REMARK  Name = C:\Qe-CaDD\Project\176870.pdb
REMARK  12 active torsions:
REMARK  status: ('A' for Active; 'I' for Inactive)
REMARK    1  A    between atoms: O1_1  and  C3_10
REMARK    2  A    between atoms: O1_1  and  C8_15
REMARK    3  A    between atoms: O2_2  and  C4_11
REMARK    4  A    between atoms: O2_2  and  C10_17
REMARK    5  A    between atoms: O3_3  and  C12_19
REMARK    6  A    between atoms: O3_3  and  C19_26
REMARK    7  A    between atoms: O4_4  and  C13_20
REMARK    8  A    between atoms: O4_4  and  C20_27
REMARK    9  A    between atoms: N1_5  and  C9_16
REMARK   10  A    between atoms: C8_15  and  C12_19
REMARK   11  A    between atoms: C10_17  and  C13_20
REMARK   12  A    between atoms: C16_23  and  C21_28
REMARK                            x       y       z     vdW  Elec       q    Type
REMARK                         _______ _______ _______ _____ _____    ______ ____
ROOT
ATOM      5  N1  UNL     1       2.483  -0.168  -1.054  0.00  0.00    +0.000 N 
ATOM      6  N2  UNL     1       0.326   3.223  -0.063  0.00  0.00    +0.000 NA
ATOM      7  N3  UNL     1       2.422   2.120  -0.508  0.00  0.00    +0.000 NA
ATOM      8  C1  UNL     1       0.344   0.889  -0.615  0.00  0.00    +0.000 C 
ATOM      9  C2  UNL     1      -0.334   2.071  -0.276  0.00  0.00    +0.000 C 
ATOM     10  C3  UNL     1      -1.743  -0.336  -0.721  0.00  0.00    +0.000 C 
ATOM     11  C4  UNL     1      -2.426   0.828  -0.386  0.00  0.00    +0.000 C 
ATOM     12  C5  UNL     1      -0.357  -0.309  -0.836  0.00  0.00    +0.000 C 
ATOM     13  C6  UNL     1       1.730   0.984  -0.715  0.00  0.00    +0.000 C 
ATOM     14  C7  UNL     1      -1.722   2.016  -0.167  0.00  0.00    +0.000 C 
ATOM     18  C11 UNL     1       1.668   3.185  -0.190  0.00  0.00    +0.000 C 
ATOM     30  H3  UNL     1       2.080  -0.688  -1.829  0.00  0.00    +0.000 HD
ENDROOT
BRANCH   5  16
ATOM     16  C9  UNL     1       3.786  -0.576  -0.730  0.00  0.00    +0.000 A 
ATOM     21  C14 UNL     1       4.359  -0.186   0.481  0.00  0.00    +0.000 A 
ATOM     22  C15 UNL     1       4.508  -1.372  -1.619  0.00  0.00    +0.000 A 
ATOM     23  C16 UNL     1       5.654  -0.592   0.802  0.00  0.00    +0.000 A 
ATOM     24  C17 UNL     1       5.803  -1.778  -1.298  0.00  0.00    +0.000 A 
ATOM     25  C18 UNL     1       6.377  -1.388  -0.088  0.00  0.00    +0.000 A 
BRANCH  23  28
ATOM     28  C21 UNL     1       6.242  -0.193   2.041  0.00  0.00    +0.000 C 
ATOM     29  C22 UNL     1       6.736   0.142   3.083  0.00  0.00    +0.000 C 
ENDBRANCH  23  28
ENDBRANCH   5  16
BRANCH  10   1
ATOM      1  O1  UNL     1      -2.416  -1.499  -0.937  0.00  0.00    +0.000 OA
BRANCH   1  15
ATOM     15  C8  UNL     1      -2.093  -2.603  -0.093  0.00  0.00    +0.000 C 
BRANCH  15  19
ATOM     19  C12 UNL     1      -3.326  -3.467   0.085  0.00  0.00    +0.000 C 
BRANCH  19   3
ATOM      3  O3  UNL     1      -4.351  -2.693   0.698  0.00  0.00    +0.000 OA
ATOM     26  C19 UNL     1      -5.542  -3.449   0.870  0.00  0.00    +0.000 C 
ENDBRANCH  19   3
ENDBRANCH  15  19
ENDBRANCH   1  15
ENDBRANCH  10   1
BRANCH  11   2
ATOM      2  O2  UNL     1      -3.783   0.825  -0.267  0.00  0.00    +0.000 OA
BRANCH   2  17
ATOM     17  C10 UNL     1      -4.355   1.749   0.656  0.00  0.00    +0.000 C 
BRANCH  17  20
ATOM     20  C13 UNL     1      -5.654   1.176   1.190  0.00  0.00    +0.000 C 
BRANCH  20   4
ATOM      4  O4  UNL     1      -6.555   0.980   0.107  0.00  0.00    +0.000 OA
ATOM     27  C20 UNL     1      -7.785   0.422   0.548  0.00  0.00    +0.000 C 
ENDBRANCH  20   4
ENDBRANCH  17  20
ENDBRANCH   2  17
ENDBRANCH  11   2
TORSDOF 10
