MODEL 1
REMARK VINA RESULT:      -8.0      0.000      0.000
REMARK  Name = C:\Qe-CaDD\Project\176870.pdb
REMARK  12 active torsions:
REMARK  status: ('A' for Active; 'I' for Inactive)
REMARK    1  A    between atoms: O1_1  and  C3_10
REMARK    2  A    between atoms: O1_1  and  C8_15
REMARK    3  A    between atoms: O2_2  and  C4_11
REMARK    4  A    between atoms: O2_2  and  C10_17
REMARK    5  A    between atoms: O3_3  and  C12_19
REMARK    6  A    between atoms: O3_3  and  C19_26
REMARK    7  A    between atoms: O4_4  and  C13_20
REMARK    8  A    between atoms: O4_4  and  C20_27
REMARK    9  A    between atoms: N1_5  and  C9_16
REMARK   10  A    between atoms: C8_15  and  C12_19
REMARK   11  A    between atoms: C10_17  and  C13_20
REMARK   12  A    between atoms: C16_23  and  C21_28
REMARK                            x       y       z     vdW  Elec       q    Type
REMARK                         _______ _______ _______ _____ _____    ______ ____
ROOT
ATOM      5  N1  UNL     1      26.627   3.953  49.232  0.00  0.00    +0.000 N 
ATOM      6  N2  UNL     1      22.810   3.104  50.589  0.00  0.00    +0.000 NA
ATOM      7  N3  UNL     1      24.306   4.335  49.156  0.00  0.00    +0.000 NA
ATOM      8  C1  UNL     1      25.169   2.685  50.698  0.00  0.00    +0.000 C 
ATOM      9  C2  UNL     1      23.852   2.440  51.119  0.00  0.00    +0.000 C 
ATOM     10  C3  UNL     1      26.024   1.029  52.246  0.00  0.00    +0.000 C 
ATOM     11  C4  UNL     1      24.724   0.777  52.671  0.00  0.00    +0.000 C 
ATOM     12  C5  UNL     1      26.250   1.984  51.259  0.00  0.00    +0.000 C 
ATOM     13  C6  UNL     1      25.326   3.651  49.707  0.00  0.00    +0.000 C 
ATOM     14  C7  UNL     1      23.654   1.479  52.109  0.00  0.00    +0.000 C 
ATOM     18  C11 UNL     1      23.093   4.016  49.637  0.00  0.00    +0.000 C 
ATOM     30  H3  UNL     1      27.181   3.122  49.044  0.00  0.00    +0.000 HD
ENDROOT
BRANCH   5  16
ATOM     16  C9  UNL     1      27.197   5.128  48.716  0.00  0.00    +0.000 A 
ATOM     21  C14 UNL     1      28.549   5.155  48.373  0.00  0.00    +0.000 A 
ATOM     22  C15 UNL     1      26.411   6.267  48.547  0.00  0.00    +0.000 A 
ATOM     23  C16 UNL     1      29.115   6.323  47.861  0.00  0.00    +0.000 A 
ATOM     24  C17 UNL     1      26.976   7.435  48.035  0.00  0.00    +0.000 A 
ATOM     25  C18 UNL     1      28.328   7.464  47.692  0.00  0.00    +0.000 A 
BRANCH  23  28
ATOM     28  C21 UNL     1      30.499   6.352  47.510  0.00  0.00    +0.000 C 
ATOM     29  C22 UNL     1      31.662   6.378  47.215  0.00  0.00    +0.000 C 
ENDBRANCH  23  28
ENDBRANCH   5  16
BRANCH  10   1
ATOM      1  O1  UNL     1      27.075   0.353  52.784  0.00  0.00    +0.000 OA
BRANCH   1  15
ATOM     15  C8  UNL     1      27.979   1.099  53.598  0.00  0.00    +0.000 C 
BRANCH  15  19
ATOM     19  C12 UNL     1      28.369   0.261  54.800  0.00  0.00    +0.000 C 
BRANCH  19   3
ATOM      3  O3  UNL     1      28.782  -1.026  54.355  0.00  0.00    +0.000 OA
ATOM     26  C19 UNL     1      30.038  -0.970  53.693  0.00  0.00    +0.000 C 
ENDBRANCH  19   3
ENDBRANCH  15  19
ENDBRANCH   1  15
ENDBRANCH  10   1
BRANCH  11   2
ATOM      2  O2  UNL     1      24.479  -0.152  53.636  0.00  0.00    +0.000 OA
BRANCH   2  17
ATOM     17  C10 UNL     1      23.133  -0.597  53.781  0.00  0.00    +0.000 C 
BRANCH  17  20
ATOM     20  C13 UNL     1      22.974  -1.266  55.133  0.00  0.00    +0.000 C 
BRANCH  20   4
ATOM      4  O4  UNL     1      21.693  -1.879  55.201  0.00  0.00    +0.000 OA
ATOM     27  C20 UNL     1      20.850  -1.440  54.145  0.00  0.00    +0.000 C 
ENDBRANCH  20   4
ENDBRANCH  17  20
ENDBRANCH   2  17
ENDBRANCH  11   2
TORSDOF 10
ENDMDL
MODEL 2
REMARK VINA RESULT:      -7.8      0.693      1.815
REMARK  Name = C:\Qe-CaDD\Project\176870.pdb
REMARK  12 active torsions:
REMARK  status: ('A' for Active; 'I' for Inactive)
REMARK    1  A    between atoms: O1_1  and  C3_10
REMARK    2  A    between atoms: O1_1  and  C8_15
REMARK    3  A    between atoms: O2_2  and  C4_11
REMARK    4  A    between atoms: O2_2  and  C10_17
REMARK    5  A    between atoms: O3_3  and  C12_19
REMARK    6  A    between atoms: O3_3  and  C19_26
REMARK    7  A    between atoms: O4_4  and  C13_20
REMARK    8  A    between atoms: O4_4  and  C20_27
REMARK    9  A    between atoms: N1_5  and  C9_16
REMARK   10  A    between atoms: C8_15  and  C12_19
REMARK   11  A    between atoms: C10_17  and  C13_20
REMARK   12  A    between atoms: C16_23  and  C21_28
REMARK                            x       y       z     vdW  Elec       q    Type
REMARK                         _______ _______ _______ _____ _____    ______ ____
ROOT
ATOM      5  N1  UNL     1      26.788   4.104  49.147  0.00  0.00    +0.000 N 
ATOM      6  N2  UNL     1      22.987   3.433  50.641  0.00  0.00    +0.000 NA
ATOM      7  N3  UNL     1      24.484   4.579  49.140  0.00  0.00    +0.000 NA
ATOM      8  C1  UNL     1      25.329   2.920  50.682  0.00  0.00    +0.000 C 
ATOM      9  C2  UNL     1      24.018   2.735  51.148  0.00  0.00    +0.000 C 
ATOM     10  C3  UNL     1      26.168   1.256  52.229  0.00  0.00    +0.000 C 
ATOM     11  C4  UNL     1      24.873   1.063  52.700  0.00  0.00    +0.000 C 
ATOM     12  C5  UNL     1      26.399   2.184  51.220  0.00  0.00    +0.000 C 
ATOM     13  C6  UNL     1      25.493   3.863  49.670  0.00  0.00    +0.000 C 
ATOM     14  C7  UNL     1      23.814   1.799  52.160  0.00  0.00    +0.000 C 
ATOM     18  C11 UNL     1      23.275   4.317  49.664  0.00  0.00    +0.000 C 
ATOM     30  H3  UNL     1      27.302   3.248  48.956  0.00  0.00    +0.000 HD
ENDROOT
BRANCH   5  16
ATOM     16  C9  UNL     1      27.388   5.246  48.594  0.00  0.00    +0.000 A 
ATOM     21  C14 UNL     1      26.615   6.373  48.311  0.00  0.00    +0.000 A 
ATOM     22  C15 UNL     1      28.757   5.254  48.327  0.00  0.00    +0.000 A 
ATOM     23  C16 UNL     1      27.212   7.507  47.761  0.00  0.00    +0.000 A 
ATOM     24  C17 UNL     1      29.354   6.388  47.777  0.00  0.00    +0.000 A 
ATOM     25  C18 UNL     1      28.582   7.514  47.493  0.00  0.00    +0.000 A 
BRANCH  23  28
ATOM     28  C21 UNL     1      26.423   8.661  47.470  0.00  0.00    +0.000 C 
ATOM     29  C22 UNL     1      25.759   9.631  47.226  0.00  0.00    +0.000 C 
ENDBRANCH  23  28
ENDBRANCH   5  16
BRANCH  10   1
ATOM      1  O1  UNL     1      27.208   0.546  52.745  0.00  0.00    +0.000 OA
BRANCH   1  15
ATOM     15  C8  UNL     1      28.115   1.247  53.594  0.00  0.00    +0.000 C 
BRANCH  15  19
ATOM     19  C12 UNL     1      28.520   0.342  54.741  0.00  0.00    +0.000 C 
BRANCH  19   3
ATOM      3  O3  UNL     1      28.694  -0.982  54.249  0.00  0.00    +0.000 OA
ATOM     26  C19 UNL     1      29.993  -1.169  53.706  0.00  0.00    +0.000 C 
ENDBRANCH  19   3
ENDBRANCH  15  19
ENDBRANCH   1  15
ENDBRANCH  10   1
BRANCH  11   2
ATOM      2  O2  UNL     1      24.623   0.160  53.688  0.00  0.00    +0.000 OA
BRANCH   2  17
ATOM     17  C10 UNL     1      23.410  -0.584  53.595  0.00  0.00    +0.000 C 
BRANCH  17  20
ATOM     20  C13 UNL     1      23.092  -1.184  54.951  0.00  0.00    +0.000 C 
BRANCH  20   4
ATOM      4  O4  UNL     1      21.683  -1.168  55.147  0.00  0.00    +0.000 OA
ATOM     27  C20 UNL     1      21.090  -0.018  54.561  0.00  0.00    +0.000 C 
ENDBRANCH  20   4
ENDBRANCH  17  20
ENDBRANCH   2  17
ENDBRANCH  11   2
TORSDOF 10
ENDMDL
MODEL 3
REMARK VINA RESULT:      -7.5      3.593      6.407
REMARK  Name = C:\Qe-CaDD\Project\176870.pdb
REMARK  12 active torsions:
REMARK  status: ('A' for Active; 'I' for Inactive)
REMARK    1  A    between atoms: O1_1  and  C3_10
REMARK    2  A    between atoms: O1_1  and  C8_15
REMARK    3  A    between atoms: O2_2  and  C4_11
REMARK    4  A    between atoms: O2_2  and  C10_17
REMARK    5  A    between atoms: O3_3  and  C12_19
REMARK    6  A    between atoms: O3_3  and  C19_26
REMARK    7  A    between atoms: O4_4  and  C13_20
REMARK    8  A    between atoms: O4_4  and  C20_27
REMARK    9  A    between atoms: N1_5  and  C9_16
REMARK   10  A    between atoms: C8_15  and  C12_19
REMARK   11  A    between atoms: C10_17  and  C13_20
REMARK   12  A    between atoms: C16_23  and  C21_28
REMARK                            x       y       z     vdW  Elec       q    Type
REMARK                         _______ _______ _______ _____ _____    ______ ____
ROOT
ATOM      5  N1  UNL     1      25.254   1.411  52.280  0.00  0.00    +0.000 N 
ATOM      6  N2  UNL     1      23.271   4.623  50.581  0.00  0.00    +0.000 NA
ATOM      7  N3  UNL     1      25.297   3.390  51.008  0.00  0.00    +0.000 NA
ATOM      8  C1  UNL     1      23.183   2.611  51.884  0.00  0.00    +0.000 C 
ATOM      9  C2  UNL     1      22.565   3.721  51.285  0.00  0.00    +0.000 C 
ATOM     10  C3  UNL     1      21.060   1.838  52.756  0.00  0.00    +0.000 C 
ATOM     11  C4  UNL     1      20.436   2.933  52.168  0.00  0.00    +0.000 C 
ATOM     12  C5  UNL     1      22.434   1.674  52.616  0.00  0.00    +0.000 C 
ATOM     13  C6  UNL     1      24.560   2.505  51.705  0.00  0.00    +0.000 C 
ATOM     14  C7  UNL     1      21.188   3.861  51.441  0.00  0.00    +0.000 C 
ATOM     18  C11 UNL     1      24.599   4.409  50.481  0.00  0.00    +0.000 C 
ATOM     30  H3  UNL     1      24.781   0.523  52.131  0.00  0.00    +0.000 HD
ENDROOT
BRANCH   5  16
ATOM     16  C9  UNL     1      26.564   1.268  52.760  0.00  0.00    +0.000 A 
ATOM     21  C14 UNL     1      27.155   0.005  52.811  0.00  0.00    +0.000 A 
ATOM     22  C15 UNL     1      27.276   2.389  53.185  0.00  0.00    +0.000 A 
ATOM     23  C16 UNL     1      28.458  -0.136  53.288  0.00  0.00    +0.000 A 
ATOM     24  C17 UNL     1      28.579   2.248  53.663  0.00  0.00    +0.000 A 
ATOM     25  C18 UNL     1      29.171   0.986  53.715  0.00  0.00    +0.000 A 
BRANCH  23  28
ATOM     28  C21 UNL     1      29.064  -1.429  53.341  0.00  0.00    +0.000 C 
ATOM     29  C22 UNL     1      29.573  -2.515  53.387  0.00  0.00    +0.000 C 
ENDBRANCH  23  28
ENDBRANCH   5  16
BRANCH  10   1
ATOM      1  O1  UNL     1      20.340   0.927  53.466  0.00  0.00    +0.000 OA
BRANCH   1  15
ATOM     15  C8  UNL     1      21.025   0.220  54.499  0.00  0.00    +0.000 C 
BRANCH  15  19
ATOM     19  C12 UNL     1      20.952  -1.267  54.212  0.00  0.00    +0.000 C 
BRANCH  19   3
ATOM      3  O3  UNL     1      21.746  -1.963  55.166  0.00  0.00    +0.000 OA
ATOM     26  C19 UNL     1      23.027  -1.365  55.313  0.00  0.00    +0.000 C 
ENDBRANCH  19   3
ENDBRANCH  15  19
ENDBRANCH   1  15
ENDBRANCH  10   1
BRANCH  11   2
ATOM      2  O2  UNL     1      19.092   3.114  52.292  0.00  0.00    +0.000 OA
BRANCH   2  17
ATOM     17  C10 UNL     1      18.345   3.274  51.088  0.00  0.00    +0.000 C 
BRANCH  17  20
ATOM     20  C13 UNL     1      18.079   1.908  50.485  0.00  0.00    +0.000 C 
BRANCH  20   4
ATOM      4  O4  UNL     1      17.904   2.047  49.080  0.00  0.00    +0.000 OA
ATOM     27  C20 UNL     1      18.714   3.089  48.555  0.00  0.00    +0.000 C 
ENDBRANCH  20   4
ENDBRANCH  17  20
ENDBRANCH   2  17
ENDBRANCH  11   2
TORSDOF 10
ENDMDL
MODEL 4
REMARK VINA RESULT:      -7.4      2.127      3.018
REMARK  Name = C:\Qe-CaDD\Project\176870.pdb
REMARK  12 active torsions:
REMARK  status: ('A' for Active; 'I' for Inactive)
REMARK    1  A    between atoms: O1_1  and  C3_10
REMARK    2  A    between atoms: O1_1  and  C8_15
REMARK    3  A    between atoms: O2_2  and  C4_11
REMARK    4  A    between atoms: O2_2  and  C10_17
REMARK    5  A    between atoms: O3_3  and  C12_19
REMARK    6  A    between atoms: O3_3  and  C19_26
REMARK    7  A    between atoms: O4_4  and  C13_20
REMARK    8  A    between atoms: O4_4  and  C20_27
REMARK    9  A    between atoms: N1_5  and  C9_16
REMARK   10  A    between atoms: C8_15  and  C12_19
REMARK   11  A    between atoms: C10_17  and  C13_20
REMARK   12  A    between atoms: C16_23  and  C21_28
REMARK                            x       y       z     vdW  Elec       q    Type
REMARK                         _______ _______ _______ _____ _____    ______ ____
ROOT
ATOM      5  N1  UNL     1      24.865   3.250  49.676  0.00  0.00    +0.000 N 
ATOM      6  N2  UNL     1      21.190   1.623  48.685  0.00  0.00    +0.000 NA
ATOM      7  N3  UNL     1      23.104   2.981  48.139  0.00  0.00    +0.000 NA
ATOM      8  C1  UNL     1      22.963   1.872  50.282  0.00  0.00    +0.000 C 
ATOM      9  C2  UNL     1      21.720   1.348  49.891  0.00  0.00    +0.000 C 
ATOM     10  C3  UNL     1      22.813   0.755  52.426  0.00  0.00    +0.000 C 
ATOM     11  C4  UNL     1      21.581   0.231  52.051  0.00  0.00    +0.000 C 
ATOM     12  C5  UNL     1      23.507   1.577  51.544  0.00  0.00    +0.000 C 
ATOM     13  C6  UNL     1      23.606   2.685  49.352  0.00  0.00    +0.000 C 
ATOM     14  C7  UNL     1      21.046   0.529  50.794  0.00  0.00    +0.000 C 
ATOM     18  C11 UNL     1      21.911   2.424  47.875  0.00  0.00    +0.000 C 
ATOM     30  H3  UNL     1      25.501   2.578  50.099  0.00  0.00    +0.000 HD
ENDROOT
BRANCH   5  16
ATOM     16  C9  UNL     1      25.495   4.443  49.290  0.00  0.00    +0.000 A 
ATOM     21  C14 UNL     1      26.855   4.447  48.982  0.00  0.00    +0.000 A 
ATOM     22  C15 UNL     1      24.759   5.626  49.215  0.00  0.00    +0.000 A 
ATOM     23  C16 UNL     1      27.480   5.633  48.598  0.00  0.00    +0.000 A 
ATOM     24  C17 UNL     1      25.384   6.812  48.832  0.00  0.00    +0.000 A 
ATOM     25  C18 UNL     1      26.744   6.817  48.524  0.00  0.00    +0.000 A 
BRANCH  23  28
ATOM     28  C21 UNL     1      28.873   5.638  48.283  0.00  0.00    +0.000 C 
ATOM     29  C22 UNL     1      30.044   5.643  48.018  0.00  0.00    +0.000 C 
ENDBRANCH  23  28
ENDBRANCH   5  16
BRANCH  10   1
ATOM      1  O1  UNL     1      23.345   0.473  53.647  0.00  0.00    +0.000 OA
BRANCH   1  15
ATOM     15  C8  UNL     1      23.977  -0.797  53.802  0.00  0.00    +0.000 C 
BRANCH  15  19
ATOM     19  C12 UNL     1      25.448  -0.663  53.460  0.00  0.00    +0.000 C 
BRANCH  19   3
ATOM      3  O3  UNL     1      26.217  -0.823  54.646  0.00  0.00    +0.000 OA
ATOM     26  C19 UNL     1      27.136   0.247  54.820  0.00  0.00    +0.000 C 
ENDBRANCH  19   3
ENDBRANCH  15  19
ENDBRANCH   1  15
ENDBRANCH  10   1
BRANCH  11   2
ATOM      2  O2  UNL     1      20.884  -0.576  52.899  0.00  0.00    +0.000 OA
BRANCH   2  17
ATOM     17  C10 UNL     1      19.570  -0.155  53.260  0.00  0.00    +0.000 C 
BRANCH  17  20
ATOM     20  C13 UNL     1      18.672  -1.372  53.368  0.00  0.00    +0.000 C 
BRANCH  20   4
ATOM      4  O4  UNL     1      17.334  -0.944  53.593  0.00  0.00    +0.000 OA
ATOM     27  C20 UNL     1      16.476  -1.342  52.534  0.00  0.00    +0.000 C 
ENDBRANCH  20   4
ENDBRANCH  17  20
ENDBRANCH   2  17
ENDBRANCH  11   2
TORSDOF 10
ENDMDL
MODEL 5
REMARK VINA RESULT:      -7.4      4.681      7.346
REMARK  Name = C:\Qe-CaDD\Project\176870.pdb
REMARK  12 active torsions:
REMARK  status: ('A' for Active; 'I' for Inactive)
REMARK    1  A    between atoms: O1_1  and  C3_10
REMARK    2  A    between atoms: O1_1  and  C8_15
REMARK    3  A    between atoms: O2_2  and  C4_11
REMARK    4  A    between atoms: O2_2  and  C10_17
REMARK    5  A    between atoms: O3_3  and  C12_19
REMARK    6  A    between atoms: O3_3  and  C19_26
REMARK    7  A    between atoms: O4_4  and  C13_20
REMARK    8  A    between atoms: O4_4  and  C20_27
REMARK    9  A    between atoms: N1_5  and  C9_16
REMARK   10  A    between atoms: C8_15  and  C12_19
REMARK   11  A    between atoms: C10_17  and  C13_20
REMARK   12  A    between atoms: C16_23  and  C21_28
REMARK                            x       y       z     vdW  Elec       q    Type
REMARK                         _______ _______ _______ _____ _____    ______ ____
ROOT
ATOM      5  N1  UNL     1      24.380   0.308  52.931  0.00  0.00    +0.000 N 
ATOM      6  N2  UNL     1      20.963  -1.281  54.644  0.00  0.00    +0.000 NA
ATOM      7  N3  UNL     1      23.332  -0.841  54.697  0.00  0.00    +0.000 NA
ATOM      8  C1  UNL     1      21.993  -0.108  52.823  0.00  0.00    +0.000 C 
ATOM      9  C2  UNL     1      20.868  -0.666  53.452  0.00  0.00    +0.000 C 
ATOM     10  C3  UNL     1      20.642   0.625  50.950  0.00  0.00    +0.000 C 
ATOM     11  C4  UNL     1      19.521   0.076  51.563  0.00  0.00    +0.000 C 
ATOM     12  C5  UNL     1      21.880   0.534  51.577  0.00  0.00    +0.000 C 
ATOM     13  C6  UNL     1      23.201  -0.231  53.504  0.00  0.00    +0.000 C 
ATOM     14  C7  UNL     1      19.640  -0.561  52.801  0.00  0.00    +0.000 C 
ATOM     18  C11 UNL     1      22.190  -1.336  55.201  0.00  0.00    +0.000 C 
ATOM     30  H3  UNL     1      24.246   1.245  52.562  0.00  0.00    +0.000 HD
ENDROOT
BRANCH   5  16
ATOM     16  C9  UNL     1      25.730  -0.067  53.015  0.00  0.00    +0.000 A 
ATOM     21  C14 UNL     1      26.669   0.820  53.543  0.00  0.00    +0.000 A 
ATOM     22  C15 UNL     1      26.132  -1.326  52.571  0.00  0.00    +0.000 A 
ATOM     23  C16 UNL     1      28.010   0.446  53.626  0.00  0.00    +0.000 A 
ATOM     24  C17 UNL     1      27.473  -1.700  52.654  0.00  0.00    +0.000 A 
ATOM     25  C18 UNL     1      28.413  -0.814  53.181  0.00  0.00    +0.000 A 
BRANCH  23  28
ATOM     28  C21 UNL     1      28.973   1.353  54.165  0.00  0.00    +0.000 C 
ATOM     29  C22 UNL     1      29.783   2.116  54.618  0.00  0.00    +0.000 C 
ENDBRANCH  23  28
ENDBRANCH   5  16
BRANCH  10   1
ATOM      1  O1  UNL     1      20.540   1.248  49.744  0.00  0.00    +0.000 OA
BRANCH   1  15
ATOM     15  C8  UNL     1      21.610   1.055  48.820  0.00  0.00    +0.000 C 
BRANCH  15  19
ATOM     19  C12 UNL     1      22.006   2.396  48.234  0.00  0.00    +0.000 C 
BRANCH  19   3
ATOM      3  O3  UNL     1      23.278   2.771  48.750  0.00  0.00    +0.000 OA
ATOM     26  C19 UNL     1      23.150   3.624  49.880  0.00  0.00    +0.000 C 
ENDBRANCH  19   3
ENDBRANCH  15  19
ENDBRANCH   1  15
ENDBRANCH  10   1
BRANCH  11   2
ATOM      2  O2  UNL     1      18.299   0.152  50.966  0.00  0.00    +0.000 OA
BRANCH   2  17
ATOM     17  C10 UNL     1      17.288   0.889  51.650  0.00  0.00    +0.000 C 
BRANCH  17  20
ATOM     20  C13 UNL     1      17.269   2.311  51.122  0.00  0.00    +0.000 C 
BRANCH  20   4
ATOM      4  O4  UNL     1      18.085   3.127  51.955  0.00  0.00    +0.000 OA
ATOM     27  C20 UNL     1      18.921   3.982  51.187  0.00  0.00    +0.000 C 
ENDBRANCH  20   4
ENDBRANCH  17  20
ENDBRANCH   2  17
ENDBRANCH  11   2
TORSDOF 10
ENDMDL
MODEL 6
REMARK VINA RESULT:      -7.3      3.883      8.362
REMARK  Name = C:\Qe-CaDD\Project\176870.pdb
REMARK  12 active torsions:
REMARK  status: ('A' for Active; 'I' for Inactive)
REMARK    1  A    between atoms: O1_1  and  C3_10
REMARK    2  A    between atoms: O1_1  and  C8_15
REMARK    3  A    between atoms: O2_2  and  C4_11
REMARK    4  A    between atoms: O2_2  and  C10_17
REMARK    5  A    between atoms: O3_3  and  C12_19
REMARK    6  A    between atoms: O3_3  and  C19_26
REMARK    7  A    between atoms: O4_4  and  C13_20
REMARK    8  A    between atoms: O4_4  and  C20_27
REMARK    9  A    between atoms: N1_5  and  C9_16
REMARK   10  A    between atoms: C8_15  and  C12_19
REMARK   11  A    between atoms: C10_17  and  C13_20
REMARK   12  A    between atoms: C16_23  and  C21_28
REMARK                            x       y       z     vdW  Elec       q    Type
REMARK                         _______ _______ _______ _____ _____    ______ ____
ROOT
ATOM      5  N1  UNL     1      25.557   3.152  51.569  0.00  0.00    +0.000 N 
ATOM      6  N2  UNL     1      22.432   5.606  50.410  0.00  0.00    +0.000 NA
ATOM      7  N3  UNL     1      23.299   3.794  51.741  0.00  0.00    +0.000 NA
ATOM      8  C1  UNL     1      24.739   4.983  50.204  0.00  0.00    +0.000 C 
ATOM      9  C2  UNL     1      23.641   5.784  49.851  0.00  0.00    +0.000 C 
ATOM     10  C3  UNL     1      26.173   6.180  48.663  0.00  0.00    +0.000 C 
ATOM     11  C4  UNL     1      25.095   6.981  48.305  0.00  0.00    +0.000 C 
ATOM     12  C5  UNL     1      25.999   5.179  49.613  0.00  0.00    +0.000 C 
ATOM     13  C6  UNL     1      24.497   4.000  51.161  0.00  0.00    +0.000 C 
ATOM     14  C7  UNL     1      23.844   6.779  48.896  0.00  0.00    +0.000 C 
ATOM     18  C11 UNL     1      22.326   4.620  51.324  0.00  0.00    +0.000 C 
ATOM     30  H3  UNL     1      26.418   3.658  51.753  0.00  0.00    +0.000 HD
ENDROOT
BRANCH   5  16
ATOM     16  C9  UNL     1      25.584   1.825  52.027  0.00  0.00    +0.000 A 
ATOM     21  C14 UNL     1      24.506   1.313  52.750  0.00  0.00    +0.000 A 
ATOM     22  C15 UNL     1      26.691   1.019  51.760  0.00  0.00    +0.000 A 
ATOM     23  C16 UNL     1      24.535  -0.005  53.204  0.00  0.00    +0.000 A 
ATOM     24  C17 UNL     1      26.719  -0.299  52.214  0.00  0.00    +0.000 A 
ATOM     25  C18 UNL     1      25.642  -0.812  52.937  0.00  0.00    +0.000 A 
BRANCH  23  28
ATOM     28  C21 UNL     1      23.432  -0.530  53.944  0.00  0.00    +0.000 C 
ATOM     29  C22 UNL     1      22.505  -0.972  54.567  0.00  0.00    +0.000 C 
ENDBRANCH  23  28
ENDBRANCH   5  16
BRANCH  10   1
ATOM      1  O1  UNL     1      27.396   6.366  48.095  0.00  0.00    +0.000 OA
BRANCH   1  15
ATOM     15  C8  UNL     1      28.413   5.419  48.419  0.00  0.00    +0.000 C 
BRANCH  15  19
ATOM     19  C12 UNL     1      29.768   6.090  48.303  0.00  0.00    +0.000 C 
BRANCH  19   3
ATOM      3  O3  UNL     1      30.780   5.159  48.669  0.00  0.00    +0.000 OA
ATOM     26  C19 UNL     1      31.527   4.730  47.538  0.00  0.00    +0.000 C 
ENDBRANCH  19   3
ENDBRANCH  15  19
ENDBRANCH   1  15
ENDBRANCH  10   1
BRANCH  11   2
ATOM      2  O2  UNL     1      25.242   7.967  47.376  0.00  0.00    +0.000 OA
BRANCH   2  17
ATOM     17  C10 UNL     1      24.943   9.298  47.791  0.00  0.00    +0.000 C 
BRANCH  17  20
ATOM     20  C13 UNL     1      26.214   9.958  48.291  0.00  0.00    +0.000 C 
BRANCH  20   4
ATOM      4  O4  UNL     1      26.224   9.929  49.713  0.00  0.00    +0.000 OA
ATOM     27  C20 UNL     1      27.393   9.293  50.211  0.00  0.00    +0.000 C 
ENDBRANCH  20   4
ENDBRANCH  17  20
ENDBRANCH   2  17
ENDBRANCH  11   2
TORSDOF 10
ENDMDL
MODEL 7
REMARK VINA RESULT:      -7.1      3.599      8.618
REMARK  Name = C:\Qe-CaDD\Project\176870.pdb
REMARK  12 active torsions:
REMARK  status: ('A' for Active; 'I' for Inactive)
REMARK    1  A    between atoms: O1_1  and  C3_10
REMARK    2  A    between atoms: O1_1  and  C8_15
REMARK    3  A    between atoms: O2_2  and  C4_11
REMARK    4  A    between atoms: O2_2  and  C10_17
REMARK    5  A    between atoms: O3_3  and  C12_19
REMARK    6  A    between atoms: O3_3  and  C19_26
REMARK    7  A    between atoms: O4_4  and  C13_20
REMARK    8  A    between atoms: O4_4  and  C20_27
REMARK    9  A    between atoms: N1_5  and  C9_16
REMARK   10  A    between atoms: C8_15  and  C12_19
REMARK   11  A    between atoms: C10_17  and  C13_20
REMARK   12  A    between atoms: C16_23  and  C21_28
REMARK                            x       y       z     vdW  Elec       q    Type
REMARK                         _______ _______ _______ _____ _____    ______ ____
ROOT
ATOM      5  N1  UNL     1      20.532   0.565  51.611  0.00  0.00    +0.000 N 
ATOM      6  N2  UNL     1      22.571  -1.292  54.698  0.00  0.00    +0.000 NA
ATOM      7  N3  UNL     1      20.530  -0.837  53.500  0.00  0.00    +0.000 NA
ATOM      8  C1  UNL     1      22.617   0.144  52.777  0.00  0.00    +0.000 C 
ATOM      9  C2  UNL     1      23.255  -0.511  53.843  0.00  0.00    +0.000 C 
ATOM     10  C3  UNL     1      24.714   1.122  52.059  0.00  0.00    +0.000 C 
ATOM     11  C4  UNL     1      25.357   0.478  53.111  0.00  0.00    +0.000 C 
ATOM     12  C5  UNL     1      23.343   0.957  51.890  0.00  0.00    +0.000 C 
ATOM     13  C6  UNL     1      21.245  -0.063  52.663  0.00  0.00    +0.000 C 
ATOM     14  C7  UNL     1      24.629  -0.329  53.990  0.00  0.00    +0.000 C 
ATOM     18  C11 UNL     1      21.246  -1.412  54.481  0.00  0.00    +0.000 C 
ATOM     30  H3  UNL     1      21.005   0.488  50.714  0.00  0.00    +0.000 HD
ENDROOT
BRANCH   5  16
ATOM     16  C9  UNL     1      19.209   1.019  51.503  0.00  0.00    +0.000 A 
ATOM     21  C14 UNL     1      18.180   0.114  51.238  0.00  0.00    +0.000 A 
ATOM     22  C15 UNL     1      18.922   2.374  51.661  0.00  0.00    +0.000 A 
ATOM     23  C16 UNL     1      16.865   0.566  51.131  0.00  0.00    +0.000 A 
ATOM     24  C17 UNL     1      17.607   2.827  51.555  0.00  0.00    +0.000 A 
ATOM     25  C18 UNL     1      16.578   1.923  51.289  0.00  0.00    +0.000 A 
BRANCH  23  28
ATOM     28  C21 UNL     1      15.811  -0.358  50.860  0.00  0.00    +0.000 C 
ATOM     29  C22 UNL     1      14.924  -1.135  50.632  0.00  0.00    +0.000 C 
ENDBRANCH  23  28
ENDBRANCH   5  16
BRANCH  10   1
ATOM      1  O1  UNL     1      25.411   1.909  51.196  0.00  0.00    +0.000 OA
BRANCH   1  15
ATOM     15  C8  UNL     1      25.020   3.278  51.104  0.00  0.00    +0.000 C 
BRANCH  15  19
ATOM     19  C12 UNL     1      24.940   3.673  49.643  0.00  0.00    +0.000 C 
BRANCH  19   3
ATOM      3  O3  UNL     1      23.796   3.061  49.058  0.00  0.00    +0.000 OA
ATOM     26  C19 UNL     1      22.606   3.767  49.379  0.00  0.00    +0.000 C 
ENDBRANCH  19   3
ENDBRANCH  15  19
ENDBRANCH   1  15
ENDBRANCH  10   1
BRANCH  11   2
ATOM      2  O2  UNL     1      26.699   0.626  53.297  0.00  0.00    +0.000 OA
BRANCH   2  17
ATOM     17  C10 UNL     1      27.142   0.914  54.621  0.00  0.00    +0.000 C 
BRANCH  17  20
ATOM     20  C13 UNL     1      28.409   0.129  54.901  0.00  0.00    +0.000 C 
BRANCH  20   4
ATOM      4  O4  UNL     1      28.437  -1.022  54.067  0.00  0.00    +0.000 OA
ATOM     27  C20 UNL     1      29.720  -1.214  53.487  0.00  0.00    +0.000 C 
ENDBRANCH  20   4
ENDBRANCH  17  20
ENDBRANCH   2  17
ENDBRANCH  11   2
TORSDOF 10
ENDMDL
MODEL 8
REMARK VINA RESULT:      -7.0      4.413      7.087
REMARK  Name = C:\Qe-CaDD\Project\176870.pdb
REMARK  12 active torsions:
REMARK  status: ('A' for Active; 'I' for Inactive)
REMARK    1  A    between atoms: O1_1  and  C3_10
REMARK    2  A    between atoms: O1_1  and  C8_15
REMARK    3  A    between atoms: O2_2  and  C4_11
REMARK    4  A    between atoms: O2_2  and  C10_17
REMARK    5  A    between atoms: O3_3  and  C12_19
REMARK    6  A    between atoms: O3_3  and  C19_26
REMARK    7  A    between atoms: O4_4  and  C13_20
REMARK    8  A    between atoms: O4_4  and  C20_27
REMARK    9  A    between atoms: N1_5  and  C9_16
REMARK   10  A    between atoms: C8_15  and  C12_19
REMARK   11  A    between atoms: C10_17  and  C13_20
REMARK   12  A    between atoms: C16_23  and  C21_28
REMARK                            x       y       z     vdW  Elec       q    Type
REMARK                         _______ _______ _______ _____ _____    ______ ____
ROOT
ATOM      5  N1  UNL     1      25.236   1.619  52.794  0.00  0.00    +0.000 N 
ATOM      6  N2  UNL     1      21.867  -0.763  53.118  0.00  0.00    +0.000 NA
ATOM      7  N3  UNL     1      24.060  -0.110  53.874  0.00  0.00    +0.000 NA
ATOM      8  C1  UNL     1      23.032   1.003  51.989  0.00  0.00    +0.000 C 
ATOM      9  C2  UNL     1      21.916   0.166  52.147  0.00  0.00    +0.000 C 
ATOM     10  C3  UNL     1      21.995   2.112  50.102  0.00  0.00    +0.000 C 
ATOM     11  C4  UNL     1      20.883   1.290  50.249  0.00  0.00    +0.000 C 
ATOM     12  C5  UNL     1      23.072   1.971  50.971  0.00  0.00    +0.000 C 
ATOM     13  C6  UNL     1      24.076   0.811  52.892  0.00  0.00    +0.000 C 
ATOM     14  C7  UNL     1      20.851   0.328  51.264  0.00  0.00    +0.000 C 
ATOM     18  C11 UNL     1      22.941  -0.851  53.928  0.00  0.00    +0.000 C 
ATOM     30  H3  UNL     1      25.021   2.604  52.665  0.00  0.00    +0.000 HD
ENDROOT
BRANCH   5  16
ATOM     16  C9  UNL     1      26.583   1.382  53.109  0.00  0.00    +0.000 A 
ATOM     21  C14 UNL     1      27.094   0.084  53.060  0.00  0.00    +0.000 A 
ATOM     22  C15 UNL     1      27.411   2.444  53.471  0.00  0.00    +0.000 A 
ATOM     23  C16 UNL     1      28.433  -0.150  53.372  0.00  0.00    +0.000 A 
ATOM     24  C17 UNL     1      28.750   2.210  53.784  0.00  0.00    +0.000 A 
ATOM     25  C18 UNL     1      29.262   0.913  53.736  0.00  0.00    +0.000 A 
BRANCH  23  28
ATOM     28  C21 UNL     1      28.957  -1.477  53.323  0.00  0.00    +0.000 C 
ATOM     29  C22 UNL     1      29.398  -2.594  53.281  0.00  0.00    +0.000 C 
ENDBRANCH  23  28
ENDBRANCH   5  16
BRANCH  10   1
ATOM      1  O1  UNL     1      22.039   3.052  49.119  0.00  0.00    +0.000 OA
BRANCH   1  15
ATOM     15  C8  UNL     1      23.330   3.472  48.679  0.00  0.00    +0.000 C 
BRANCH  15  19
ATOM     19  C12 UNL     1      23.420   4.982  48.780  0.00  0.00    +0.000 C 
BRANCH  19   3
ATOM      3  O3  UNL     1      22.783   5.406  49.980  0.00  0.00    +0.000 OA
ATOM     26  C19 UNL     1      23.733   5.753  50.979  0.00  0.00    +0.000 C 
ENDBRANCH  19   3
ENDBRANCH  15  19
ENDBRANCH   1  15
ENDBRANCH  10   1
BRANCH  11   2
ATOM      2  O2  UNL     1      19.817   1.410  49.409  0.00  0.00    +0.000 OA
BRANCH   2  17
ATOM     17  C10 UNL     1      18.612   1.934  49.962  0.00  0.00    +0.000 C 
BRANCH  17  20
ATOM     20  C13 UNL     1      18.363   3.315  49.388  0.00  0.00    +0.000 C 
BRANCH  20   4
ATOM      4  O4  UNL     1      18.831   4.293  50.309  0.00  0.00    +0.000 OA
ATOM     27  C20 UNL     1      19.285   5.462  49.641  0.00  0.00    +0.000 C 
ENDBRANCH  20   4
ENDBRANCH  17  20
ENDBRANCH   2  17
ENDBRANCH  11   2
TORSDOF 10
ENDMDL
MODEL 9
REMARK VINA RESULT:      -6.9      3.805      7.712
REMARK  Name = C:\Qe-CaDD\Project\176870.pdb
REMARK  12 active torsions:
REMARK  status: ('A' for Active; 'I' for Inactive)
REMARK    1  A    between atoms: O1_1  and  C3_10
REMARK    2  A    between atoms: O1_1  and  C8_15
REMARK    3  A    between atoms: O2_2  and  C4_11
REMARK    4  A    between atoms: O2_2  and  C10_17
REMARK    5  A    between atoms: O3_3  and  C12_19
REMARK    6  A    between atoms: O3_3  and  C19_26
REMARK    7  A    between atoms: O4_4  and  C13_20
REMARK    8  A    between atoms: O4_4  and  C20_27
REMARK    9  A    between atoms: N1_5  and  C9_16
REMARK   10  A    between atoms: C8_15  and  C12_19
REMARK   11  A    between atoms: C10_17  and  C13_20
REMARK   12  A    between atoms: C16_23  and  C21_28
REMARK                            x       y       z     vdW  Elec       q    Type
REMARK                         _______ _______ _______ _____ _____    ______ ____
ROOT
ATOM      5  N1  UNL     1      25.921   1.997  51.937  0.00  0.00    +0.000 N 
ATOM      6  N2  UNL     1      25.426   5.036  49.171  0.00  0.00    +0.000 NA
ATOM      7  N3  UNL     1      26.780   3.326  50.197  0.00  0.00    +0.000 NA
ATOM      8  C1  UNL     1      24.512   3.703  50.943  0.00  0.00    +0.000 C 
ATOM      9  C2  UNL     1      24.403   4.724  49.986  0.00  0.00    +0.000 C 
ATOM     10  C3  UNL     1      22.238   4.087  51.684  0.00  0.00    +0.000 C 
ATOM     11  C4  UNL     1      22.117   5.100  50.740  0.00  0.00    +0.000 C 
ATOM     12  C5  UNL     1      23.435   3.386  51.789  0.00  0.00    +0.000 C 
ATOM     13  C6  UNL     1      25.736   3.040  50.996  0.00  0.00    +0.000 C 
ATOM     14  C7  UNL     1      23.193   5.411  49.902  0.00  0.00    +0.000 C 
ATOM     18  C11 UNL     1      26.559   4.320  49.321  0.00  0.00    +0.000 C 
ATOM     30  H3  UNL     1      25.136   1.351  51.969  0.00  0.00    +0.000 HD
ENDROOT
BRANCH   5  16
ATOM     16  C9  UNL     1      27.054   1.526  52.618  0.00  0.00    +0.000 A 
ATOM     21  C14 UNL     1      27.360   0.165  52.608  0.00  0.00    +0.000 A 
ATOM     22  C15 UNL     1      27.875   2.420  53.304  0.00  0.00    +0.000 A 
ATOM     23  C16 UNL     1      28.487  -0.302  53.285  0.00  0.00    +0.000 A 
ATOM     24  C17 UNL     1      29.002   1.954  53.981  0.00  0.00    +0.000 A 
ATOM     25  C18 UNL     1      29.308   0.593  53.972  0.00  0.00    +0.000 A 
BRANCH  23  28
ATOM     28  C21 UNL     1      28.800  -1.695  53.276  0.00  0.00    +0.000 C 
ATOM     29  C22 UNL     1      29.065  -2.866  53.268  0.00  0.00    +0.000 C 
ENDBRANCH  23  28
ENDBRANCH   5  16
BRANCH  10   1
ATOM      1  O1  UNL     1      21.198   3.775  52.505  0.00  0.00    +0.000 OA
BRANCH   1  15
ATOM     15  C8  UNL     1      20.712   2.434  52.457  0.00  0.00    +0.000 C 
BRANCH  15  19
ATOM     19  C12 UNL     1      19.298   2.440  51.912  0.00  0.00    +0.000 C 
BRANCH  19   3
ATOM      3  O3  UNL     1      18.755   3.749  52.041  0.00  0.00    +0.000 OA
ATOM     26  C19 UNL     1      17.566   3.898  51.279  0.00  0.00    +0.000 C 
ENDBRANCH  19   3
ENDBRANCH  15  19
ENDBRANCH   1  15
ENDBRANCH  10   1
BRANCH  11   2
ATOM      2  O2  UNL     1      20.955   5.800  50.620  0.00  0.00    +0.000 OA
BRANCH   2  17
ATOM     17  C10 UNL     1      20.724   6.468  49.381  0.00  0.00    +0.000 C 
BRANCH  17  20
ATOM     20  C13 UNL     1      19.587   5.779  48.651  0.00  0.00    +0.000 C 
BRANCH  20   4
ATOM      4  O4  UNL     1      18.755   6.765  48.053  0.00  0.00    +0.000 OA
ATOM     27  C20 UNL     1      19.506   7.658  47.243  0.00  0.00    +0.000 C 
ENDBRANCH  20   4
ENDBRANCH  17  20
ENDBRANCH   2  17
ENDBRANCH  11   2
TORSDOF 10
ENDMDL
