REMARK  2 active torsions:
REMARK  status: ('A' for Active; 'I' for Inactive)
REMARK    1  A    between atoms: C3_3  and  C4_4 
REMARK    2  A    between atoms: C5_5  and  C6_6 
ROOT
HETATM    1  C6  UNL     1       1.517   0.371   0.249  1.00  0.00    -0.015 A 
HETATM    2  C7  UNL     1       0.429   1.309  -0.112  1.00  0.00     0.005 A 
HETATM    3  C8  UNL     1      -0.715   0.662  -0.614  1.00  0.00     0.056 A 
HETATM    4  C9  UNL     1      -1.720  -0.070  -1.063  1.00  0.00    -0.034 A 
HETATM    5  C10 UNL     1      -0.596  -0.707  -0.655  1.00  0.00     0.070 A 
HETATM    6  C11 UNL     1       0.687  -0.649  -0.140  1.00  0.00     0.034 A 
HETATM    7  N1  UNL     1       1.638  -1.540   0.455  1.00  0.00    -0.359 N 
HETATM    8  C12 UNL     1       0.895  -2.106   1.660  1.00  0.00     0.152 C 
HETATM    9  C13 UNL     1       1.900  -3.043   2.287  1.00  0.00     0.073 C 
HETATM   10  C14 UNL     1       0.859  -0.884   2.604  1.00  0.00     0.229 C 
HETATM   11  O1  UNL     1       0.171   0.239   1.972  1.00  0.00    -0.372 OA
HETATM   12  C15 UNL     1      -0.831  -0.023   0.955  1.00  0.00     0.102 A 
HETATM   13  C16 UNL     1      -1.838  -0.886   1.435  1.00  0.00     0.062 C 
HETATM   14  C17 UNL     1      -1.380  -2.276   0.940  1.00  0.00     0.142 C 
HETATM   15  O2  UNL     1      -0.242  -2.711   1.456  1.00  0.00    -0.353 OA
HETATM   16  C18 UNL     1      -1.147  -2.129  -0.619  1.00  0.00     0.071 C 
HETATM   17  C19 UNL     1      -2.324  -2.160  -1.412  1.00  0.00    -0.039 A 
HETATM   18  C20 UNL     1      -3.250  -2.930  -2.066  1.00  0.00     0.008 A 
HETATM   19  C21 UNL     1      -4.393  -2.385  -2.691  1.00  0.00     0.001 A 
HETATM   20  C22 UNL     1      -4.687  -1.019  -2.700  1.00  0.00     0.001 A 
HETATM   21  C23 UNL     1      -3.801  -0.133  -2.054  1.00  0.00     0.012 A 
HETATM   22  C24 UNL     1      -2.814  -0.883  -1.553  1.00  0.00    -0.025 A 
HETATM   23  H9  UNL     1       2.558  -1.618  -0.003  1.00  0.00     0.162 HD
ENDROOT
BRANCH   1  24
HETATM   24  C5  UNL     1       2.524   1.252   0.695  1.00  0.00     0.013 C 
HETATM   25  C4  UNL     1       2.580   2.475   0.238  1.00  0.00     0.001 C 
BRANCH  25  26
HETATM   26  C3  UNL     1       3.039   3.813   0.068  1.00  0.00    -0.004 C 
HETATM   27  C2  UNL     1       2.437   4.565  -0.822  1.00  0.00    -0.031 C 
HETATM   28  C1  UNL     1       3.051   5.955  -0.850  1.00  0.00     0.036 C 
ENDBRANCH  25  26
ENDBRANCH   1  24
TORSDOF 2
