REMARK  0 active torsions:
REMARK  status: ('A' for Active; 'I' for Inactive)
ROOT
HETATM    1  C1  UNL     1      -0.508   3.395   1.280  1.00  0.00     0.065 C 
HETATM    2  C2  UNL     1      -0.149   2.647   0.041  1.00  0.00     0.241 C 
HETATM    3  O1  UNL     1      -1.318   2.547  -0.793  1.00  0.00    -0.324 OA
HETATM    4  C3  UNL     1      -2.385   1.611  -0.620  1.00  0.00     0.082 A 
HETATM    5  C4  UNL     1      -3.720   1.955  -0.607  1.00  0.00     0.038 A 
HETATM    6  C5  UNL     1      -4.662   0.983  -0.412  1.00  0.00     0.003 A 
HETATM    7  C6  UNL     1      -4.389  -0.351  -0.219  1.00  0.00     0.001 A 
HETATM    8  C7  UNL     1      -3.038  -0.654  -0.240  1.00  0.00     0.015 A 
HETATM    9  C8  UNL     1      -2.070   0.305  -0.442  1.00  0.00     0.006 A 
HETATM   10  C9  UNL     1      -0.771  -0.403  -0.478  1.00  0.00    -0.017 C 
HETATM   11  C10 UNL     1      -0.954  -1.675  -0.493  1.00  0.00    -0.017 C 
HETATM   12  C11 UNL     1      -1.684  -2.860  -0.515  1.00  0.00     0.162 C 
HETATM   13  N1  UNL     1      -1.421  -3.642   0.684  1.00  0.00    -0.364 N 
HETATM   14  C12 UNL     1      -0.048  -3.361   0.899  1.00  0.00     0.186 C 
HETATM   15  O2  UNL     1       0.360  -4.333   1.673  1.00  0.00    -0.172 OA
HETATM   16  C13 UNL     1       0.317  -2.095   0.158  1.00  0.00     0.027 C 
HETATM   17  C14 UNL     1       1.621  -1.936   0.451  1.00  0.00     0.030 C 
HETATM   18  C15 UNL     1       2.687  -1.017   0.185  1.00  0.00    -0.007 A 
HETATM   19  C16 UNL     1       3.888  -1.373  -0.430  1.00  0.00     0.014 A 
HETATM   20  C17 UNL     1       4.967  -0.596  -0.783  1.00  0.00     0.001 A 
HETATM   21  C18 UNL     1       4.764   0.715  -0.451  1.00  0.00     0.002 A 
HETATM   22  C19 UNL     1       3.623   1.191   0.159  1.00  0.00     0.032 A 
HETATM   23  C20 UNL     1       2.576   0.336   0.482  1.00  0.00     0.058 A 
HETATM   24  N2  UNL     1       1.587   1.257   1.048  1.00  0.00    -0.300 N 
HETATM   25  N3  UNL     1       0.436   1.401   0.351  1.00  0.00    -0.294 N 
HETATM   26  C21 UNL     1       0.396   0.466  -0.710  1.00  0.00     0.185 C 
HETATM   27  H11 UNL     1      -2.226  -4.156   1.047  1.00  0.00     0.162 HD
HETATM   28  H17 UNL     1       1.847   1.736   1.949  1.00  0.00     0.187 HD
ENDROOT
TORSDOF 0
