REMARK  0 active torsions:
REMARK  status: ('A' for Active; 'I' for Inactive)
ROOT
HETATM    1  O1  UNL     1       0.687  -4.424  -1.261  1.00  0.00    -0.293 OA
HETATM    2  C1  UNL     1       0.274  -3.339  -0.711  1.00  0.00     0.154 C 
HETATM    3  C2  UNL     1      -0.804  -2.649  -1.397  1.00  0.00     0.063 C 
HETATM    4  C3  UNL     1      -0.688  -1.538  -0.701  1.00  0.00    -0.017 C 
HETATM    5  C4  UNL     1      -1.575  -0.315  -0.921  1.00  0.00    -0.019 C 
HETATM    6  C5  UNL     1      -2.244   0.401  -0.046  1.00  0.00     0.021 C 
HETATM    7  C6  UNL     1      -1.223   1.194  -0.914  1.00  0.00     0.084 A 
HETATM    8  C7  UNL     1      -0.668   0.919  -2.187  1.00  0.00     0.080 A 
HETATM    9  C8  UNL     1      -1.433   0.322  -3.494  1.00  0.00     0.031 A 
HETATM   10  C9  UNL     1      -1.639   0.227  -2.347  1.00  0.00     0.067 A 
HETATM   11  N1  UNL     1      -3.191   0.772  -2.549  1.00  0.00    -0.387 N 
HETATM   12  C10 UNL     1      -3.275   2.027  -1.679  1.00  0.00     0.287 C 
HETATM   13  O2  UNL     1      -2.060   2.263  -1.055  1.00  0.00    -0.358 OA
HETATM   14  C11 UNL     1      -0.178   1.226   0.100  1.00  0.00     0.082 C 
HETATM   15  C12 UNL     1       0.574   0.071   0.629  1.00  0.00    -0.037 C 
HETATM   16  C13 UNL     1       1.703   0.080   1.532  1.00  0.00    -0.029 A 
HETATM   17  C14 UNL     1       1.452   0.800   2.685  1.00  0.00     0.012 A 
HETATM   18  C15 UNL     1       2.447   0.929   3.656  1.00  0.00     0.001 A 
HETATM   19  C16 UNL     1       3.702   0.322   3.449  1.00  0.00     0.000 A 
HETATM   20  C17 UNL     1       3.891  -0.382   2.278  1.00  0.00     0.001 A 
HETATM   21  C18 UNL     1       2.914  -0.525   1.298  1.00  0.00     0.012 A 
HETATM   22  C19 UNL     1       0.417  -1.287   0.361  1.00  0.00    -0.033 C 
HETATM   23  C20 UNL     1       0.768  -2.682   0.564  1.00  0.00     0.123 C 
HETATM   24  H6  UNL     1      -4.246   0.730  -2.946  1.00  0.00     0.156 HD
ENDROOT
TORSDOF 0
