REMARK  4 active torsions:
REMARK  status: ('A' for Active; 'I' for Inactive)
REMARK    1  A    between atoms: O1_2  and  C2_3 
REMARK    2  A    between atoms: C2_3  and  C3_5 
REMARK    3  A    between atoms: C9_11  and  O3_12 
REMARK    4  A    between atoms: C11_14  and  N1_16 
ROOT
HETATM    1  C3  UNL     1       3.073   1.521  -0.381  1.00  0.00     0.040 A 
HETATM    2  C4  UNL     1       3.976   0.590   0.017  1.00  0.00     0.018 A 
HETATM    3  C5  UNL     1       3.600  -0.702   0.182  1.00  0.00     0.018 A 
HETATM    4  C6  UNL     1       2.322  -1.011  -0.058  1.00  0.00     0.041 A 
HETATM    5  C7  UNL     1       1.276  -0.169  -0.476  1.00  0.00    -0.008 A 
HETATM    6  C8  UNL     1       1.777   1.137  -0.614  1.00  0.00     0.028 A 
HETATM    7  C9  UNL     1      -0.185  -0.525  -0.834  1.00  0.00     0.220 C 
HETATM    8  C11 UNL     1      -1.049  -0.533   0.354  1.00  0.00     0.288 C 
HETATM    9  C12 UNL     1      -0.464   0.507   1.280  1.00  0.00     0.085 C 
HETATM   10  O4  UNL     1      -1.007  -1.747   1.023  1.00  0.00    -0.350 OA
HETATM   11  C20 UNL     1      -1.359  -2.924   0.562  1.00  0.00     0.172 C 
HETATM   12  C21 UNL     1      -0.524  -3.853  -0.256  1.00  0.00     0.046 C 
HETATM   13  C22 UNL     1       0.630  -4.349   0.662  1.00  0.00     0.125 C 
HETATM   14  N2  UNL     1       1.164  -3.101   1.176  1.00  0.00    -0.357 N 
HETATM   15  C23 UNL     1       1.719  -2.327   0.142  1.00  0.00     0.252 C 
HETATM   16  O5  UNL     1       1.842  -2.612  -1.045  1.00  0.00    -0.268 OA
HETATM   17  H30 UNL     1       1.425  -2.362   1.831  1.00  0.00     0.162 HD
ENDROOT
BRANCH   8  18
HETATM   18  N1  UNL     1      -2.466  -0.415   0.113  1.00  0.00     0.131 NA
HETATM   19  C13 UNL     1      -2.934   0.615  -0.746  1.00  0.00     0.287 C 
HETATM   20  C14 UNL     1      -2.716   1.965  -0.191  1.00  0.00    -0.003 C 
HETATM   21  C15 UNL     1      -2.097   3.230  -0.717  1.00  0.00     0.018 C 
HETATM   22  C16 UNL     1      -3.189   2.084   1.041  1.00  0.00    -0.028 C 
HETATM   23  C17 UNL     1      -3.182   1.053   1.835  1.00  0.00     0.066 C 
HETATM   24  C18 UNL     1      -3.289  -0.341   1.269  1.00  0.00     0.228 C 
HETATM   25  C19 UNL     1      -3.329  -1.383   2.285  1.00  0.00     0.043 C 
ENDBRANCH   8  18
BRANCH   7  26
HETATM   26  O3  UNL     1      -0.446   0.620  -1.679  1.00  0.00    -0.381 OA
HETATM   27  C10 UNL     1      -0.345   0.062  -2.985  1.00  0.00     0.202 C 
ENDBRANCH   7  26
BRANCH   1  28
HETATM   28  C2  UNL     1       3.503   2.888  -0.546  1.00  0.00     0.292 C 
HETATM   29  O2  UNL     1       2.686   3.795  -0.928  1.00  0.00    -0.259 OA
BRANCH  28  30
HETATM   30  O1  UNL     1       4.786   3.312  -0.314  1.00  0.00    -0.323 OA
HETATM   31  C1  UNL     1       5.185   4.679  -0.488  1.00  0.00     0.213 C 
ENDBRANCH  28  30
ENDBRANCH   1  28
TORSDOF 4
