REMARK  0 active torsions:
REMARK  status: ('A' for Active; 'I' for Inactive)
ROOT
HETATM    1  C1  UNL     1      -0.367   2.358   1.316  1.00  0.00     0.082 C 
HETATM    2  C2  UNL     1       0.340   1.819   0.062  1.00  0.00     0.263 C 
HETATM    3  C3  UNL     1      -0.188   2.538  -1.156  1.00  0.00     0.106 C 
HETATM    4  C4  UNL     1      -1.578   1.990  -1.464  1.00  0.00    -0.071 C 
HETATM    5  C5  UNL     1      -2.791   2.448  -1.054  1.00  0.00     0.003 C 
HETATM    6  C6  UNL     1      -3.936   1.516  -0.826  1.00  0.00     0.001 C 
HETATM    7  C7  UNL     1      -3.823   0.138  -1.012  1.00  0.00     0.008 C 
HETATM    8  C8  UNL     1      -2.409  -0.254  -1.329  1.00  0.00    -0.038 C 
HETATM    9  C9  UNL     1      -1.982  -1.310  -0.652  1.00  0.00     0.046 C 
HETATM   10  C10 UNL     1      -2.773  -2.113   0.331  1.00  0.00     0.253 C 
HETATM   11  O1  UNL     1      -4.028  -2.161   0.630  1.00  0.00    -0.268 OA
HETATM   12  N1  UNL     1      -2.017  -3.008   1.100  1.00  0.00    -0.353 N 
HETATM   13  C11 UNL     1      -0.798  -3.263   0.295  1.00  0.00     0.162 C 
HETATM   14  C12 UNL     1      -0.701  -1.920  -0.285  1.00  0.00    -0.020 C 
HETATM   15  C13 UNL     1       0.524  -1.490  -0.401  1.00  0.00    -0.039 C 
HETATM   16  C14 UNL     1       1.848  -1.948  -0.076  1.00  0.00     0.078 C 
HETATM   17  C15 UNL     1       2.665  -0.819   0.598  1.00  0.00    -0.021 A 
HETATM   18  C16 UNL     1       3.685  -1.528   1.159  1.00  0.00     0.010 A 
HETATM   19  C17 UNL     1       4.648  -0.821   1.843  1.00  0.00     0.001 A 
HETATM   20  C18 UNL     1       4.541   0.550   1.929  1.00  0.00     0.003 A 
HETATM   21  C19 UNL     1       3.512   1.265   1.364  1.00  0.00     0.037 A 
HETATM   22  C20 UNL     1       2.505   0.590   0.656  1.00  0.00     0.078 A 
HETATM   23  O2  UNL     1       1.670   1.611   0.246  1.00  0.00    -0.310 OA
HETATM   24  C21 UNL     1       0.610  -0.207  -1.163  1.00  0.00     0.308 C 
HETATM   25  N2  UNL     1      -0.195   0.557  -0.318  1.00  0.00     0.122 NA
HETATM   26  C22 UNL     1      -1.902   0.727  -2.285  1.00  0.00     0.073 C 
HETATM   27  H9  UNL     1      -2.163  -3.447   2.018  1.00  0.00     0.163 HD
HETATM   28  H20 UNL     1      -0.454   0.149   0.642  1.00  0.00     0.320 HD
ENDROOT
TORSDOF 0
