REMARK  3 active torsions:
REMARK  status: ('A' for Active; 'I' for Inactive)
REMARK    1  A    between atoms: C3_4  and  C4_5 
REMARK    2  A    between atoms: C9_11  and  N2_12 
REMARK    3  A    between atoms: N2_12  and  C10_13 
ROOT
HETATM    1  C4  UNL     1      -3.361  -0.313   0.826  1.00  0.00     0.033 C 
HETATM    2  C5  UNL     1      -2.358  -0.570  -0.018  1.00  0.00     0.028 C 
HETATM    3  C6  UNL     1      -1.567   0.567  -0.556  1.00  0.00     0.083 C 
HETATM    4  C7  UNL     1      -0.108   0.527  -0.076  1.00  0.00     0.137 C 
HETATM    5  N1  UNL     1       0.713  -0.365  -0.823  1.00  0.00    -0.326 N 
HETATM    6  C8  UNL     1       1.990   0.211  -1.060  1.00  0.00     0.146 A 
HETATM    7  C9  UNL     1       2.403   1.388  -0.661  1.00  0.00     0.135 C 
HETATM    8  N3  UNL     1       2.926  -0.575  -1.801  1.00  0.00    -0.223 NA
HETATM    9  C13 UNL     1       2.555  -1.735  -2.197  1.00  0.00     0.236 A 
HETATM   10  N4  UNL     1       1.280  -2.305  -1.958  1.00  0.00    -0.238 NA
HETATM   11  C14 UNL     1       0.390  -1.671  -1.307  1.00  0.00     0.092 A 
HETATM   12  B1  UNL     1      -0.971  -2.462  -1.134  1.00  0.00     0.393 B 
HETATM   13  O1  UNL     1      -2.129  -1.926  -0.335  1.00  0.00    -0.414 OA
HETATM   14  H15 UNL     1      -0.834  -3.636  -1.189  1.00  0.00     0.017 HD
ENDROOT
BRANCH   7  15
HETATM   15  N2  UNL     1       3.708   1.874  -0.953  1.00  0.00    -0.383 N 
HETATM   16  H11 UNL     1       3.998   2.602  -1.677  1.00  0.00     0.160 HD
BRANCH  15  17
HETATM   17  C10 UNL     1       4.773   1.295  -0.161  1.00  0.00     0.145 A 
HETATM   18  C11 UNL     1       6.161   1.750  -0.428  1.00  0.00     0.020 A 
HETATM   19  C12 UNL     1       5.783   0.453  -0.884  1.00  0.00     0.013 A 
HETATM   20 BR1  UNL     1       6.831  -0.825  -1.816  1.00  0.00    -0.053 Br
ENDBRANCH  15  17
ENDBRANCH   7  15
BRANCH   1  21
HETATM   21  C3  UNL     1      -4.311  -1.172   1.522  1.00  0.00     0.040 C 
HETATM   22  C2  UNL     1      -5.265  -0.783   2.339  1.00  0.00     0.090 C 
HETATM   23  C1  UNL     1      -5.489   0.650   2.658  1.00  0.00     0.082 C 
HETATM   24  F1  UNL     1      -6.024  -1.771   2.867  1.00  0.00    -0.211 F 
ENDBRANCH   1  21
TORSDOF 3
