REMARK  1 active torsions:
REMARK  status: ('A' for Active; 'I' for Inactive)
REMARK    1  A    between atoms: C10_14  and  C11_15 
ROOT
HETATM    1  C1  UNL     1      -2.441   2.256  -2.422  1.00  0.00     0.019 C 
HETATM    2  C2  UNL     1      -1.191   1.516  -1.958  1.00  0.00     0.062 C 
HETATM    3  C3  UNL     1      -0.670   2.170  -0.680  1.00  0.00     0.212 C 
HETATM    4  O1  UNL     1       0.601   1.853  -0.324  1.00  0.00    -0.273 OA
HETATM    5  N1  UNL     1       0.738   0.726   0.452  1.00  0.00    -0.233 N 
HETATM    6  C4  UNL     1       0.021  -0.432   0.970  1.00  0.00     0.131 C 
HETATM    7  C5  UNL     1      -1.076  -0.875   0.297  1.00  0.00    -0.025 C 
HETATM    8  C6  UNL     1      -1.253  -1.023  -1.194  1.00  0.00    -0.023 C 
HETATM    9  C7  UNL     1      -1.775   0.159  -1.583  1.00  0.00     0.069 C 
HETATM   10  N2  UNL     1      -3.230   0.429  -1.687  1.00  0.00    -0.159 NA
HETATM   11  N3  UNL     1      -4.137   0.410  -0.726  1.00  0.00    -0.193 NA
HETATM   12  C8  UNL     1      -4.215  -0.641   0.315  1.00  0.00     0.174 C 
HETATM   13  C9  UNL     1      -3.227  -0.258   1.388  1.00  0.00     0.035 C 
HETATM   14  C10 UNL     1      -1.987  -1.117   1.449  1.00  0.00     0.056 C 
HETATM   15  C12 UNL     1      -0.860  -2.251  -1.932  1.00  0.00     0.048 C 
HETATM   16  C13 UNL     1       0.367  -2.782  -1.169  1.00  0.00     0.083 C 
HETATM   17  C14 UNL     1       1.395  -1.697  -1.229  1.00  0.00     0.127 C 
HETATM   18  O3  UNL     1       0.816  -1.030  -2.060  1.00  0.00    -0.298 OA
HETATM   19  C15 UNL     1       2.459  -2.066  -0.278  1.00  0.00     0.083 C 
HETATM   20  C16 UNL     1       3.566  -1.098  -0.097  1.00  0.00     0.048 C 
HETATM   21  C17 UNL     1       3.222   0.210   0.494  1.00  0.00    -0.029 A 
HETATM   22  C18 UNL     1       4.441   0.775   0.913  1.00  0.00     0.009 A 
HETATM   23  C19 UNL     1       4.620   2.009   1.538  1.00  0.00     0.001 A 
HETATM   24  C20 UNL     1       3.480   2.750   1.768  1.00  0.00     0.002 A 
HETATM   25  C21 UNL     1       2.262   2.189   1.350  1.00  0.00     0.033 A 
HETATM   26  C22 UNL     1       2.090   0.954   0.726  1.00  0.00     0.068 A 
ENDROOT
BRANCH  14  27
HETATM   27  C11 UNL     1      -1.324  -0.832   2.726  1.00  0.00     0.400 C 
HETATM   28  O2  UNL     1      -1.121  -0.305   3.795  1.00  0.00    -0.429 OA
ENDBRANCH  14  27
TORSDOF 1
