REMARK  4 active torsions:
REMARK  status: ('A' for Active; 'I' for Inactive)
REMARK    1  A    between atoms: N1_1  and  C1_2 
REMARK    2  A    between atoms: C1_2  and  C2_3 
REMARK    3  A    between atoms: N3_17  and  C14_18 
REMARK    4  A    between atoms: C14_18  and  C15_19 
ROOT
HETATM    1  C2  UNL     1      -2.845  -1.665   1.240  1.00  0.00     0.013 C 
HETATM    2  C3  UNL     1      -2.929  -0.333   1.119  1.00  0.00    -0.017 C 
HETATM    3  C4  UNL     1      -3.933   0.404   0.371  1.00  0.00    -0.001 A 
HETATM    4  C5  UNL     1      -5.207   0.154  -0.079  1.00  0.00     0.014 A 
HETATM    5  C6  UNL     1      -5.958   1.068  -0.782  1.00  0.00     0.001 A 
HETATM    6  C7  UNL     1      -5.403   2.287  -1.044  1.00  0.00     0.002 A 
HETATM    7  C8  UNL     1      -4.128   2.533  -0.591  1.00  0.00     0.030 A 
HETATM    8  C9  UNL     1      -3.353   1.610   0.126  1.00  0.00     0.042 A 
HETATM    9  N2  UNL     1      -2.016   1.728   0.671  1.00  0.00    -0.362 N 
HETATM   10  C10 UNL     1      -1.031   2.699   0.320  1.00  0.00     0.150 C 
HETATM   11  C11 UNL     1       0.228   2.257  -0.276  1.00  0.00     0.187 C 
HETATM   12  O1  UNL     1       0.254   1.567  -1.452  1.00  0.00    -0.388 OA
HETATM   13  C12 UNL     1       1.452   1.306  -1.993  1.00  0.00     0.198 C 
HETATM   14  C13 UNL     1       2.517   0.452  -1.482  1.00  0.00     0.299 C 
HETATM   15  N3  UNL     1       2.430  -0.932  -1.326  1.00  0.00     0.098 NA
HETATM   16  C21 UNL     1       1.638  -1.498  -0.265  1.00  0.00     0.300 C 
HETATM   17  C22 UNL     1       0.221  -1.235  -0.506  1.00  0.00     0.007 C 
HETATM   18  C23 UNL     1      -0.338  -0.584   0.486  1.00  0.00     0.050 C 
HETATM   19  C24 UNL     1      -0.599   0.104   1.721  1.00  0.00     0.176 C 
HETATM   20  O2  UNL     1       0.559  -0.203   2.041  1.00  0.00    -0.291 OA
HETATM   21  C25 UNL     1      -1.997   0.644   1.684  1.00  0.00     0.192 C 
ENDROOT
BRANCH  15  22
HETATM   22  C14 UNL     1       3.789  -1.507  -1.078  1.00  0.00     0.311 C 
BRANCH  22  23
HETATM   23  C15 UNL     1       4.415  -0.988   0.144  1.00  0.00    -0.030 A 
HETATM   24  C16 UNL     1       4.317  -1.603   1.397  1.00  0.00     0.009 A 
HETATM   25  C17 UNL     1       4.903  -1.125   2.548  1.00  0.00     0.001 A 
HETATM   26  C18 UNL     1       5.639   0.029   2.500  1.00  0.00     0.000 A 
HETATM   27  C19 UNL     1       5.782   0.692   1.306  1.00  0.00     0.001 A 
HETATM   28  C20 UNL     1       5.174   0.161   0.208  1.00  0.00     0.009 A 
ENDBRANCH  22  23
ENDBRANCH  15  22
BRANCH   1  29
HETATM   29  C1  UNL     1      -3.264  -3.041   1.004  1.00  0.00     0.294 C 
BRANCH  29  30
HETATM   30  N1  UNL     1      -4.431  -3.197   0.150  1.00  0.00     0.081 N 
HETATM   31  H1  UNL     1      -4.366  -2.651  -0.716  1.00  0.00     0.313 HD
HETATM   32  H2  UNL     1      -5.313  -3.136   0.677  1.00  0.00     0.313 HD
ENDBRANCH  29  30
ENDBRANCH   1  29
TORSDOF 4
