REMARK  1 active torsions:
REMARK  status: ('A' for Active; 'I' for Inactive)
REMARK    1  A    between atoms: C6_7  and  N1_8 
ROOT
HETATM    1  C1  UNL     1      -1.701   1.337   2.045  1.00  0.00     0.072 C 
HETATM    2  C2  UNL     1      -1.452   0.808   0.660  1.00  0.00     0.146 A 
HETATM    3  O1  UNL     1      -2.102   1.458  -0.347  1.00  0.00    -0.360 OA
HETATM    4  C3  UNL     1      -3.442   1.648  -0.188  1.00  0.00     0.171 C 
HETATM    5  C4  UNL     1      -4.346   0.554  -0.613  1.00  0.00     0.028 C 
HETATM    6  C5  UNL     1      -3.910  -0.842  -0.359  1.00  0.00     0.038 C 
HETATM    7  C6  UNL     1      -2.459  -0.980  -0.648  1.00  0.00     0.230 C 
HETATM    8  C7  UNL     1      -1.721  -0.693   0.656  1.00  0.00     0.099 A 
HETATM    9  C8  UNL     1      -0.377  -1.283   0.506  1.00  0.00     0.015 A 
HETATM   10  C9  UNL     1       0.587  -0.399   0.333  1.00  0.00     0.046 A 
HETATM   11  C10 UNL     1       1.936  -0.197   0.140  1.00  0.00     0.015 A 
HETATM   12  C11 UNL     1       2.741  -1.261  -0.034  1.00  0.00     0.024 C 
HETATM   13  C12 UNL     1       2.391  -2.685  -0.072  1.00  0.00     0.065 C 
HETATM   14  C13 UNL     1       3.377  -3.330  -1.041  1.00  0.00     0.128 C 
HETATM   15  N2  UNL     1       4.398  -2.342  -1.248  1.00  0.00    -0.357 N 
HETATM   16  C14 UNL     1       4.187  -1.390  -0.189  1.00  0.00     0.248 C 
HETATM   17  O2  UNL     1       5.030  -0.776   0.489  1.00  0.00    -0.268 OA
HETATM   18  C15 UNL     1       2.091   1.157   0.132  1.00  0.00     0.004 A 
HETATM   19  C16 UNL     1       3.227   1.900  -0.045  1.00  0.00     0.014 A 
HETATM   20  C17 UNL     1       3.217   3.275  -0.044  1.00  0.00     0.001 A 
HETATM   21  C18 UNL     1       2.031   3.948   0.137  1.00  0.00     0.002 A 
HETATM   22  C19 UNL     1       0.912   3.172   0.310  1.00  0.00     0.030 A 
HETATM   23  C20 UNL     1       0.863   1.804   0.320  1.00  0.00     0.049 A 
HETATM   24  N3  UNL     1      -0.015   0.802   0.436  1.00  0.00    -0.312 N 
HETATM   25  H19 UNL     1       5.146  -2.308  -1.996  1.00  0.00     0.162 HD
ENDROOT
BRANCH   7  26
HETATM   26  N1  UNL     1      -2.074  -2.255  -1.220  1.00  0.00     0.083 N 
HETATM   27  H11 UNL     1      -1.047  -2.253  -1.423  1.00  0.00     0.313 HD
HETATM   28  H12 UNL     1      -2.293  -3.054  -0.593  1.00  0.00     0.313 HD
ENDBRANCH   7  26
TORSDOF 1
