REMARK  2 active torsions:
REMARK  status: ('A' for Active; 'I' for Inactive)
REMARK    1  A    between atoms: C2_2  and  C3_3 
REMARK    2  A    between atoms: C4_4  and  C5_5 
ROOT
HETATM    1  C5  UNL     1       2.450  -0.095   0.520  1.00  0.00     0.113 C 
HETATM    2  C6  UNL     1       2.160  -1.549   0.227  1.00  0.00     0.071 C 
HETATM    3  C7  UNL     1       0.708  -1.542  -0.075  1.00  0.00    -0.011 A 
HETATM    4  C8  UNL     1      -0.167  -2.456  -0.674  1.00  0.00     0.049 A 
HETATM    5  C9  UNL     1      -1.524  -2.154  -0.815  1.00  0.00    -0.011 A 
HETATM    6  C10 UNL     1      -2.089  -0.970  -0.390  1.00  0.00     0.015 A 
HETATM    7  C11 UNL     1      -3.298  -0.352  -0.348  1.00  0.00     0.004 A 
HETATM    8  C12 UNL     1      -4.520  -0.804  -0.797  1.00  0.00     0.014 A 
HETATM    9  C13 UNL     1      -5.629  -0.017  -0.650  1.00  0.00     0.001 A 
HETATM   10  C14 UNL     1      -5.486   1.219  -0.050  1.00  0.00     0.002 A 
HETATM   11  C15 UNL     1      -4.251   1.622   0.378  1.00  0.00     0.030 A 
HETATM   12  C16 UNL     1      -3.098   0.880   0.260  1.00  0.00     0.048 A 
HETATM   13  N1  UNL     1      -1.823   1.081   0.608  1.00  0.00    -0.316 N 
HETATM   14  C17 UNL     1      -1.227  -0.079   0.195  1.00  0.00     0.076 A 
HETATM   15  C18 UNL     1       0.136  -0.362   0.347  1.00  0.00     0.068 A 
HETATM   16  N2  UNL     1       1.190   0.426   0.938  1.00  0.00    -0.349 N 
HETATM   17  C19 UNL     1       0.859   1.569   1.814  1.00  0.00     0.296 C 
HETATM   18  O1  UNL     1       0.081   2.397   1.054  1.00  0.00    -0.348 OA
HETATM   19  C20 UNL     1      -1.300   2.278   1.248  1.00  0.00     0.226 C 
HETATM   20  C21 UNL     1      -1.876   3.553   0.641  1.00  0.00     0.064 C 
HETATM   21  C22 UNL     1      -2.215  -3.305  -1.484  1.00  0.00     0.163 A 
HETATM   22  N3  UNL     1      -1.201  -4.285  -1.724  1.00  0.00    -0.353 N 
HETATM   23  C23 UNL     1       0.057  -3.782  -1.234  1.00  0.00     0.253 A 
HETATM   24  O2  UNL     1       1.147  -4.408  -1.296  1.00  0.00    -0.268 OA
HETATM   25  H23 UNL     1      -1.433  -5.184  -2.183  1.00  0.00     0.163 HD
ENDROOT
BRANCH   1  26
HETATM   26  C4  UNL     1       3.023   0.596  -0.652  1.00  0.00    -0.005 C 
HETATM   27  C3  UNL     1       4.320   0.673  -0.898  1.00  0.00    -0.029 C 
BRANCH  27  28
HETATM   28  C2  UNL     1       5.371   0.093  -0.057  1.00  0.00     0.022 C 
HETATM   29  C1  UNL     1       6.338   1.142   0.476  1.00  0.00     0.009 C 
ENDBRANCH  27  28
ENDBRANCH   1  26
TORSDOF 2
