REMARK  3 active torsions:
REMARK  status: ('A' for Active; 'I' for Inactive)
REMARK    1  A    between atoms: O1_2  and  C2_3 
REMARK    2  A    between atoms: C3_4  and  N1_5 
REMARK    3  A    between atoms: C9_11  and  S1_12 
ROOT
HETATM    1  C2  UNL     1      -0.963   1.096  -0.626  1.00  0.00     0.187 C 
HETATM    2  C3  UNL     1      -0.509   1.620   0.661  1.00  0.00     0.214 C 
HETATM    3  C4  UNL     1       0.859   1.593   1.106  1.00  0.00     0.085 C 
HETATM    4  C5  UNL     1       1.935   0.896   0.412  1.00  0.00    -0.055 C 
HETATM    5  C6  UNL     1       3.072   1.410   0.992  1.00  0.00     0.007 C 
HETATM    6  C7  UNL     1       4.446   0.860   1.216  1.00  0.00    -0.002 C 
HETATM    7  C8  UNL     1       4.862  -0.237   0.535  1.00  0.00    -0.007 C 
HETATM    8  C9  UNL     1       4.182  -1.376  -0.195  1.00  0.00     0.097 C 
HETATM    9  C10 UNL     1       2.722  -1.318  -0.110  1.00  0.00    -0.045 C 
HETATM   10  C11 UNL     1       2.347  -0.113  -0.629  1.00  0.00     0.013 C 
HETATM   11  C12 UNL     1       1.824  -2.394   0.504  1.00  0.00     0.158 C 
HETATM   12  N2  UNL     1       0.625  -1.661   0.984  1.00  0.00    -0.356 N 
HETATM   13  C13 UNL     1      -0.096  -1.094  -0.074  1.00  0.00     0.236 C 
HETATM   14  O2  UNL     1       0.027  -1.116  -1.324  1.00  0.00    -0.272 OA
HETATM   15  C14 UNL     1      -1.292  -0.234   0.040  1.00  0.00     0.128 C 
HETATM   16  C15 UNL     1      -2.602  -0.802  -0.185  1.00  0.00    -0.002 A 
HETATM   17  C16 UNL     1      -3.124  -1.784  -0.998  1.00  0.00     0.011 A 
HETATM   18  C17 UNL     1      -4.453  -2.096  -0.976  1.00  0.00     0.001 A 
HETATM   19  C18 UNL     1      -5.285  -1.403  -0.112  1.00  0.00     0.003 A 
HETATM   20  C19 UNL     1      -4.794  -0.411   0.718  1.00  0.00     0.037 A 
HETATM   21  C20 UNL     1      -3.432  -0.093   0.693  1.00  0.00     0.077 A 
HETATM   22  O3  UNL     1      -2.695   0.858   1.425  1.00  0.00    -0.341 OA
HETATM   23  C21 UNL     1      -1.323   0.515   1.354  1.00  0.00     0.195 C 
HETATM   24  H17 UNL     1       0.311  -1.550   1.947  1.00  0.00     0.162 HD
ENDROOT
BRANCH   2  25
HETATM   25  N1  UNL     1      -1.193   2.907   0.980  1.00  0.00     0.093 N 
HETATM   26  H5  UNL     1      -1.317   3.010   2.008  1.00  0.00     0.314 HD
HETATM   27  H6  UNL     1      -0.511   3.647   0.686  1.00  0.00     0.314 HD
ENDBRANCH   2  25
BRANCH   1  28
HETATM   28  O1  UNL     1      -2.150   1.674  -1.083  1.00  0.00    -0.386 OA
HETATM   29  C1  UNL     1      -1.982   1.949  -2.445  1.00  0.00     0.202 C 
ENDBRANCH   1  28
BRANCH   8  30
HETATM   30  S1  UNL     1       4.682  -1.345  -1.933  1.00  0.00    -0.169 SA
HETATM   31  H13 UNL     1       4.699  -2.612  -2.513  1.00  0.00     0.102 HD
ENDBRANCH   8  30
TORSDOF 3
