REMARK  2 active torsions:
REMARK  status: ('A' for Active; 'I' for Inactive)
REMARK    1  A    between atoms: N2_14  and  C11_15 
REMARK    2  A    between atoms: C11_15  and  P2_16 
ROOT
HETATM    1  O1  UNL     1      -4.977  -0.648   1.581  1.00  0.00    -0.172 OA
HETATM    2  C1  UNL     1      -3.745  -1.100   1.601  1.00  0.00     0.186 C 
HETATM    3  N1  UNL     1      -3.982  -2.465   1.276  1.00  0.00    -0.364 N 
HETATM    4  C2  UNL     1      -2.694  -2.862   0.661  1.00  0.00     0.161 C 
HETATM    5  C3  UNL     1      -1.786  -2.127   1.550  1.00  0.00    -0.026 C 
HETATM    6  C4  UNL     1      -0.784  -2.873   1.950  1.00  0.00     0.007 C 
HETATM    7  C5  UNL     1      -0.962  -4.193   1.366  1.00  0.00     0.028 C 
HETATM    8  C6  UNL     1      -0.531  -4.923   0.377  1.00  0.00     0.013 C 
HETATM    9  P1  UNL     1       1.083  -4.760   0.218  1.00  0.00    -0.051 P 
HETATM   10  C7  UNL     1       1.507  -2.994  -0.154  1.00  0.00     0.012 C 
HETATM   11  C8  UNL     1       1.852  -1.731  -0.056  1.00  0.00     0.002 C 
HETATM   12  C9  UNL     1       1.999  -0.735  -1.144  1.00  0.00     0.017 C 
HETATM   13  C10 UNL     1       1.872  -0.663  -2.416  1.00  0.00     0.086 C 
HETATM   14  N2  UNL     1       2.142   0.537  -3.027  1.00  0.00    -0.384 N 
HETATM   15  C12 UNL     1       2.011   1.945  -3.243  1.00  0.00     0.149 C 
HETATM   16  C13 UNL     1       0.876   2.584  -2.419  1.00  0.00     0.189 C 
HETATM   17  O2  UNL     1       1.158   2.212  -1.180  1.00  0.00    -0.371 OA
HETATM   18  C14 UNL     1       0.671   2.569  -0.038  1.00  0.00     0.290 C 
HETATM   19  N3  UNL     1      -0.719   2.628   0.288  1.00  0.00    -0.368 N 
HETATM   20  C15 UNL     1      -0.918   2.610   1.734  1.00  0.00     0.040 A 
HETATM   21  C16 UNL     1      -0.318   3.666   2.352  1.00  0.00     0.030 A 
HETATM   22  C17 UNL     1      -0.298   3.784   3.719  1.00  0.00     0.002 A 
HETATM   23  C18 UNL     1      -0.850   2.903   4.594  1.00  0.00     0.001 A 
HETATM   24  C19 UNL     1      -1.456   1.840   3.884  1.00  0.00     0.014 A 
HETATM   25  C20 UNL     1      -1.545   1.609   2.468  1.00  0.00    -0.009 A 
HETATM   26  C21 UNL     1      -2.300   0.451   2.111  1.00  0.00     0.030 C 
HETATM   27  C22 UNL     1      -2.257  -0.801   1.813  1.00  0.00     0.026 C 
HETATM   28  H1  UNL     1      -4.730  -3.223   1.363  1.00  0.00     0.162 HD
HETATM   29  H20 UNL     1      -1.749   2.688   0.244  1.00  0.00     0.161 HD
ENDROOT
BRANCH  14  30
HETATM   30  C11 UNL     1       3.150  -0.074  -3.875  1.00  0.00     0.150 C 
BRANCH  30  31
HETATM   31  P2  UNL     1       2.501  -1.482  -4.887  1.00  0.00    -0.122 P 
HETATM   32  H12 UNL     1       1.808  -0.905  -6.052  1.00  0.00     0.056 HD
HETATM   33  H13 UNL     1       3.672  -2.181  -5.449  1.00  0.00     0.056 HD
ENDBRANCH  30  31
ENDBRANCH  14  30
TORSDOF 2
