REMARK  1 active torsions:
REMARK  status: ('A' for Active; 'I' for Inactive)
REMARK    1  A    between atoms: O1_2  and  C2_3 
ROOT
HETATM    1  C2  UNL     1      -2.839  -0.116   0.330  1.00  0.00     0.179 C 
HETATM    2  C3  UNL     1      -2.449  -0.636   1.637  1.00  0.00     0.038 C 
HETATM    3  C4  UNL     1      -1.358  -0.192   2.480  1.00  0.00     0.025 C 
HETATM    4  C5  UNL     1       0.055  -0.481   2.476  1.00  0.00     0.157 C 
HETATM    5  N1  UNL     1       1.029  -0.218   1.534  1.00  0.00    -0.252 N 
HETATM    6  O2  UNL     1       0.832  -1.160   0.666  1.00  0.00    -0.234 OA
HETATM    7  C6  UNL     1       1.462  -1.516  -0.473  1.00  0.00     0.113 A 
HETATM    8  C7  UNL     1       2.501  -0.737  -0.766  1.00  0.00     0.014 A 
HETATM    9  C8  UNL     1       3.438  -0.802  -1.891  1.00  0.00     0.165 A 
HETATM   10  N2  UNL     1       4.344   0.344  -1.676  1.00  0.00    -0.352 N 
HETATM   11  C9  UNL     1       3.976   0.990  -0.486  1.00  0.00     0.254 A 
HETATM   12  O3  UNL     1       4.637   1.967  -0.122  1.00  0.00    -0.268 OA
HETATM   13  C10 UNL     1       2.795   0.373   0.183  1.00  0.00     0.071 A 
HETATM   14  C11 UNL     1       2.135   0.704   1.334  1.00  0.00     0.076 A 
HETATM   15  C12 UNL     1       2.853   1.815   1.945  1.00  0.00     0.066 C 
HETATM   16  C13 UNL     1       2.806   3.109   2.041  1.00  0.00     0.082 C 
HETATM   17  N3  UNL     1       1.893   3.594   1.231  1.00  0.00    -0.284 NA
HETATM   18  C14 UNL     1       0.671   2.840   1.426  1.00  0.00     0.176 C 
HETATM   19  C15 UNL     1      -0.194   2.594   0.301  1.00  0.00    -0.007 C 
HETATM   20  C16 UNL     1      -1.298   2.580  -0.429  1.00  0.00    -0.003 C 
HETATM   21  C17 UNL     1      -1.556   2.066  -1.805  1.00  0.00     0.198 C 
HETATM   22  O4  UNL     1      -2.543   1.051  -1.703  1.00  0.00    -0.352 OA
HETATM   23  C18 UNL     1      -2.007   0.046  -0.841  1.00  0.00     0.386 C 
HETATM   24  N4  UNL     1      -1.694  -1.095  -1.673  1.00  0.00     0.118 NA
HETATM   25  C19 UNL     1      -0.973  -2.093  -0.953  1.00  0.00     0.301 C 
HETATM   26  C20 UNL     1      -0.152  -3.021  -1.695  1.00  0.00     0.012 C 
HETATM   27  C21 UNL     1       1.111  -2.620  -1.357  1.00  0.00    -0.028 C 
HETATM   28  C22 UNL     1       2.280  -3.369  -1.923  1.00  0.00     0.051 C 
HETATM   29  H13 UNL     1       5.100   0.548  -2.359  1.00  0.00     0.163 HD
HETATM   30  H22 UNL     1      -1.203  -0.838  -2.532  1.00  0.00     0.319 HD
ENDROOT
BRANCH   1  31
HETATM   31  O1  UNL     1      -4.098  -0.738  -0.057  1.00  0.00    -0.386 OA
HETATM   32  C1  UNL     1      -5.126   0.195   0.082  1.00  0.00     0.202 C 
ENDBRANCH   1  31
TORSDOF 1
