REMARK  4 active torsions:
REMARK  status: ('A' for Active; 'I' for Inactive)
REMARK    1  A    between atoms: C3_3  and  C4_4 
REMARK    2  A    between atoms: C23_26  and  C24_27 
REMARK    3  A    between atoms: C24_27  and  C25_28 
REMARK    4  A    between atoms: C25_28  and  O2_29 
ROOT
HETATM    1  C4  UNL     1       4.034   0.241   0.137  1.00  0.00     0.025 C 
HETATM    2  C5  UNL     1       2.929  -0.329   0.550  1.00  0.00     0.014 C 
HETATM    3  C6  UNL     1       2.494  -1.726   0.935  1.00  0.00     0.063 C 
HETATM    4  C7  UNL     1       1.181  -1.855   0.075  1.00  0.00     0.065 C 
HETATM    5  C8  UNL     1       0.552  -0.572   0.476  1.00  0.00     0.042 C 
HETATM    6  C9  UNL     1      -0.806  -0.375   0.602  1.00  0.00     0.070 A 
HETATM    7  C10 UNL     1      -1.341  -1.578   0.278  1.00  0.00     0.010 A 
HETATM    8  C11 UNL     1      -1.220  -2.612  -0.500  1.00  0.00    -0.040 C 
HETATM    9  C12 UNL     1      -1.939  -3.898  -0.670  1.00  0.00     0.158 C 
HETATM   10  N1  UNL     1      -2.758  -3.803  -1.811  1.00  0.00    -0.357 N 
HETATM   11  C13 UNL     1      -1.710  -3.460  -2.692  1.00  0.00     0.221 C 
HETATM   12  O1  UNL     1      -1.566  -3.474  -3.966  1.00  0.00    -0.273 OA
HETATM   13  C14 UNL     1      -0.558  -2.985  -1.825  1.00  0.00     0.139 C 
HETATM   14  C15 UNL     1      -2.658  -1.385   0.764  1.00  0.00     0.004 A 
HETATM   15  C16 UNL     1      -3.857  -2.052   0.887  1.00  0.00     0.014 A 
HETATM   16  C17 UNL     1      -5.019  -1.597   1.447  1.00  0.00     0.001 A 
HETATM   17  C18 UNL     1      -5.018  -0.295   1.968  1.00  0.00     0.002 A 
HETATM   18  C19 UNL     1      -3.858   0.417   1.874  1.00  0.00     0.030 A 
HETATM   19  C20 UNL     1      -2.709  -0.085   1.296  1.00  0.00     0.046 A 
HETATM   20  N2  UNL     1      -1.524   0.586   1.190  1.00  0.00    -0.337 N 
HETATM   21  C21 UNL     1      -1.234   1.940   1.509  1.00  0.00     0.115 C 
HETATM   22  C22 UNL     1      -2.479   2.846   1.389  1.00  0.00     0.035 C 
HETATM   23  C23 UNL     1      -0.312   2.612   0.511  1.00  0.00     0.148 C 
HETATM   24  O3  UNL     1       0.937   2.340   0.361  1.00  0.00    -0.364 OA
HETATM   25  C26 UNL     1       1.689   1.709   1.285  1.00  0.00     0.299 C 
HETATM   26  N3  UNL     1       1.682   0.306   0.775  1.00  0.00    -0.330 N 
HETATM   27  H13 UNL     1      -3.718  -3.888  -2.153  1.00  0.00     0.162 HD
ENDROOT
BRANCH  23  28
HETATM   28  C24 UNL     1      -1.014   2.430  -0.849  1.00  0.00     0.060 C 
BRANCH  28  29
HETATM   29  C25 UNL     1      -0.153   3.083  -1.942  1.00  0.00     0.166 C 
BRANCH  29  30
HETATM   30  O2  UNL     1      -0.800   2.907  -3.143  1.00  0.00    -0.401 OA
HETATM   31  H29 UNL     1      -1.250   3.761  -3.375  1.00  0.00     0.209 HD
ENDBRANCH  29  30
ENDBRANCH  28  29
ENDBRANCH  23  28
BRANCH   1  32
HETATM   32  C3  UNL     1       4.725   1.443  -0.284  1.00  0.00    -0.002 C 
HETATM   33  C2  UNL     1       5.999   1.468  -0.636  1.00  0.00    -0.031 C 
HETATM   34  C1  UNL     1       7.084   0.473  -0.739  1.00  0.00     0.036 C 
ENDBRANCH   1  32
TORSDOF 4
