REMARK  7 active torsions:
REMARK  status: ('A' for Active; 'I' for Inactive)
REMARK    1  A    between atoms: C2_2  and  C3_3 
REMARK    2  A    between atoms: C3_3  and  C5_5 
REMARK    3  A    between atoms: C3_3  and  C14_15 
REMARK    4  A    between atoms: C5_5  and  C6_6 
REMARK    5  A    between atoms: C6_6  and  N1_7 
REMARK    6  A    between atoms: N1_7  and  C7_8 
REMARK    7  A    between atoms: C14_15  and  C15_16 
ROOT
HETATM    1  C3  UNL     1      -1.217  -2.069  -0.228  1.00  0.00    -0.022 C 
HETATM    2  C4  UNL     1      -1.120  -3.389  -0.957  1.00  0.00     0.020 C 
ENDROOT
BRANCH   1   3
HETATM    3  C2  UNL     1      -1.937  -2.299   1.058  1.00  0.00    -0.027 C 
HETATM    4  C1  UNL     1      -1.581  -1.564   2.090  1.00  0.00     0.007 C 
ENDBRANCH   1   3
BRANCH   1   5
HETATM    5  C5  UNL     1       0.172  -1.530   0.076  1.00  0.00     0.032 C 
BRANCH   5   6
HETATM    6  C6  UNL     1       0.979  -1.284  -1.173  1.00  0.00     0.115 C 
BRANCH   6   7
HETATM    7  N1  UNL     1       2.254  -0.846  -0.922  1.00  0.00    -0.414 N 
HETATM    8  H11 UNL     1       3.001  -1.600  -0.875  1.00  0.00     0.153 HD
BRANCH   7   9
HETATM    9  C7  UNL     1       2.702   0.339  -0.415  1.00  0.00     0.103 C 
HETATM   10  C8  UNL     1       2.315   1.616  -1.058  1.00  0.00    -0.002 C 
HETATM   11  C9  UNL     1       2.647   2.798  -0.505  1.00  0.00    -0.001 C 
HETATM   12  C10 UNL     1       3.382   3.126   0.715  1.00  0.00     0.012 C 
HETATM   13  C11 UNL     1       4.086   2.236   1.342  1.00  0.00    -0.030 C 
HETATM   14  C12 UNL     1       3.579   1.091   1.770  1.00  0.00    -0.012 C 
HETATM   15  C13 UNL     1       2.415   0.456   1.065  1.00  0.00     0.056 C 
ENDBRANCH   7   9
ENDBRANCH   6   7
ENDBRANCH   5   6
ENDBRANCH   1   5
BRANCH   1  16
HETATM   16  C14 UNL     1      -2.010  -1.061  -0.992  1.00  0.00     0.051 C 
BRANCH  16  17
HETATM   17  C15 UNL     1      -2.163   0.232  -0.283  1.00  0.00    -0.057 A 
HETATM   18  C16 UNL     1      -1.368   1.346  -0.351  1.00  0.00     0.007 A 
HETATM   19  C17 UNL     1      -1.599   2.503   0.358  1.00  0.00     0.001 A 
HETATM   20  C18 UNL     1      -2.711   2.552   1.202  1.00  0.00     0.000 A 
HETATM   21  C19 UNL     1      -3.562   1.452   1.319  1.00  0.00     0.001 A 
HETATM   22  C20 UNL     1      -3.257   0.345   0.578  1.00  0.00     0.007 A 
ENDBRANCH  16  17
ENDBRANCH   1  16
TORSDOF 7
