REMARK  5 active torsions:
REMARK  status: ('A' for Active; 'I' for Inactive)
REMARK    1  A    between atoms: C2_2  and  C3_3 
REMARK    2  A    between atoms: C3_3  and  O1_4 
REMARK    3  A    between atoms: C6_7  and  C7_8 
REMARK    4  A    between atoms: C7_8  and  O3_10 
REMARK    5  A    between atoms: O3_10  and  C8_11 
ROOT
HETATM    1  C3  UNL     1       0.910   1.691   0.084  1.00  0.00     0.105 C 
HETATM    2  C4  UNL     1      -0.293   1.800   0.915  1.00  0.00     0.260 C 
HETATM    3  C5  UNL     1       0.283   0.607   1.633  1.00  0.00     0.062 C 
HETATM    4  C6  UNL     1       0.917   0.233   0.247  1.00  0.00     0.083 C 
HETATM    5  C12 UNL     1       0.004  -0.737  -0.326  1.00  0.00     0.027 C 
HETATM    6  C13 UNL     1      -0.808  -0.512  -1.491  1.00  0.00     0.036 C 
HETATM    7  C14 UNL     1      -2.173  -0.038  -1.512  1.00  0.00    -0.070 C 
HETATM    8  C15 UNL     1      -3.319   0.698  -1.361  1.00  0.00     0.003 C 
HETATM    9  C16 UNL     1      -3.794   1.924  -0.799  1.00  0.00    -0.002 C 
HETATM   10  C17 UNL     1      -3.534   3.012  -0.075  1.00  0.00     0.003 C 
HETATM   11  C18 UNL     1      -2.135   3.076   0.490  1.00  0.00     0.301 C 
HETATM   12  N1  UNL     1      -1.594   1.658   0.329  1.00  0.00     0.102 N 
HETATM   13  C19 UNL     1      -2.508   0.955   1.258  1.00  0.00     0.301 C 
HETATM   14  C20 UNL     1      -3.087  -0.300   0.821  1.00  0.00     0.008 C 
HETATM   15  C21 UNL     1      -3.431  -1.394   0.054  1.00  0.00    -0.044 C 
HETATM   16  C22 UNL     1      -4.156  -2.718  -0.121  1.00  0.00     0.304 C 
HETATM   17  N2  UNL     1      -3.282  -3.506  -0.940  1.00  0.00     0.088 N 
HETATM   18  C23 UNL     1      -2.257  -2.615  -1.505  1.00  0.00     0.283 C 
HETATM   19  C24 UNL     1      -2.911  -1.324  -1.415  1.00  0.00     0.073 C 
HETATM   20  H33 UNL     1      -2.875  -4.340  -0.478  1.00  0.00     0.316 HD
ENDROOT
BRANCH   4  21
HETATM   21  C7  UNL     1       2.314  -0.268   0.371  1.00  0.00     0.271 C 
HETATM   22  O2  UNL     1       3.499   0.162   0.359  1.00  0.00    -0.264 OA
BRANCH  21  23
HETATM   23  O3  UNL     1       2.754  -1.566   0.569  1.00  0.00    -0.311 OA
BRANCH  23  24
HETATM   24  C8  UNL     1       4.127  -1.895   0.665  1.00  0.00     0.060 C 
HETATM   25  C9  UNL     1       4.783  -1.160   1.827  1.00  0.00     0.045 C 
HETATM   26  C10 UNL     1       4.258  -3.385   0.877  1.00  0.00     0.045 C 
HETATM   27  C11 UNL     1       4.888  -1.528  -0.583  1.00  0.00     0.045 C 
ENDBRANCH  23  24
ENDBRANCH  21  23
ENDBRANCH   4  21
BRANCH   1  28
HETATM   28  C2  UNL     1       1.201   2.412  -1.139  1.00  0.00     0.037 C 
HETATM   29  C1  UNL     1       1.174   3.934  -0.924  1.00  0.00     0.008 C 
ENDBRANCH   1  28
BRANCH   1  30
HETATM   30  O1  UNL     1       1.960   2.168   0.979  1.00  0.00    -0.386 OA
HETATM   31  H6  UNL     1       2.774   2.357   0.501  1.00  0.00     0.210 HD
ENDBRANCH   1  30
TORSDOF 5
