REMARK  7 active torsions:
REMARK  status: ('A' for Active; 'I' for Inactive)
REMARK    1  A    between atoms: C2_2  and  N1_3 
REMARK    2  A    between atoms: N1_3  and  C3_4 
REMARK    3  A    between atoms: C6_7  and  O1_8 
REMARK    4  A    between atoms: C6_7  and  C7_9 
REMARK    5  A    between atoms: C7_9  and  C8_10 
REMARK    6  A    between atoms: C8_10  and  C9_11 
REMARK    7  A    between atoms: C9_11  and  C10_12 
ROOT
HETATM    1  C3  UNL     1      -2.472  -1.415   0.170  1.00  0.00     0.255 C 
HETATM    2  C4  UNL     1      -1.295  -2.288   0.529  1.00  0.00     0.051 C 
HETATM    3  C5  UNL     1      -0.741  -1.590   1.777  1.00  0.00     0.068 A 
HETATM    4  C6  UNL     1       0.320  -0.567   1.556  1.00  0.00     0.101 A 
HETATM    5  C16 UNL     1      -1.063  -0.174   1.664  1.00  0.00     0.128 A 
HETATM    6  O2  UNL     1      -1.492   0.570   2.778  1.00  0.00    -0.353 OA
HETATM    7  C17 UNL     1      -1.355   1.937   2.525  1.00  0.00     0.295 C 
HETATM    8  N2  UNL     1      -1.538   2.236   1.109  1.00  0.00    -0.358 N 
HETATM    9  C18 UNL     1      -2.244   1.229   0.348  1.00  0.00     0.017 C 
HETATM   10  C19 UNL     1      -2.063  -0.083   0.584  1.00  0.00     0.013 C 
HETATM   11  C20 UNL     1      -3.123   1.867  -0.666  1.00  0.00     0.059 C 
HETATM   12  C21 UNL     1      -2.492   3.261  -0.791  1.00  0.00     0.031 C 
HETATM   13  C22 UNL     1      -1.263   3.242   0.105  1.00  0.00     0.082 C 
HETATM   14  C23 UNL     1      -0.921   4.588   0.668  1.00  0.00     0.032 C 
ENDROOT
BRANCH   4  15
HETATM   15  O1  UNL     1       1.070  -0.295   2.754  1.00  0.00    -0.386 OA
HETATM   16  H11 UNL     1       1.566   0.552   2.607  1.00  0.00     0.210 HD
ENDBRANCH   4  15
BRANCH   4  17
HETATM   17  C7  UNL     1       1.228  -0.656   0.397  1.00  0.00     0.042 C 
BRANCH  17  18
HETATM   18  C8  UNL     1       2.046  -1.924   0.484  1.00  0.00     0.008 C 
BRANCH  18  19
HETATM   19  C9  UNL     1       2.978  -2.067  -0.702  1.00  0.00     0.038 C 
BRANCH  19  20
HETATM   20  C10 UNL     1       3.932  -0.933  -0.790  1.00  0.00    -0.058 A 
HETATM   21  C11 UNL     1       3.630   0.222  -1.511  1.00  0.00     0.007 A 
HETATM   22  C12 UNL     1       4.532   1.272  -1.583  1.00  0.00     0.001 A 
HETATM   23  C13 UNL     1       5.754   1.197  -0.940  1.00  0.00     0.000 A 
HETATM   24  C14 UNL     1       6.093   0.071  -0.214  1.00  0.00     0.001 A 
HETATM   25  C15 UNL     1       5.167  -0.952  -0.167  1.00  0.00     0.007 A 
ENDBRANCH  19  20
ENDBRANCH  18  19
ENDBRANCH  17  18
ENDBRANCH   4  17
BRANCH   1  26
HETATM   26  N1  UNL     1      -2.836  -1.541  -1.227  1.00  0.00     0.091 N 
HETATM   27  H6  UNL     1      -3.602  -0.915  -1.502  1.00  0.00     0.316 HD
BRANCH  26  28
HETATM   28  C2  UNL     1      -3.168  -2.948  -1.434  1.00  0.00     0.266 C 
HETATM   29  C1  UNL     1      -3.569  -3.246  -2.840  1.00  0.00     0.037 C 
ENDBRANCH  26  28
ENDBRANCH   1  26
TORSDOF 7
