REMARK  1 active torsions:
REMARK  status: ('A' for Active; 'I' for Inactive)
REMARK    1  A    between atoms: C11_15  and  C12_16 
ROOT
HETATM    1  F1  UNL     1       5.224   1.139  -2.678  1.00  0.00    -0.206 F 
HETATM    2  C1  UNL     1       4.413   0.619  -1.726  1.00  0.00     0.117 A 
HETATM    3  C2  UNL     1       4.986  -0.260  -0.841  1.00  0.00     0.045 A 
HETATM    4  C3  UNL     1       4.177  -0.805   0.141  1.00  0.00     0.041 A 
HETATM    5  C4  UNL     1       2.840  -0.482   0.235  1.00  0.00     0.086 A 
HETATM    6  C5  UNL     1       2.237   0.403  -0.647  1.00  0.00    -0.004 A 
HETATM    7  C6  UNL     1       3.075   0.939  -1.628  1.00  0.00     0.054 A 
HETATM    8  C7  UNL     1       0.919   1.004  -0.907  1.00  0.00     0.161 C 
HETATM    9  N1  UNL     1      -0.048   0.724   0.137  1.00  0.00    -0.380 N 
HETATM   10  C8  UNL     1      -0.231  -0.488   0.908  1.00  0.00     0.112 A 
HETATM   11  C9  UNL     1       0.799  -1.263   1.437  1.00  0.00     0.200 A 
HETATM   12  N2  UNL     1       0.403  -2.313   2.222  1.00  0.00    -0.215 NA
HETATM   13  C10 UNL     1      -0.934  -2.506   2.413  1.00  0.00     0.236 A 
HETATM   14  N3  UNL     1      -1.901  -1.745   1.890  1.00  0.00    -0.239 NA
HETATM   15  C11 UNL     1      -1.594  -0.686   1.099  1.00  0.00     0.096 A 
HETATM   16  O1  UNL     1       2.175  -1.117   1.277  1.00  0.00    -0.289 OA
HETATM   17  H6  UNL     1      -0.787   1.422   0.514  1.00  0.00     0.160 HD
ENDROOT
BRANCH  15  18
HETATM   18  C12 UNL     1      -2.667   0.045   0.429  1.00  0.00    -0.009 A 
HETATM   19  C13 UNL     1      -2.791   0.853  -0.600  1.00  0.00     0.011 A 
HETATM   20  C14 UNL     1      -4.125   1.340  -0.868  1.00  0.00    -0.002 A 
HETATM   21  C15 UNL     1      -4.845   0.776   0.081  1.00  0.00    -0.006 A 
HETATM   22  C16 UNL     1      -4.066  -0.077   0.992  1.00  0.00     0.115 A 
HETATM   23 BR1  UNL     1      -4.116   0.559   2.813  1.00  0.00    -0.082 Br
ENDBRANCH  15  18
TORSDOF 1
