REMARK  8 active torsions:
REMARK  status: ('A' for Active; 'I' for Inactive)
REMARK    1  A    between atoms: C3_3  and  N1_4 
REMARK    2  A    between atoms: N1_4  and  C4_5 
REMARK    3  A    between atoms: C6_7  and  N2_8 
REMARK       I    between atoms: N2_8  and  C8_10 
REMARK    4  A    between atoms: C8_10  and  C9_12 
REMARK    5  A    between atoms: C9_12  and  C10_13 
REMARK    6  A    between atoms: C10_13  and  C11_14 
REMARK    7  A    between atoms: C11_14  and  O3_16 
REMARK    8  A    between atoms: C12_17  and  O4_18 
ROOT
HETATM    1  C4  UNL     1      -2.048   0.169   0.953  1.00  0.00     0.222 C 
HETATM    2  C5  UNL     1      -0.592   0.471   1.012  1.00  0.00     0.081 C 
HETATM    3  C6  UNL     1       0.239  -0.794   1.016  1.00  0.00     0.122 C 
HETATM    4  C12 UNL     1      -0.206  -1.818   0.003  1.00  0.00     0.172 C 
HETATM    5  C14 UNL     1      -1.632  -1.612  -0.481  1.00  0.00     0.151 C 
HETATM    6  C15 UNL     1      -1.733  -0.809  -1.751  1.00  0.00     0.042 C 
HETATM    7  O5  UNL     1      -2.367  -1.096   0.552  1.00  0.00    -0.359 OA
ENDROOT
BRANCH   3   8
HETATM    8  N2  UNL     1       1.645  -0.446   0.917  1.00  0.00    -0.349 N 
HETATM    9  C7  UNL     1       2.581  -0.648   2.009  1.00  0.00     0.153 C 
HETATM   10  C8  UNL     1       2.170   0.134  -0.305  1.00  0.00     0.220 C 
HETATM   11  O1  UNL     1       1.403   0.348  -1.298  1.00  0.00    -0.273 OA
BRANCH  10  12
HETATM   12  C9  UNL     1       3.594   0.475  -0.399  1.00  0.00     0.113 C 
BRANCH  12  13
HETATM   13  C10 UNL     1       3.864   1.123  -1.745  1.00  0.00     0.119 C 
BRANCH  13  14
HETATM   14  C11 UNL     1       5.345   1.420  -1.725  1.00  0.00     0.139 C 
HETATM   15  O2  UNL     1       6.149   0.473  -1.497  1.00  0.00    -0.650 OA
BRANCH  14  16
HETATM   16  O3  UNL     1       6.151   2.556  -1.902  1.00  0.00    -0.776 OA
HETATM   17  H18 UNL     1       6.775   2.837  -1.131  1.00  0.00     0.167 HD
ENDBRANCH  14  16
ENDBRANCH  13  14
ENDBRANCH  12  13
ENDBRANCH  10  12
ENDBRANCH   3   8
BRANCH   4  18
HETATM   18  O4  UNL     1       0.676  -2.148  -0.971  1.00  0.00    -0.386 OA
HETATM   19  C13 UNL     1       1.206  -3.381  -1.042  1.00  0.00     0.202 C 
ENDBRANCH   4  18
BRANCH   1  20
HETATM   20  N1  UNL     1      -2.794   1.160   0.158  1.00  0.00    -0.373 N 
HETATM   21  H6  UNL     1      -2.305   1.962  -0.298  1.00  0.00     0.161 HD
BRANCH  20  22
HETATM   22  C3  UNL     1      -4.197   1.161  -0.082  1.00  0.00     0.081 C 
HETATM   23  C2  UNL     1      -4.890   2.278  -0.125  1.00  0.00    -0.014 C 
HETATM   24  C1  UNL     1      -6.354   2.234  -0.379  1.00  0.00     0.037 C 
ENDBRANCH  20  22
ENDBRANCH   1  20
TORSDOF 8
