REMARK  4 active torsions:
REMARK  status: ('A' for Active; 'I' for Inactive)
REMARK    1  A    between atoms: C2_3  and  C3_4 
REMARK    2  A    between atoms: C3_4  and  C4_5 
REMARK    3  A    between atoms: C4_5  and  C5_6 
REMARK    4  A    between atoms: C5_6  and  C6_7 
ROOT
HETATM    1  N1  UNL     1       2.592   4.426  -0.950  1.00  0.00    -0.197 NA
HETATM    2  C1  UNL     1       2.754   3.342  -1.336  1.00  0.00     0.059 C 
HETATM    3  C2  UNL     1       2.964   1.960  -1.816  1.00  0.00     0.124 C 
ENDROOT
BRANCH   3   4
HETATM    4  C3  UNL     1       3.070   1.088  -0.556  1.00  0.00     0.014 C 
BRANCH   4   5
HETATM    5  C4  UNL     1       3.284  -0.330  -0.943  1.00  0.00     0.005 C 
BRANCH   5   6
HETATM    6  C5  UNL     1       3.457  -1.228   0.230  1.00  0.00     0.054 C 
BRANCH   6   7
HETATM    7  C6  UNL     1       2.295  -1.278   1.189  1.00  0.00     0.230 C 
HETATM    8  O1  UNL     1       2.135   0.001   1.691  1.00  0.00    -0.347 OA
HETATM    9  C7  UNL     1       1.121   0.172   2.603  1.00  0.00     0.302 C 
HETATM   10  N2  UNL     1      -0.136   0.526   1.995  1.00  0.00    -0.322 N 
HETATM   11  C8  UNL     1      -0.565   0.033   0.853  1.00  0.00     0.072 A 
HETATM   12  C19 UNL     1      -1.115   1.343   2.405  1.00  0.00     0.048 A 
HETATM   13  C9  UNL     1      -1.774   0.434   0.393  1.00  0.00     0.016 A 
HETATM   14  C20 UNL     1      -0.092  -0.938   0.022  1.00  0.00     0.046 C 
HETATM   15  C10 UNL     1      -2.610   0.669  -0.570  1.00  0.00     0.011 C 
HETATM   16  C14 UNL     1      -2.151   1.315   1.452  1.00  0.00     0.004 A 
HETATM   17  C11 UNL     1      -3.918   1.075  -1.105  1.00  0.00     0.063 C 
HETATM   18  C13 UNL     1      -1.843   1.106  -1.814  1.00  0.00     0.182 C 
HETATM   19  C12 UNL     1      -3.643   2.443  -1.682  1.00  0.00     0.126 C 
HETATM   20  N3  UNL     1      -2.623   2.005  -2.683  1.00  0.00    -0.368 N 
HETATM   21  H16 UNL     1      -2.792   2.455  -3.621  1.00  0.00     0.161 HD
HETATM   22  O2  UNL     1      -0.817   1.157  -2.622  1.00  0.00    -0.172 OA
HETATM   23  C15 UNL     1      -3.147   2.164   1.903  1.00  0.00     0.014 A 
HETATM   24  C16 UNL     1      -3.183   2.917   3.049  1.00  0.00     0.001 A 
HETATM   25  C17 UNL     1      -2.109   2.852   3.891  1.00  0.00     0.002 A 
HETATM   26  C18 UNL     1      -1.039   2.051   3.578  1.00  0.00     0.030 A 
HETATM   27  C21 UNL     1      -0.555  -1.504  -1.219  1.00  0.00     0.100 C 
HETATM   28  N4  UNL     1       1.123  -1.657   0.371  1.00  0.00    -0.320 N 
HETATM   29  C22 UNL     1      -0.101  -2.975  -1.079  1.00  0.00    -0.025 A 
HETATM   30  C23 UNL     1      -0.618  -4.070  -1.739  1.00  0.00     0.010 A 
HETATM   31  C27 UNL     1       1.040  -2.908  -0.324  1.00  0.00     0.043 A 
HETATM   32  C24 UNL     1       0.171  -5.205  -1.580  1.00  0.00     0.001 A 
HETATM   33  C25 UNL     1       1.341  -5.198  -0.832  1.00  0.00     0.002 A 
HETATM   34  C26 UNL     1       1.785  -4.058  -0.201  1.00  0.00     0.030 A 
ENDBRANCH   6   7
ENDBRANCH   5   6
ENDBRANCH   4   5
ENDBRANCH   3   4
TORSDOF 4
