REMARK  2 active torsions:
REMARK  status: ('A' for Active; 'I' for Inactive)
REMARK    1  A    between atoms: C3_3  and  C4_4 
REMARK    2  A    between atoms: C5_5  and  N1_6 
ROOT
HETATM    1  N1  UNL     1       1.088   0.110  -1.325  1.00  0.00    -0.333 N 
HETATM    2  C6  UNL     1       1.093  -1.102  -2.164  1.00  0.00     0.301 C 
HETATM    3  O1  UNL     1       0.563  -2.187  -1.500  1.00  0.00    -0.347 OA
HETATM    4  C7  UNL     1      -0.805  -2.313  -1.537  1.00  0.00     0.233 C 
HETATM    5  C8  UNL     1      -1.300  -3.710  -1.380  1.00  0.00     0.064 C 
HETATM    6  N2  UNL     1      -1.325  -1.499  -0.443  1.00  0.00    -0.285 N 
HETATM    7  C9  UNL     1      -2.033  -2.085   0.439  1.00  0.00    -0.052 C 
HETATM    8  C10 UNL     1      -2.666  -2.584   1.218  1.00  0.00     0.065 A 
HETATM    9  C11 UNL     1      -3.398  -3.133   2.113  1.00  0.00     0.025 A 
HETATM   10  C12 UNL     1      -4.203  -2.019   1.720  1.00  0.00     0.038 A 
HETATM   11  C13 UNL     1      -4.120  -0.619   1.932  1.00  0.00    -0.019 C 
HETATM   12  C14 UNL     1      -3.329   0.102   1.045  1.00  0.00     0.011 C 
HETATM   13  C15 UNL     1      -2.127   0.565   0.498  1.00  0.00     0.002 A 
HETATM   14  C16 UNL     1      -1.984   1.913   0.751  1.00  0.00    -0.012 A 
HETATM   15  C17 UNL     1      -0.849   2.605   0.314  1.00  0.00     0.043 A 
HETATM   16  C18 UNL     1       0.127   1.919  -0.375  1.00  0.00     0.050 A 
HETATM   17  C19 UNL     1      -0.085   0.554  -0.596  1.00  0.00     0.065 A 
HETATM   18  C20 UNL     1      -1.185  -0.175  -0.187  1.00  0.00     0.082 A 
HETATM   19  C21 UNL     1      -0.906   4.007   0.686  1.00  0.00     0.252 A 
HETATM   20  O2  UNL     1      -0.106   4.947   0.489  1.00  0.00    -0.268 OA
HETATM   21  N3  UNL     1      -2.130   4.150   1.375  1.00  0.00    -0.353 N 
HETATM   22  C22 UNL     1      -2.838   2.917   1.442  1.00  0.00     0.163 A 
HETATM   23  H19 UNL     1      -2.613   4.952   1.833  1.00  0.00     0.163 HD
ENDROOT
BRANCH   1  24
HETATM   24  C5  UNL     1       2.304   0.843  -1.251  1.00  0.00     0.093 C 
HETATM   25  C4  UNL     1       3.308   0.133  -0.729  1.00  0.00     0.017 C 
BRANCH  25  26
HETATM   26  C3  UNL     1       4.721   0.471  -0.463  1.00  0.00    -0.003 C 
HETATM   27  C2  UNL     1       5.758  -0.160   0.038  1.00  0.00    -0.031 C 
HETATM   28  C1  UNL     1       7.052   0.538   0.147  1.00  0.00     0.036 C 
ENDBRANCH  25  26
ENDBRANCH   1  24
TORSDOF 2
