REMARK  2 active torsions:
REMARK  status: ('A' for Active; 'I' for Inactive)
REMARK    1  A    between atoms: N2_13  and  C11_14 
REMARK    2  A    between atoms: C15_18  and  N3_20 
ROOT
HETATM    1  O1  UNL     1      -2.231  -3.964  -2.191  1.00  0.00    -0.288 OA
HETATM    2  C1  UNL     1      -1.343  -3.108  -2.397  1.00  0.00     0.208 A 
HETATM    3  N1  UNL     1      -0.309  -1.921  -2.496  1.00  0.00     0.000 N 
HETATM    4  C2  UNL     1       0.123  -0.448  -1.789  1.00  0.00     0.040 A 
HETATM    5  C3  UNL     1      -0.894  -0.339  -0.779  1.00  0.00     0.019 A 
HETATM    6  C4  UNL     1      -1.979  -1.274  -0.456  1.00  0.00     0.057 A 
HETATM    7  C5  UNL     1      -2.893  -1.036   0.533  1.00  0.00    -0.015 A 
HETATM    8  C6  UNL     1      -3.892  -1.815   0.874  1.00  0.00     0.011 A 
HETATM    9  C7  UNL     1      -4.546  -1.175   1.902  1.00  0.00     0.001 A 
HETATM   10  C8  UNL     1      -4.145   0.067   2.416  1.00  0.00     0.002 A 
HETATM   11  C9  UNL     1      -3.029   0.740   1.897  1.00  0.00     0.030 A 
HETATM   12  C10 UNL     1      -2.284   0.192   0.852  1.00  0.00     0.044 A 
HETATM   13  N2  UNL     1      -1.196   0.541   0.123  1.00  0.00    -0.324 N 
HETATM   14  N3  UNL     1       2.207   0.657  -0.400  1.00  0.00    -0.352 N 
HETATM   15  C16 UNL     1       1.813   0.443  -1.847  1.00  0.00     0.142 C 
HETATM   16  C17 UNL     1       0.905  -0.708  -1.434  1.00  0.00     0.032 A 
HETATM   17  C18 UNL     1      -0.616  -1.134  -1.601  1.00  0.00     0.026 A 
HETATM   18  C19 UNL     1      -1.563  -2.075  -1.407  1.00  0.00     0.075 A 
HETATM   19  C20 UNL     1       2.008  -1.500  -0.569  1.00  0.00    -0.019 A 
HETATM   20  C21 UNL     1       2.001  -2.876  -0.511  1.00  0.00     0.010 A 
HETATM   21  C22 UNL     1       2.992  -3.286   0.357  1.00  0.00     0.001 A 
HETATM   22  C23 UNL     1       3.833  -2.392   1.035  1.00  0.00     0.002 A 
HETATM   23  C24 UNL     1       3.757  -1.022   0.906  1.00  0.00     0.030 A 
HETATM   24  C25 UNL     1       2.835  -0.518   0.094  1.00  0.00     0.039 A 
HETATM   25  H1  UNL     1      -0.018  -2.573  -3.377  1.00  0.00     0.000 HD
ENDROOT
BRANCH  13  26
HETATM   26  C11 UNL     1      -0.450   1.679   0.469  1.00  0.00     0.230 C 
HETATM   27  C12 UNL     1      -0.752   3.110   0.465  1.00  0.00     0.054 C 
HETATM   28  C13 UNL     1       0.519   3.948   0.241  1.00  0.00     0.008 C 
HETATM   29  C14 UNL     1       1.815   3.241  -0.184  1.00  0.00     0.054 C 
HETATM   30  C15 UNL     1       1.736   1.863   0.158  1.00  0.00     0.225 C 
HETATM   31  O2  UNL     1       0.421   1.787  -0.574  1.00  0.00    -0.342 OA
ENDBRANCH  13  26
TORSDOF 2
