REMARK  7 active torsions:
REMARK  status: ('A' for Active; 'I' for Inactive)
REMARK    1  A    between atoms: C2_2  and  C3_3 
REMARK    2  A    between atoms: C4_4  and  N1_5 
REMARK    3  A    between atoms: N1_5  and  C5_6 
REMARK    4  A    between atoms: C9_11  and  N2_12 
REMARK    5  A    between atoms: N2_12  and  C11_14 
REMARK    6  A    between atoms: C11_14  and  C12_15 
REMARK    7  A    between atoms: C14_18  and  O2_19 
ROOT
HETATM    1  C12 UNL     1      -4.634   0.203  -0.375  1.00  0.00     0.154 C 
HETATM    2  C13 UNL     1      -5.128   1.504  -0.018  1.00  0.00     0.060 C 
HETATM    3  N3  UNL     1      -5.545   2.553   0.259  1.00  0.00    -0.197 NA
ENDROOT
BRANCH   1   4
HETATM    4  C11 UNL     1      -3.154   0.100  -0.604  1.00  0.00     0.286 C 
BRANCH   4   5
HETATM    5  N2  UNL     1      -2.419   0.422   0.569  1.00  0.00     0.092 N 
HETATM    6  C10 UNL     1      -2.688   1.737   1.090  1.00  0.00     0.310 C 
BRANCH   5   7
HETATM    7  C9  UNL     1      -0.994   0.321   0.447  1.00  0.00     0.258 C 
HETATM    8  C8  UNL     1      -0.395   1.294  -0.553  1.00  0.00     0.065 C 
HETATM    9  C7  UNL     1       1.069   0.990  -0.781  1.00  0.00     0.173 C 
HETATM   10  O1  UNL     1       1.278  -0.365  -1.033  1.00  0.00    -0.358 OA
HETATM   11  C5  UNL     1       1.060  -1.028   0.164  1.00  0.00     0.158 C 
HETATM   12  C6  UNL     1       1.618  -2.441   0.154  1.00  0.00     0.074 C 
HETATM   13  C14 UNL     1      -0.413  -1.043   0.427  1.00  0.00     0.209 C 
BRANCH  11  14
HETATM   14  N1  UNL     1       1.821  -0.326   1.191  1.00  0.00    -0.366 N 
HETATM   15  H6  UNL     1       1.291   0.126   1.966  1.00  0.00     0.162 HD
BRANCH  14  16
HETATM   16  C4  UNL     1       3.227  -0.307   1.057  1.00  0.00     0.086 C 
HETATM   17  C3  UNL     1       4.354   0.230   0.647  1.00  0.00     0.016 C 
BRANCH  17  18
HETATM   18  C2  UNL     1       4.499   1.474  -0.086  1.00  0.00    -0.009 C 
HETATM   19  C1  UNL     1       5.674   1.935  -0.457  1.00  0.00     0.011 C 
ENDBRANCH  17  18
ENDBRANCH  14  16
ENDBRANCH  11  14
BRANCH  13  20
HETATM   20  O2  UNL     1      -0.992  -1.948  -0.434  1.00  0.00    -0.384 OA
HETATM   21  C15 UNL     1      -1.491  -3.075   0.245  1.00  0.00     0.202 C 
ENDBRANCH  13  20
ENDBRANCH   5   7
ENDBRANCH   4   5
ENDBRANCH   1   4
TORSDOF 7
