REMARK  3 active torsions:
REMARK  status: ('A' for Active; 'I' for Inactive)
REMARK    1  A    between atoms: C2_2  and  C3_3 
REMARK    2  A    between atoms: C4_4  and  C5_5 
REMARK    3  A    between atoms: C6_6  and  C7_7 
ROOT
HETATM    1  C7  UNL     1       0.996   0.798   0.456  1.00  0.00     0.138 C 
HETATM    2  N1  UNL     1       1.850   1.917   0.054  1.00  0.00    -0.387 N 
HETATM    3  C8  UNL     1       1.842   1.904  -1.369  1.00  0.00     0.084 C 
HETATM    4  C9  UNL     1       0.690   1.353  -1.700  1.00  0.00     0.027 C 
HETATM    5  C10 UNL     1      -0.117   0.977  -0.546  1.00  0.00    -0.021 C 
HETATM    6  C11 UNL     1      -1.408   0.804  -0.344  1.00  0.00    -0.014 C 
HETATM    7  C12 UNL     1      -2.578   0.940  -1.197  1.00  0.00    -0.001 A 
HETATM    8  C13 UNL     1      -2.683   1.481  -2.456  1.00  0.00     0.014 A 
HETATM    9  C14 UNL     1      -3.862   1.541  -3.150  1.00  0.00     0.001 A 
HETATM   10  C15 UNL     1      -4.990   1.031  -2.548  1.00  0.00     0.002 A 
HETATM   11  C16 UNL     1      -4.947   0.476  -1.287  1.00  0.00     0.030 A 
HETATM   12  C17 UNL     1      -3.733   0.445  -0.638  1.00  0.00     0.041 A 
HETATM   13  N2  UNL     1      -3.354  -0.036   0.644  1.00  0.00    -0.371 N 
HETATM   14  C18 UNL     1      -3.848  -0.795   1.781  1.00  0.00     0.124 C 
HETATM   15  C19 UNL     1      -2.636  -1.657   2.063  1.00  0.00     0.022 C 
HETATM   16  C20 UNL     1      -1.448  -1.003   1.389  1.00  0.00     0.032 C 
HETATM   17  C21 UNL     1      -1.971   0.358   0.972  1.00  0.00     0.119 C 
HETATM   18  H9  UNL     1       2.373   2.606   0.668  1.00  0.00     0.159 HD
ENDROOT
BRANCH   1  19
HETATM   19  C6  UNL     1       1.703  -0.490   0.284  1.00  0.00     0.003 C 
HETATM   20  C5  UNL     1       3.041  -0.607   0.223  1.00  0.00    -0.002 C 
BRANCH  20  21
HETATM   21  C4  UNL     1       3.769  -1.860   0.054  1.00  0.00    -0.000 C 
HETATM   22  C3  UNL     1       5.070  -1.948  -0.002  1.00  0.00    -0.001 C 
BRANCH  22  23
HETATM   23  C2  UNL     1       5.949  -0.798   0.098  1.00  0.00    -0.010 C 
HETATM   24  C1  UNL     1       7.278  -0.968   0.031  1.00  0.00     0.011 C 
ENDBRANCH  22  23
ENDBRANCH  20  21
ENDBRANCH   1  19
TORSDOF 3
