REMARK  2 active torsions:
REMARK  status: ('A' for Active; 'I' for Inactive)
REMARK    1  A    between atoms: C1_2  and  C2_3 
REMARK    2  A    between atoms: C2_3  and  N1_4 
ROOT
HETATM    1  N1  UNL     1      -2.184  -1.228   0.066  1.00  0.00    -0.321 N 
HETATM    2  C3  UNL     1      -1.175  -1.709   0.941  1.00  0.00     0.103 C 
HETATM    3  C4  UNL     1       0.140  -1.744   0.852  1.00  0.00     0.021 C 
HETATM    4  C5  UNL     1       0.940  -1.245  -0.282  1.00  0.00     0.147 A 
HETATM    5  C6  UNL     1       2.392  -1.562  -0.140  1.00  0.00    -0.005 A 
HETATM    6  C7  UNL     1       3.395  -2.513  -0.155  1.00  0.00     0.012 A 
HETATM    7  C8  UNL     1       4.694  -2.079   0.088  1.00  0.00     0.001 A 
HETATM    8  C9  UNL     1       5.007  -0.751   0.338  1.00  0.00     0.002 A 
HETATM    9  C10 UNL     1       3.996   0.185   0.349  1.00  0.00     0.030 A 
HETATM   10  C11 UNL     1       2.689  -0.239   0.107  1.00  0.00     0.041 A 
HETATM   11  N2  UNL     1       1.302   0.136  -0.025  1.00  0.00    -0.341 N 
HETATM   12  C12 UNL     1       0.296   1.207   0.002  1.00  0.00     0.226 C 
HETATM   13  C13 UNL     1       0.979   2.524   0.248  1.00  0.00     0.054 C 
HETATM   14  C14 UNL     1       0.092   3.588  -0.389  1.00  0.00     0.004 C 
HETATM   15  C15 UNL     1      -1.266   3.530   0.243  1.00  0.00     0.004 C 
HETATM   16  C16 UNL     1      -2.125   2.418  -0.293  1.00  0.00     0.049 C 
HETATM   17  C17 UNL     1      -1.903   1.096   0.384  1.00  0.00     0.215 C 
HETATM   18  N3  UNL     1      -1.905  -0.009  -0.550  1.00  0.00    -0.210 NA
HETATM   19  O1  UNL     1      -0.638   1.027   1.018  1.00  0.00    -0.345 OA
HETATM   20  H22 UNL     1      -2.441   0.175  -1.414  1.00  0.00     0.149 HD
ENDROOT
BRANCH   1  21
HETATM   21  C2  UNL     1      -3.412  -1.941  -0.176  1.00  0.00     0.152 C 
BRANCH  21  22
HETATM   22  C1  UNL     1      -3.191  -3.229  -0.939  1.00  0.00     0.101 C 
HETATM   23  I1  UNL     1      -1.899  -4.498   0.170  1.00  0.00    -0.088 I 
ENDBRANCH  21  22
ENDBRANCH   1  21
TORSDOF 2
