REMARK  0 active torsions:
REMARK  status: ('A' for Active; 'I' for Inactive)
ROOT
HETATM    1  O1  UNL     1       3.953  -0.409  -1.891  1.00  0.00    -0.172 OA
HETATM    2  C1  UNL     1       3.113   0.293  -1.189  1.00  0.00     0.185 C 
HETATM    3  N1  UNL     1       3.597   1.583  -0.952  1.00  0.00    -0.364 N 
HETATM    4  C2  UNL     1       2.266   2.250  -0.895  1.00  0.00     0.161 C 
HETATM    5  C3  UNL     1       1.553   1.426   0.074  1.00  0.00    -0.031 C 
HETATM    6  C4  UNL     1       1.042   2.048   1.096  1.00  0.00    -0.027 C 
HETATM    7  C5  UNL     1       0.624   3.012   2.059  1.00  0.00    -0.026 C 
HETATM    8  B1  UNL     1      -1.067   3.177   2.311  1.00  0.00     0.172 B 
HETATM    9  C6  UNL     1      -2.294   2.553   1.341  1.00  0.00    -0.091 C 
HETATM   10  C7  UNL     1      -2.212   1.770   0.125  1.00  0.00    -0.037 C 
HETATM   11  C8  UNL     1      -1.762   0.721  -0.495  1.00  0.00     0.021 C 
HETATM   12  C9  UNL     1      -1.077  -0.506  -0.751  1.00  0.00     0.024 A 
HETATM   13  C10 UNL     1      -0.218  -1.763  -0.578  1.00  0.00     0.025 A 
HETATM   14  C11 UNL     1      -0.507  -2.197  -2.080  1.00  0.00     0.143 A 
HETATM   15  N2  UNL     1      -1.985  -2.464  -1.875  1.00  0.00    -0.407 N 
HETATM   16  C12 UNL     1      -1.225  -2.275  -0.562  1.00  0.00     0.055 A 
HETATM   17  C13 UNL     1      -1.936  -2.819   0.620  1.00  0.00     0.004 A 
HETATM   18  C14 UNL     1      -1.699  -2.916   1.975  1.00  0.00    -0.005 A 
HETATM   19  C15 UNL     1      -0.411  -2.266   1.989  1.00  0.00    -0.014 A 
HETATM   20  C16 UNL     1       0.311  -1.725   0.899  1.00  0.00     0.017 A 
HETATM   21  C17 UNL     1       0.049  -1.666  -0.336  1.00  0.00     0.023 A 
HETATM   22  C18 UNL     1       1.299  -1.012  -0.733  1.00  0.00     0.003 C 
HETATM   23  C19 UNL     1       1.772   0.171  -0.533  1.00  0.00     0.022 C 
HETATM   24  H1  UNL     1       4.517   2.045  -0.831  1.00  0.00     0.162 HD
HETATM   25  H13 UNL     1      -2.988  -2.646  -1.757  1.00  0.00     0.154 HD
ENDROOT
TORSDOF 0
