REMARK  3 active torsions:
REMARK  status: ('A' for Active; 'I' for Inactive)
REMARK    1  A    between atoms: O1_2  and  C2_3 
REMARK    2  A    between atoms: C19_24  and  C20_25 
REMARK    3  A    between atoms: C21_26  and  C22_28 
ROOT
HETATM    1  C2  UNL     1      -0.585   0.704   0.557  1.00  0.00     0.184 C 
HETATM    2  C3  UNL     1      -1.847  -0.042   0.303  1.00  0.00     0.163 C 
HETATM    3  N1  UNL     1      -2.719   0.382  -0.732  1.00  0.00    -0.377 N 
HETATM    4  C4  UNL     1      -3.531  -0.574  -1.446  1.00  0.00     0.039 A 
HETATM    5  C5  UNL     1      -4.471  -0.157  -2.363  1.00  0.00     0.030 A 
HETATM    6  C6  UNL     1      -5.273  -1.065  -3.074  1.00  0.00     0.002 A 
HETATM    7  C7  UNL     1      -5.130  -2.470  -2.861  1.00  0.00     0.001 A 
HETATM    8  C8  UNL     1      -4.175  -2.706  -1.939  1.00  0.00     0.014 A 
HETATM    9  C9  UNL     1      -3.358  -1.914  -1.207  1.00  0.00    -0.001 A 
HETATM   10  C10 UNL     1      -2.395  -2.495  -0.241  1.00  0.00    -0.019 C 
HETATM   11  C11 UNL     1      -1.764  -1.502   0.364  1.00  0.00     0.040 C 
HETATM   12  N2  UNL     1      -0.700  -2.123   1.101  1.00  0.00    -0.379 N 
HETATM   13  C12 UNL     1      -1.064  -3.460   1.416  1.00  0.00     0.127 C 
HETATM   14  C13 UNL     1      -2.029  -3.827   0.270  1.00  0.00     0.061 C 
HETATM   15  C14 UNL     1       0.546  -1.407   1.387  1.00  0.00     0.161 C 
HETATM   16  C15 UNL     1       0.175   0.034   1.652  1.00  0.00     0.272 A 
HETATM   17  N3  UNL     1       1.201   0.763   2.305  1.00  0.00     0.106 N 
HETATM   18  C16 UNL     1       1.198   1.186   3.737  1.00  0.00     0.311 C 
HETATM   19  C17 UNL     1       2.427   1.222   1.725  1.00  0.00     0.204 A 
HETATM   20  O2  UNL     1       1.455   0.619   1.264  1.00  0.00     0.000 OA
HETATM   21  C18 UNL     1       3.657   1.942   2.143  1.00  0.00     0.024 A 
HETATM   22  C19 UNL     1       3.837   1.733   0.879  1.00  0.00     0.084 A 
HETATM   23  H6  UNL     1      -2.804   1.387  -1.013  1.00  0.00     0.160 HD
ENDROOT
BRANCH   1  24
HETATM   24  O1  UNL     1      -1.013   1.945   1.117  1.00  0.00    -0.386 OA
HETATM   25  C1  UNL     1      -0.578   3.041   0.395  1.00  0.00     0.202 C 
ENDBRANCH   1  24
BRANCH  22  26
HETATM   26  C20 UNL     1       5.110   2.240   0.284  1.00  0.00     0.005 C 
HETATM   27  C21 UNL     1       4.830   1.813  -0.959  1.00  0.00     0.032 C 
HETATM   28 CL1  UNL     1       3.345   0.957  -1.381  1.00  0.00    -0.085 Cl
BRANCH  27  29
HETATM   29  C22 UNL     1       5.322   1.804  -2.298  1.00  0.00     0.053 C 
HETATM   30  C23 UNL     1       5.225   1.480  -3.529  1.00  0.00     0.190 C 
HETATM   31  F1  UNL     1       4.537   0.871  -4.502  1.00  0.00    -0.219 F 
ENDBRANCH  27  29
ENDBRANCH  22  26
TORSDOF 3
