REMARK  2 active torsions:
REMARK  status: ('A' for Active; 'I' for Inactive)
REMARK    1  A    between atoms: C1_2  and  N1_3 
REMARK    2  A    between atoms: N1_3  and  C2_4 
ROOT
HETATM    1  C2  UNL     1      -1.417   2.440  -0.373  1.00  0.00     0.037 A 
HETATM    2  C3  UNL     1      -0.104   2.066  -0.219  1.00  0.00     0.061 A 
HETATM    3  C4  UNL     1       0.322   0.762  -0.095  1.00  0.00     0.061 A 
HETATM    4  C5  UNL     1      -0.648  -0.216  -0.131  1.00  0.00     0.073 A 
HETATM    5  C6  UNL     1      -1.980   0.094  -0.283  1.00  0.00     0.008 A 
HETATM    6  C7  UNL     1      -2.337   1.416  -0.401  1.00  0.00     0.044 A 
HETATM    7  C8  UNL     1      -2.616  -1.128  -0.270  1.00  0.00     0.003 A 
HETATM    8  C9  UNL     1      -3.972  -1.371  -0.390  1.00  0.00     0.014 A 
HETATM    9  C10 UNL     1      -4.362  -2.712  -0.345  1.00  0.00     0.001 A 
HETATM   10  C11 UNL     1      -3.405  -3.712  -0.187  1.00  0.00     0.002 A 
HETATM   11  C12 UNL     1      -2.061  -3.437  -0.070  1.00  0.00     0.030 A 
HETATM   12  C13 UNL     1      -1.647  -2.129  -0.111  1.00  0.00     0.046 A 
HETATM   13  N2  UNL     1      -0.454  -1.519  -0.030  1.00  0.00    -0.341 N 
HETATM   14  C14 UNL     1       0.872  -2.015   0.132  1.00  0.00     0.158 A 
HETATM   15  C15 UNL     1       1.964  -1.042   0.234  1.00  0.00     0.126 A 
HETATM   16  C16 UNL     1       3.064  -1.515  -0.685  1.00  0.00    -0.000 C 
HETATM   17  C17 UNL     1       4.265  -0.950  -0.900  1.00  0.00    -0.002 C 
HETATM   18  C18 UNL     1       4.753   0.287  -0.253  1.00  0.00    -0.003 C 
HETATM   19  C19 UNL     1       3.956   1.276   0.112  1.00  0.00    -0.007 C 
HETATM   20  C20 UNL     1       2.518   1.481   0.027  1.00  0.00     0.151 C 
HETATM   21  N3  UNL     1       1.671   0.346   0.066  1.00  0.00    -0.366 N 
ENDROOT
BRANCH   1  22
HETATM   22  N1  UNL     1      -1.905   3.736  -0.503  1.00  0.00    -0.334 N 
HETATM   23  H2  UNL     1      -2.929   3.918  -0.616  1.00  0.00     0.168 HD
BRANCH  22  24
HETATM   24  C1  UNL     1      -1.218   4.975  -0.512  1.00  0.00     0.353 C 
HETATM   25  O1  UNL     1       0.031   4.965  -0.387  1.00  0.00    -0.283 OA
ENDBRANCH  22  24
ENDBRANCH   1  22
TORSDOF 2
