REMARK  2 active torsions:
REMARK  status: ('A' for Active; 'I' for Inactive)
REMARK    1  A    between atoms: B1_1  and  C1_2 
REMARK    2  A    between atoms: C7_10  and  C8_11 
ROOT
HETATM    1  C1  UNL     1       0.667   1.826   1.577  1.00  0.00     0.055 C 
HETATM    2  O1  UNL     1      -0.510   2.211   0.912  1.00  0.00    -0.325 OA
HETATM    3  C2  UNL     1      -1.243   1.724  -0.126  1.00  0.00     0.416 C 
HETATM    4  N1  UNL     1      -2.152   0.581   0.291  1.00  0.00     0.006 N 
HETATM    5  C3  UNL     1      -3.363   1.078   0.320  1.00  0.00     0.230 A 
HETATM    6  C4  UNL     1      -4.575   1.404   0.393  1.00  0.00     0.018 A 
HETATM    7  C5  UNL     1      -5.482   0.422   0.772  1.00  0.00    -0.003 A 
HETATM    8  C6  UNL     1      -4.628  -0.573   0.923  1.00  0.00     0.018 A 
HETATM    9  C7  UNL     1      -3.293  -0.362   0.690  1.00  0.00     0.230 A 
HETATM   10  C8  UNL     1      -2.157   0.077   0.428  1.00  0.00     0.230 A 
HETATM   11  C9  UNL     1      -0.920  -0.736   0.489  1.00  0.00     0.070 A 
HETATM   12  C10 UNL     1      -0.529   0.121   1.486  1.00  0.00     0.047 A 
HETATM   13  C11 UNL     1       0.531  -0.297   0.890  1.00  0.00     0.087 A 
HETATM   14  C12 UNL     1       1.474  -0.862   0.136  1.00  0.00    -0.007 A 
HETATM   15  C13 UNL     1       0.690  -1.676  -0.739  1.00  0.00    -0.018 A 
HETATM   16  C14 UNL     1      -0.740  -1.601  -0.546  1.00  0.00     0.033 A 
HETATM   17  C15 UNL     1      -1.496  -2.420  -1.490  1.00  0.00     0.249 A 
HETATM   18  O2  UNL     1      -2.715  -2.398  -1.377  1.00  0.00    -0.268 OA
HETATM   19  N2  UNL     1      -0.443  -2.970  -2.231  1.00  0.00    -0.353 N 
HETATM   20  C16 UNL     1       0.931  -2.640  -1.876  1.00  0.00     0.162 A 
HETATM   21  C17 UNL     1       2.786  -0.449   0.002  1.00  0.00     0.000 A 
HETATM   22  C18 UNL     1       3.831  -0.923  -0.689  1.00  0.00     0.014 A 
HETATM   23  C19 UNL     1       4.950  -0.140  -0.514  1.00  0.00     0.001 A 
HETATM   24  C20 UNL     1       4.959   0.983   0.278  1.00  0.00     0.002 A 
HETATM   25  C21 UNL     1       3.858   1.470   0.998  1.00  0.00     0.030 A 
HETATM   26  C22 UNL     1       2.739   0.717   0.845  1.00  0.00     0.047 A 
HETATM   27  N3  UNL     1       1.452   0.607   1.198  1.00  0.00    -0.326 N 
HETATM   28  H8  UNL     1      -0.691  -3.611  -3.034  1.00  0.00     0.163 HD
ENDROOT
BRANCH   1  29
HETATM   29  B1  UNL     1       1.605   2.551   2.962  1.00  0.00     0.215 B 
HETATM   30  H1  UNL     1       1.765   3.725   4.042  1.00  0.00    -0.026 HD
ENDBRANCH   1  29
TORSDOF 2
