REMARK  6 active torsions:
REMARK  status: ('A' for Active; 'I' for Inactive)
REMARK    1  A    between atoms: N1_2  and  C2_3 
REMARK       I    between atoms: N1_2  and  C11_13 
REMARK    2  A    between atoms: C2_3  and  C3_4 
REMARK    3  A    between atoms: C3_4  and  C4_5 
REMARK    4  A    between atoms: C4_5  and  N2_6 
REMARK    5  A    between atoms: C11_13  and  C12_15 
REMARK    6  A    between atoms: C15_18  and  C16_19 
ROOT
HETATM    1  C1  UNL     1      -1.387   1.724   0.532  1.00  0.00     0.152 C 
HETATM    2  N1  UNL     1      -0.926   0.911  -0.589  1.00  0.00    -0.352 N 
HETATM    3  C11 UNL     1      -1.710  -0.169  -1.134  1.00  0.00     0.253 C 
HETATM    4  O1  UNL     1      -1.562  -1.014  -2.075  1.00  0.00    -0.267 OA
ENDROOT
BRANCH   2   5
HETATM    5  C2  UNL     1       0.375   1.226  -1.155  1.00  0.00     0.127 C 
BRANCH   5   6
HETATM    6  C3  UNL     1       1.489   0.437  -0.460  1.00  0.00     0.040 C 
BRANCH   6   7
HETATM    7  C4  UNL     1       2.770   0.878  -1.163  1.00  0.00     0.131 C 
BRANCH   7   8
HETATM    8  N2  UNL     1       3.947   0.230  -0.635  1.00  0.00    -0.343 N 
HETATM    9  C5  UNL     1       4.807  -0.859  -0.294  1.00  0.00     0.062 A 
HETATM   10  C6  UNL     1       5.667  -1.879   0.053  1.00  0.00     0.032 A 
HETATM   11  C10 UNL     1       5.238   0.405   0.007  1.00  0.00     0.062 A 
HETATM   12  C7  UNL     1       6.892  -1.653   0.666  1.00  0.00     0.002 A 
HETATM   13  C8  UNL     1       7.270  -0.335   0.945  1.00  0.00     0.002 A 
HETATM   14  C9  UNL     1       6.452   0.730   0.622  1.00  0.00     0.032 A 
ENDBRANCH   7   8
ENDBRANCH   6   7
ENDBRANCH   5   6
ENDBRANCH   2   5
BRANCH   3  15
HETATM   15  C12 UNL     1      -3.005  -0.419  -0.507  1.00  0.00     0.032 A 
HETATM   16  C13 UNL     1      -3.285  -1.423   0.398  1.00  0.00     0.017 A 
HETATM   17  C14 UNL     1      -4.557  -1.566   0.930  1.00  0.00     0.009 A 
HETATM   18  C15 UNL     1      -5.584  -0.712   0.573  1.00  0.00    -0.044 A 
HETATM   19  C17 UNL     1      -5.296   0.294  -0.336  1.00  0.00     0.009 A 
HETATM   20  C18 UNL     1      -4.031   0.441  -0.869  1.00  0.00     0.017 A 
BRANCH  18  21
HETATM   21  C16 UNL     1      -6.971  -0.828   1.122  1.00  0.00     0.153 C 
HETATM   22 CL1  UNL     1      -7.119   0.155   2.612  1.00  0.00    -0.126 Cl
ENDBRANCH  18  21
ENDBRANCH   3  15
TORSDOF 6
