REMARK  1 active torsions:
REMARK  status: ('A' for Active; 'I' for Inactive)
REMARK    1  A    between atoms: N1_1  and  C1_2 
ROOT
HETATM    1  C1  UNL     1       0.958   0.255   1.323  1.00  0.00     0.215 C 
HETATM    2  C2  UNL     1      -0.129   0.720   2.207  1.00  0.00     0.172 C 
HETATM    3  N2  UNL     1      -1.383   0.312   1.468  1.00  0.00    -0.359 N 
HETATM    4  C3  UNL     1      -0.772  -0.791   1.118  1.00  0.00     0.095 A 
HETATM    5  C4  UNL     1      -1.615  -0.650  -0.031  1.00  0.00    -0.000 A 
HETATM    6  C5  UNL     1      -2.567   0.372  -0.217  1.00  0.00     0.000 A 
HETATM    7  C6  UNL     1      -3.449   0.647  -1.194  1.00  0.00     0.014 A 
HETATM    8  C7  UNL     1      -4.153   1.767  -0.909  1.00  0.00     0.001 A 
HETATM    9  C8  UNL     1      -3.957   2.506   0.251  1.00  0.00     0.002 A 
HETATM   10  C9  UNL     1      -3.043   2.196   1.233  1.00  0.00     0.030 A 
HETATM   11  C10 UNL     1      -2.321   1.104   1.010  1.00  0.00     0.042 A 
HETATM   12  C11 UNL     1      -1.260  -1.523  -0.951  1.00  0.00     0.027 C 
HETATM   13  C12 UNL     1      -1.609  -2.331  -2.088  1.00  0.00     0.248 C 
HETATM   14  O1  UNL     1      -2.819  -2.600  -1.995  1.00  0.00    -0.268 OA
HETATM   15  N3  UNL     1      -0.289  -2.399  -2.768  1.00  0.00    -0.356 N 
HETATM   16  C13 UNL     1       0.765  -1.481  -2.163  1.00  0.00     0.134 C 
HETATM   17  C14 UNL     1       0.296  -1.565  -0.783  1.00  0.00     0.064 C 
HETATM   18  C15 UNL     1       0.850  -0.849   0.372  1.00  0.00     0.070 A 
HETATM   19  C16 UNL     1       0.215  -1.624   1.412  1.00  0.00     0.004 A 
HETATM   20  C17 UNL     1       2.143  -0.388   0.034  1.00  0.00    -0.032 A 
HETATM   21  C18 UNL     1       3.321  -0.547  -0.700  1.00  0.00     0.009 A 
HETATM   22  C19 UNL     1       4.150   0.574  -0.776  1.00  0.00     0.001 A 
HETATM   23  C20 UNL     1       3.964   1.857  -0.209  1.00  0.00     0.001 A 
HETATM   24  C21 UNL     1       2.769   1.962   0.528  1.00  0.00     0.010 A 
HETATM   25  C22 UNL     1       1.968   0.823   0.586  1.00  0.00    -0.009 A 
HETATM   26  H9  UNL     1      -0.364  -3.088  -3.545  1.00  0.00     0.162 HD
ENDROOT
BRANCH   1  27
HETATM   27  N1  UNL     1       1.815  -0.441   2.503  1.00  0.00     0.095 N 
HETATM   28  H1  UNL     1       2.524  -0.982   2.018  1.00  0.00     0.314 HD
HETATM   29  H2  UNL     1       1.108  -0.924   3.025  1.00  0.00     0.314 HD
ENDBRANCH   1  27
TORSDOF 1
