REMARK  1 active torsions:
REMARK  status: ('A' for Active; 'I' for Inactive)
REMARK    1  A    between atoms: C13_16  and  C14_17 
ROOT
HETATM    1  O1  UNL     1      -4.114   1.026  -1.076  1.00  0.00    -0.268 OA
HETATM    2  C1  UNL     1      -3.557  -0.031  -0.704  1.00  0.00     0.253 A 
HETATM    3  N1  UNL     1      -4.149  -1.315  -0.605  1.00  0.00    -0.353 N 
HETATM    4  C2  UNL     1      -3.186  -2.263  -0.142  1.00  0.00     0.162 A 
HETATM    5  C3  UNL     1      -1.936  -1.490   0.048  1.00  0.00    -0.024 A 
HETATM    6  C4  UNL     1      -0.718  -1.956   0.483  1.00  0.00     0.011 A 
HETATM    7  C5  UNL     1       0.368  -1.096   0.609  1.00  0.00     0.013 A 
HETATM    8  C6  UNL     1       0.125   0.220   0.271  1.00  0.00    -0.015 A 
HETATM    9  C7  UNL     1      -1.081   0.728  -0.169  1.00  0.00    -0.007 A 
HETATM   10  C8  UNL     1      -2.158  -0.150  -0.289  1.00  0.00     0.049 A 
HETATM   11  C9  UNL     1      -1.647   2.024  -0.594  1.00  0.00     0.208 C 
HETATM   12  O2  UNL     1      -0.721   3.035  -0.624  1.00  0.00    -0.383 OA
HETATM   13  C10 UNL     1      -0.412   3.354   0.703  1.00  0.00     0.196 C 
HETATM   14  C11 UNL     1       1.009   3.008   0.943  1.00  0.00     0.012 C 
HETATM   15  C12 UNL     1       1.868   2.043   0.774  1.00  0.00    -0.015 C 
HETATM   16  C13 UNL     1       1.432   0.821   0.511  1.00  0.00    -0.004 C 
HETATM   17  H1  UNL     1      -5.145  -1.513  -0.841  1.00  0.00     0.163 HD
ENDROOT
BRANCH  16  18
HETATM   18  C14 UNL     1       2.592  -0.089   0.464  1.00  0.00    -0.019 A 
HETATM   19  C15 UNL     1       3.620  -0.644   1.235  1.00  0.00     0.006 A 
HETATM   20  C16 UNL     1       4.162  -1.373   0.200  1.00  0.00     0.043 A 
HETATM   21  C17 UNL     1       4.559  -2.030  -0.957  1.00  0.00    -0.006 A 
HETATM   22  C19 UNL     1       3.099  -0.809  -0.625  1.00  0.00    -0.030 A 
HETATM   23  C18 UNL     1       3.560  -1.500  -1.737  1.00  0.00     0.007 A 
ENDBRANCH  16  18
TORSDOF 1
