REMARK  8 active torsions:
REMARK  status: ('A' for Active; 'I' for Inactive)
REMARK    1  A    between atoms: C2_2  and  N1_3 
REMARK    2  A    between atoms: N1_3  and  C3_4 
REMARK    3  A    between atoms: C3_4  and  C4_5 
REMARK    4  A    between atoms: C4_5  and  C5_6 
REMARK    5  A    between atoms: C15_18  and  C16_19 
REMARK    6  A    between atoms: C16_19  and  C17_20 
REMARK    7  A    between atoms: C17_20  and  C18_21 
REMARK    8  A    between atoms: C18_21  and  N3_23 
ROOT
HETATM    1  C5  UNL     1       2.844  -0.609  -0.590  1.00  0.00     0.003 A 
HETATM    2  C6  UNL     1       1.469  -0.350  -0.511  1.00  0.00     0.062 A 
HETATM    3  N2  UNL     1       0.830  -1.383  -1.027  1.00  0.00    -0.322 N 
HETATM    4  C7  UNL     1       1.631  -2.350  -1.465  1.00  0.00     0.048 A 
HETATM    5  C8  UNL     1       1.351  -3.562  -2.056  1.00  0.00     0.030 A 
HETATM    6  C9  UNL     1       2.411  -4.370  -2.409  1.00  0.00     0.002 A 
HETATM    7  C10 UNL     1       3.676  -3.897  -2.140  1.00  0.00     0.001 A 
HETATM    8  C11 UNL     1       3.907  -2.676  -1.547  1.00  0.00     0.014 A 
HETATM    9  C12 UNL     1       2.870  -1.846  -1.183  1.00  0.00     0.003 A 
HETATM   10  C13 UNL     1      -0.653  -1.339  -1.024  1.00  0.00     0.299 C 
HETATM   11  O1  UNL     1      -0.998  -0.060  -1.200  1.00  0.00    -0.371 OA
HETATM   12  C14 UNL     1      -2.253   0.386  -1.065  1.00  0.00     0.174 C 
HETATM   13  C15 UNL     1      -2.830   0.208   0.322  1.00  0.00     0.011 C 
HETATM   14  C20 UNL     1      -1.888   0.316   1.451  1.00  0.00     0.026 C 
HETATM   15  C21 UNL     1      -0.998   1.510   1.509  1.00  0.00     0.119 C 
HETATM   16  N4  UNL     1      -0.082   1.576   0.360  1.00  0.00    -0.397 N 
HETATM   17  C22 UNL     1       1.001   0.762   0.007  1.00  0.00     0.113 C 
HETATM   18  H31 UNL     1      -0.366   2.404  -0.259  1.00  0.00     0.158 HD
ENDROOT
BRANCH  13  19
HETATM   19  C16 UNL     1      -4.144   0.875   0.551  1.00  0.00     0.013 C 
BRANCH  19  20
HETATM   20  C17 UNL     1      -5.151   0.301  -0.429  1.00  0.00     0.070 C 
BRANCH  20  21
HETATM   21  C18 UNL     1      -6.499   0.905  -0.276  1.00  0.00     0.073 C 
HETATM   22  S1  UNL     1      -7.240   1.709  -1.488  1.00  0.00    -0.066 SA
BRANCH  21  23
HETATM   23  N3  UNL     1      -7.233   0.816   0.954  1.00  0.00    -0.389 N 
HETATM   24  C19 UNL     1      -8.552   1.389   1.155  1.00  0.00     0.147 C 
HETATM   25  H23 UNL     1      -6.808   0.309   1.777  1.00  0.00     0.159 HD
ENDBRANCH  21  23
ENDBRANCH  20  21
ENDBRANCH  19  20
ENDBRANCH  13  19
BRANCH   1  26
HETATM   26  C4  UNL     1       3.881   0.106  -0.213  1.00  0.00     0.017 C 
BRANCH  26  27
HETATM   27  C3  UNL     1       5.318  -0.113  -0.271  1.00  0.00     0.298 C 
BRANCH  27  28
HETATM   28  N1  UNL     1       6.091   1.013   0.223  1.00  0.00     0.086 N 
HETATM   29  H6  UNL     1       5.997   1.844  -0.367  1.00  0.00     0.316 HD
BRANCH  28  30
HETATM   30  C2  UNL     1       5.974   1.248   1.626  1.00  0.00     0.265 C 
HETATM   31  C1  UNL     1       6.858   2.457   1.942  1.00  0.00     0.037 C 
ENDBRANCH  28  30
ENDBRANCH  27  28
ENDBRANCH  26  27
ENDBRANCH   1  26
TORSDOF 8
