REMARK  1 active torsions:
REMARK  status: ('A' for Active; 'I' for Inactive)
REMARK    1  A    between atoms: C1_2  and  C2_3 
ROOT
HETATM    1  C2  UNL     1      -3.486  -1.031   0.751  1.00  0.00     0.051 C 
HETATM    2  C3  UNL     1      -2.439  -0.371   0.278  1.00  0.00    -0.018 C 
HETATM    3  C4  UNL     1      -2.439   1.020  -0.226  1.00  0.00     0.001 A 
HETATM    4  C5  UNL     1      -3.436   1.883  -0.628  1.00  0.00     0.014 A 
HETATM    5  C6  UNL     1      -3.028   3.149  -1.057  1.00  0.00     0.001 A 
HETATM    6  C7  UNL     1      -1.688   3.521  -1.079  1.00  0.00     0.002 A 
HETATM    7  C8  UNL     1      -0.696   2.628  -0.667  1.00  0.00     0.032 A 
HETATM    8  C9  UNL     1      -1.140   1.398  -0.252  1.00  0.00     0.063 A 
HETATM    9  N1  UNL     1      -0.288   0.349   0.204  1.00  0.00    -0.274 N 
HETATM   10  C10 UNL     1      -1.037  -0.892   0.153  1.00  0.00     0.144 C 
HETATM   11  C11 UNL     1      -0.787  -1.805  -0.952  1.00  0.00     0.052 C 
HETATM   12  C12 UNL     1       0.446  -1.753  -1.747  1.00  0.00     0.122 C 
HETATM   13  N2  UNL     1       1.679  -2.105  -1.024  1.00  0.00    -0.388 N 
HETATM   14  C13 UNL     1       2.542  -1.315  -0.170  1.00  0.00     0.057 A 
HETATM   15  C14 UNL     1       3.770  -1.845  -0.068  1.00  0.00     0.031 A 
HETATM   16  C15 UNL     1       4.691  -1.175   0.718  1.00  0.00     0.002 A 
HETATM   17  C16 UNL     1       4.369   0.010   1.385  1.00  0.00     0.002 A 
HETATM   18  C17 UNL     1       3.123   0.574   1.299  1.00  0.00     0.034 A 
HETATM   19  C18 UNL     1       2.251  -0.124   0.514  1.00  0.00     0.084 A 
HETATM   20  N3  UNL     1       1.040   0.678   0.604  1.00  0.00    -0.238 N 
HETATM   21  C19 UNL     1       1.117   1.951   1.158  1.00  0.00     0.499 C 
HETATM   22  O2  UNL     1       1.250   3.105   1.673  1.00  0.00    -0.390 OA
HETATM   23  H12 UNL     1       2.115  -3.073  -1.057  1.00  0.00     0.159 HD
ENDROOT
BRANCH   1  24
HETATM   24  C1  UNL     1      -3.385  -2.406   1.227  1.00  0.00     0.259 C 
HETATM   25  O1  UNL     1      -4.398  -3.005   1.671  1.00  0.00    -0.302 OA
ENDBRANCH   1  24
TORSDOF 1
