REMARK  2 active torsions:
REMARK  status: ('A' for Active; 'I' for Inactive)
REMARK    1  A    between atoms: C7_8  and  N2_9 
REMARK    2  A    between atoms: N2_9  and  C8_10 
ROOT
HETATM    1  C1  UNL     1      -5.568   1.743   0.627  1.00  0.00     0.026 C 
HETATM    2  C2  UNL     1      -4.440   1.116   0.333  1.00  0.00    -0.003 A 
HETATM    3  C3  UNL     1      -3.118   1.716   0.222  1.00  0.00     0.025 A 
HETATM    4  C4  UNL     1      -2.184   0.792  -0.092  1.00  0.00    -0.000 A 
HETATM    5  C5  UNL     1      -0.734   0.887  -0.312  1.00  0.00     0.191 C 
HETATM    6  N1  UNL     1      -0.266   0.446  -1.597  1.00  0.00    -0.279 NA
HETATM    7  C6  UNL     1       0.482  -0.577  -1.685  1.00  0.00     0.129 C 
HETATM    8  C7  UNL     1       0.962  -1.015  -0.554  1.00  0.00     0.160 C 
HETATM    9  N3  UNL     1      -0.281  -1.429   0.069  1.00  0.00    -0.222 NA
HETATM   10  C14 UNL     1      -0.494  -2.709  -0.145  1.00  0.00     0.237 C 
HETATM   11  N4  UNL     1      -1.631  -3.463   0.325  1.00  0.00    -0.230 NA
HETATM   12  C15 UNL     1      -2.800  -2.896   0.134  1.00  0.00     0.260 C 
HETATM   13  O1  UNL     1      -2.388  -1.710  -0.495  1.00  0.00    -0.300 OA
HETATM   14  C16 UNL     1      -2.907  -0.466  -0.193  1.00  0.00     0.124 A 
HETATM   15  C17 UNL     1      -4.198  -0.293   0.048  1.00  0.00     0.160 A 
HETATM   16  F1  UNL     1      -5.258  -1.158   0.070  1.00  0.00    -0.202 F 
ENDROOT
BRANCH   8  17
HETATM   17  N2  UNL     1       2.203  -1.170   0.127  1.00  0.00    -0.339 N 
HETATM   18  H6  UNL     1       2.264  -2.091   0.618  1.00  0.00     0.167 HD
BRANCH  17  19
HETATM   19  C8  UNL     1       3.292  -0.259   0.201  1.00  0.00     0.035 A 
HETATM   20  C9  UNL     1       4.432  -0.561   0.907  1.00  0.00     0.029 A 
HETATM   21  C10 UNL     1       5.446   0.365   0.936  1.00  0.00     0.004 A 
HETATM   22  C11 UNL     1       5.389   1.582   0.299  1.00  0.00     0.019 A 
HETATM   23  C12 UNL     1       4.242   1.877  -0.407  1.00  0.00     0.013 A 
HETATM   24 BR1  UNL     1       4.116   3.564  -1.313  1.00  0.00    -0.051 Br
HETATM   25  C13 UNL     1       3.215   0.957  -0.446  1.00  0.00     0.048 A 
ENDBRANCH  17  19
ENDBRANCH   8  17
TORSDOF 2
