REMARK  4 active torsions:
REMARK  status: ('A' for Active; 'I' for Inactive)
REMARK    1  A    between atoms: O1_2  and  S1_3 
REMARK    2  A    between atoms: S1_3  and  C2_4 
REMARK    3  A    between atoms: C2_4  and  C3_5 
REMARK    4  A    between atoms: C3_5  and  C4_7 
ROOT
HETATM    1  C2  UNL     1       0.469   0.740  -0.039  1.00  0.00     0.134 C 
HETATM    2  C5  UNL     1       0.188   0.203  -1.320  1.00  0.00     0.038 C 
HETATM    3  C6  UNL     1      -0.308  -0.463  -2.456  1.00  0.00     0.022 C 
HETATM    4  C7  UNL     1      -1.397  -1.438  -1.999  1.00  0.00     0.120 C 
HETATM    5  N1  UNL     1      -2.048  -1.138  -0.774  1.00  0.00    -0.389 N 
HETATM    6  C8  UNL     1      -1.768  -0.667   0.558  1.00  0.00     0.037 C 
HETATM    7  C9  UNL     1      -2.662  -0.884   1.482  1.00  0.00     0.031 C 
HETATM    8  C10 UNL     1      -2.344  -0.394   2.818  1.00  0.00     0.015 C 
HETATM    9  C11 UNL     1      -1.199   0.243   3.005  1.00  0.00    -0.013 C 
HETATM   10  C12 UNL     1      -0.221   0.105   2.194  1.00  0.00    -0.003 C 
HETATM   11  C13 UNL     1      -0.516   0.051   0.930  1.00  0.00     0.009 C 
HETATM   12  H10 UNL     1      -3.106  -1.306  -0.804  1.00  0.00     0.159 HD
ENDROOT
BRANCH   1  13
HETATM   13  S1  UNL     1       2.166   0.425   0.577  1.00  0.00     0.011 SA
BRANCH  13  14
HETATM   14  O1  UNL     1       2.616  -1.205   0.399  1.00  0.00    -0.323 OA
HETATM   15  C1  UNL     1       3.697  -1.425   1.276  1.00  0.00     0.220 C 
ENDBRANCH  13  14
ENDBRANCH   1  13
BRANCH   1  16
HETATM   16  C3  UNL     1       0.256   2.200   0.198  1.00  0.00     0.258 C 
HETATM   17  O2  UNL     1      -0.504   2.668   1.025  1.00  0.00    -0.286 OA
BRANCH  16  18
HETATM   18  C4  UNL     1       1.034   3.131  -0.644  1.00  0.00     0.453 C 
HETATM   19  F1  UNL     1       2.389   2.898  -0.431  1.00  0.00    -0.163 F 
HETATM   20  F2  UNL     1       0.719   2.979  -1.991  1.00  0.00    -0.163 F 
HETATM   21  F3  UNL     1       0.805   4.452  -0.301  1.00  0.00    -0.163 F 
ENDBRANCH  16  18
ENDBRANCH   1  16
TORSDOF 4
