REMARK  7 active torsions:
REMARK  status: ('A' for Active; 'I' for Inactive)
REMARK    1  A    between atoms: C2_2  and  C3_4 
REMARK    2  A    between atoms: C3_4  and  N1_5 
REMARK    3  A    between atoms: N1_5  and  C4_6 
REMARK    4  A    between atoms: C4_6  and  C5_7 
REMARK    5  A    between atoms: C5_7  and  C6_8 
REMARK    6  A    between atoms: C6_8  and  N2_9 
REMARK    7  A    between atoms: C12_15  and  C13_16 
ROOT
HETATM    1  N2  UNL     1       0.664  -0.853  -0.667  1.00  0.00    -0.380 N 
HETATM    2  C7  UNL     1       1.014  -2.250  -0.903  1.00  0.00     0.128 C 
HETATM    3  C8  UNL     1       0.121  -2.921   0.141  1.00  0.00     0.061 C 
HETATM    4  C9  UNL     1      -1.096  -2.064   0.057  1.00  0.00    -0.021 A 
HETATM    5  C10 UNL     1      -0.738  -0.826  -0.433  1.00  0.00     0.038 A 
HETATM    6  C11 UNL     1      -1.630   0.217  -0.639  1.00  0.00     0.043 A 
HETATM    7  C12 UNL     1      -2.983   0.023  -0.335  1.00  0.00    -0.007 A 
HETATM    8  C19 UNL     1      -3.352  -1.232   0.164  1.00  0.00     0.051 A 
HETATM    9  C20 UNL     1      -2.434  -2.248   0.354  1.00  0.00    -0.015 A 
HETATM   10  C21 UNL     1      -3.154  -3.448   0.869  1.00  0.00     0.163 A 
HETATM   11  N3  UNL     1      -4.527  -3.036   1.019  1.00  0.00    -0.353 N 
HETATM   12  C22 UNL     1      -4.670  -1.696   0.569  1.00  0.00     0.253 A 
HETATM   13  O2  UNL     1      -5.766  -1.086   0.551  1.00  0.00    -0.268 OA
HETATM   14  H25 UNL     1      -5.271  -3.654   1.403  1.00  0.00     0.163 HD
ENDROOT
BRANCH   1  15
HETATM   15  C6  UNL     1       1.635   0.237  -0.684  1.00  0.00     0.124 C 
BRANCH  15  16
HETATM   16  C5  UNL     1       2.532   0.047   0.492  1.00  0.00     0.050 C 
BRANCH  16  17
HETATM   17  C4  UNL     1       3.609   1.066   0.666  1.00  0.00     0.271 C 
BRANCH  17  18
HETATM   18  N1  UNL     1       4.533   1.175  -0.418  1.00  0.00     0.090 N 
HETATM   19  H6  UNL     1       5.039   0.259  -0.548  1.00  0.00     0.316 HD
BRANCH  18  20
HETATM   20  C3  UNL     1       5.567   2.122  -0.051  1.00  0.00     0.346 C 
BRANCH  20  21
HETATM   21  C2  UNL     1       6.464   1.549   1.013  1.00  0.00     0.150 C 
HETATM   22  C1  UNL     1       6.575   0.234   1.698  1.00  0.00     0.092 C 
HETATM   23  O1  UNL     1       7.312   2.301   1.442  1.00  0.00    -0.297 OA
ENDBRANCH  20  21
ENDBRANCH  18  20
ENDBRANCH  17  18
ENDBRANCH  16  17
ENDBRANCH  15  16
ENDBRANCH   1  15
BRANCH   7  24
HETATM   24  C13 UNL     1      -3.862   1.136  -0.555  1.00  0.00    -0.025 A 
HETATM   25  C14 UNL     1      -4.773   1.752   0.268  1.00  0.00     0.012 A 
HETATM   26  C15 UNL     1      -5.553   2.812  -0.140  1.00  0.00     0.001 A 
HETATM   27  C16 UNL     1      -5.423   3.289  -1.437  1.00  0.00     0.000 A 
HETATM   28  C17 UNL     1      -4.512   2.701  -2.321  1.00  0.00     0.001 A 
HETATM   29  C18 UNL     1      -3.743   1.629  -1.862  1.00  0.00     0.012 A 
ENDBRANCH   7  24
TORSDOF 7
