REMARK  3 active torsions:
REMARK  status: ('A' for Active; 'I' for Inactive)
REMARK    1  A    between atoms: C2_2  and  C3_3 
REMARK    2  A    between atoms: C20_23  and  C22_25 
REMARK    3  A    between atoms: C22_25  and  C23_27 
ROOT
HETATM    1  C3  UNL     1       4.701  -0.907  -1.997  1.00  0.00     0.028 C 
HETATM    2  C4  UNL     1       3.587  -0.515  -1.351  1.00  0.00     0.065 A 
HETATM    3  C5  UNL     1       3.133   0.559  -0.540  1.00  0.00     0.062 A 
HETATM    4  C6  UNL     1       2.749   1.604   0.283  1.00  0.00     0.010 C 
HETATM    5  C7  UNL     1       1.439   1.906  -0.266  1.00  0.00     0.067 C 
HETATM    6  C8  UNL     1       0.265   1.838   0.576  1.00  0.00    -0.040 A 
HETATM    7  C9  UNL     1      -0.376   2.797   1.126  1.00  0.00    -0.022 A 
HETATM    8  C10 UNL     1      -0.943   3.624   1.587  1.00  0.00    -0.057 A 
HETATM    9  C11 UNL     1      -1.632   4.592   2.121  1.00  0.00     0.037 A 
HETATM   10  C12 UNL     1      -2.602   3.818   1.351  1.00  0.00     0.048 A 
HETATM   11  C13 UNL     1      -3.279   2.547   1.240  1.00  0.00     0.000 C 
HETATM   12  C14 UNL     1      -2.740   1.508   0.519  1.00  0.00     0.086 C 
HETATM   13  N1  UNL     1      -1.702   0.650   0.407  1.00  0.00    -0.345 N 
HETATM   14  C15 UNL     1      -0.700   1.059   1.234  1.00  0.00     0.150 A 
HETATM   15  C16 UNL     1      -1.318  -0.514  -0.295  1.00  0.00     0.154 C 
HETATM   16  C17 UNL     1      -2.122  -0.499  -1.588  1.00  0.00     0.072 C 
HETATM   17  O1  UNL     1      -0.014  -0.214  -0.695  1.00  0.00    -0.309 OA
HETATM   18  C18 UNL     1       0.858  -1.164  -0.942  1.00  0.00     0.474 C 
HETATM   19  N2  UNL     1       0.904  -2.237   0.050  1.00  0.00     0.134 N 
HETATM   20  C19 UNL     1      -0.051  -2.039   1.123  1.00  0.00     0.297 C 
HETATM   21  C20 UNL     1      -1.382  -1.781   0.450  1.00  0.00     0.102 C 
HETATM   22  C21 UNL     1      -1.539  -3.011  -0.442  1.00  0.00     0.030 C 
HETATM   23  N3  UNL     1       2.242  -0.623  -0.943  1.00  0.00    -0.291 N 
HETATM   24  H17 UNL     1       1.865  -2.423   0.413  1.00  0.00     0.321 HD
ENDROOT
BRANCH  21  25
HETATM   25  C22 UNL     1      -2.443  -1.909   1.470  1.00  0.00     0.247 C 
HETATM   26  O2  UNL     1      -2.483  -2.005   2.703  1.00  0.00    -0.287 OA
BRANCH  25  27
HETATM   27  C23 UNL     1      -3.921  -1.990   1.567  1.00  0.00     0.452 C 
HETATM   28  F1  UNL     1      -4.232  -1.995   2.935  1.00  0.00    -0.163 F 
HETATM   29  F2  UNL     1      -4.609  -0.988   0.974  1.00  0.00    -0.163 F 
HETATM   30  F3  UNL     1      -4.373  -3.247   1.109  1.00  0.00    -0.163 F 
ENDBRANCH  25  27
ENDBRANCH  21  25
BRANCH   1  31
HETATM   31  C2  UNL     1       5.934  -0.168  -2.012  1.00  0.00    -0.024 C 
HETATM   32  C1  UNL     1       7.009  -0.572  -2.648  1.00  0.00     0.031 C 
ENDBRANCH   1  31
TORSDOF 3
