REMARK  4 active torsions:
REMARK  status: ('A' for Active; 'I' for Inactive)
REMARK    1  A    between atoms: C2_3  and  C3_4 
REMARK    2  A    between atoms: C5_6  and  P1_7 
REMARK    3  A    between atoms: C8_10  and  N1_11 
REMARK    4  A    between atoms: N1_11  and  C9_12 
ROOT
HETATM    1  C3  UNL     1      -3.770   0.063  -0.255  1.00  0.00     0.076 C 
HETATM    2  C4  UNL     1      -3.432  -0.215   1.017  1.00  0.00     0.020 C 
HETATM    3  C5  UNL     1      -2.222  -0.939   1.451  1.00  0.00     0.038 C 
HETATM    4  C6  UNL     1      -0.931  -0.138   1.204  1.00  0.00     0.060 C 
HETATM    5  C7  UNL     1      -0.668  -0.094  -0.250  1.00  0.00     0.042 A 
HETATM    6  C8  UNL     1       0.662   0.040  -0.617  1.00  0.00     0.140 A 
HETATM    7  N2  UNL     1       0.996   0.070  -1.904  1.00  0.00    -0.224 NA
HETATM    8  C15 UNL     1       0.137  -0.020  -2.924  1.00  0.00     0.238 A 
HETATM    9  N3  UNL     1      -1.167  -0.150  -2.637  1.00  0.00    -0.217 NA
HETATM   10  C16 UNL     1      -1.560  -0.186  -1.329  1.00  0.00     0.181 A 
HETATM   11  O1  UNL     1      -2.967  -0.325  -1.352  1.00  0.00    -0.292 OA
ENDROOT
BRANCH   6  12
HETATM   12  N1  UNL     1       1.672   0.193   0.357  1.00  0.00    -0.340 N 
HETATM   13  H9  UNL     1       1.455   0.327   1.385  1.00  0.00     0.167 HD
BRANCH  12  14
HETATM   14  C9  UNL     1       3.076   0.210   0.151  1.00  0.00     0.035 A 
HETATM   15  C10 UNL     1       3.706  -0.246  -0.982  1.00  0.00     0.029 A 
HETATM   16  C11 UNL     1       5.063  -0.220  -1.197  1.00  0.00     0.004 A 
HETATM   17  C12 UNL     1       5.875   0.298  -0.220  1.00  0.00     0.019 A 
HETATM   18  C13 UNL     1       5.323   0.777   0.948  1.00  0.00     0.013 A 
HETATM   19 BR1  UNL     1       6.414   1.509   2.342  1.00  0.00    -0.051 Br
HETATM   20  C14 UNL     1       3.971   0.712   1.077  1.00  0.00     0.048 A 
ENDBRANCH  12  14
ENDBRANCH   6  12
BRANCH   3  21
HETATM   21  P1  UNL     1      -2.348  -1.574   3.166  1.00  0.00    -0.133 P 
HETATM   22  H5  UNL     1      -0.993  -1.591   3.724  1.00  0.00     0.055 HD
HETATM   23  H6  UNL     1      -2.760  -2.988   3.168  1.00  0.00     0.055 HD
ENDBRANCH   3  21
BRANCH   1  24
HETATM   24  C2  UNL     1      -5.020   0.794  -0.469  1.00  0.00     0.066 C 
HETATM   25  C1  UNL     1      -5.496   1.144  -1.633  1.00  0.00     0.191 C 
HETATM   26  F1  UNL     1      -6.661   1.824  -1.809  1.00  0.00    -0.219 F 
ENDBRANCH   1  24
TORSDOF 4
