REMARK  2 active torsions:
REMARK  status: ('A' for Active; 'I' for Inactive)
REMARK    1  A    between atoms: C7_11  and  N3_12 
REMARK    2  A    between atoms: N3_12  and  C8_13 
ROOT
HETATM    1  F1  UNL     1      -6.660   0.019  -2.226  1.00  0.00    -0.210 F 
HETATM    2  C1  UNL     1      -5.606  -0.098  -1.394  1.00  0.00     0.103 A 
HETATM    3  C2  UNL     1      -5.620  -1.002  -0.438  1.00  0.00     0.042 A 
HETATM    4  C3  UNL     1      -4.626  -1.326   0.576  1.00  0.00     0.047 A 
HETATM    5  C4  UNL     1      -3.497  -0.593   0.552  1.00  0.00     0.110 A 
HETATM    6  O1  UNL     1      -2.496  -0.872   1.521  1.00  0.00    -0.283 OA
HETATM    7  C5  UNL     1      -1.100  -0.718   1.337  1.00  0.00     0.202 A 
HETATM    8  N1  UNL     1      -0.514  -1.676   2.080  1.00  0.00    -0.215 NA
HETATM    9  C6  UNL     1       0.815  -1.818   2.134  1.00  0.00     0.238 A 
HETATM   10  N2  UNL     1       1.560  -0.973   1.422  1.00  0.00    -0.222 NA
HETATM   11  C7  UNL     1       1.012  -0.012   0.674  1.00  0.00     0.160 A 
HETATM   12  C14 UNL     1      -0.358   0.147   0.609  1.00  0.00     0.133 A 
HETATM   13  N4  UNL     1      -0.688   1.239  -0.241  1.00  0.00    -0.354 N 
HETATM   14  C15 UNL     1      -1.887   1.515  -0.979  1.00  0.00     0.130 C 
HETATM   15  S1  UNL     1      -3.273   0.713  -0.691  1.00  0.00    -0.117 SA
HETATM   16  C16 UNL     1      -4.618   0.958  -1.859  1.00  0.00     0.146 A 
HETATM   17  H9  UNL     1       0.052   1.995  -0.371  1.00  0.00     0.166 HD
ENDROOT
BRANCH  11  18
HETATM   18  N3  UNL     1       1.924   0.810  -0.041  1.00  0.00    -0.339 N 
HETATM   19  H4  UNL     1       1.911   1.642  -0.663  1.00  0.00     0.167 HD
BRANCH  18  20
HETATM   20  C8  UNL     1       3.318   0.539  -0.005  1.00  0.00     0.035 A 
HETATM   21  C9  UNL     1       3.722  -0.795  -0.037  1.00  0.00     0.029 A 
HETATM   22  C10 UNL     1       5.041  -1.164   0.017  1.00  0.00     0.004 A 
HETATM   23  C11 UNL     1       6.056  -0.219   0.106  1.00  0.00     0.019 A 
HETATM   24  C12 UNL     1       5.694   1.109   0.139  1.00  0.00     0.013 A 
HETATM   25 BR1  UNL     1       7.010   2.467   0.260  1.00  0.00    -0.051 Br
HETATM   26  C13 UNL     1       4.361   1.446   0.084  1.00  0.00     0.048 A 
ENDBRANCH  18  20
ENDBRANCH  11  18
TORSDOF 2
