REMARK  8 active torsions:
REMARK  status: ('A' for Active; 'I' for Inactive)
REMARK    1  A    between atoms: C4_4  and  C5_5 
REMARK    2  A    between atoms: C5_5  and  N1_6 
REMARK    3  A    between atoms: N1_6  and  C6_7 
REMARK    4  A    between atoms: C8_10  and  N2_11 
REMARK    5  A    between atoms: C10_13  and  N3_14 
REMARK       I    between atoms: N3_14  and  C12_16 
REMARK    6  A    between atoms: C12_16  and  C13_18 
REMARK    7  A    between atoms: C19_24  and  O3_25 
REMARK    8  A    between atoms: C23_29  and  C24_30 
ROOT
HETATM    1  C1  UNL     1       3.424   3.073   0.991  1.00  0.00     0.017 C 
HETATM    2  C2  UNL     1       3.803   2.320   0.145  1.00  0.00    -0.081 C 
HETATM    3  C3  UNL     1       4.252   1.419  -0.896  1.00  0.00     0.013 A 
HETATM    4  C4  UNL     1       3.601   0.274  -1.064  1.00  0.00    -0.015 A 
HETATM    5  C21 UNL     1       4.302  -0.399  -2.181  1.00  0.00     0.007 A 
HETATM    6  C22 UNL     1       5.304   0.333  -2.620  1.00  0.00    -0.013 A 
HETATM    7  C23 UNL     1       5.384   1.578  -1.844  1.00  0.00     0.084 A 
ENDROOT
BRANCH   4   8
HETATM    8  C5  UNL     1       2.472  -0.515  -0.535  1.00  0.00     0.313 C 
BRANCH   8   9
HETATM    9  N1  UNL     1       1.803   0.132   0.549  1.00  0.00     0.125 N 
HETATM   10  H4  UNL     1       2.510   0.268   1.312  1.00  0.00     0.320 HD
BRANCH   9  11
HETATM   11  C6  UNL     1       0.745  -0.679   1.125  1.00  0.00     0.285 C 
HETATM   12  C7  UNL     1       1.472  -1.944   1.635  1.00  0.00     0.084 C 
HETATM   13  O1  UNL     1       0.232   0.022   2.213  1.00  0.00    -0.315 OA
HETATM   14  C8  UNL     1      -0.069   1.308   1.797  1.00  0.00     0.357 C 
HETATM   15  C9  UNL     1      -0.724   1.353   0.437  1.00  0.00     0.091 C 
HETATM   16  C10 UNL     1      -1.425   0.046   0.169  1.00  0.00     0.125 C 
HETATM   17  C19 UNL     1      -0.352  -1.047   0.202  1.00  0.00     0.209 C 
BRANCH  14  18
HETATM   18  N2  UNL     1      -0.894   2.008   2.788  1.00  0.00     0.107 N 
HETATM   19  H9  UNL     1      -0.900   3.011   2.575  1.00  0.00     0.316 HD
HETATM   20  H10 UNL     1      -0.512   1.832   3.728  1.00  0.00     0.316 HD
ENDBRANCH  14  18
BRANCH  16  21
HETATM   21  N3  UNL     1      -2.036   0.098  -1.156  1.00  0.00    -0.345 N 
HETATM   22  C11 UNL     1      -1.293   0.333  -2.377  1.00  0.00     0.153 C 
HETATM   23  C12 UNL     1      -3.432  -0.072  -1.426  1.00  0.00     0.253 C 
HETATM   24  O2  UNL     1      -4.102  -0.054  -2.486  1.00  0.00    -0.267 OA
BRANCH  23  25
HETATM   25  C13 UNL     1      -4.517  -0.327  -0.481  1.00  0.00     0.032 A 
HETATM   26  C14 UNL     1      -4.848   0.814   0.222  1.00  0.00     0.017 A 
HETATM   27  C15 UNL     1      -5.863   0.771   1.170  1.00  0.00     0.001 A 
HETATM   28  C16 UNL     1      -6.542  -0.421   1.406  1.00  0.00     0.000 A 
HETATM   29  C17 UNL     1      -6.196  -1.545   0.694  1.00  0.00     0.001 A 
HETATM   30  C18 UNL     1      -5.180  -1.512  -0.257  1.00  0.00     0.017 A 
ENDBRANCH  23  25
ENDBRANCH  16  21
BRANCH  17  31
HETATM   31  O3  UNL     1      -0.906  -2.252   0.639  1.00  0.00    -0.384 OA
HETATM   32  C20 UNL     1      -0.992  -3.225  -0.324  1.00  0.00     0.202 C 
ENDBRANCH  17  31
ENDBRANCH   9  11
ENDBRANCH   8   9
ENDBRANCH   4   8
BRANCH   7  33
HETATM   33  C24 UNL     1       6.617   1.459  -0.984  1.00  0.00     0.404 C 
HETATM   34  O4  UNL     1       7.660   1.023  -0.584  1.00  0.00    -0.429 OA
ENDBRANCH   7  33
TORSDOF 8
