REMARK  5 active torsions:
REMARK  status: ('A' for Active; 'I' for Inactive)
REMARK    1  A    between atoms: C1_2  and  N1_3 
REMARK    2  A    between atoms: N1_3  and  C2_4 
REMARK    3  A    between atoms: C2_4  and  C3_5 
REMARK    4  A    between atoms: C12_16  and  C13_17 
REMARK    5  A    between atoms: C14_18  and  C15_19 
ROOT
HETATM    1  C3  UNL     1      -0.703   0.192  -0.432  1.00  0.00     0.065 C 
HETATM    2  C4  UNL     1      -2.001  -0.529  -0.180  1.00  0.00    -0.023 A 
HETATM    3  C5  UNL     1      -3.121   0.202   0.099  1.00  0.00     0.010 A 
HETATM    4  C6  UNL     1      -4.346  -0.346   0.331  1.00  0.00     0.001 A 
HETATM    5  C7  UNL     1      -4.526  -1.708   0.296  1.00  0.00     0.002 A 
HETATM    6  C8  UNL     1      -3.433  -2.470   0.022  1.00  0.00     0.030 A 
HETATM    7  C9  UNL     1      -2.181  -1.922  -0.216  1.00  0.00     0.038 A 
HETATM    8  N2  UNL     1      -1.417  -3.129  -0.454  1.00  0.00    -0.364 N 
HETATM    9  C10 UNL     1       0.014  -3.290  -0.308  1.00  0.00     0.105 C 
HETATM   10  C11 UNL     1       1.029  -2.559   0.181  1.00  0.00     0.100 C 
HETATM   11  N3  UNL     1       0.945  -1.256   0.759  1.00  0.00    -0.389 N 
HETATM   12  C12 UNL     1       0.216  -0.015   0.726  1.00  0.00     0.114 C 
HETATM   13  H10 UNL     1      -1.925  -3.960  -0.758  1.00  0.00     0.165 HD
HETATM   14  H13 UNL     1       1.702  -1.158   1.507  1.00  0.00     0.159 HD
ENDROOT
BRANCH  12  15
HETATM   15  C13 UNL     1       1.154   1.083   0.917  1.00  0.00    -0.001 C 
HETATM   16  C14 UNL     1       2.398   1.528   0.855  1.00  0.00     0.009 C 
BRANCH  16  17
HETATM   17  C15 UNL     1       3.629   0.892   0.456  1.00  0.00    -0.036 A 
HETATM   18  C16 UNL     1       3.954  -0.299   0.026  1.00  0.00     0.011 A 
HETATM   19  C17 UNL     1       5.345   0.072  -0.079  1.00  0.00     0.002 A 
HETATM   20  C18 UNL     1       5.030   1.272   0.351  1.00  0.00     0.011 A 
ENDBRANCH  16  17
ENDBRANCH  12  15
BRANCH   1  21
HETATM   21  C2  UNL     1      -1.017   1.637  -0.627  1.00  0.00     0.133 C 
BRANCH  21  22
HETATM   22  N1  UNL     1       0.146   2.465  -0.989  1.00  0.00    -0.367 N 
HETATM   23  H2  UNL     1       1.140   2.750  -1.238  1.00  0.00     0.161 HD
BRANCH  22  24
HETATM   24  C1  UNL     1      -0.335   3.832  -1.117  1.00  0.00     0.348 C 
HETATM   25  O1  UNL     1      -1.456   4.444  -0.997  1.00  0.00    -0.284 OA
ENDBRANCH  22  24
ENDBRANCH  21  22
ENDBRANCH   1  21
TORSDOF 5
