REMARK  7 active torsions:
REMARK  status: ('A' for Active; 'I' for Inactive)
REMARK    1  A    between atoms: S1_2  and  C2_5 
REMARK    2  A    between atoms: C6_9  and  C7_10 
REMARK    3  A    between atoms: C6_9  and  C12_16 
REMARK    4  A    between atoms: C12_16  and  C13_17 
REMARK    5  A    between atoms: C17_21  and  C18_22 
REMARK    6  A    between atoms: C18_22  and  N2_23 
REMARK    7  A    between atoms: N2_23  and  C19_24 
ROOT
HETATM    1  C2  UNL     1       2.141   0.283   0.876  1.00  0.00     0.131 C 
HETATM    2  C3  UNL     1       1.174   1.337   0.606  1.00  0.00    -0.009 C 
HETATM    3  C4  UNL     1       0.303   2.417   0.530  1.00  0.00     0.003 C 
HETATM    4  C5  UNL     1      -0.541   2.444  -0.777  1.00  0.00     0.209 A 
HETATM    5  C6  UNL     1      -2.067   2.733  -0.594  1.00  0.00     0.039 A 
HETATM    6  C7  UNL     1      -2.984   2.362   0.496  1.00  0.00     0.019 A 
HETATM    7  C8  UNL     1      -3.190   1.113   1.206  1.00  0.00     0.011 A 
HETATM    8  C9  UNL     1      -2.159   0.845   0.267  1.00  0.00     0.046 A 
HETATM    9  C10 UNL     1      -1.190  -0.252  -0.132  1.00  0.00     0.207 A 
HETATM   10  C11 UNL     1      -0.215   0.006  -1.175  1.00  0.00     0.153 A 
HETATM   11  N1  UNL     1      -0.840   1.006  -1.037  1.00  0.00    -0.004 N 
HETATM   12  C12 UNL     1      -1.657   1.915  -0.681  1.00  0.00     0.166 A 
HETATM   13  C13 UNL     1      -1.280   3.051  -1.530  1.00  0.00     0.072 A 
HETATM   14  C14 UNL     1       0.348  -1.061  -1.198  1.00  0.00     0.015 C 
HETATM   15  C15 UNL     1       0.456  -1.240   0.312  1.00  0.00     0.026 C 
HETATM   16  C16 UNL     1       1.792  -1.205   0.500  1.00  0.00     0.033 C 
HETATM   17  C17 UNL     1      -0.963  -1.574   0.335  1.00  0.00     0.036 C 
ENDROOT
BRANCH  17  18
HETATM   18  C18 UNL     1      -2.093  -2.499   0.576  1.00  0.00     0.136 C 
BRANCH  18  19
HETATM   19  N2  UNL     1      -2.203  -3.426  -0.533  1.00  0.00    -0.367 N 
HETATM   20  H17 UNL     1      -1.536  -3.364  -1.366  1.00  0.00     0.161 HD
BRANCH  19  21
HETATM   21  C19 UNL     1      -3.268  -4.383  -0.367  1.00  0.00     0.348 C 
HETATM   22  O3  UNL     1      -3.778  -4.089   0.751  1.00  0.00    -0.284 OA
ENDBRANCH  19  21
ENDBRANCH  18  19
ENDBRANCH  17  18
BRANCH   1  23
HETATM   23  S1  UNL     1       3.825   0.605   0.809  1.00  0.00     0.148 S 
HETATM   24  C1  UNL     1       4.481   0.857  -0.806  1.00  0.00     0.162 C 
HETATM   25  O1  UNL     1       4.541  -0.613   1.380  1.00  0.00    -0.228 OA
HETATM   26  O2  UNL     1       4.187   1.759   1.717  1.00  0.00    -0.228 OA
ENDBRANCH   1  23
TORSDOF 7
