REMARK  4 active torsions:
REMARK  status: ('A' for Active; 'I' for Inactive)
REMARK    1  A    between atoms: N1_2  and  C2_3 
REMARK    2  A    between atoms: N3_12  and  C9_13 
REMARK    3  A    between atoms: C14_18  and  C15_19 
REMARK    4  A    between atoms: C16_21  and  O2_22 
ROOT
HETATM    1  C2  UNL     1      -2.183  -0.546  -0.747  1.00  0.00     0.257 C 
HETATM    2  C3  UNL     1      -0.916  -1.009  -0.072  1.00  0.00     0.092 C 
HETATM    3  C4  UNL     1       0.233  -0.233  -0.679  1.00  0.00     0.233 C 
HETATM    4  O1  UNL     1      -0.087   1.062  -0.977  1.00  0.00    -0.334 OA
HETATM    5  C5  UNL     1      -1.118   1.626  -0.257  1.00  0.00     0.161 C 
HETATM    6  C6  UNL     1      -1.315   3.030  -0.846  1.00  0.00     0.074 C 
HETATM    7  N2  UNL     1      -0.812   1.817   1.137  1.00  0.00    -0.365 N 
HETATM    8  C7  UNL     1       0.264   1.354   1.967  1.00  0.00     0.103 C 
HETATM    9  C8  UNL     1       1.154   0.444   1.534  1.00  0.00     0.110 C 
HETATM   10  N3  UNL     1       1.367  -0.198   0.258  1.00  0.00    -0.328 N 
HETATM   11  C16 UNL     1      -2.433   0.913  -0.372  1.00  0.00     0.209 C 
HETATM   12  H12 UNL     1      -1.508   2.409   1.647  1.00  0.00     0.162 HD
ENDROOT
BRANCH  10  13
HETATM   13  C9  UNL     1       2.686  -0.681   0.171  1.00  0.00     0.043 A 
HETATM   14  C10 UNL     1       2.900  -1.663   1.146  1.00  0.00     0.030 A 
HETATM   15  C11 UNL     1       4.124  -2.317   1.277  1.00  0.00     0.002 A 
HETATM   16  C12 UNL     1       5.125  -1.955   0.402  1.00  0.00     0.001 A 
HETATM   17  C13 UNL     1       4.936  -0.985  -0.572  1.00  0.00     0.010 A 
HETATM   18  C14 UNL     1       3.716  -0.356  -0.678  1.00  0.00    -0.018 A 
BRANCH  18  19
HETATM   19  C15 UNL     1       3.375   0.694  -1.656  1.00  0.00     0.155 C 
HETATM   20 CL1  UNL     1       3.369   2.299  -0.841  1.00  0.00    -0.125 Cl
ENDBRANCH  18  19
ENDBRANCH  10  13
BRANCH   1  21
HETATM   21  N1  UNL     1      -3.274  -1.401  -0.294  1.00  0.00     0.086 N 
HETATM   22  C1  UNL     1      -2.929  -2.752  -0.679  1.00  0.00     0.307 C 
HETATM   23  H4  UNL     1      -3.299  -1.287   0.758  1.00  0.00     0.316 HD
ENDBRANCH   1  21
BRANCH  11  24
HETATM   24  O2  UNL     1      -3.112   0.874   0.835  1.00  0.00    -0.384 OA
HETATM   25  C17 UNL     1      -4.377   1.411   0.721  1.00  0.00     0.202 C 
ENDBRANCH  11  24
TORSDOF 4
