REMARK  6 active torsions:
REMARK  status: ('A' for Active; 'I' for Inactive)
REMARK    1  A    between atoms: C3_3  and  C4_4 
REMARK    2  A    between atoms: C11_12  and  N2_13 
REMARK    3  A    between atoms: N2_13  and  C13_15 
REMARK    4  A    between atoms: C13_15  and  C14_16 
REMARK    5  A    between atoms: C14_16  and  O2_18 
REMARK    6  A    between atoms: C16_20  and  O3_21 
ROOT
HETATM    1  C4  UNL     1       5.442  -0.002  -1.626  1.00  0.00     0.006 C 
HETATM    2  C5  UNL     1       4.297  -0.535  -1.333  1.00  0.00    -0.028 A 
HETATM    3  C6  UNL     1       3.438  -1.590  -1.109  1.00  0.00     0.082 A 
HETATM    4  C7  UNL     1       2.241  -2.119  -0.796  1.00  0.00     0.043 A 
HETATM    5  N1  UNL     1       1.741  -0.825  -0.650  1.00  0.00    -0.337 N 
HETATM    6  C8  UNL     1       2.968  -0.388  -0.971  1.00  0.00     0.110 A 
HETATM    7  C9  UNL     1       0.380  -0.696  -0.319  1.00  0.00     0.229 C 
HETATM    8  C10 UNL     1      -0.387   0.437  -0.007  1.00  0.00     0.092 C 
HETATM    9  C11 UNL     1      -1.794  -0.239   0.169  1.00  0.00     0.260 C 
HETATM   10  C16 UNL     1      -1.649  -1.730   0.326  1.00  0.00     0.209 C 
HETATM   11  C18 UNL     1      -0.923  -2.392  -0.825  1.00  0.00     0.161 C 
HETATM   12  C19 UNL     1      -1.830  -2.966  -1.880  1.00  0.00     0.074 C 
HETATM   13  N3  UNL     1       0.144  -3.310  -0.467  1.00  0.00    -0.364 N 
HETATM   14  C20 UNL     1       1.598  -3.306  -0.637  1.00  0.00     0.112 C 
HETATM   15  O4  UNL     1      -0.305  -1.290  -1.401  1.00  0.00    -0.334 OA
HETATM   16  H26 UNL     1      -0.165  -4.203   0.033  1.00  0.00     0.162 HD
ENDROOT
BRANCH   9  17
HETATM   17  N2  UNL     1      -2.440   0.436   1.215  1.00  0.00     0.101 N 
HETATM   18  C12 UNL     1      -3.783   0.080   1.529  1.00  0.00     0.311 C 
BRANCH  17  19
HETATM   19  C13 UNL     1      -2.400   1.868   0.995  1.00  0.00     0.383 C 
BRANCH  19  20
HETATM   20  C14 UNL     1      -3.042   2.573   2.158  1.00  0.00     0.286 C 
HETATM   21  O1  UNL     1      -3.583   2.363   3.281  1.00  0.00    -0.263 OA
BRANCH  20  22
HETATM   22  O2  UNL     1      -3.201   3.930   2.229  1.00  0.00    -0.325 OA
HETATM   23  C15 UNL     1      -3.806   4.598   3.322  1.00  0.00     0.213 C 
ENDBRANCH  20  22
ENDBRANCH  19  20
ENDBRANCH  17  19
ENDBRANCH   9  17
BRANCH  10  24
HETATM   24  O3  UNL     1      -2.953  -2.260   0.180  1.00  0.00    -0.384 OA
HETATM   25  C17 UNL     1      -3.274  -3.106   1.214  1.00  0.00     0.202 C 
ENDBRANCH  10  24
BRANCH   1  26
HETATM   26  C3  UNL     1       5.654   1.444  -1.688  1.00  0.00    -0.004 C 
HETATM   27  C2  UNL     1       6.850   1.914  -1.994  1.00  0.00    -0.031 C 
HETATM   28  C1  UNL     1       7.151   3.361  -2.078  1.00  0.00     0.036 C 
ENDBRANCH   1  26
TORSDOF 6
