REMARK  3 active torsions:
REMARK  status: ('A' for Active; 'I' for Inactive)
REMARK    1  A    between atoms: C3_3  and  C4_4 
REMARK    2  A    between atoms: C17_19  and  N2_20 
REMARK    3  A    between atoms: N2_20  and  S1_22 
ROOT
HETATM    1  C4  UNL     1       2.733  -1.520   0.726  1.00  0.00     0.048 C 
HETATM    2  C5  UNL     1       3.205  -0.651  -0.340  1.00  0.00    -0.014 C 
HETATM    3  C6  UNL     1       2.977   0.525  -0.914  1.00  0.00     0.026 C 
HETATM    4  C7  UNL     1       1.889   1.449  -0.477  1.00  0.00     0.035 C 
HETATM    5  C8  UNL     1       1.737   2.612  -1.057  1.00  0.00     0.043 C 
HETATM    6  C9  UNL     1       0.800   3.693  -0.846  1.00  0.00    -0.008 A 
HETATM    7  C10 UNL     1       1.533   4.887  -0.916  1.00  0.00     0.014 A 
HETATM    8  C11 UNL     1       1.078   6.203  -0.768  1.00  0.00     0.001 A 
HETATM    9  C12 UNL     1      -0.271   6.296  -0.523  1.00  0.00     0.002 A 
HETATM   10  C13 UNL     1      -1.023   5.110  -0.449  1.00  0.00     0.030 A 
HETATM   11  C14 UNL     1      -0.536   3.801  -0.602  1.00  0.00     0.040 A 
HETATM   12  N1  UNL     1      -1.735   3.071  -0.427  1.00  0.00    -0.368 N 
HETATM   13  C15 UNL     1      -2.647   2.285  -1.219  1.00  0.00     0.290 C 
HETATM   14  O1  UNL     1      -2.351   0.936  -1.254  1.00  0.00    -0.370 OA
HETATM   15  C16 UNL     1      -2.429   0.512   0.088  1.00  0.00     0.196 C 
HETATM   16  C17 UNL     1      -2.144  -0.993   0.208  1.00  0.00     0.133 C 
HETATM   17  C20 UNL     1      -0.725  -1.245  -0.320  1.00  0.00     0.121 C 
HETATM   18  C21 UNL     1      -0.240  -2.621  -0.206  1.00  0.00     0.130 C 
HETATM   19  N3  UNL     1       1.064  -2.913  -0.549  1.00  0.00    -0.419 N 
HETATM   20  C22 UNL     1       2.198  -2.808   0.234  1.00  0.00     0.126 C 
HETATM   21  C23 UNL     1       0.208  -0.173  -0.022  1.00  0.00     0.230 C 
HETATM   22  O4  UNL     1       0.838   0.267  -1.043  1.00  0.00    -0.273 OA
HETATM   23  N4  UNL     1       1.055   0.876   0.570  1.00  0.00    -0.327 N 
HETATM   24  H14 UNL     1      -2.112   3.060   0.577  1.00  0.00     0.161 HD
HETATM   25  H29 UNL     1       1.212  -3.198  -1.549  1.00  0.00     0.153 HD
HETATM   26  H32 UNL     1       0.987   1.097   1.588  1.00  0.00     0.169 HD
ENDROOT
BRANCH  16  27
HETATM   27  N2  UNL     1      -3.127  -1.685  -0.505  1.00  0.00    -0.308 N 
HETATM   28  C18 UNL     1      -3.632  -1.175  -1.709  1.00  0.00     0.163 C 
BRANCH  27  29
HETATM   29  S1  UNL     1      -4.106  -2.753   0.373  1.00  0.00     0.224 S 
HETATM   30  C19 UNL     1      -4.986  -1.792   1.600  1.00  0.00     0.186 C 
HETATM   31  O2  UNL     1      -3.353  -3.833   1.082  1.00  0.00    -0.206 OA
HETATM   32  O3  UNL     1      -5.112  -3.418  -0.522  1.00  0.00    -0.206 OA
ENDBRANCH  27  29
ENDBRANCH  16  27
BRANCH   1  33
HETATM   33  C3  UNL     1       4.028  -1.882   1.548  1.00  0.00    -0.021 C 
HETATM   34  C2  UNL     1       4.566  -3.082   1.775  1.00  0.00    -0.034 C 
HETATM   35  C1  UNL     1       5.703  -3.751   2.459  1.00  0.00     0.036 C 
ENDBRANCH   1  33
TORSDOF 3
