REMARK  3 active torsions:
REMARK  status: ('A' for Active; 'I' for Inactive)
REMARK    1  A    between atoms: C2_2  and  C3_3 
REMARK    2  A    between atoms: C3_3  and  C4_4 
REMARK    3  A    between atoms: C4_4  and  C5_5 
ROOT
HETATM    1  C5  UNL     1       1.612   0.265   1.055  1.00  0.00     0.033 C 
HETATM    2  C6  UNL     1       1.001  -0.724   1.898  1.00  0.00     0.127 C 
HETATM    3  N1  UNL     1      -0.259  -0.921   2.366  1.00  0.00    -0.374 N 
HETATM    4  C7  UNL     1      -1.444  -1.222   1.597  1.00  0.00     0.218 C 
HETATM    5  C8  UNL     1      -2.242  -2.200   2.310  1.00  0.00     0.098 C 
HETATM    6  O1  UNL     1      -0.948  -1.514   0.340  1.00  0.00    -0.324 OA
HETATM    7  C9  UNL     1      -1.081  -0.738  -0.733  1.00  0.00     0.294 C 
HETATM    8  N2  UNL     1      -1.322   0.594  -0.890  1.00  0.00    -0.375 N 
HETATM    9  C10 UNL     1      -0.439   1.679  -0.897  1.00  0.00     0.155 C 
HETATM   10  C11 UNL     1      -0.022   2.116   0.515  1.00  0.00    -0.053 C 
HETATM   11  C12 UNL     1      -0.907   2.682   1.410  1.00  0.00     0.079 C 
HETATM   12  C13 UNL     1      -1.575   1.435   2.091  1.00  0.00     0.252 C 
HETATM   13  O2  UNL     1      -1.876   1.014   3.120  1.00  0.00    -0.268 OA
HETATM   14  N3  UNL     1      -2.122   0.165   1.419  1.00  0.00    -0.264 N 
HETATM   15  C14 UNL     1      -3.226   0.322   0.490  1.00  0.00     0.057 C 
HETATM   16  C15 UNL     1      -4.541   0.220   0.301  1.00  0.00     0.002 C 
HETATM   17  C16 UNL     1      -4.897  -0.865  -0.362  1.00  0.00     0.014 C 
HETATM   18  C17 UNL     1      -4.405  -0.777  -1.738  1.00  0.00    -0.001 C 
HETATM   19  C18 UNL     1      -3.380   0.031  -1.970  1.00  0.00     0.004 C 
HETATM   20  C19 UNL     1      -2.752   0.816  -0.886  1.00  0.00     0.156 C 
HETATM   21  C20 UNL     1       1.368   1.676   0.817  1.00  0.00     0.021 C 
HETATM   22  C21 UNL     1       2.200   2.134  -0.356  1.00  0.00     0.015 C 
HETATM   23  H11 UNL     1      -0.455  -0.820   3.386  1.00  0.00     0.158 HD
ENDROOT
BRANCH   1  24
HETATM   24  C4  UNL     1       3.107   0.142   1.194  1.00  0.00    -0.024 C 
BRANCH  24  25
HETATM   25  C3  UNL     1       3.971  -0.540   0.506  1.00  0.00    -0.031 C 
BRANCH  25  26
HETATM   26  C2  UNL     1       3.848  -1.449  -0.659  1.00  0.00     0.022 C 
HETATM   27  C1  UNL     1       4.671  -0.900  -1.826  1.00  0.00     0.009 C 
ENDBRANCH  25  26
ENDBRANCH  24  25
ENDBRANCH   1  24
TORSDOF 3
