REMARK  3 active torsions:
REMARK  status: ('A' for Active; 'I' for Inactive)
REMARK    1  A    between atoms: O1_2  and  C2_3 
REMARK    2  A    between atoms: C5_6  and  C6_7 
REMARK    3  A    between atoms: C7_8  and  C8_9 
ROOT
HETATM    1  C8  UNL     1      -1.092   0.734  -1.188  1.00  0.00     0.275 C 
HETATM    2  N1  UNL     1      -1.200   1.624  -2.356  1.00  0.00     0.099 N 
HETATM    3  C9  UNL     1      -1.531   2.992  -2.139  1.00  0.00     0.308 C 
HETATM    4  C10 UNL     1      -2.482   3.298  -1.038  1.00  0.00    -0.015 C 
HETATM    5  C11 UNL     1      -3.650   3.782  -0.738  1.00  0.00     0.112 C 
HETATM    6  N2  UNL     1      -4.563   3.025  -0.185  1.00  0.00    -0.172 NA
HETATM    7  N3  UNL     1      -4.453   1.607   0.015  1.00  0.00    -0.277 N 
HETATM    8  C12 UNL     1      -3.306   0.709  -0.045  1.00  0.00     0.065 C 
HETATM    9  C13 UNL     1      -3.189  -0.697   0.075  1.00  0.00    -0.006 A 
HETATM   10  C14 UNL     1      -2.168  -1.300   0.761  1.00  0.00     0.017 A 
HETATM   11  C15 UNL     1      -2.073  -2.658   0.858  1.00  0.00     0.045 A 
HETATM   12  C16 UNL     1      -3.061  -3.431   0.231  1.00  0.00     0.138 A 
HETATM   13  F1  UNL     1      -2.917  -4.772   0.361  1.00  0.00    -0.204 F 
HETATM   14  C17 UNL     1      -4.102  -2.831  -0.468  1.00  0.00     0.073 A 
HETATM   15 CL1  UNL     1      -5.229  -3.976  -1.178  1.00  0.00    -0.081 Cl
HETATM   16  C18 UNL     1      -4.171  -1.434  -0.550  1.00  0.00     0.040 A 
HETATM   17  C19 UNL     1      -2.137   1.276  -0.290  1.00  0.00    -0.011 C 
HETATM   18  C20 UNL     1      -1.715   2.689   0.167  1.00  0.00     0.077 C 
HETATM   19  H9  UNL     1      -0.262   1.595  -2.801  1.00  0.00     0.317 HD
HETATM   20  H12 UNL     1      -5.283   0.977   0.248  1.00  0.00     0.189 HD
ENDROOT
BRANCH   1  21
HETATM   21  C7  UNL     1       0.256   0.673  -0.633  1.00  0.00     0.014 C 
HETATM   22  C6  UNL     1       0.919  -0.479  -0.469  1.00  0.00     0.010 C 
BRANCH  22  23
HETATM   23  C5  UNL     1       2.242  -0.645   0.065  1.00  0.00    -0.036 A 
HETATM   24  C4  UNL     1       3.036   0.379   0.498  1.00  0.00     0.014 A 
HETATM   25  C3  UNL     1       4.322   0.228   1.015  1.00  0.00     0.037 A 
HETATM   26  C2  UNL     1       4.847  -1.052   1.102  1.00  0.00     0.068 A 
HETATM   27  C22 UNL     1       4.058  -2.095   0.670  1.00  0.00     0.037 A 
HETATM   28  C21 UNL     1       2.788  -1.906   0.163  1.00  0.00     0.014 A 
BRANCH  26  29
HETATM   29  O1  UNL     1       6.087  -1.392   1.581  1.00  0.00    -0.356 OA
HETATM   30  C1  UNL     1       7.032  -0.459   2.068  1.00  0.00     0.210 C 
ENDBRANCH  26  29
ENDBRANCH  22  23
ENDBRANCH   1  21
TORSDOF 3
