REMARK  4 active torsions:
REMARK  status: ('A' for Active; 'I' for Inactive)
REMARK    1  A    between atoms: C3_3  and  N1_4 
REMARK    2  A    between atoms: N1_4  and  C4_5 
REMARK    3  A    between atoms: C7_9  and  N2_10 
REMARK    4  A    between atoms: N2_10  and  C8_11 
ROOT
HETATM    1  C1  UNL     1      -4.268   0.082   1.258  1.00  0.00     0.028 C 
HETATM    2  C2  UNL     1      -3.104   0.129   0.638  1.00  0.00     0.011 A 
HETATM    3  C3  UNL     1      -2.728  -0.057  -0.753  1.00  0.00     0.047 A 
HETATM    4  C5  UNL     1      -1.421   0.092  -0.859  1.00  0.00     0.048 A 
HETATM    5  C6  UNL     1      -0.893   0.382   0.470  1.00  0.00     0.042 A 
HETATM    6  C7  UNL     1       0.444   0.609   0.853  1.00  0.00     0.142 A 
HETATM    7  N3  UNL     1       0.613   0.849   2.161  1.00  0.00    -0.224 NA
HETATM    8  C14 UNL     1      -0.364   0.880   3.072  1.00  0.00     0.236 A 
HETATM    9  N4  UNL     1      -1.649   0.664   2.727  1.00  0.00    -0.240 NA
HETATM   10  C15 UNL     1      -1.903   0.413   1.413  1.00  0.00     0.084 A 
ENDROOT
BRANCH   6  11
HETATM   11  N2  UNL     1       1.475   0.590  -0.108  1.00  0.00    -0.340 N 
HETATM   12  H6  UNL     1       1.201   1.152  -0.934  1.00  0.00     0.167 HD
BRANCH  11  13
HETATM   13  C8  UNL     1       2.721  -0.063  -0.019  1.00  0.00     0.035 A 
HETATM   14  C9  UNL     1       3.123  -0.747   1.104  1.00  0.00     0.032 A 
HETATM   15  C10 UNL     1       4.333  -1.422   1.223  1.00  0.00     0.046 A 
HETATM   16  C11 UNL     1       5.142  -1.367   0.108  1.00  0.00     0.138 A 
HETATM   17  F1  UNL     1       6.342  -2.010   0.140  1.00  0.00    -0.204 F 
HETATM   18  C12 UNL     1       4.774  -0.689  -1.043  1.00  0.00     0.074 A 
HETATM   19 CL1  UNL     1       5.880  -0.692  -2.392  1.00  0.00    -0.081 Cl
HETATM   20  C13 UNL     1       3.544  -0.024  -1.112  1.00  0.00     0.056 A 
ENDBRANCH  11  13
ENDBRANCH   6  11
BRANCH   3  21
HETATM   21  N1  UNL     1      -3.677  -0.355  -1.765  1.00  0.00    -0.334 N 
HETATM   22  H3  UNL     1      -3.966  -1.045  -2.459  1.00  0.00     0.168 HD
BRANCH  21  23
HETATM   23  C4  UNL     1      -4.638   0.722  -1.881  1.00  0.00     0.353 C 
HETATM   24  O1  UNL     1      -4.940   1.855  -1.396  1.00  0.00    -0.283 OA
ENDBRANCH  21  23
ENDBRANCH   3  21
TORSDOF 4
