REMARK  8 active torsions:
REMARK  status: ('A' for Active; 'I' for Inactive)
REMARK    1  A    between atoms: O1_2  and  C2_3 
REMARK    2  A    between atoms: C5_6  and  C6_7 
REMARK    3  A    between atoms: C7_8  and  C8_9 
REMARK    4  A    between atoms: C8_9  and  N1_10 
REMARK    5  A    between atoms: C8_9  and  O5_20 
REMARK       I    between atoms: N1_10  and  C9_11 
REMARK    6  A    between atoms: C9_11  and  O3_13 
REMARK    7  A    between atoms: O3_13  and  C10_14 
REMARK    8  A    between atoms: C15_22  and  O6_23 
ROOT
HETATM    1  C8  UNL     1       0.682  -0.164   1.645  1.00  0.00     0.248 C 
ENDROOT
BRANCH   1   2
HETATM    2  C7  UNL     1      -0.513  -0.093   0.837  1.00  0.00     0.027 C 
HETATM    3  C6  UNL     1      -1.028  -0.174  -0.366  1.00  0.00     0.014 C 
BRANCH   3   4
HETATM    4  C5  UNL     1      -2.296  -0.079  -1.066  1.00  0.00    -0.003 A 
HETATM    5  C4  UNL     1      -2.189  -0.270  -2.424  1.00  0.00     0.017 A 
HETATM    6  C3  UNL     1      -3.347  -0.200  -3.161  1.00  0.00     0.038 A 
HETATM    7  C2  UNL     1      -4.523   0.053  -2.494  1.00  0.00     0.070 A 
HETATM    8  C17 UNL     1      -4.598   0.241  -1.134  1.00  0.00     0.074 A 
HETATM    9  C15 UNL     1      -3.453   0.177  -0.370  1.00  0.00     0.081 A 
BRANCH   7  10
HETATM   10  O1  UNL     1      -5.662   0.113  -3.285  1.00  0.00    -0.356 OA
HETATM   11  C1  UNL     1      -6.922   0.367  -2.705  1.00  0.00     0.210 C 
ENDBRANCH   7  10
BRANCH   9  12
HETATM   12  O6  UNL     1      -3.512   0.363   0.998  1.00  0.00    -0.355 OA
HETATM   13  C16 UNL     1      -4.753   0.621   1.608  1.00  0.00     0.210 C 
ENDBRANCH   9  12
ENDBRANCH   3   4
ENDBRANCH   1   2
BRANCH   1  14
HETATM   14  N1  UNL     1       1.816  -0.727   0.887  1.00  0.00    -0.307 N 
HETATM   15  C9  UNL     1       3.062  -0.075   0.840  1.00  0.00     0.363 C 
HETATM   16  O2  UNL     1       3.122   1.005   1.486  1.00  0.00    -0.238 OA
HETATM   17  H9  UNL     1       1.666  -1.628   0.382  1.00  0.00     0.167 HD
BRANCH  15  18
HETATM   18  O3  UNL     1       4.149  -0.554   0.156  1.00  0.00    -0.296 OA
BRANCH  18  19
HETATM   19  C10 UNL     1       5.409  -0.024   0.037  1.00  0.00     0.165 C 
HETATM   20  C11 UNL     1       5.920   0.263  -1.328  1.00  0.00     0.209 C 
HETATM   21  O4  UNL     1       7.316   0.392  -1.123  1.00  0.00    -0.341 OA
HETATM   22  C12 UNL     1       7.686  -0.038   0.155  1.00  0.00     0.115 C 
HETATM   23  S1  UNL     1       9.173   0.425   0.696  1.00  0.00    -0.058 SA
HETATM   24  C13 UNL     1       6.525  -0.831   0.641  1.00  0.00     0.111 C 
ENDBRANCH  18  19
ENDBRANCH  15  18
ENDBRANCH   1  14
BRANCH   1  25
HETATM   25  O5  UNL     1       0.562  -1.013   2.754  1.00  0.00    -0.368 OA
HETATM   26  C14 UNL     1       0.833  -0.323   3.935  1.00  0.00     0.204 C 
ENDBRANCH   1  25
TORSDOF 8
