REMARK  2 active torsions:
REMARK  status: ('A' for Active; 'I' for Inactive)
REMARK    1  A    between atoms: C2_2  and  C3_3 
REMARK    2  A    between atoms: C3_3  and  C4_4 
ROOT
HETATM    1  C4  UNL     1       1.641  -0.344   0.711  1.00  0.00    -0.019 C 
HETATM    2  C5  UNL     1       1.138  -1.399   0.076  1.00  0.00    -0.046 C 
HETATM    3  C6  UNL     1       1.779  -2.733  -0.224  1.00  0.00     0.085 C 
HETATM    4  C7  UNL     1       0.678  -3.785  -0.173  1.00  0.00     0.091 C 
HETATM    5  N1  UNL     1      -0.589  -3.639  -0.114  1.00  0.00    -0.269 NA
HETATM    6  C8  UNL     1      -1.162  -2.349  -0.088  1.00  0.00     0.278 C 
HETATM    7  O1  UNL     1      -1.880  -2.212   1.167  1.00  0.00    -0.361 OA
HETATM    8  C9  UNL     1      -2.513  -1.092   0.948  1.00  0.00     0.172 C 
HETATM    9  C10 UNL     1      -3.377  -0.090   1.495  1.00  0.00     0.046 C 
HETATM   10  C11 UNL     1      -3.527   0.795   0.188  1.00  0.00     0.119 C 
HETATM   11  N2  UNL     1      -2.328   1.085  -0.440  1.00  0.00    -0.409 N 
HETATM   12  C12 UNL     1      -1.530   2.181  -0.132  1.00  0.00     0.117 C 
HETATM   13  C13 UNL     1      -0.178   2.333  -0.746  1.00  0.00     0.024 C 
HETATM   14  C14 UNL     1       0.423   1.048  -1.346  1.00  0.00     0.038 C 
HETATM   15  C15 UNL     1      -0.457  -0.099  -1.027  1.00  0.00    -0.051 C 
HETATM   16  C16 UNL     1      -0.278  -1.238  -0.410  1.00  0.00     0.002 C 
HETATM   17  C17 UNL     1      -1.821   0.290  -1.508  1.00  0.00     0.151 C 
ENDROOT
BRANCH   1  18
HETATM   18  C3  UNL     1       3.032  -0.397   1.231  1.00  0.00     0.027 C 
BRANCH  18  19
HETATM   19  C2  UNL     1       3.884   0.702   0.632  1.00  0.00    -0.001 C 
HETATM   20  C1  UNL     1       3.332   2.063   0.960  1.00  0.00     0.005 C 
ENDBRANCH  18  19
ENDBRANCH   1  18
TORSDOF 2
