REMARK  8 active torsions:
REMARK  status: ('A' for Active; 'I' for Inactive)
REMARK    1  A    between atoms: N1_2  and  C3_4 
REMARK    2  A    between atoms: C3_4  and  C4_5 
REMARK    3  A    between atoms: C5_6  and  C6_7 
REMARK       I    between atoms: C6_7  and  N2_9 
REMARK    4  A    between atoms: N2_9  and  C7_10 
REMARK    5  A    between atoms: C10_13  and  N3_14 
REMARK    6  A    between atoms: N3_14  and  C11_15 
REMARK    7  A    between atoms: C19_26  and  O2_27 
REMARK    8  A    between atoms: O2_27  and  C20_28 
ROOT
HETATM    1  C7  UNL     1      -1.146   1.004  -0.460  1.00  0.00     0.069 A 
HETATM    2  C8  UNL     1      -2.024  -0.061  -0.669  1.00  0.00     0.050 A 
HETATM    3  C9  UNL     1      -3.335  -0.006  -0.182  1.00  0.00     0.041 A 
HETATM    4  C10 UNL     1      -4.226  -1.045  -0.376  1.00  0.00     0.142 A 
HETATM    5  N4  UNL     1      -5.476  -0.877   0.142  1.00  0.00    -0.224 NA
HETATM    6  C16 UNL     1      -5.810   0.235   0.799  1.00  0.00     0.236 A 
HETATM    7  N5  UNL     1      -4.927   1.244   0.981  1.00  0.00    -0.241 NA
HETATM    8  C17 UNL     1      -3.697   1.126   0.494  1.00  0.00     0.075 A 
HETATM    9  C18 UNL     1      -2.847   2.181   0.708  1.00  0.00     0.071 A 
HETATM   10  C19 UNL     1      -1.554   2.149   0.239  1.00  0.00     0.098 A 
ENDROOT
BRANCH   1  11
HETATM   11  N2  UNL     1       0.117   0.741  -1.033  1.00  0.00    -0.321 N 
HETATM   12  C6  UNL     1       1.254   0.111  -0.444  1.00  0.00     0.245 C 
HETATM   13  O1  UNL     1       1.243  -0.305   0.738  1.00  0.00    -0.268 OA
HETATM   14  H11 UNL     1       0.108   1.099  -2.030  1.00  0.00     0.169 HD
BRANCH  12  15
HETATM   15  C5  UNL     1       2.435  -0.036  -1.261  1.00  0.00     0.072 C 
HETATM   16  C4  UNL     1       3.484  -0.619  -0.719  1.00  0.00     0.008 C 
BRANCH  16  17
HETATM   17  C3  UNL     1       4.789  -0.870  -1.374  1.00  0.00     0.299 C 
BRANCH  17  18
HETATM   18  N1  UNL     1       5.110  -2.284  -1.419  1.00  0.00     0.083 N 
HETATM   19  C1  UNL     1       6.389  -2.494  -2.065  1.00  0.00     0.309 C 
HETATM   20  C2  UNL     1       5.272  -2.728  -0.036  1.00  0.00     0.309 C 
ENDBRANCH  17  18
ENDBRANCH  16  17
ENDBRANCH  12  15
ENDBRANCH   1  11
BRANCH  10  21
HETATM   21  O2  UNL     1      -0.499   3.034   0.299  1.00  0.00    -0.341 OA
BRANCH  21  22
HETATM   22  C20 UNL     1      -0.651   4.271   0.953  1.00  0.00     0.154 C 
HETATM   23  C21 UNL     1      -0.114   5.423   0.103  1.00  0.00     0.061 C 
HETATM   24  C22 UNL     1       0.561   6.309   1.126  1.00  0.00     0.170 C 
HETATM   25  O3  UNL     1       0.484   5.658   2.354  1.00  0.00    -0.389 OA
HETATM   26  C23 UNL     1       0.366   4.313   2.097  1.00  0.00     0.200 C 
ENDBRANCH  21  22
ENDBRANCH  10  21
BRANCH   4  27
HETATM   27  N3  UNL     1      -3.805  -2.223  -1.091  1.00  0.00    -0.340 N 
HETATM   28  H13 UNL     1      -3.814  -2.427  -2.100  1.00  0.00     0.167 HD
BRANCH  27  29
HETATM   29  C11 UNL     1      -3.312  -3.216  -0.198  1.00  0.00     0.032 A 
HETATM   30  C12 UNL     1      -3.886  -4.432  -0.215  1.00  0.00     0.010 A 
HETATM   31  C13 UNL     1      -3.239  -5.335   0.785  1.00  0.00     0.099 A 
HETATM   32  C14 UNL     1      -2.194  -4.430   1.379  1.00  0.00     0.099 A 
HETATM   33  F1  UNL     1      -1.315  -4.775   2.357  1.00  0.00    -0.210 F 
HETATM   34  C15 UNL     1      -2.272  -3.263   0.802  1.00  0.00     0.067 A 
ENDBRANCH  27  29
ENDBRANCH   4  27
TORSDOF 8
