REMARK  7 active torsions:
REMARK  status: ('A' for Active; 'I' for Inactive)
REMARK    1  A    between atoms: C2_2  and  C3_3 
REMARK    2  A    between atoms: C4_4  and  O1_5 
REMARK    3  A    between atoms: O1_5  and  C5_6 
REMARK    4  A    between atoms: C5_6  and  C6_7 
REMARK    5  A    between atoms: C6_7  and  C7_8 
REMARK    6  A    between atoms: C7_8  and  N1_9 
REMARK    7  A    between atoms: C15_17  and  C16_18 
ROOT
HETATM    1  C3  UNL     1      -2.160  -1.032   0.407  1.00  0.00    -0.028 C 
HETATM    2  C4  UNL     1      -1.292  -0.019   0.179  1.00  0.00     0.056 C 
HETATM    3  C13 UNL     1      -1.236   1.453   0.483  1.00  0.00     0.094 C 
HETATM    4  C14 UNL     1      -2.538   1.866   1.044  1.00  0.00     0.015 C 
HETATM    5  C15 UNL     1      -3.688   2.289   1.476  1.00  0.00     0.078 C 
HETATM    6  O2  UNL     1      -4.452   1.836   2.542  1.00  0.00    -0.312 OA
HETATM    7  C17 UNL     1      -4.869   0.493   2.398  1.00  0.00     0.085 A 
HETATM    8  C18 UNL     1      -5.977   0.622   3.076  1.00  0.00     0.056 A 
HETATM    9  C19 UNL     1      -6.877  -0.499   3.276  1.00  0.00     0.113 A 
HETATM   10  N2  UNL     1      -6.550  -1.612   2.771  1.00  0.00    -0.297 NA
HETATM   11  C20 UNL     1      -5.424  -1.966   2.022  1.00  0.00     0.189 A 
HETATM   12  C21 UNL     1      -4.505  -0.817   1.811  1.00  0.00    -0.004 A 
HETATM   13  C22 UNL     1      -3.443  -1.166   1.106  1.00  0.00     0.021 C 
ENDROOT
BRANCH   2  14
HETATM   14  O1  UNL     1      -0.149  -0.291  -0.491  1.00  0.00    -0.354 OA
BRANCH  14  15
HETATM   15  C5  UNL     1       1.156   0.053  -0.076  1.00  0.00     0.177 C 
BRANCH  15  16
HETATM   16  C6  UNL     1       2.174  -0.394  -1.120  1.00  0.00     0.057 C 
BRANCH  16  17
HETATM   17  C7  UNL     1       3.536   0.013  -0.601  1.00  0.00     0.274 C 
BRANCH  17  18
HETATM   18  N1  UNL     1       4.571  -0.365  -1.521  1.00  0.00     0.088 N 
HETATM   19  C8  UNL     1       5.870   0.037  -1.011  1.00  0.00     0.272 C 
HETATM   20  C9  UNL     1       6.402   1.243  -1.735  1.00  0.00     0.030 C 
HETATM   21  C10 UNL     1       6.663   0.922  -3.177  1.00  0.00     0.003 C 
HETATM   22  C11 UNL     1       5.546   0.054  -3.727  1.00  0.00     0.030 C 
HETATM   23  C12 UNL     1       4.312   0.169  -2.839  1.00  0.00     0.272 C 
ENDBRANCH  17  18
ENDBRANCH  16  17
ENDBRANCH  15  16
ENDBRANCH  14  15
ENDBRANCH   2  14
BRANCH   1  24
HETATM   24  C2  UNL     1      -1.593  -2.281  -0.189  1.00  0.00     0.036 C 
HETATM   25  C1  UNL     1      -1.350  -3.322   0.894  1.00  0.00     0.010 C 
ENDBRANCH   1  24
BRANCH   5  26
HETATM   26  C16 UNL     1      -4.148   3.394   0.642  1.00  0.00     0.286 C 
HETATM   27  F1  UNL     1      -4.309   4.531   1.428  1.00  0.00    -0.248 F 
ENDBRANCH   5  26
TORSDOF 7
