REMARK  5 active torsions:
REMARK  status: ('A' for Active; 'I' for Inactive)
REMARK    1  A    between atoms: C2_2  and  C3_3 
REMARK    2  A    between atoms: C3_3  and  O1_6 
REMARK    3  A    between atoms: O1_6  and  C6_7 
REMARK    4  A    between atoms: C6_7  and  C7_9 
REMARK    5  A    between atoms: C9_11  and  N1_12 
ROOT
HETATM    1  N1  UNL     1      -1.353  -1.201   1.509  1.00  0.00    -0.310 N 
HETATM    2  C10 UNL     1      -2.535  -0.517   1.905  1.00  0.00     0.121 C 
HETATM    3  C11 UNL     1      -3.336  -0.675   0.896  1.00  0.00     0.055 C 
HETATM    4  C12 UNL     1      -4.682  -0.310   0.496  1.00  0.00     0.140 C 
HETATM    5  N2  UNL     1      -5.370  -0.854  -0.415  1.00  0.00    -0.224 NA
HETATM    6  C13 UNL     1      -4.872  -2.077  -1.012  1.00  0.00     0.232 C 
HETATM    7  N3  UNL     1      -3.726  -2.483  -0.516  1.00  0.00    -0.245 NA
HETATM    8  C14 UNL     1      -2.728  -1.465  -0.208  1.00  0.00     0.179 C 
HETATM    9  C15 UNL     1      -2.519  -0.572  -1.356  1.00  0.00     0.053 C 
HETATM   10  C16 UNL     1      -2.575   0.425  -2.260  1.00  0.00     0.031 C 
HETATM   11 CL1  UNL     1      -1.452   0.366  -3.653  1.00  0.00    -0.085 Cl
HETATM   12  C17 UNL     1      -3.462   1.617  -2.339  1.00  0.00     0.006 C 
HETATM   13  C18 UNL     1      -4.403   1.928  -1.489  1.00  0.00     0.045 C 
HETATM   14  C19 UNL     1      -5.478   2.467  -0.700  1.00  0.00    -0.000 C 
HETATM   15  C20 UNL     1      -5.884   1.897   0.379  1.00  0.00     0.086 C 
HETATM   16  N4  UNL     1      -5.476   0.727   1.056  1.00  0.00    -0.350 N 
HETATM   17  N5  UNL     1      -1.524  -2.000   0.377  1.00  0.00    -0.194 NA
HETATM   18  C21 UNL     1      -1.726  -3.350   0.785  1.00  0.00     0.140 C 
HETATM   19  H21 UNL     1      -5.580   0.301   1.996  1.00  0.00     0.166 HD
ENDROOT
BRANCH   1  20
HETATM   20  C9  UNL     1      -0.068  -1.084   2.219  1.00  0.00     0.130 A 
HETATM   21  C8  UNL     1       1.011  -1.867   1.648  1.00  0.00     0.013 A 
HETATM   22  C7  UNL     1       1.735  -0.845   1.285  1.00  0.00     0.018 A 
HETATM   23  C22 UNL     1       0.743   0.091   1.812  1.00  0.00     0.075 A 
BRANCH  22  24
HETATM   24  C6  UNL     1       3.024  -0.712   0.617  1.00  0.00     0.289 C 
HETATM   25  O2  UNL     1       3.646  -1.749   0.281  1.00  0.00    -0.260 OA
BRANCH  24  26
HETATM   26  O1  UNL     1       3.561   0.547   0.353  1.00  0.00    -0.307 OA
BRANCH  26  27
HETATM   27  C3  UNL     1       4.809   0.723  -0.294  1.00  0.00     0.063 C 
HETATM   28  C4  UNL     1       4.768   0.109  -1.676  1.00  0.00     0.046 C 
HETATM   29  C5  UNL     1       5.867   0.074   0.563  1.00  0.00     0.046 C 
BRANCH  27  30
HETATM   30  C2  UNL     1       5.017   2.227  -0.384  1.00  0.00     0.033 C 
HETATM   31  C1  UNL     1       6.310   2.575  -1.078  1.00  0.00     0.008 C 
ENDBRANCH  27  30
ENDBRANCH  26  27
ENDBRANCH  24  26
ENDBRANCH  22  24
ENDBRANCH   1  20
TORSDOF 5
