REMARK  5 active torsions:
REMARK  status: ('A' for Active; 'I' for Inactive)
REMARK    1  A    between atoms: C2_2  and  C3_3 
REMARK    2  A    between atoms: C2_2  and  N1_9 
REMARK    3  A    between atoms: C4_4  and  C5_5 
REMARK    4  A    between atoms: C5_5  and  C7_7 
REMARK    5  A    between atoms: N1_9  and  C8_10 
ROOT
HETATM    1  C8  UNL     1      -0.439   0.270   0.819  1.00  0.00     0.141 A 
HETATM    2  C9  UNL     1       0.177  -0.865   1.583  1.00  0.00     0.005 A 
HETATM    3  C10 UNL     1      -0.318  -2.071   1.399  1.00  0.00     0.030 A 
HETATM    4  C11 UNL     1      -1.381  -1.826   0.435  1.00  0.00     0.067 A 
HETATM    5  N2  UNL     1      -2.041  -2.882   0.052  1.00  0.00    -0.242 NA
HETATM    6  C12 UNL     1      -3.105  -3.001  -0.851  1.00  0.00     0.228 A 
HETATM    7  N3  UNL     1      -3.624  -2.021  -1.456  1.00  0.00    -0.269 NA
HETATM    8  C13 UNL     1      -3.500  -0.616  -1.572  1.00  0.00     0.162 A 
HETATM    9  C14 UNL     1      -4.854   0.024  -1.337  1.00  0.00     0.006 C 
HETATM   10  C15 UNL     1      -5.216   1.296  -1.392  1.00  0.00     0.022 C 
HETATM   11  C16 UNL     1      -4.327   2.407  -1.711  1.00  0.00     0.030 C 
HETATM   12 CL1  UNL     1      -5.049   3.798  -2.490  1.00  0.00    -0.085 Cl
HETATM   13  C17 UNL     1      -3.021   2.392  -1.427  1.00  0.00     0.001 C 
HETATM   14  C18 UNL     1      -2.071   1.465  -0.801  1.00  0.00     0.066 C 
HETATM   15  C19 UNL     1      -2.436   0.041  -0.820  1.00  0.00    -0.037 A 
HETATM   16  C20 UNL     1      -1.503  -0.400   0.055  1.00  0.00     0.002 A 
ENDROOT
BRANCH   1  17
HETATM   17  N1  UNL     1       0.638   0.783  -0.008  1.00  0.00    -0.379 N 
HETATM   18  H10 UNL     1       1.158   1.053  -0.852  1.00  0.00     0.160 HD
BRANCH  17  19
HETATM   19  C2  UNL     1       1.661   1.186   0.889  1.00  0.00     0.018 C 
HETATM   20  C1  UNL     1       1.384   2.258   1.606  1.00  0.00     0.042 C 
BRANCH  19  21
HETATM   21  C3  UNL     1       2.945   0.529   1.072  1.00  0.00     0.025 C 
HETATM   22  C4  UNL     1       3.173  -0.539   0.330  1.00  0.00    -0.013 C 
BRANCH  22  23
HETATM   23  C5  UNL     1       4.403  -1.337   0.368  1.00  0.00     0.065 C 
HETATM   24  C6  UNL     1       5.432  -0.789   1.341  1.00  0.00     0.021 C 
BRANCH  23  25
HETATM   25  C7  UNL     1       5.047  -1.329  -0.987  1.00  0.00     0.239 C 
HETATM   26  O1  UNL     1       5.501  -1.778  -2.045  1.00  0.00    -0.306 OA
ENDBRANCH  23  25
ENDBRANCH  22  23
ENDBRANCH  19  21
ENDBRANCH  17  19
ENDBRANCH   1  17
TORSDOF 5
