REMARK  8 active torsions:
REMARK  status: ('A' for Active; 'I' for Inactive)
REMARK    1  A    between atoms: C3_3  and  C4_4 
REMARK    2  A    between atoms: C5_5  and  N1_6 
REMARK    3  A    between atoms: N1_6  and  C6_7 
REMARK    4  A    between atoms: C10_13  and  C11_14 
REMARK    5  A    between atoms: C16_20  and  N4_21 
REMARK    6  A    between atoms: N4_21  and  C18_23 
REMARK    7  A    between atoms: C18_23  and  C19_24 
REMARK    8  A    between atoms: C19_24  and  N5_25 
ROOT
HETATM    1  C6  UNL     1       2.388  -0.244  -1.858  1.00  0.00     0.141 A 
HETATM    2  N2  UNL     1       3.095  -0.899  -2.794  1.00  0.00    -0.224 NA
HETATM    3  C7  UNL     1       2.747  -2.191  -3.052  1.00  0.00     0.236 A 
HETATM    4  N3  UNL     1       1.721  -2.793  -2.386  1.00  0.00    -0.241 NA
HETATM    5  C8  UNL     1       1.037  -2.103  -1.456  1.00  0.00     0.072 A 
HETATM    6  C9  UNL     1      -0.008  -2.677  -0.766  1.00  0.00     0.042 A 
HETATM    7  C10 UNL     1      -0.794  -2.095   0.204  1.00  0.00    -0.023 A 
HETATM    8  C16 UNL     1      -0.429  -0.765   0.466  1.00  0.00     0.037 A 
HETATM    9  C22 UNL     1       0.621  -0.123  -0.198  1.00  0.00     0.047 A 
HETATM   10  C23 UNL     1       1.343  -0.796  -1.151  1.00  0.00     0.041 A 
ENDROOT
BRANCH   1  11
HETATM   11  N1  UNL     1       2.762   1.102  -1.615  1.00  0.00    -0.350 N 
HETATM   12  H8  UNL     1       2.415   1.817  -0.942  1.00  0.00     0.166 HD
BRANCH  11  13
HETATM   13  C5  UNL     1       3.809   1.734  -2.373  1.00  0.00     0.090 C 
HETATM   14  C4  UNL     1       4.701   2.569  -1.879  1.00  0.00     0.017 C 
BRANCH  14  15
HETATM   15  C3  UNL     1       4.822   3.020  -0.518  1.00  0.00    -0.003 C 
HETATM   16  C2  UNL     1       5.655   3.831   0.051  1.00  0.00    -0.031 C 
HETATM   17  C1  UNL     1       6.795   4.598  -0.503  1.00  0.00     0.036 C 
ENDBRANCH  14  15
ENDBRANCH  11  13
ENDBRANCH   1  11
BRANCH   8  18
HETATM   18  N4  UNL     1      -1.060   0.109   1.424  1.00  0.00    -0.383 N 
HETATM   19  C17 UNL     1      -1.235   0.099   2.862  1.00  0.00     0.149 C 
BRANCH  18  20
HETATM   20  C18 UNL     1      -1.686   1.307   0.840  1.00  0.00     0.152 C 
BRANCH  20  21
HETATM   21  C19 UNL     1      -3.181   1.227   0.985  1.00  0.00     0.291 C 
BRANCH  21  22
HETATM   22  N5  UNL     1      -3.738   2.437   0.393  1.00  0.00     0.081 N 
HETATM   23  C20 UNL     1      -3.512   2.370  -1.038  1.00  0.00     0.309 C 
HETATM   24  C21 UNL     1      -3.198   3.626   0.979  1.00  0.00     0.309 C 
ENDBRANCH  21  22
ENDBRANCH  20  21
ENDBRANCH  18  20
ENDBRANCH   8  18
BRANCH   7  25
HETATM   25  C11 UNL     1      -1.890  -2.653   0.943  1.00  0.00     0.051 C 
HETATM   26  C12 UNL     1      -1.623  -3.401   2.194  1.00  0.00     0.038 C 
HETATM   27  C13 UNL     1      -2.982  -4.088   2.398  1.00  0.00     0.169 C 
HETATM   28  O1  UNL     1      -3.747  -3.811   1.271  1.00  0.00    -0.386 OA
HETATM   29  C14 UNL     1      -2.800  -3.615   0.224  1.00  0.00     0.126 C 
HETATM   30  C15 UNL     1      -2.245  -4.958  -0.068  1.00  0.00     0.040 C 
ENDBRANCH   7  25
TORSDOF 8
