REMARK  4 active torsions:
REMARK  status: ('A' for Active; 'I' for Inactive)
REMARK    1  A    between atoms: C2_2  and  N1_3 
REMARK    2  A    between atoms: C18_21  and  C19_22 
REMARK    3  A    between atoms: C18_21  and  O1_25 
REMARK    4  A    between atoms: C19_22  and  N4_23 
ROOT
HETATM    1  N1  UNL     1       0.118   1.869   0.270  1.00  0.00     0.116 N 
HETATM    2  C3  UNL     1      -0.858   2.009  -0.819  1.00  0.00     0.276 C 
HETATM    3  C4  UNL     1      -2.239   2.371  -0.416  1.00  0.00     0.032 C 
HETATM    4  C5  UNL     1      -3.385   2.159  -1.389  1.00  0.00     0.027 C 
HETATM    5  C6  UNL     1      -4.098   0.802  -0.968  1.00  0.00     0.081 C 
HETATM    6  N2  UNL     1      -4.406   0.893   0.389  1.00  0.00    -0.414 N 
HETATM    7  C7  UNL     1      -4.522   0.046   1.434  1.00  0.00     0.141 C 
HETATM    8  C8  UNL     1      -3.406  -0.066   2.492  1.00  0.00    -0.011 C 
HETATM    9  C9  UNL     1      -2.229  -0.722   2.289  1.00  0.00    -0.013 C 
HETATM   10  C10 UNL     1      -1.567  -1.080   0.989  1.00  0.00     0.030 A 
HETATM   11  C11 UNL     1      -2.211  -0.605  -0.137  1.00  0.00     0.052 A 
HETATM   12  C12 UNL     1      -2.866  -0.121  -1.287  1.00  0.00    -0.023 A 
HETATM   13  C13 UNL     1      -1.787  -0.917  -1.767  1.00  0.00    -0.005 A 
HETATM   14  C14 UNL     1      -1.103  -1.407  -0.695  1.00  0.00     0.075 A 
HETATM   15  C15 UNL     1      -0.580  -1.782   0.514  1.00  0.00     0.002 A 
HETATM   16  N3  UNL     1       0.569  -2.565   0.709  1.00  0.00    -0.385 N 
HETATM   17  C16 UNL     1       1.391  -2.476  -0.419  1.00  0.00     0.141 C 
HETATM   18  C17 UNL     1       0.959  -2.997  -1.725  1.00  0.00     0.038 C 
HETATM   19  C18 UNL     1       2.126  -1.030  -0.502  1.00  0.00     0.212 C 
HETATM   20  O2  UNL     1       1.216  -0.173  -0.036  1.00  0.00    -0.316 OA
HETATM   21  C22 UNL     1       1.305   1.190  -0.126  1.00  0.00     0.357 C 
HETATM   22  C23 UNL     1       2.334   1.657   0.999  1.00  0.00     0.074 C 
HETATM   23  H13 UNL     1      -4.634   1.894   0.626  1.00  0.00     0.153 HD
HETATM   24  H21 UNL     1       0.268  -2.868   1.652  1.00  0.00     0.159 HD
ENDROOT
BRANCH  19  25
HETATM   25  C19 UNL     1       3.223  -1.167   0.560  1.00  0.00     0.339 C 
BRANCH  25  26
HETATM   26  N4  UNL     1       3.809  -2.508   0.659  1.00  0.00     0.084 N 
HETATM   27  C20 UNL     1       4.972  -2.285   1.579  1.00  0.00     0.306 C 
HETATM   28  H28 UNL     1       3.201  -3.081   1.362  1.00  0.00     0.315 HD
ENDBRANCH  25  26
ENDBRANCH  19  25
BRANCH  19  29
HETATM   29  O1  UNL     1       2.618  -1.159  -1.745  1.00  0.00    -0.357 OA
HETATM   30  C21 UNL     1       3.598  -2.064  -1.999  1.00  0.00     0.205 C 
ENDBRANCH  19  29
BRANCH   1  31
HETATM   31  C2  UNL     1       0.361   3.152   0.895  1.00  0.00     0.271 C 
HETATM   32  C1  UNL     1      -0.775   3.757   1.645  1.00  0.00     0.037 C 
ENDBRANCH   1  31
TORSDOF 4
