REMARK  4 active torsions:
REMARK  status: ('A' for Active; 'I' for Inactive)
REMARK    1  A    between atoms: N1_2  and  C2_3 
REMARK    2  A    between atoms: C5_7  and  N2_12 
REMARK    3  A    between atoms: C7_9  and  O2_10 
REMARK    4  A    between atoms: C14_20  and  C17_23 
ROOT
HETATM    1  C2  UNL     1       2.312  -1.694  -0.923  1.00  0.00     0.257 C 
HETATM    2  C3  UNL     1       0.837  -1.964  -1.109  1.00  0.00     0.092 C 
HETATM    3  C4  UNL     1       0.126  -1.964   0.245  1.00  0.00     0.226 C 
HETATM    4  O1  UNL     1       0.871  -1.343   1.221  1.00  0.00    -0.334 OA
HETATM    5  C5  UNL     1       1.540  -0.208   0.849  1.00  0.00     0.161 C 
HETATM    6  C6  UNL     1       2.475   0.051   2.057  1.00  0.00     0.074 C 
HETATM    7  C7  UNL     1       2.359  -0.271  -0.376  1.00  0.00     0.209 C 
HETATM    8  C17 UNL     1      -2.521   0.277   0.123  1.00  0.00     0.069 C 
HETATM    9  C18 UNL     1      -3.130  -0.491   1.275  1.00  0.00    -0.038 A 
HETATM   10  C19 UNL     1      -3.831  -0.786   2.364  1.00  0.00     0.006 A 
HETATM   11  C20 UNL     1      -3.608  -2.209   2.613  1.00  0.00    -0.001 A 
HETATM   12  C21 UNL     1      -2.783  -2.643   1.668  1.00  0.00     0.011 A 
HETATM   13  C22 UNL     1      -2.368  -1.671   0.769  1.00  0.00     0.099 A 
HETATM   14  N4  UNL     1      -1.164  -1.749   0.102  1.00  0.00    -0.356 N 
HETATM   15  C23 UNL     1      -2.063  -1.005  -0.490  1.00  0.00     0.070 A 
HETATM   16  C24 UNL     1      -2.603  -1.374  -1.832  1.00  0.00     0.042 C 
ENDROOT
BRANCH   1  17
HETATM   17  N1  UNL     1       2.939  -1.657  -2.218  1.00  0.00     0.086 N 
HETATM   18  C1  UNL     1       2.816  -2.881  -2.975  1.00  0.00     0.307 C 
HETATM   19  H4  UNL     1       2.531  -0.837  -2.719  1.00  0.00     0.316 HD
ENDBRANCH   1  17
BRANCH   7  20
HETATM   20  O2  UNL     1       3.659   0.173  -0.235  1.00  0.00    -0.384 OA
HETATM   21  C8  UNL     1       4.077   1.162  -1.058  1.00  0.00     0.202 C 
ENDBRANCH   7  20
BRANCH   5  22
HETATM   22  N2  UNL     1       0.637   0.875   0.836  1.00  0.00    -0.355 N 
HETATM   23  C9  UNL     1      -0.537   1.323   1.363  1.00  0.00     0.099 A 
HETATM   24  C10 UNL     1      -0.017   1.981   2.432  1.00  0.00    -0.011 C 
HETATM   25  C14 UNL     1      -1.683   1.330   0.474  1.00  0.00     0.085 C 
HETATM   26  C16 UNL     1       0.454   2.220   0.238  1.00  0.00     0.125 A 
HETATM   27  C11 UNL     1      -0.039   3.053   1.421  1.00  0.00    -0.030 C 
HETATM   28  C12 UNL     1      -0.613   4.424   1.370  1.00  0.00     0.159 C 
HETATM   29  N3  UNL     1      -2.042   4.038   0.907  1.00  0.00    -0.356 N 
HETATM   30  C13 UNL     1      -2.505   2.639   0.645  1.00  0.00     0.230 C 
HETATM   31  H18 UNL     1      -2.798   4.735   0.743  1.00  0.00     0.162 HD
HETATM   32  O3  UNL     1      -3.766   2.529   0.551  1.00  0.00    -0.273 OA
HETATM   33  C15 UNL     1      -0.726   1.860  -0.732  1.00  0.00     0.053 C 
ENDBRANCH   5  22
TORSDOF 4
