REMARK  2 active torsions:
REMARK  status: ('A' for Active; 'I' for Inactive)
REMARK    1  A    between atoms: C2_2  and  C3_3 
REMARK    2  A    between atoms: C25_30  and  O3_31 
ROOT
HETATM    1  C3  UNL     1      -3.127   0.807   0.332  1.00  0.00     0.023 C 
HETATM    2  C4  UNL     1      -2.156   1.720   1.036  1.00  0.00     0.061 C 
HETATM    3  C5  UNL     1      -0.820   1.251   0.558  1.00  0.00     0.224 C 
HETATM    4  N1  UNL     1       0.231   2.227   0.625  1.00  0.00    -0.367 N 
HETATM    5  C6  UNL     1       1.575   1.930   0.175  1.00  0.00     0.007 C 
HETATM    6  C7  UNL     1       2.259   1.367   1.315  1.00  0.00     0.023 C 
HETATM    7  C8  UNL     1       3.510   0.345   1.197  1.00  0.00     0.012 C 
HETATM    8  C9  UNL     1       4.123   0.497  -0.111  1.00  0.00     0.097 A 
HETATM    9  N2  UNL     1       5.237   1.311  -0.097  1.00  0.00    -0.342 N 
HETATM   10  C10 UNL     1       4.792   1.858  -1.414  1.00  0.00     0.235 A 
HETATM   11  O1  UNL     1       5.205   2.696  -2.219  1.00  0.00    -0.272 OA
HETATM   12  C11 UNL     1       3.624   1.015  -1.434  1.00  0.00     0.105 A 
HETATM   13  C12 UNL     1       2.529   1.504  -2.150  1.00  0.00     0.022 C 
HETATM   14  C13 UNL     1       1.555   2.383  -1.294  1.00  0.00     0.063 C 
HETATM   15  C14 UNL     1       2.941  -0.005  -0.695  1.00  0.00    -0.016 A 
HETATM   16  C15 UNL     1       2.067  -0.833  -0.603  1.00  0.00    -0.021 C 
HETATM   17  C16 UNL     1       0.941  -0.977  -1.528  1.00  0.00     0.166 C 
HETATM   18  N3  UNL     1      -0.123  -1.262  -0.503  1.00  0.00    -0.342 N 
HETATM   19  C17 UNL     1       0.562  -2.138   0.372  1.00  0.00     0.043 A 
HETATM   20  C18 UNL     1       0.076  -3.123   1.175  1.00  0.00     0.030 A 
HETATM   21  C19 UNL     1       0.858  -3.898   1.963  1.00  0.00     0.002 A 
HETATM   22  C20 UNL     1       2.226  -3.709   1.980  1.00  0.00     0.001 A 
HETATM   23  C21 UNL     1       2.738  -2.715   1.170  1.00  0.00     0.014 A 
HETATM   24  C22 UNL     1       1.941  -1.922   0.363  1.00  0.00    -0.001 A 
HETATM   25  C23 UNL     1      -1.333  -0.595  -0.769  1.00  0.00     0.162 C 
HETATM   26  C24 UNL     1      -1.574  -0.928  -2.270  1.00  0.00     0.074 C 
HETATM   27  O2  UNL     1      -0.865   0.770  -0.720  1.00  0.00    -0.334 OA
HETATM   28  C25 UNL     1      -2.531  -0.575   0.004  1.00  0.00     0.180 C 
HETATM   29  H10 UNL     1      -0.042   3.173   1.022  1.00  0.00     0.162 HD
HETATM   30  H13 UNL     1       5.994   1.440   0.551  1.00  0.00     0.164 HD
ENDROOT
BRANCH   1  31
HETATM   31  C2  UNL     1      -3.973   1.418  -0.706  1.00  0.00     0.003 C 
HETATM   32  C1  UNL     1      -3.366   2.080  -1.871  1.00  0.00     0.005 C 
ENDBRANCH   1  31
BRANCH  28  33
HETATM   33  O3  UNL     1      -2.306  -1.087   1.305  1.00  0.00    -0.385 OA
HETATM   34  C26 UNL     1      -3.373  -2.008   1.489  1.00  0.00     0.202 C 
ENDBRANCH  28  33
TORSDOF 2
