REMARK  0 active torsions:
REMARK  status: ('A' for Active; 'I' for Inactive)
ROOT
HETATM    1  C1  UNL     1      -2.151  -1.616  -1.755  1.00  0.00     0.048 C 
HETATM    2  C2  UNL     1      -2.498  -0.320  -1.308  1.00  0.00    -0.053 C 
HETATM    3  C3  UNL     1      -2.032  -0.168  -0.094  1.00  0.00     0.003 C 
HETATM    4  C4  UNL     1      -2.597   0.639   1.103  1.00  0.00     0.279 C 
HETATM    5  O1  UNL     1      -2.158  -0.036   2.154  1.00  0.00    -0.272 OA
HETATM    6  N1  UNL     1      -1.324  -1.089   1.731  1.00  0.00    -0.182 NA
HETATM    7  C5  UNL     1      -2.119  -2.236   1.768  1.00  0.00     0.145 C 
HETATM    8  C6  UNL     1      -0.830  -0.533   0.556  1.00  0.00     0.089 C 
HETATM    9  C7  UNL     1       0.360  -0.983  -0.055  1.00  0.00     0.059 C 
HETATM   10  C8  UNL     1       1.547  -1.557   0.589  1.00  0.00     0.076 C 
HETATM   11  C9  UNL     1       1.396  -3.052   0.981  1.00  0.00     0.032 C 
HETATM   12  N2  UNL     1       2.864  -1.365  -0.001  1.00  0.00    -0.404 N 
HETATM   13  C10 UNL     1       3.098   0.031  -0.357  1.00  0.00     0.068 A 
HETATM   14  C11 UNL     1       2.824  -0.173  -1.735  1.00  0.00     0.005 A 
HETATM   15  C12 UNL     1       2.533   0.982  -2.527  1.00  0.00    -0.005 A 
HETATM   16  C13 UNL     1       2.569   2.161  -1.718  1.00  0.00    -0.012 A 
HETATM   17  C14 UNL     1       2.883   1.667  -0.567  1.00  0.00     0.035 A 
HETATM   18  C15 UNL     1       3.191   1.136   0.538  1.00  0.00     0.027 A 
HETATM   19  C16 UNL     1       3.569   0.949   1.936  1.00  0.00     0.094 C 
HETATM   20  C17 UNL     1       2.055   1.193   2.247  1.00  0.00     0.139 C 
HETATM   21  O2  UNL     1       1.306   1.099   3.187  1.00  0.00    -0.297 OA
HETATM   22  C18 UNL     1       2.250   1.531   0.856  1.00  0.00     0.053 C 
HETATM   23  C19 UNL     1       0.816   1.283   0.821  1.00  0.00     0.036 C 
HETATM   24  C20 UNL     1      -0.570   1.032   1.136  1.00  0.00     0.122 C 
HETATM   25  N3  UNL     1      -1.659   1.713   0.628  1.00  0.00    -0.351 N 
HETATM   26  C21 UNL     1      -1.896   2.871  -0.153  1.00  0.00     0.089 C 
HETATM   27  C22 UNL     1      -2.733   2.982  -1.213  1.00  0.00     0.017 C 
HETATM   28  C23 UNL     1      -3.427   2.005  -2.116  1.00  0.00     0.002 C 
HETATM   29  C24 UNL     1      -3.226   0.656  -2.151  1.00  0.00     0.007 C 
HETATM   30  H14 UNL     1       3.589  -2.083  -0.187  1.00  0.00     0.154 HD
ENDROOT
TORSDOF 0
