REMARK  8 active torsions:
REMARK  status: ('A' for Active; 'I' for Inactive)
REMARK    1  A    between atoms: O1_2  and  C2_3 
REMARK    2  A    between atoms: C2_3  and  C3_4 
REMARK    3  A    between atoms: C3_4  and  C4_5 
REMARK    4  A    between atoms: C3_4  and  N4_30 
REMARK    5  A    between atoms: C4_5  and  C5_6 
REMARK    6  A    between atoms: N3_23  and  C19_24 
REMARK    7  A    between atoms: N4_30  and  C25_31 
REMARK    8  A    between atoms: C25_31  and  C26_32 
ROOT
HETATM    1  C5  UNL     1      -1.269   0.170  -0.305  1.00  0.00     0.234 C 
HETATM    2  O2  UNL     1      -0.255   0.992   0.197  1.00  0.00    -0.319 OA
HETATM    3  C6  UNL     1       0.850   0.105   0.326  1.00  0.00     0.331 A 
HETATM    4  N1  UNL     1       0.826  -0.583   1.572  1.00  0.00     0.134 N 
HETATM    5  C7  UNL     1       1.303   0.795   2.055  1.00  0.00     0.315 C 
HETATM    6  C8  UNL     1       2.125   0.688   0.780  1.00  0.00     0.033 A 
HETATM    7  C9  UNL     1       3.247   0.779   0.095  1.00  0.00     0.012 A 
HETATM    8  C10 UNL     1       3.194   0.239  -1.194  1.00  0.00    -0.006 A 
HETATM    9  C11 UNL     1       4.434   0.437  -1.715  1.00  0.00     0.104 A 
HETATM   10  N2  UNL     1       5.180   1.059  -0.784  1.00  0.00    -0.352 N 
HETATM   11  C12 UNL     1       4.493   1.291   0.346  1.00  0.00     0.046 A 
HETATM   12  C13 UNL     1       4.937   1.879   1.441  1.00  0.00     0.030 A 
HETATM   13  C14 UNL     1       6.312   2.340   1.461  1.00  0.00    -0.000 A 
HETATM   14  C15 UNL     1       6.992   2.115   0.351  1.00  0.00    -0.007 A 
HETATM   15  C16 UNL     1       6.565   1.466  -0.906  1.00  0.00     0.156 A 
HETATM   16  C17 UNL     1       1.964  -0.385  -1.732  1.00  0.00     0.044 A 
HETATM   17  C18 UNL     1       0.866  -0.441  -0.996  1.00  0.00     0.086 A 
HETATM   18  N3  UNL     1      -0.517  -0.859  -1.090  1.00  0.00    -0.318 N 
HETATM   19  H10 UNL     1       1.628  -1.252   1.653  1.00  0.00     0.321 HD
ENDROOT
BRANCH   1  20
HETATM   20  C4  UNL     1      -2.091  -0.454   0.741  1.00  0.00     0.092 C 
BRANCH  20  21
HETATM   21  C3  UNL     1      -2.758   0.559   1.623  1.00  0.00     0.248 C 
BRANCH  21  22
HETATM   22  C2  UNL     1      -3.679   1.476   0.920  1.00  0.00     0.202 C 
BRANCH  22  23
HETATM   23  O1  UNL     1      -3.132   2.172  -0.142  1.00  0.00    -0.394 OA
HETATM   24  C1  UNL     1      -4.089   3.017  -0.743  1.00  0.00     0.201 C 
ENDBRANCH  22  23
ENDBRANCH  21  22
BRANCH  21  25
HETATM   25  N4  UNL     1      -3.405  -0.106   2.762  1.00  0.00     0.096 N 
HETATM   26  H25 UNL     1      -3.702   0.683   3.380  1.00  0.00     0.316 HD
BRANCH  25  27
HETATM   27  C25 UNL     1      -4.537  -0.895   2.394  1.00  0.00     0.339 C 
BRANCH  27  28
HETATM   28  C26 UNL     1      -5.066  -1.499   3.653  1.00  0.00     0.261 C 
HETATM   29  O3  UNL     1      -4.178  -0.940   4.295  1.00  0.00    -0.305 OA
ENDBRANCH  27  28
ENDBRANCH  25  27
ENDBRANCH  21  25
ENDBRANCH  20  21
ENDBRANCH   1  20
BRANCH  18  30
HETATM   30  C19 UNL     1      -0.811  -2.032  -1.853  1.00  0.00     0.037 A 
HETATM   31  C20 UNL     1      -0.894  -3.368  -1.513  1.00  0.00     0.029 A 
HETATM   32  C21 UNL     1      -1.200  -4.288  -2.475  1.00  0.00     0.002 A 
HETATM   33  C22 UNL     1      -1.431  -3.934  -3.784  1.00  0.00     0.000 A 
HETATM   34  C23 UNL     1      -1.356  -2.606  -4.158  1.00  0.00     0.002 A 
HETATM   35  C24 UNL     1      -1.044  -1.653  -3.181  1.00  0.00     0.029 A 
ENDBRANCH  18  30
TORSDOF 8
