REMARK  4 active torsions:
REMARK  status: ('A' for Active; 'I' for Inactive)
REMARK    1  A    between atoms: C2_2  and  C3_3 
REMARK    2  A    between atoms: C2_2  and  N3_21 
REMARK    3  A    between atoms: C3_3  and  C4_4 
REMARK       I    between atoms: C4_4  and  N1_6 
REMARK    4  A    between atoms: N1_6  and  C5_7 
ROOT
HETATM    1  N3  UNL     1       6.587  -0.082  -1.560  1.00  0.00    -0.324 N 
HETATM    2  C17 UNL     1       7.891   0.420  -1.598  1.00  0.00     0.177 C 
HETATM    3  N4  UNL     1       8.967   0.847  -1.616  1.00  0.00    -0.172 NA
HETATM    4  H24 UNL     1       6.443  -0.981  -2.073  1.00  0.00     0.172 HD
ENDROOT
BRANCH   1   5
HETATM    5  C2  UNL     1       5.613   0.725  -0.810  1.00  0.00     0.097 C 
HETATM    6  C1  UNL     1       6.090   0.823   0.614  1.00  0.00     0.033 C 
BRANCH   5   7
HETATM    7  C3  UNL     1       4.296  -0.010  -0.921  1.00  0.00     0.128 C 
BRANCH   7   8
HETATM    8  C4  UNL     1       3.214   0.652  -0.157  1.00  0.00     0.224 C 
HETATM    9  O1  UNL     1       3.413   1.683   0.505  1.00  0.00    -0.273 OA
HETATM   10  N1  UNL     1       1.946   0.020  -0.240  1.00  0.00    -0.325 N 
HETATM   11  H7  UNL     1       1.742  -0.842  -0.785  1.00  0.00     0.169 HD
BRANCH  10  12
HETATM   12  C5  UNL     1       0.814   0.516   0.426  1.00  0.00     0.061 C 
HETATM   13  C6  UNL     1       0.275   1.405   1.209  1.00  0.00     0.033 C 
HETATM   14  C7  UNL     1      -0.848   1.978   1.925  1.00  0.00     0.019 C 
HETATM   15  C8  UNL     1      -2.096   1.561   1.960  1.00  0.00     0.085 C 
HETATM   16  N2  UNL     1      -2.954   0.528   1.444  1.00  0.00    -0.390 N 
HETATM   17  C9  UNL     1      -3.794   1.064   0.391  1.00  0.00     0.122 C 
HETATM   18  C16 UNL     1      -3.195  -0.896   1.693  1.00  0.00     0.127 C 
HETATM   19  C10 UNL     1      -4.970   0.184   0.055  1.00  0.00     0.024 C 
HETATM   20  C11 UNL     1      -4.470  -1.170  -0.437  1.00  0.00    -0.011 C 
HETATM   21  C12 UNL     1      -5.601  -2.146  -0.512  1.00  0.00     0.010 C 
HETATM   22  C13 UNL     1      -3.327  -1.658   0.384  1.00  0.00     0.012 C 
HETATM   23  C14 UNL     1      -2.013  -1.498  -0.370  1.00  0.00     0.001 C 
HETATM   24  C15 UNL     1      -0.776  -0.969  -0.584  1.00  0.00     0.000 C 
HETATM   25  O2  UNL     1      -0.445  -0.060   0.365  1.00  0.00     0.000 OA
ENDBRANCH  10  12
ENDBRANCH   7   8
ENDBRANCH   5   7
ENDBRANCH   1   5
TORSDOF 4
