REMARK  1 active torsions:
REMARK  status: ('A' for Active; 'I' for Inactive)
REMARK    1  A    between atoms: C5_6  and  N1_7 
REMARK       I    between atoms: N1_7  and  C6_8 
ROOT
HETATM    1  N1  UNL     1       1.173   0.142  -0.962  1.00  0.00    -0.190 N 
HETATM    2  C6  UNL     1       0.182   0.708  -0.136  1.00  0.00     0.708 C 
HETATM    3  N2  UNL     1       0.206   1.035   1.133  1.00  0.00    -0.058 NA
HETATM    4  C7  UNL     1      -1.002   1.055   1.973  1.00  0.00     0.253 C 
HETATM    5  N3  UNL     1      -2.300   1.244   1.610  1.00  0.00    -0.243 NA
HETATM    6  C8  UNL     1      -2.769   1.163   0.199  1.00  0.00     0.063 C 
HETATM    7  C9  UNL     1      -2.107   1.932  -0.777  1.00  0.00     0.137 C 
HETATM    8  N4  UNL     1      -1.049   0.882  -0.907  1.00  0.00    -0.185 N 
HETATM    9  C10 UNL     1      -1.149  -0.362  -1.821  1.00  0.00     0.185 C 
HETATM   10  C11 UNL     1      -2.512  -0.728  -1.103  1.00  0.00    -0.042 C 
HETATM   11  C12 UNL     1      -3.768  -0.481  -1.394  1.00  0.00    -0.003 C 
HETATM   12  C13 UNL     1      -3.908   0.170  -0.023  1.00  0.00     0.085 C 
HETATM   13  C14 UNL     1      -3.636  -1.152   0.685  1.00  0.00    -0.011 C 
HETATM   14  C15 UNL     1      -2.351  -1.219   0.313  1.00  0.00     0.005 C 
HETATM   15  H4  UNL     1       0.905  -0.160  -1.919  1.00  0.00     0.184 HD
ENDROOT
BRANCH   1  16
HETATM   16  C5  UNL     1       2.428   0.062  -0.372  1.00  0.00     0.050 A 
HETATM   17  C4  UNL     1       3.001   0.637   0.717  1.00  0.00     0.030 A 
HETATM   18  C3  UNL     1       4.264   0.390   1.140  1.00  0.00     0.004 A 
HETATM   19  C2  UNL     1       5.075  -0.480   0.483  1.00  0.00     0.019 A 
HETATM   20  C1  UNL     1       4.570  -1.097  -0.621  1.00  0.00     0.013 A 
HETATM   21 BR1  UNL     1       5.709  -2.319  -1.544  1.00  0.00    -0.051 Br
HETATM   22  C16 UNL     1       3.276  -0.830  -1.038  1.00  0.00     0.049 A 
ENDBRANCH   1  16
TORSDOF 1
