REMARK  7 active torsions:
REMARK  status: ('A' for Active; 'I' for Inactive)
REMARK    1  A    between atoms: N1_1  and  C1_2 
REMARK    2  A    between atoms: C4_5  and  C5_6 
REMARK    3  A    between atoms: C5_6  and  C6_7 
REMARK    4  A    between atoms: C10_12  and  O1_13 
REMARK    5  A    between atoms: C11_14  and  N2_15 
REMARK    6  A    between atoms: N2_15  and  C12_16 
REMARK    7  A    between atoms: C15_19  and  N3_20 
ROOT
HETATM    1  C1  UNL     1      -3.886  -3.432  -0.399  1.00  0.00     0.246 A 
HETATM    2  C2  UNL     1      -4.959  -2.564   0.085  1.00  0.00     0.009 A 
HETATM    3  C3  UNL     1      -4.955  -1.325   0.541  1.00  0.00     0.007 A 
HETATM    4  C4  UNL     1      -3.616  -0.715   0.562  1.00  0.00    -0.032 A 
HETATM    5  C11 UNL     1      -2.562  -1.391   0.152  1.00  0.00     0.018 A 
HETATM    6  C23 UNL     1      -2.537  -2.797  -0.401  1.00  0.00     0.097 A 
ENDROOT
BRANCH   5   7
HETATM    7  N2  UNL     1      -1.253  -0.931   0.127  1.00  0.00    -0.359 N 
HETATM    8  H12 UNL     1      -1.177  -1.116   1.190  1.00  0.00     0.166 HD
BRANCH   7   9
HETATM    9  C12 UNL     1       0.044  -0.476   0.108  1.00  0.00     0.032 A 
HETATM   10  C13 UNL     1       0.477   0.794   0.337  1.00  0.00     0.031 A 
HETATM   11  C14 UNL     1       1.814   1.122   0.291  1.00  0.00     0.031 A 
HETATM   12  C15 UNL     1       2.672   0.083   0.003  1.00  0.00     0.030 A 
HETATM   13  C21 UNL     1       2.366  -1.232  -0.246  1.00  0.00     0.031 A 
HETATM   14  C22 UNL     1       0.985  -1.484  -0.182  1.00  0.00     0.031 A 
BRANCH  12  15
HETATM   15  N3  UNL     1       4.054   0.433  -0.018  1.00  0.00    -0.379 N 
HETATM   16  C16 UNL     1       5.006  -0.656   0.143  1.00  0.00     0.125 C 
HETATM   17  C17 UNL     1       6.126  -0.188   1.064  1.00  0.00     0.050 C 
HETATM   18  C18 UNL     1       7.052   0.796   0.440  1.00  0.00     0.271 C 
HETATM   19  N4  UNL     1       6.781   1.041  -0.950  1.00  0.00     0.085 N 
HETATM   20  C19 UNL     1       5.639   1.832  -1.224  1.00  0.00     0.289 C 
HETATM   21  H21 UNL     1       6.889   0.159  -1.494  1.00  0.00     0.315 HD
HETATM   22  C20 UNL     1       4.540   1.788  -0.198  1.00  0.00     0.153 C 
ENDBRANCH  12  15
ENDBRANCH   7   9
ENDBRANCH   5   7
BRANCH   4  23
HETATM   23  C5  UNL     1      -3.546   0.657   1.050  1.00  0.00     0.076 C 
BRANCH  23  24
HETATM   24  C6  UNL     1      -4.404   1.640   0.339  1.00  0.00    -0.057 C 
HETATM   25  C7  UNL     1      -5.232   1.482  -0.695  1.00  0.00     0.004 C 
HETATM   26  C8  UNL     1      -6.054   2.513  -1.342  1.00  0.00    -0.006 C 
HETATM   27  C9  UNL     1      -6.769   3.207  -0.503  1.00  0.00    -0.108 C 
HETATM   28  B1  UNL     1      -4.969   4.276   0.266  1.00  0.00     0.225 B 
HETATM   29  C10 UNL     1      -4.183   2.984   0.990  1.00  0.00     0.099 C 
BRANCH  29  30
HETATM   30  O1  UNL     1      -2.782   3.207   0.908  1.00  0.00    -0.402 OA
HETATM   31  H11 UNL     1      -2.534   3.668   0.074  1.00  0.00     0.209 HD
ENDBRANCH  29  30
ENDBRANCH  23  24
ENDBRANCH   4  23
BRANCH   1  32
HETATM   32  N1  UNL     1      -3.775  -4.654   0.412  1.00  0.00     0.086 N 
HETATM   33  H1  UNL     1      -2.997  -5.189  -0.066  1.00  0.00     0.313 HD
HETATM   34  H2  UNL     1      -3.366  -4.331   1.330  1.00  0.00     0.313 HD
ENDBRANCH   1  32
TORSDOF 7
