REMARK  3 active torsions:
REMARK  status: ('A' for Active; 'I' for Inactive)
REMARK    1  A    between atoms: N2_5  and  C4_6 
REMARK    2  A    between atoms: C7_9  and  N3_10 
REMARK       I    between atoms: N3_10  and  C8_11 
REMARK    3  A    between atoms: C8_11  and  C9_13 
ROOT
HETATM    1  N3  UNL     1      -0.948  -0.055   0.482  1.00  0.00    -0.326 N 
HETATM    2  C8  UNL     1      -1.483   1.194   0.126  1.00  0.00     0.235 C 
HETATM    3  O1  UNL     1      -0.588   2.069  -0.137  1.00  0.00    -0.272 OA
HETATM    4  H10 UNL     1      -1.622  -0.811   0.708  1.00  0.00     0.169 HD
ENDROOT
BRANCH   2   5
HETATM    5  C9  UNL     1      -2.867   1.585   0.024  1.00  0.00     0.186 C 
HETATM    6  C10 UNL     1      -3.619   1.499   1.367  1.00  0.00     0.373 A 
HETATM    7  O2  UNL     1      -4.091   1.701   2.506  1.00  0.00    -0.145 OA
HETATM    8  N4  UNL     1      -4.521   0.441   1.805  1.00  0.00     0.109 N 
HETATM    9  C11 UNL     1      -5.419  -0.612   2.240  1.00  0.00     0.237 C 
HETATM   10  H12 UNL     1      -4.307  -0.325   1.076  1.00  0.00     0.328 HD
HETATM   11  C12 UNL     1      -6.645  -0.487   1.628  1.00  0.00     0.020 C 
HETATM   12  C13 UNL     1      -7.233   0.460   0.683  1.00  0.00     0.148 C 
HETATM   13  N5  UNL     1      -7.430   0.090  -0.672  1.00  0.00    -0.386 N 
HETATM   14  C14 UNL     1      -6.100   0.007  -1.230  1.00  0.00     0.028 A 
HETATM   15  H17 UNL     1      -8.111  -0.144  -1.425  1.00  0.00     0.160 HD
HETATM   16  C15 UNL     1      -5.645  -0.801  -2.255  1.00  0.00     0.029 A 
HETATM   17  C19 UNL     1      -5.039   0.679  -0.731  1.00  0.00     0.037 A 
HETATM   18  C16 UNL     1      -4.309  -0.824  -2.605  1.00  0.00     0.003 A 
HETATM   19  C17 UNL     1      -3.349  -0.063  -1.972  1.00  0.00     0.008 A 
HETATM   20  C18 UNL     1      -3.689   0.779  -0.934  1.00  0.00    -0.038 A 
ENDBRANCH   2   5
BRANCH   1  21
HETATM   21  C7  UNL     1       0.496   0.021   0.448  1.00  0.00     0.034 A 
HETATM   22  C6  UNL     1       1.148  -0.251  -0.750  1.00  0.00     0.032 A 
HETATM   23  C5  UNL     1       2.517  -0.203  -0.880  1.00  0.00     0.031 A 
HETATM   24  C4  UNL     1       3.280   0.126   0.211  1.00  0.00     0.030 A 
HETATM   25  C21 UNL     1       2.657   0.399   1.403  1.00  0.00     0.031 A 
HETATM   26  C20 UNL     1       1.282   0.353   1.542  1.00  0.00     0.032 A 
BRANCH  24  27
HETATM   27  N2  UNL     1       4.706   0.198   0.131  1.00  0.00    -0.378 N 
HETATM   28  C3  UNL     1       5.650   0.424   1.224  1.00  0.00     0.153 C 
HETATM   29  C2  UNL     1       6.684  -0.680   1.124  1.00  0.00     0.291 C 
HETATM   30  N1  UNL     1       7.440  -0.579  -0.111  1.00  0.00     0.087 N 
HETATM   31  C1  UNL     1       7.698  -1.869  -0.721  1.00  0.00     0.310 C 
HETATM   32  C23 UNL     1       6.804   0.327  -1.050  1.00  0.00     0.291 C 
HETATM   33  C22 UNL     1       5.326   0.038  -1.189  1.00  0.00     0.153 C 
ENDBRANCH  24  27
ENDBRANCH   1  21
TORSDOF 3
