REMARK  4 active torsions:
REMARK  status: ('A' for Active; 'I' for Inactive)
REMARK       I    between atoms: N2_12  and  C11_13 
REMARK    1  A    between atoms: C11_13  and  C12_15 
REMARK    2  A    between atoms: C12_15  and  N3_16 
REMARK    3  A    between atoms: N3_16  and  C13_17 
REMARK    4  A    between atoms: C18_22  and  O2_23 
ROOT
HETATM    1  C12 UNL     1       1.374  -1.050  -1.326  1.00  0.00     0.213 A 
HETATM    2  C20 UNL     1       1.168  -2.310  -2.078  1.00  0.00     0.041 A 
HETATM    3  C21 UNL     1       0.887  -2.139  -3.389  1.00  0.00     0.090 A 
HETATM    4  N4  UNL     1       0.880  -0.718  -3.651  1.00  0.00    -0.335 N 
HETATM    5  C22 UNL     1       1.176  -0.039  -2.413  1.00  0.00     0.263 A 
HETATM    6  O3  UNL     1       1.165   1.218  -2.676  1.00  0.00    -0.269 OA
HETATM    7  H26 UNL     1       0.662  -0.591  -4.657  1.00  0.00     0.168 HD
ENDROOT
BRANCH   1   8
HETATM    8  C11 UNL     1       0.309  -0.806  -0.337  1.00  0.00     0.262 C 
HETATM    9  N2  UNL     1      -1.098  -0.845  -0.317  1.00  0.00    -0.338 N 
HETATM   10  C10 UNL     1      -2.119  -1.191  -1.319  1.00  0.00     0.153 C 
HETATM   11  C23 UNL     1      -1.842  -0.462   0.872  1.00  0.00     0.130 C 
HETATM   12  C9  UNL     1      -2.652   0.081  -1.885  1.00  0.00    -0.008 C 
HETATM   13  C8  UNL     1      -3.023   0.854  -0.868  1.00  0.00     0.019 C 
HETATM   14  C7  UNL     1      -2.939   0.542   0.592  1.00  0.00     0.218 C 
HETATM   15  C2  UNL     1      -2.579   1.800   1.284  1.00  0.00    -0.041 C 
HETATM   16  N1  UNL     1      -4.177  -0.019   1.022  1.00  0.00     0.103 N 
HETATM   17  C1  UNL     1      -1.358   2.305   1.400  1.00  0.00     0.017 C 
HETATM   18  C3  UNL     1      -3.501   2.728   1.972  1.00  0.00     0.014 C 
HETATM   19  C4  UNL     1      -3.291   2.802   3.451  1.00  0.00     0.015 C 
HETATM   20  C5  UNL     1      -4.905   2.274   1.590  1.00  0.00     0.039 C 
HETATM   21  C6  UNL     1      -4.989   0.801   1.846  1.00  0.00     0.272 C 
HETATM   22  H11 UNL     1      -4.676  -0.398   0.191  1.00  0.00     0.317 HD
HETATM   23  C24 UNL     1      -2.420  -1.715   1.545  1.00  0.00     0.036 C 
HETATM   24  O1  UNL     1       0.873  -0.483   0.753  1.00  0.00    -0.270 OA
ENDBRANCH   1   8
BRANCH   1  25
HETATM   25  N3  UNL     1       2.653  -0.878  -0.749  1.00  0.00    -0.359 N 
HETATM   26  H16 UNL     1       2.653  -0.704   0.297  1.00  0.00     0.161 HD
BRANCH  25  27
HETATM   27  C13 UNL     1       3.991  -0.870  -1.115  1.00  0.00     0.063 A 
HETATM   28  C14 UNL     1       4.276  -1.054  -2.426  1.00  0.00     0.032 A 
HETATM   29  C15 UNL     1       5.343  -1.143  -3.342  1.00  0.00     0.002 A 
HETATM   30  C16 UNL     1       6.464  -0.955  -2.403  1.00  0.00     0.003 A 
HETATM   31  C17 UNL     1       6.388  -0.745  -0.980  1.00  0.00     0.039 A 
HETATM   32  C18 UNL     1       5.125  -0.708  -0.364  1.00  0.00     0.094 A 
BRANCH  32  33
HETATM   33  O2  UNL     1       4.858  -0.518   0.976  1.00  0.00    -0.354 OA
HETATM   34  C19 UNL     1       5.977  -0.336   1.822  1.00  0.00     0.210 C 
ENDBRANCH  32  33
ENDBRANCH  25  27
ENDBRANCH   1  25
TORSDOF 4
