REMARK  2 active torsions:
REMARK  status: ('A' for Active; 'I' for Inactive)
REMARK       I    between atoms: N2_8  and  C7_9 
REMARK    1  A    between atoms: C7_9  and  C8_11 
REMARK    2  A    between atoms: N4_17  and  C12_18 
ROOT
HETATM    1  C8  UNL     1      -2.259  -1.354   0.211  1.00  0.00     0.270 C 
HETATM    2  C9  UNL     1      -2.515  -2.480  -0.729  1.00  0.00     0.250 C 
HETATM    3  O2  UNL     1      -2.005  -3.556  -0.316  1.00  0.00    -0.271 OA
HETATM    4  N3  UNL     1      -3.236  -2.450  -1.967  1.00  0.00    -0.357 N 
HETATM    5  C10 UNL     1      -4.017  -1.256  -2.198  1.00  0.00     0.142 C 
HETATM    6  C11 UNL     1      -3.117  -0.094  -1.773  1.00  0.00     0.144 C 
HETATM    7  N4  UNL     1      -3.010  -0.226  -0.322  1.00  0.00    -0.357 N 
HETATM    8  H12 UNL     1      -3.140  -3.285  -2.596  1.00  0.00     0.162 HD
ENDROOT
BRANCH   1   9
HETATM    9  C7  UNL     1      -0.822  -1.001   0.302  1.00  0.00     0.252 C 
HETATM   10  N2  UNL     1       0.535  -1.122   0.556  1.00  0.00    -0.342 N 
HETATM   11  C6  UNL     1       1.072  -2.392   1.102  1.00  0.00     0.153 C 
HETATM   12  C17 UNL     1       1.433  -0.070   0.306  1.00  0.00     0.093 C 
HETATM   13  C5  UNL     1       2.564  -2.503   0.971  1.00  0.00    -0.004 C 
HETATM   14  C4  UNL     1       3.188  -1.325   0.994  1.00  0.00    -0.079 C 
HETATM   15  C3  UNL     1       4.545  -1.052   0.471  1.00  0.00     0.053 C 
HETATM   16  C20 UNL     1       2.359  -0.173   1.538  1.00  0.00     0.059 C 
HETATM   17  C2  UNL     1       4.544   0.112  -0.532  1.00  0.00     0.120 C 
HETATM   18  N1  UNL     1       3.784   1.232  -0.159  1.00  0.00    -0.416 N 
HETATM   19  C1  UNL     1       4.559   2.393   0.230  1.00  0.00     0.143 C 
HETATM   20  C19 UNL     1       2.612   1.631  -0.810  1.00  0.00     0.118 C 
HETATM   21  C18 UNL     1       1.291   1.278  -0.064  1.00  0.00     0.045 C 
HETATM   22  O1  UNL     1      -1.292   0.068  -0.162  1.00  0.00    -0.270 OA
ENDBRANCH   1   9
BRANCH   7  23
HETATM   23  C12 UNL     1      -3.640   0.745   0.494  1.00  0.00     0.053 C 
HETATM   24  C13 UNL     1      -3.662   2.063   0.322  1.00  0.00     0.026 C 
HETATM   25  C14 UNL     1      -4.381   2.962   1.283  1.00  0.00     0.179 C 
HETATM   26  N5  UNL     1      -4.302   2.331   2.585  1.00  0.00    -0.282 NA
HETATM   27  C15 UNL     1      -4.493   1.089   2.704  1.00  0.00     0.105 C 
HETATM   28  C16 UNL     1      -4.368   0.261   1.685  1.00  0.00     0.091 C 
HETATM   29 CL1  UNL     1      -5.042  -1.342   1.763  1.00  0.00    -0.079 Cl
ENDBRANCH   7  23
TORSDOF 2
