REMARK  5 active torsions:
REMARK  status: ('A' for Active; 'I' for Inactive)
REMARK    1  A    between atoms: N2_5  and  C4_6 
REMARK    2  A    between atoms: C7_9  and  N3_10 
REMARK       I    between atoms: N3_10  and  C8_11 
REMARK    3  A    between atoms: C8_11  and  C9_13 
REMARK    4  A    between atoms: C9_13  and  C10_14 
REMARK    5  A    between atoms: C10_14  and  C11_15 
ROOT
HETATM    1  C4  UNL     1      -0.963   0.027  -0.298  1.00  0.00     0.030 A 
HETATM    2  C5  UNL     1      -0.314   1.124  -0.809  1.00  0.00     0.031 A 
HETATM    3  C6  UNL     1       1.073   1.136  -0.921  1.00  0.00     0.032 A 
HETATM    4  C7  UNL     1       1.798   0.035  -0.515  1.00  0.00     0.034 A 
HETATM    5  C12 UNL     1       1.135  -1.067  -0.001  1.00  0.00     0.032 A 
HETATM    6  C13 UNL     1      -0.256  -1.077   0.111  1.00  0.00     0.031 A 
ENDROOT
BRANCH   4   7
HETATM    7  N3  UNL     1       3.210  -0.129  -0.555  1.00  0.00    -0.327 N 
HETATM    8  C8  UNL     1       4.158   0.199   0.441  1.00  0.00     0.222 C 
HETATM    9  O1  UNL     1       3.736   0.705   1.523  1.00  0.00    -0.273 OA
HETATM   10  H10 UNL     1       3.492  -0.551  -1.473  1.00  0.00     0.169 HD
BRANCH   8  11
HETATM   11  C9  UNL     1       5.588  -0.094   0.101  1.00  0.00     0.110 C 
BRANCH  11  12
HETATM   12  C10 UNL     1       6.392   0.347   1.327  1.00  0.00     0.078 C 
BRANCH  12  13
HETATM   13  C11 UNL     1       7.831   0.120   1.144  1.00  0.00     0.231 C 
HETATM   14  O2  UNL     1       8.160  -0.362   0.096  1.00  0.00    -0.307 OA
ENDBRANCH  12  13
ENDBRANCH  11  12
ENDBRANCH   8  11
ENDBRANCH   4   7
BRANCH   1  15
HETATM   15  N2  UNL     1      -2.360   0.096  -0.219  1.00  0.00    -0.378 N 
HETATM   16  C3  UNL     1      -3.061   1.286  -0.665  1.00  0.00     0.153 C 
HETATM   17  C2  UNL     1      -4.529   1.217  -0.275  1.00  0.00     0.291 C 
HETATM   18  N1  UNL     1      -5.187   0.027  -0.734  1.00  0.00     0.087 N 
HETATM   19  C1  UNL     1      -6.246  -0.388   0.189  1.00  0.00     0.310 C 
HETATM   20  C15 UNL     1      -4.291  -1.109  -0.842  1.00  0.00     0.291 C 
HETATM   21  C14 UNL     1      -3.259  -0.924   0.279  1.00  0.00     0.153 C 
ENDBRANCH   1  15
TORSDOF 5
