REMARK  5 active torsions:
REMARK  status: ('A' for Active; 'I' for Inactive)
REMARK    1  A    between atoms: C2_2  and  C3_3 
REMARK    2  A    between atoms: C7_9  and  N2_10 
REMARK    3  A    between atoms: N2_10  and  C8_11 
REMARK    4  A    between atoms: C8_11  and  C9_12 
REMARK    5  A    between atoms: C13_17  and  N4_18 
ROOT
HETATM    1  C1  UNL     1      -4.836   1.030   0.060  1.00  0.00     0.052 C 
HETATM    2  C2  UNL     1      -3.768   0.186   0.712  1.00  0.00     0.110 A 
HETATM    3  N1  UNL     1      -3.181   0.699   1.911  1.00  0.00    -0.370 N 
HETATM    4  C4  UNL     1      -1.907   0.839   1.287  1.00  0.00     0.038 A 
HETATM    5  C5  UNL     1      -0.586   1.195   1.334  1.00  0.00     0.032 A 
HETATM    6  C6  UNL     1       0.188   1.058   0.222  1.00  0.00     0.031 A 
HETATM    7  C7  UNL     1      -0.256   0.578  -0.990  1.00  0.00     0.028 A 
HETATM    8  C14 UNL     1      -1.590   0.232  -0.997  1.00  0.00     0.041 A 
HETATM    9  C15 UNL     1      -2.422   0.350   0.106  1.00  0.00     0.005 A 
HETATM   10  H5  UNL     1      -3.629   0.865   2.842  1.00  0.00     0.161 HD
ENDROOT
BRANCH   7  11
HETATM   11  N2  UNL     1       0.564   0.438  -2.142  1.00  0.00    -0.389 N 
HETATM   12  H8  UNL     1       0.110   0.071  -3.007  1.00  0.00     0.159 HD
BRANCH  11  13
HETATM   13  C8  UNL     1       1.961   0.778  -2.150  1.00  0.00     0.136 C 
BRANCH  13  14
HETATM   14  C9  UNL     1       2.750  -0.051  -1.202  1.00  0.00     0.056 A 
HETATM   15  C10 UNL     1       2.691  -1.039  -0.296  1.00  0.00     0.059 A 
HETATM   16  C11 UNL     1       3.164  -2.013   0.717  1.00  0.00     0.006 C 
HETATM   17  C13 UNL     1       4.044  -0.403  -0.597  1.00  0.00     0.178 A 
HETATM   18  C12 UNL     1       4.187  -1.387   1.340  1.00  0.00     0.082 C 
HETATM   19  N3  UNL     1       4.387  -0.065   0.772  1.00  0.00    -0.368 N 
HETATM   20  H13 UNL     1       4.688   0.676   1.435  1.00  0.00     0.161 HD
BRANCH  17  21
HETATM   21  N4  UNL     1       4.914  -1.305  -1.304  1.00  0.00    -0.106 NA
HETATM   22  O2  UNL     1       6.082  -1.203  -1.343  1.00  0.00    -0.064 OA
ENDBRANCH  17  21
ENDBRANCH  13  14
ENDBRANCH  11  13
ENDBRANCH   7  11
BRANCH   2  23
HETATM   23  C3  UNL     1      -4.189  -1.221   0.880  1.00  0.00     0.267 C 
HETATM   24  O1  UNL     1      -4.714  -2.186   0.311  1.00  0.00    -0.304 OA
ENDBRANCH   2  23
TORSDOF 5
