REMARK  4 active torsions:
REMARK  status: ('A' for Active; 'I' for Inactive)
REMARK       I    between atoms: N1_3  and  C3_4 
REMARK    1  A    between atoms: C3_4  and  C4_6 
REMARK    2  A    between atoms: C4_6  and  C5_7 
REMARK       I    between atoms: C5_7  and  N2_9 
REMARK    3  A    between atoms: N2_9  and  C6_10 
REMARK    4  A    between atoms: C9_13  and  N3_14 
ROOT
HETATM    1  C1  UNL     1       7.794  -1.101   0.170  1.00  0.00     0.032 C 
HETATM    2  C2  UNL     1       7.034  -0.094  -0.118  1.00  0.00     0.081 C 
HETATM    3  N1  UNL     1       6.301   1.103  -0.323  1.00  0.00    -0.340 N 
HETATM    4  C3  UNL     1       5.237   0.923  -1.244  1.00  0.00     0.230 C 
HETATM    5  O1  UNL     1       5.053  -0.227  -1.767  1.00  0.00    -0.273 OA
HETATM    6  H4  UNL     1       6.456   2.035   0.107  1.00  0.00     0.167 HD
ENDROOT
BRANCH   4   7
HETATM    7  C4  UNL     1       4.298   1.958  -1.671  1.00  0.00     0.206 C 
BRANCH   7   8
HETATM    8  C5  UNL     1       2.876   1.680  -1.378  1.00  0.00     0.231 C 
HETATM    9  O2  UNL     1       1.850   2.377  -1.630  1.00  0.00    -0.273 OA
HETATM   10  N2  UNL     1       2.501   0.479  -0.718  1.00  0.00    -0.327 N 
HETATM   11  H7  UNL     1       3.166  -0.257  -0.406  1.00  0.00     0.169 HD
BRANCH  10  12
HETATM   12  C6  UNL     1       1.098   0.311  -0.486  1.00  0.00     0.034 A 
HETATM   13  C7  UNL     1       0.306  -0.321  -1.420  1.00  0.00     0.032 A 
HETATM   14  C8  UNL     1      -1.026  -0.486  -1.212  1.00  0.00     0.031 A 
HETATM   15  C9  UNL     1      -1.601  -0.016  -0.051  1.00  0.00     0.030 A 
HETATM   16  C15 UNL     1      -0.768   0.606   0.848  1.00  0.00     0.031 A 
HETATM   17  C16 UNL     1       0.609   0.812   0.704  1.00  0.00     0.032 A 
BRANCH  15  18
HETATM   18  N3  UNL     1      -2.988  -0.165   0.214  1.00  0.00    -0.378 N 
HETATM   19  C10 UNL     1      -3.753  -0.884  -0.785  1.00  0.00     0.153 C 
HETATM   20  C11 UNL     1      -5.230  -0.830  -0.557  1.00  0.00     0.291 C 
HETATM   21  N4  UNL     1      -5.608  -0.754   0.829  1.00  0.00     0.087 N 
HETATM   22  C12 UNL     1      -5.168  -1.963   1.489  1.00  0.00     0.310 C 
HETATM   23  C13 UNL     1      -5.049   0.449   1.386  1.00  0.00     0.291 C 
HETATM   24  C14 UNL     1      -3.534   0.396   1.432  1.00  0.00     0.153 C 
ENDBRANCH  15  18
ENDBRANCH  10  12
ENDBRANCH   7   8
ENDBRANCH   4   7
TORSDOF 4
