REMARK  5 active torsions:
REMARK  status: ('A' for Active; 'I' for Inactive)
REMARK    1  A    between atoms: N2_5  and  C4_6 
REMARK    2  A    between atoms: C7_9  and  N3_10 
REMARK    3  A    between atoms: N3_10  and  C8_11 
REMARK    4  A    between atoms: C9_12  and  N4_13 
REMARK    5  A    between atoms: N4_13  and  C10_14 
ROOT
HETATM    1  C8  UNL     1      -2.797  -1.592  -0.241  1.00  0.00     0.045 C 
HETATM    2  C9  UNL     1      -3.992  -1.002  -0.344  1.00  0.00     0.057 C 
HETATM    3  C16 UNL     1      -5.235  -1.460   0.269  1.00  0.00     0.048 C 
HETATM    4  C17 UNL     1      -5.512  -2.711   0.655  1.00  0.00     0.093 C 
HETATM    5  N5  UNL     1      -4.720  -3.891   0.582  1.00  0.00    -0.337 N 
HETATM    6  C18 UNL     1      -3.321  -3.945   0.311  1.00  0.00     0.227 C 
HETATM    7  O1  UNL     1      -2.912  -5.081  -0.104  1.00  0.00    -0.273 OA
HETATM    8  C19 UNL     1      -2.334  -2.820   0.470  1.00  0.00     0.162 C 
HETATM    9  H18 UNL     1      -5.223  -4.795   0.744  1.00  0.00     0.168 HD
ENDROOT
BRANCH   1  10
HETATM   10  N3  UNL     1      -1.780  -0.896  -0.960  1.00  0.00    -0.357 N 
HETATM   11  H10 UNL     1      -1.802  -0.366  -1.859  1.00  0.00     0.166 HD
BRANCH  10  12
HETATM   12  C7  UNL     1      -0.407  -0.668  -0.735  1.00  0.00     0.032 A 
HETATM   13  C6  UNL     1       0.556  -1.557  -1.219  1.00  0.00     0.031 A 
HETATM   14  C5  UNL     1       1.919  -1.373  -1.021  1.00  0.00     0.031 A 
HETATM   15  C4  UNL     1       2.358  -0.278  -0.324  1.00  0.00     0.030 A 
HETATM   16  C21 UNL     1       1.452   0.621   0.170  1.00  0.00     0.031 A 
HETATM   17  C20 UNL     1       0.088   0.410  -0.045  1.00  0.00     0.031 A 
BRANCH  15  18
HETATM   18  N2  UNL     1       3.743  -0.065  -0.107  1.00  0.00    -0.378 N 
HETATM   19  C3  UNL     1       4.784  -0.929  -0.571  1.00  0.00     0.153 C 
HETATM   20  C2  UNL     1       5.930  -0.022  -1.040  1.00  0.00     0.291 C 
HETATM   21  N1  UNL     1       6.548   0.468   0.163  1.00  0.00     0.087 N 
HETATM   22  C1  UNL     1       7.667   1.328  -0.054  1.00  0.00     0.310 C 
HETATM   23  C23 UNL     1       5.609   0.914   1.153  1.00  0.00     0.291 C 
HETATM   24  C22 UNL     1       4.213   1.090   0.629  1.00  0.00     0.153 C 
ENDBRANCH  15  18
ENDBRANCH  10  12
ENDBRANCH   1  10
BRANCH   2  25
HETATM   25  N4  UNL     1      -4.016   0.174  -1.129  1.00  0.00    -0.353 N 
HETATM   26  H11 UNL     1      -3.813  -0.073  -2.122  1.00  0.00     0.166 HD
BRANCH  25  27
HETATM   27  C10 UNL     1      -4.267   1.476  -0.677  1.00  0.00     0.054 A 
HETATM   28  C11 UNL     1      -4.524   1.728   0.632  1.00  0.00     0.031 A 
HETATM   29  C12 UNL     1      -4.768   3.049   1.027  1.00  0.00     0.002 A 
HETATM   30  C13 UNL     1      -4.751   4.097   0.107  1.00  0.00     0.002 A 
HETATM   31  C14 UNL     1      -4.482   3.782  -1.229  1.00  0.00     0.026 A 
HETATM   32  C15 UNL     1      -4.244   2.490  -1.607  1.00  0.00     0.060 A 
HETATM   33 CL1  UNL     1      -3.905   2.124  -3.307  1.00  0.00    -0.082 Cl
ENDBRANCH  25  27
ENDBRANCH   2  25
TORSDOF 5
