REMARK  2 active torsions:
REMARK  status: ('A' for Active; 'I' for Inactive)
REMARK    1  A    between atoms: C5_6  and  N1_7 
REMARK    2  A    between atoms: N1_7  and  C6_8 
ROOT
HETATM    1  C6  UNL     1       0.674  -0.099  -0.507  1.00  0.00     0.160 A 
HETATM    2  N2  UNL     1       1.318  -0.741  -1.479  1.00  0.00    -0.222 NA
HETATM    3  C7  UNL     1       0.710  -1.501  -2.401  1.00  0.00     0.238 A 
HETATM    4  N3  UNL     1      -0.620  -1.681  -2.422  1.00  0.00    -0.216 NA
HETATM    5  C8  UNL     1      -1.324  -1.057  -1.464  1.00  0.00     0.197 A 
HETATM    6  C9  UNL     1      -0.667  -0.269  -0.511  1.00  0.00     0.128 A 
HETATM    7  N4  UNL     1      -1.355   0.408   0.553  1.00  0.00    -0.382 N 
HETATM    8  C10 UNL     1      -2.748   0.873   0.515  1.00  0.00     0.137 C 
HETATM    9  C11 UNL     1      -3.738  -0.224   0.377  1.00  0.00     0.032 A 
HETATM   10  C12 UNL     1      -5.068   0.194  -0.059  1.00  0.00    -0.013 A 
HETATM   11  C13 UNL     1      -5.033  -0.715  -1.031  1.00  0.00     0.009 A 
HETATM   12  C14 UNL     1      -3.680  -1.204  -0.647  1.00  0.00     0.101 A 
HETATM   13  C15 UNL     1      -3.501  -1.596   0.815  1.00  0.00     0.062 A 
HETATM   14  O1  UNL     1      -2.696  -1.314  -1.581  1.00  0.00    -0.316 OA
HETATM   15  H6  UNL     1      -0.758   0.543   1.403  1.00  0.00     0.160 HD
ENDROOT
BRANCH   1  16
HETATM   16  N1  UNL     1       1.321   0.708   0.459  1.00  0.00    -0.339 N 
HETATM   17  H4  UNL     1       0.919   1.327   1.187  1.00  0.00     0.167 HD
BRANCH  16  18
HETATM   18  C5  UNL     1       2.735   0.829   0.599  1.00  0.00     0.035 A 
HETATM   19  C4  UNL     1       3.414   1.874   1.200  1.00  0.00     0.029 A 
HETATM   20  C3  UNL     1       4.762   2.001   1.356  1.00  0.00     0.004 A 
HETATM   21  C2  UNL     1       5.556   0.988   0.869  1.00  0.00     0.019 A 
HETATM   22  C1  UNL     1       4.979  -0.099   0.253  1.00  0.00     0.013 A 
HETATM   23 BR1  UNL     1       6.142  -1.467  -0.398  1.00  0.00    -0.051 Br
HETATM   24  C16 UNL     1       3.624  -0.147   0.139  1.00  0.00     0.048 A 
ENDBRANCH  16  18
ENDBRANCH   1  16
TORSDOF 2
