REMARK  6 active torsions:
REMARK  status: ('A' for Active; 'I' for Inactive)
REMARK    1  A    between atoms: C4_4  and  C5_5 
REMARK    2  A    between atoms: C5_5  and  N1_6 
REMARK    3  A    between atoms: N1_6  and  N2_7 
REMARK    4  A    between atoms: C9_11  and  C10_12 
REMARK       I    between atoms: C10_12  and  N3_14 
REMARK    5  A    between atoms: N3_14  and  C11_15 
REMARK    6  A    between atoms: C14_18  and  N4_19 
ROOT
HETATM    1  N2  UNL     1       3.900  -0.205   1.067  1.00  0.00    -0.274 N 
HETATM    2  C6  UNL     1       3.399  -0.788   2.296  1.00  0.00     0.181 A 
HETATM    3  C7  UNL     1       1.905  -0.767   2.142  1.00  0.00    -0.043 A 
HETATM    4  C8  UNL     1       1.013  -1.288   3.207  1.00  0.00     0.046 C 
HETATM    5  C9  UNL     1       1.566  -0.248   0.993  1.00  0.00     0.105 A 
HETATM    6  C22 UNL     1       2.770   0.125   0.272  1.00  0.00     0.274 A 
HETATM    7  O2  UNL     1       2.948   0.646  -0.844  1.00  0.00    -0.266 OA
ENDROOT
BRANCH   5   8
HETATM    8  C10 UNL     1       0.212  -0.058   0.486  1.00  0.00     0.262 C 
HETATM    9  O1  UNL     1      -0.809  -0.396   1.143  1.00  0.00    -0.267 OA
HETATM   10  N3  UNL     1      -0.066   0.513  -0.774  1.00  0.00    -0.323 N 
HETATM   11  H14 UNL     1       0.688   0.825  -1.396  1.00  0.00     0.169 HD
BRANCH  10  12
HETATM   12  C11 UNL     1      -1.480   0.574  -1.006  1.00  0.00     0.035 A 
HETATM   13  C12 UNL     1      -2.212   1.658  -0.634  1.00  0.00     0.032 A 
HETATM   14  C13 UNL     1      -3.553   1.745  -0.841  1.00  0.00     0.031 A 
HETATM   15  C14 UNL     1      -4.260   0.738  -1.441  1.00  0.00     0.030 A 
HETATM   16  C20 UNL     1      -3.532  -0.366  -1.823  1.00  0.00     0.031 A 
HETATM   17  C21 UNL     1      -2.169  -0.472  -1.622  1.00  0.00     0.032 A 
BRANCH  15  18
HETATM   18  N4  UNL     1      -5.659   0.751  -1.693  1.00  0.00    -0.378 N 
HETATM   19  C15 UNL     1      -6.483  -0.264  -2.314  1.00  0.00     0.153 C 
HETATM   20  C16 UNL     1      -7.446  -0.774  -1.263  1.00  0.00     0.291 C 
HETATM   21  N5  UNL     1      -8.294   0.231  -0.704  1.00  0.00     0.087 N 
HETATM   22  C17 UNL     1      -8.812  -0.323   0.557  1.00  0.00     0.310 C 
HETATM   23  C18 UNL     1      -7.623   1.446  -0.363  1.00  0.00     0.291 C 
HETATM   24  C19 UNL     1      -6.552   1.835  -1.356  1.00  0.00     0.153 C 
ENDBRANCH  15  18
ENDBRANCH  10  12
ENDBRANCH   5   8
BRANCH   1  25
HETATM   25  N1  UNL     1       5.269  -0.061   0.854  1.00  0.00    -0.234 NA
HETATM   26  H8  UNL     1       5.783   0.107   1.742  1.00  0.00     0.146 HD
BRANCH  25  27
HETATM   27  C5  UNL     1       5.757  -1.247   0.215  1.00  0.00     0.124 C 
BRANCH  27  28
HETATM   28  C4  UNL     1       7.243  -1.195  -0.062  1.00  0.00     0.068 A 
HETATM   29  C3  UNL     1       7.597  -0.070  -0.945  1.00  0.00    -0.009 A 
HETATM   30  C2  UNL     1       8.364   0.726  -0.227  1.00  0.00    -0.064 A 
HETATM   31  C1  UNL     1       8.974   2.001  -0.686  1.00  0.00     0.048 C 
HETATM   32  C24 UNL     1       8.575   0.220   1.128  1.00  0.00     0.026 A 
HETATM   33  C23 UNL     1       7.917  -0.915   1.237  1.00  0.00     0.021 A 
HETATM   34 CL1  UNL     1       7.730  -2.052   2.573  1.00  0.00    -0.088 Cl
ENDBRANCH  27  28
ENDBRANCH  25  27
ENDBRANCH   1  25
TORSDOF 6
