REMARK  4 active torsions:
REMARK  status: ('A' for Active; 'I' for Inactive)
REMARK    1  A    between atoms: C7_9  and  N3_10 
REMARK       I    between atoms: N3_10  and  C8_11 
REMARK    2  A    between atoms: C8_11  and  C9_13 
REMARK    3  A    between atoms: C9_13  and  C10_14 
REMARK    4  A    between atoms: C10_14  and  C11_15 
ROOT
HETATM    1  C1  UNL     1      -5.097   1.367  -0.803  1.00  0.00     0.310 C 
HETATM    2  N1  UNL     1      -4.331   0.180  -1.113  1.00  0.00     0.089 N 
HETATM    3  C2  UNL     1      -4.546  -0.897  -0.226  1.00  0.00     0.291 C 
HETATM    4  C3  UNL     1      -3.352  -1.609   0.296  1.00  0.00     0.154 C 
HETATM    5  N2  UNL     1      -2.290  -0.672   0.600  1.00  0.00    -0.364 N 
HETATM    6  C4  UNL     1      -1.736  -1.120   1.821  1.00  0.00     0.088 C 
HETATM    7  C5  UNL     1      -0.561  -1.059   2.460  1.00  0.00     0.019 C 
HETATM    8  C6  UNL     1       0.713  -0.424   2.056  1.00  0.00     0.032 C 
HETATM    9  C7  UNL     1       1.154   0.065   0.883  1.00  0.00     0.052 C 
HETATM   10  C12 UNL     1       0.530   0.153  -0.455  1.00  0.00     0.142 C 
HETATM   11  N4  UNL     1      -0.693   0.285  -0.837  1.00  0.00    -0.272 NA
HETATM   12  C13 UNL     1      -2.027   0.413  -0.289  1.00  0.00     0.235 C 
HETATM   13  C14 UNL     1      -2.969   0.460  -1.451  1.00  0.00     0.320 C 
ENDROOT
BRANCH   9  14
HETATM   14  N3  UNL     1       2.465   0.613   0.874  1.00  0.00    -0.326 N 
HETATM   15  C8  UNL     1       3.509   0.134   0.068  1.00  0.00     0.222 C 
HETATM   16  O1  UNL     1       3.366  -0.831  -0.721  1.00  0.00    -0.273 OA
HETATM   17  H11 UNL     1       2.649   1.435   1.523  1.00  0.00     0.169 HD
BRANCH  15  18
HETATM   18  C9  UNL     1       4.865   0.735   0.088  1.00  0.00     0.110 C 
BRANCH  18  19
HETATM   19  C10 UNL     1       5.737  -0.030  -0.905  1.00  0.00     0.078 C 
BRANCH  19  20
HETATM   20  C11 UNL     1       7.111   0.529  -0.927  1.00  0.00     0.231 C 
HETATM   21  O2  UNL     1       7.125   1.462  -0.119  1.00  0.00    -0.307 OA
ENDBRANCH  19  20
ENDBRANCH  18  19
ENDBRANCH  15  18
ENDBRANCH   9  14
TORSDOF 4
