REMARK  4 active torsions:
REMARK  status: ('A' for Active; 'I' for Inactive)
REMARK    1  A    between atoms: C8_9  and  C9_10 
REMARK    2  A    between atoms: C13_15  and  C14_16 
REMARK    3  A    between atoms: C14_16  and  C15_17 
REMARK    4  A    between atoms: C15_17  and  C16_18 
ROOT
HETATM    1  C1  UNL     1      -2.733  -2.939   0.870  1.00  0.00     0.143 C 
HETATM    2  N1  UNL     1      -2.395  -1.473   1.027  1.00  0.00    -0.411 N 
HETATM    3  C2  UNL     1      -3.506  -0.694   0.870  1.00  0.00     0.117 C 
HETATM    4  C3  UNL     1      -4.140  -0.374  -0.412  1.00  0.00     0.028 C 
HETATM    5  C4  UNL     1      -3.557   0.442  -1.478  1.00  0.00     0.039 C 
HETATM    6  C5  UNL     1      -3.284   1.893  -1.269  1.00  0.00     0.019 C 
HETATM    7  C6  UNL     1      -2.167   2.169  -0.345  1.00  0.00    -0.023 A 
HETATM    8  C7  UNL     1      -1.144   2.247  -1.252  1.00  0.00     0.007 A 
HETATM    9  C8  UNL     1      -0.471   2.096  -0.090  1.00  0.00     0.029 A 
HETATM   10  C9  UNL     1      -1.000   1.974   1.124  1.00  0.00     0.044 A 
HETATM   11  C10 UNL     1      -1.780   1.877   2.201  1.00  0.00     0.029 A 
HETATM   12  C11 UNL     1      -2.452   2.035   0.973  1.00  0.00     0.031 A 
HETATM   13  N2  UNL     1      -0.080   1.153   1.962  1.00  0.00    -0.381 N 
HETATM   14  C12 UNL     1      -0.274  -0.100   1.203  1.00  0.00     0.029 C 
HETATM   15  C13 UNL     1       0.753  -0.430   0.345  1.00  0.00    -0.033 C 
HETATM   16  C22 UNL     1       0.622  -1.086  -0.972  1.00  0.00     0.020 C 
HETATM   17  C23 UNL     1       0.001  -1.618  -2.055  1.00  0.00     0.060 C 
HETATM   18  N3  UNL     1      -1.175  -1.222  -1.389  1.00  0.00    -0.265 NA
HETATM   19  C24 UNL     1      -2.219  -0.256  -1.942  1.00  0.00     0.161 A 
HETATM   20  O1  UNL     1      -1.900   0.102  -3.167  1.00  0.00    -0.213 OA
HETATM   21  C25 UNL     1      -1.123  -1.284   1.342  1.00  0.00     0.173 C 
HETATM   22  H15 UNL     1       0.591   0.771   2.660  1.00  0.00     0.160 HD
HETATM   23  H26 UNL     1      -2.029  -0.809  -1.165  1.00  0.00     0.190 HD
ENDROOT
BRANCH  15  24
HETATM   24  C14 UNL     1       2.100   0.082  -0.054  1.00  0.00     0.045 C 
BRANCH  24  25
HETATM   25  C15 UNL     1       3.186  -0.961   0.070  1.00  0.00     0.043 C 
BRANCH  25  26
HETATM   26  C16 UNL     1       4.447  -0.280  -0.367  1.00  0.00    -0.058 A 
HETATM   27  C17 UNL     1       5.332   0.418   0.429  1.00  0.00     0.009 A 
HETATM   28  C18 UNL     1       6.444   0.980  -0.168  1.00  0.00     0.024 A 
HETATM   29  C19 UNL     1       6.687   0.861  -1.522  1.00  0.00     0.034 A 
HETATM   30 CL1  UNL     1       8.116   1.595  -2.221  1.00  0.00    -0.084 Cl
HETATM   31  C20 UNL     1       5.816   0.165  -2.347  1.00  0.00     0.024 A 
HETATM   32  C21 UNL     1       4.709  -0.390  -1.738  1.00  0.00     0.009 A 
ENDBRANCH  25  26
ENDBRANCH  24  25
ENDBRANCH  15  24
TORSDOF 4
