REMARK  1 active torsions:
REMARK  status: ('A' for Active; 'I' for Inactive)
REMARK    1  A    between atoms: N1_1  and  C1_2 
ROOT
HETATM    1  C1  UNL     1      -3.051  -1.427  -0.899  1.00  0.00     0.133 C 
HETATM    2  N2  UNL     1      -2.434  -2.357  -1.574  1.00  0.00    -0.224 NA
HETATM    3  C2  UNL     1      -1.136  -2.400  -2.200  1.00  0.00     0.238 C 
HETATM    4  N3  UNL     1       0.039  -1.842  -2.032  1.00  0.00    -0.215 NA
HETATM    5  C3  UNL     1       0.483  -0.881  -1.043  1.00  0.00     0.199 C 
HETATM    6  C4  UNL     1      -0.050   0.091  -0.303  1.00  0.00     0.093 C 
HETATM    7  N4  UNL     1       0.432   1.046   0.691  1.00  0.00    -0.381 N 
HETATM    8  C5  UNL     1       1.829   1.532   0.611  1.00  0.00     0.161 C 
HETATM    9  C6  UNL     1       2.774   0.416   0.560  1.00  0.00    -0.007 A 
HETATM   10  C7  UNL     1       3.878   0.631   1.388  1.00  0.00     0.011 A 
HETATM   11  C8  UNL     1       4.939  -0.227   1.561  1.00  0.00     0.001 A 
HETATM   12  C9  UNL     1       4.922  -1.412   0.858  1.00  0.00     0.003 A 
HETATM   13  C10 UNL     1       3.878  -1.701   0.026  1.00  0.00     0.038 A 
HETATM   14  C11 UNL     1       2.821  -0.806  -0.124  1.00  0.00     0.086 A 
HETATM   15  O1  UNL     1       1.830  -1.229  -1.001  1.00  0.00    -0.289 OA
HETATM   16  C12 UNL     1      -1.475   0.515  -0.278  1.00  0.00     0.009 A 
HETATM   17  C13 UNL     1      -1.299   1.864   0.099  1.00  0.00     0.016 A 
HETATM   18  C14 UNL     1      -2.495   2.592   0.249  1.00  0.00     0.020 A 
HETATM   19  C15 UNL     1      -3.726   1.986   0.030  1.00  0.00     0.011 A 
HETATM   20 BR1  UNL     1      -5.365   2.960   0.230  1.00  0.00    -0.051 Br
HETATM   21  C16 UNL     1      -3.851   0.668  -0.339  1.00  0.00     0.035 A 
HETATM   22  C17 UNL     1      -2.717  -0.066  -0.493  1.00  0.00     0.023 A 
HETATM   23  H4  UNL     1      -0.436   1.176   1.333  1.00  0.00     0.160 HD
ENDROOT
BRANCH   1  24
HETATM   24  N1  UNL     1      -4.367  -1.726  -0.407  1.00  0.00    -0.383 N 
HETATM   25  H1  UNL     1      -4.524  -1.639   0.635  1.00  0.00     0.157 HD
HETATM   26  H2  UNL     1      -5.288  -2.026  -0.795  1.00  0.00     0.157 HD
ENDBRANCH   1  24
TORSDOF 1
