REMARK  5 active torsions:
REMARK  status: ('A' for Active; 'I' for Inactive)
REMARK    1  A    between atoms: C2_2  and  O1_3 
REMARK    2  A    between atoms: O1_3  and  C3_4 
REMARK    3  A    between atoms: C8_9  and  C9_10 
REMARK    4  A    between atoms: C12_15  and  C13_16 
REMARK       I    between atoms: C13_16  and  N2_18 
REMARK    5  A    between atoms: N2_18  and  C14_19 
ROOT
HETATM    1  C14 UNL     1       3.634   0.920  -1.192  1.00  0.00     0.247 C 
HETATM    2  C15 UNL     1       4.833   0.144  -1.469  1.00  0.00     0.078 C 
HETATM    3  N3  UNL     1       5.777  -0.484  -1.691  1.00  0.00    -0.196 NA
ENDROOT
BRANCH   1   4
HETATM    4  N2  UNL     1       2.845   0.283  -0.127  1.00  0.00    -0.348 N 
HETATM    5  C13 UNL     1       2.415  -1.047  -0.452  1.00  0.00     0.236 C 
HETATM    6  O3  UNL     1       2.880  -1.265  -1.623  1.00  0.00    -0.272 OA
HETATM    7  H13 UNL     1       2.629   0.785   0.787  1.00  0.00     0.163 HD
BRANCH   5   8
HETATM    8  C12 UNL     1       1.609  -1.659   0.672  1.00  0.00     0.205 A 
HETATM    9  C9  UNL     1       0.447  -0.754   0.873  1.00  0.00    -0.007 A 
HETATM   10  C10 UNL     1       0.531  -0.179   2.033  1.00  0.00     0.100 A 
HETATM   11  N1  UNL     1       1.671  -0.573   2.785  1.00  0.00    -0.336 N 
HETATM   12  C11 UNL     1       2.349  -1.508   1.953  1.00  0.00     0.239 A 
HETATM   13  H11 UNL     1       2.039  -0.316   3.727  1.00  0.00     0.168 HD
HETATM   14  O2  UNL     1       3.411  -2.176   2.142  1.00  0.00    -0.272 OA
BRANCH   9  15
HETATM   15  C8  UNL     1      -0.598  -0.564  -0.125  1.00  0.00     0.006 A 
HETATM   16  C3  UNL     1      -1.684   0.283  -0.026  1.00  0.00     0.079 A 
HETATM   17  C4  UNL     1      -2.625   0.389  -1.024  1.00  0.00     0.037 A 
HETATM   18  C5  UNL     1      -2.539  -0.347  -2.184  1.00  0.00     0.003 A 
HETATM   19  C6  UNL     1      -1.492  -1.195  -2.333  1.00  0.00     0.001 A 
HETATM   20  C7  UNL     1      -0.563  -1.286  -1.325  1.00  0.00     0.015 A 
BRANCH  16  21
HETATM   21  O1  UNL     1      -1.810   1.030   1.102  1.00  0.00    -0.351 OA
BRANCH  21  22
HETATM   22  C2  UNL     1      -2.828   1.935   1.396  1.00  0.00     0.171 C 
HETATM   23  C1  UNL     1      -4.191   1.280   1.439  1.00  0.00     0.034 C 
ENDBRANCH  21  22
ENDBRANCH  16  21
ENDBRANCH   9  15
ENDBRANCH   5   8
ENDBRANCH   1   4
TORSDOF 5
