REMARK  4 active torsions:
REMARK  status: ('A' for Active; 'I' for Inactive)
REMARK    1  A    between atoms: O1_2  and  C2_3 
REMARK    2  A    between atoms: C7_8  and  O2_9 
REMARK    3  A    between atoms: O2_9  and  C8_10 
REMARK    4  A    between atoms: C10_12  and  N1_13 
ROOT
HETATM    1  C8  UNL     1       1.973  -0.061   0.070  1.00  0.00     0.146 C 
HETATM    2  C9  UNL     1       1.295   0.651   0.928  1.00  0.00     0.070 C 
HETATM    3  C10 UNL     1      -0.078   0.664   1.485  1.00  0.00     0.285 C 
HETATM    4  C11 UNL     1      -0.970   1.247   0.446  1.00  0.00     0.124 C 
HETATM    5  N2  UNL     1      -2.190   0.862   0.464  1.00  0.00    -0.284 NA
HETATM    6  C12 UNL     1      -3.070   1.408  -0.527  1.00  0.00     0.274 C 
HETATM    7  N3  UNL     1      -4.444   0.967  -0.318  1.00  0.00    -0.341 N 
HETATM    8  C13 UNL     1      -4.759  -0.404  -0.092  1.00  0.00     0.049 C 
HETATM    9  C14 UNL     1      -6.042  -0.536  -0.482  1.00  0.00     0.114 C 
HETATM   10  N4  UNL     1      -6.549   0.733  -0.955  1.00  0.00    -0.376 N 
HETATM   11  C15 UNL     1      -5.685   1.722  -0.289  1.00  0.00     0.181 C 
HETATM   12  C16 UNL     1      -6.194   1.908   1.123  1.00  0.00     0.056 C 
HETATM   13  C17 UNL     1      -4.032  -1.530   0.415  1.00  0.00     0.048 C 
HETATM   14  C18 UNL     1      -3.067  -2.265  -0.085  1.00  0.00     0.093 C 
HETATM   15  N5  UNL     1      -2.455  -2.122  -1.348  1.00  0.00    -0.334 N 
HETATM   16  C19 UNL     1      -1.189  -1.843  -1.884  1.00  0.00     0.246 C 
HETATM   17  O3  UNL     1      -0.971  -1.803  -0.649  1.00  0.00    -0.268 OA
HETATM   18  C20 UNL     1       0.105  -1.558  -2.452  1.00  0.00     0.091 C 
HETATM   19  C21 UNL     1       1.344  -1.283  -2.119  1.00  0.00     0.096 C 
HETATM   20  N6  UNL     1       1.778  -1.183  -0.780  1.00  0.00    -0.347 N 
HETATM   21  H16 UNL     1      -7.360   0.868  -1.627  1.00  0.00     0.161 HD
HETATM   22  H23 UNL     1      -3.235  -2.294  -2.000  1.00  0.00     0.168 HD
HETATM   23  H26 UNL     1       1.886  -2.215  -0.701  1.00  0.00     0.167 HD
ENDROOT
BRANCH   1  24
HETATM   24  O2  UNL     1       3.249  -0.037  -0.418  1.00  0.00    -0.291 OA
BRANCH  24  25
HETATM   25  C7  UNL     1       4.350  -0.164   0.408  1.00  0.00     0.111 A 
HETATM   26  C2  UNL     1       5.601  -0.129  -0.162  1.00  0.00     0.102 A 
HETATM   27  C3  UNL     1       6.784  -0.246   0.565  1.00  0.00     0.039 A 
HETATM   28  C4  UNL     1       6.710  -0.406   1.927  1.00  0.00     0.003 A 
HETATM   29  C5  UNL     1       5.465  -0.445   2.538  1.00  0.00     0.003 A 
HETATM   30  C6  UNL     1       4.328  -0.327   1.797  1.00  0.00     0.040 A 
BRANCH  26  31
HETATM   31  O1  UNL     1       5.702   0.031  -1.538  1.00  0.00    -0.353 OA
HETATM   32  C1  UNL     1       6.933   0.078  -2.219  1.00  0.00     0.210 C 
ENDBRANCH  26  31
ENDBRANCH  24  25
ENDBRANCH   1  24
BRANCH   3  33
HETATM   33  N1  UNL     1      -0.093   1.581   2.604  1.00  0.00     0.091 N 
HETATM   34  H10 UNL     1       0.235   2.513   2.207  1.00  0.00     0.314 HD
HETATM   35  H11 UNL     1       0.612   1.283   3.310  1.00  0.00     0.314 HD
ENDBRANCH   3  33
TORSDOF 4
