REMARK  4 active torsions:
REMARK  status: ('A' for Active; 'I' for Inactive)
REMARK    1  A    between atoms: C7_8  and  N1_9 
REMARK    2  A    between atoms: N1_9  and  C8_10 
REMARK    3  A    between atoms: C11_14  and  N3_15 
REMARK    4  A    between atoms: N4_18  and  C14_19 
ROOT
HETATM    1  C1  UNL     1       2.725   2.438  -1.313  1.00  0.00     0.210 C 
HETATM    2  O1  UNL     1       2.987   1.184  -1.195  1.00  0.00    -0.354 OA
HETATM    3  C2  UNL     1       3.250  -0.055  -1.081  1.00  0.00     0.094 A 
HETATM    4  C3  UNL     1       4.377  -0.023  -1.793  1.00  0.00     0.039 A 
HETATM    5  C4  UNL     1       4.859  -1.445  -1.792  1.00  0.00     0.003 A 
HETATM    6  C5  UNL     1       4.199  -2.550  -1.141  1.00  0.00     0.002 A 
HETATM    7  C6  UNL     1       2.994  -2.289  -0.440  1.00  0.00     0.032 A 
HETATM    8  C7  UNL     1       2.514  -0.998  -0.416  1.00  0.00     0.062 A 
ENDROOT
BRANCH   8   9
HETATM    9  N1  UNL     1       1.363  -0.473   0.209  1.00  0.00    -0.376 N 
HETATM   10  H8  UNL     1       1.089   0.527   0.216  1.00  0.00     0.160 HD
BRANCH   9  11
HETATM   11  C8  UNL     1       0.466  -1.298   0.925  1.00  0.00     0.148 C 
HETATM   12  C9  UNL     1      -0.081  -2.464   0.195  1.00  0.00     0.019 C 
HETATM   13  C10 UNL     1      -1.239  -2.774   0.810  1.00  0.00     0.083 C 
HETATM   14  N2  UNL     1      -1.466  -1.854   1.910  1.00  0.00    -0.377 N 
HETATM   15  C11 UNL     1      -0.813  -0.635   1.354  1.00  0.00     0.205 C 
HETATM   16  H12 UNL     1      -1.960  -2.051   2.812  1.00  0.00     0.161 HD
BRANCH  15  17
HETATM   17  N3  UNL     1      -1.688  -0.196   0.338  1.00  0.00    -0.387 N 
HETATM   18  C12 UNL     1      -1.297   0.807  -0.563  1.00  0.00     0.139 C 
HETATM   19  C13 UNL     1      -2.573   1.355  -1.245  1.00  0.00     0.144 C 
HETATM   20  N4  UNL     1      -3.268   2.032  -0.152  1.00  0.00    -0.356 N 
HETATM   21  C15 UNL     1      -3.561   1.264   1.040  1.00  0.00     0.144 C 
HETATM   22  C16 UNL     1      -3.037  -0.134   0.828  1.00  0.00     0.139 C 
BRANCH  20  23
HETATM   23  C14 UNL     1      -3.786   3.326   0.127  1.00  0.00     0.350 C 
HETATM   24  O2  UNL     1      -4.389   3.906   1.084  1.00  0.00    -0.284 OA
ENDBRANCH  20  23
ENDBRANCH  15  17
ENDBRANCH   9  11
ENDBRANCH   8   9
TORSDOF 4
