REMARK  7 active torsions:
REMARK  status: ('A' for Active; 'I' for Inactive)
REMARK    1  A    between atoms: O1_2  and  C2_3 
REMARK    2  A    between atoms: C8_10  and  C9_11 
REMARK       I    between atoms: C9_11  and  N2_13 
REMARK    3  A    between atoms: N2_13  and  C10_14 
REMARK    4  A    between atoms: C13_17  and  N3_18 
REMARK    5  A    between atoms: C20_27  and  C21_28 
REMARK    6  A    between atoms: C21_28  and  C22_29 
REMARK    7  A    between atoms: C22_29  and  O3_30 
ROOT
HETATM    1  C9  UNL     1      -1.133   0.004  -1.348  1.00  0.00     0.250 C 
HETATM    2  O2  UNL     1      -0.382   0.827  -0.809  1.00  0.00    -0.268 OA
HETATM    3  N2  UNL     1      -0.426  -1.215  -1.652  1.00  0.00    -0.322 N 
HETATM    4  H9  UNL     1      -0.915  -2.013  -2.114  1.00  0.00     0.169 HD
ENDROOT
BRANCH   1   5
HETATM    5  C8  UNL     1      -2.568   0.200  -1.656  1.00  0.00     0.015 C 
HETATM    6  C7  UNL     1      -3.468  -0.569  -2.214  1.00  0.00     0.109 C 
HETATM    7  N1  UNL     1      -4.164  -1.626  -2.837  1.00  0.00    -0.307 NA
HETATM    8  C6  UNL     1      -5.134  -2.200  -2.179  1.00  0.00     0.207 C 
HETATM    9  C5  UNL     1      -5.589  -1.876  -0.870  1.00  0.00     0.013 C 
HETATM   10  C4  UNL     1      -5.439  -1.083   0.091  1.00  0.00     0.003 C 
HETATM   11  C3  UNL     1      -4.982  -0.002   0.939  1.00  0.00     0.032 C 
HETATM   12  C2  UNL     1      -4.105   1.015   0.830  1.00  0.00     0.046 C 
HETATM   13  C23 UNL     1      -3.111   1.845   0.133  1.00  0.00     0.077 C 
HETATM   14  C20 UNL     1      -3.047   1.526  -1.350  1.00  0.00     0.052 C 
BRANCH  12  15
HETATM   15  O1  UNL     1      -4.101   1.731   2.037  1.00  0.00    -0.360 OA
HETATM   16  C1  UNL     1      -3.619   1.161   3.238  1.00  0.00     0.209 C 
ENDBRANCH  12  15
BRANCH  14  17
HETATM   17  C21 UNL     1      -4.310   1.838  -2.024  1.00  0.00     0.007 C 
BRANCH  17  18
HETATM   18  C22 UNL     1      -5.370   2.329  -1.417  1.00  0.00     0.128 C 
BRANCH  18  19
HETATM   19  O3  UNL     1      -6.322   2.833  -0.552  1.00  0.00    -0.373 OA
HETATM   20  H27 UNL     1      -6.032   3.169   0.362  1.00  0.00     0.216 HD
ENDBRANCH  18  19
ENDBRANCH  17  18
ENDBRANCH  14  17
ENDBRANCH   1   5
BRANCH   3  21
HETATM   21  C10 UNL     1       0.957  -1.194  -1.264  1.00  0.00     0.052 A 
HETATM   22  C11 UNL     1       1.126  -1.669   0.040  1.00  0.00     0.035 A 
HETATM   23  C12 UNL     1       2.438  -1.691   0.514  1.00  0.00     0.052 A 
HETATM   24  C13 UNL     1       3.481  -1.265  -0.275  1.00  0.00     0.125 A 
HETATM   25  N5  UNL     1       3.261  -0.812  -1.535  1.00  0.00    -0.241 NA
HETATM   26  C19 UNL     1       2.016  -0.774  -2.031  1.00  0.00     0.148 A 
BRANCH  24  27
HETATM   27  N3  UNL     1       4.854  -1.253   0.122  1.00  0.00    -0.362 N 
HETATM   28  C14 UNL     1       5.942  -0.760  -0.713  1.00  0.00     0.154 C 
HETATM   29  C15 UNL     1       6.763   0.216   0.100  1.00  0.00     0.291 C 
HETATM   30  N4  UNL     1       6.017   0.570   1.267  1.00  0.00     0.087 N 
HETATM   31  C16 UNL     1       6.389   1.821   1.870  1.00  0.00     0.310 C 
HETATM   32  C17 UNL     1       5.937  -0.532   2.199  1.00  0.00     0.291 C 
HETATM   33  C18 UNL     1       5.399  -1.709   1.386  1.00  0.00     0.154 C 
ENDBRANCH  24  27
ENDBRANCH   3  21
TORSDOF 7
