REMARK  1 active torsions:
REMARK  status: ('A' for Active; 'I' for Inactive)
REMARK    1  A    between atoms: C11_15  and  N3_16 
ROOT
HETATM    1  C1  UNL     1      -7.285  -0.478   0.672  1.00  0.00     0.254 C 
HETATM    2  N1  UNL     1      -5.847  -0.116   0.368  1.00  0.00    -0.098 N 
HETATM    3  C2  UNL     1      -4.927   0.413  -0.563  1.00  0.00     0.629 C 
HETATM    4  C3  UNL     1      -4.925   1.092  -1.756  1.00  0.00     0.047 C 
HETATM    5 CL1  UNL     1      -6.661   1.396  -2.283  1.00  0.00    -0.087 Cl
HETATM    6  C4  UNL     1      -4.364   1.711  -2.841  1.00  0.00     0.022 C 
HETATM    7  C5  UNL     1      -3.074   1.943  -3.213  1.00  0.00     0.003 C 
HETATM    8  C6  UNL     1      -1.617   1.891  -3.063  1.00  0.00     0.017 C 
HETATM    9  C7  UNL     1      -0.670   1.458  -2.246  1.00  0.00     0.091 C 
HETATM   10  N2  UNL     1      -0.139   0.817  -1.075  1.00  0.00    -0.335 N 
HETATM   11  C8  UNL     1       0.604   1.061   0.077  1.00  0.00     0.256 C 
HETATM   12  O1  UNL     1       0.561   2.190  -0.401  1.00  0.00    -0.270 OA
HETATM   13  C9  UNL     1       0.838  -0.165   0.896  1.00  0.00     0.160 A 
HETATM   14  C10 UNL     1       0.763  -1.426   0.081  1.00  0.00     0.056 C 
HETATM   15  C11 UNL     1       2.202   0.038   1.439  1.00  0.00     0.045 A 
HETATM   16  C17 UNL     1       2.688   0.199   2.651  1.00  0.00     0.029 A 
HETATM   17  C18 UNL     1       1.763   0.172   3.787  1.00  0.00     0.019 A 
HETATM   18  C19 UNL     1       0.495  -0.022   3.401  1.00  0.00     0.097 A 
HETATM   19  N5  UNL     1      -0.031  -0.209   2.054  1.00  0.00    -0.293 N 
HETATM   20  C20 UNL     1      -1.372  -0.470   1.914  1.00  0.00     0.304 C 
HETATM   21  O2  UNL     1      -1.620   0.795   2.015  1.00  0.00    -0.258 OA
HETATM   22  C21 UNL     1      -2.716  -0.457   1.804  1.00  0.00    -0.003 C 
HETATM   23  C22 UNL     1      -3.817  -0.463   1.724  1.00  0.00    -0.070 C 
HETATM   24  C23 UNL     1      -5.187  -0.489   1.639  1.00  0.00     0.312 C 
HETATM   25  H9  UNL     1      -0.535  -0.055  -1.385  1.00  0.00     0.168 HD
ENDROOT
BRANCH  15  26
HETATM   26  N3  UNL     1       3.312   0.047   0.505  1.00  0.00    -0.378 N 
HETATM   27  C12 UNL     1       3.895   0.980  -0.466  1.00  0.00     0.153 C 
HETATM   28  C13 UNL     1       4.423   0.120  -1.615  1.00  0.00     0.291 C 
HETATM   29  N4  UNL     1       5.622  -0.575  -1.162  1.00  0.00     0.087 N 
HETATM   30  C14 UNL     1       5.846  -1.761  -1.967  1.00  0.00     0.310 C 
HETATM   31  C15 UNL     1       5.503  -0.963   0.214  1.00  0.00     0.291 C 
HETATM   32  C16 UNL     1       4.041  -1.234   0.543  1.00  0.00     0.153 C 
ENDBRANCH  15  26
TORSDOF 1
