REMARK  1 active torsions:
REMARK  status: ('A' for Active; 'I' for Inactive)
REMARK    1  A    between atoms: O1_2  and  C2_3 
ROOT
HETATM    1  C2  UNL     1      -3.862   1.210   0.050  1.00  0.00     0.095 A 
HETATM    2  C3  UNL     1      -4.023   2.406  -0.615  1.00  0.00     0.039 A 
HETATM    3  C4  UNL     1      -2.984   2.999  -1.335  1.00  0.00     0.003 A 
HETATM    4  C5  UNL     1      -1.755   2.329  -1.360  1.00  0.00     0.010 A 
HETATM    5  C6  UNL     1      -1.593   1.127  -0.693  1.00  0.00    -0.020 A 
HETATM    6  C7  UNL     1      -2.647   0.586   0.001  1.00  0.00     0.072 A 
HETATM    7  N1  UNL     1      -2.072  -0.604   0.503  1.00  0.00    -0.356 N 
HETATM    8  C8  UNL     1      -2.628  -1.627   1.412  1.00  0.00     0.152 C 
HETATM    9  C9  UNL     1      -2.435  -2.984   0.774  1.00  0.00    -0.003 C 
HETATM   10  C10 UNL     1      -1.650  -3.087  -0.317  1.00  0.00     0.050 C 
HETATM   11  C11 UNL     1      -0.927  -1.981  -0.988  1.00  0.00     0.179 C 
HETATM   12  O2  UNL     1      -0.710  -2.273  -2.191  1.00  0.00    -0.290 OA
HETATM   13  C12 UNL     1      -0.714  -0.888   0.041  1.00  0.00     0.133 C 
HETATM   14  C13 UNL     1       0.171  -1.381   1.128  1.00  0.00     0.311 C 
HETATM   15  N2  UNL     1       1.563  -1.211   0.994  1.00  0.00     0.105 N 
HETATM   16  C14 UNL     1       2.261  -2.000   0.010  1.00  0.00     0.417 C 
HETATM   17  N3  UNL     1       3.530  -1.407  -0.195  1.00  0.00    -0.274 NA
HETATM   18  C15 UNL     1       4.382  -0.970   0.624  1.00  0.00     0.115 C 
HETATM   19  C16 UNL     1       5.466  -0.482  -0.234  1.00  0.00     0.316 C 
HETATM   20  N4  UNL     1       5.476   0.983  -0.439  1.00  0.00     0.089 N 
HETATM   21  C17 UNL     1       4.232   1.338  -1.128  1.00  0.00     0.289 C 
HETATM   22  C18 UNL     1       3.091   1.438  -0.137  1.00  0.00     0.144 C 
HETATM   23  N5  UNL     1       1.870   1.156  -0.792  1.00  0.00    -0.419 N 
HETATM   24  C19 UNL     1       0.715   1.168   0.046  1.00  0.00     0.126 C 
HETATM   25  C20 UNL     1      -0.342   0.347  -0.677  1.00  0.00     0.076 C 
HETATM   26  H13 UNL     1       2.047  -1.456   1.914  1.00  0.00     0.318 HD
HETATM   27  H19 UNL     1       5.525   1.502   0.440  1.00  0.00     0.316 HD
HETATM   28  H24 UNL     1       1.924   0.435  -1.508  1.00  0.00     0.153 HD
ENDROOT
BRANCH   1  29
HETATM   29  O1  UNL     1      -4.898   0.609   0.774  1.00  0.00    -0.354 OA
HETATM   30  C1  UNL     1      -6.179   1.233   0.850  1.00  0.00     0.210 C 
ENDBRANCH   1  29
TORSDOF 1
