REMARK  6 active torsions:
REMARK  status: ('A' for Active; 'I' for Inactive)
REMARK    1  A    between atoms: B1_1  and  N1_2 
REMARK    2  A    between atoms: N2_5  and  C3_6 
REMARK    3  A    between atoms: C6_9  and  N3_10 
REMARK       I    between atoms: N3_10  and  C7_11 
REMARK    4  A    between atoms: C7_11  and  C8_13 
REMARK    5  A    between atoms: C9_14  and  N4_15 
REMARK    6  A    between atoms: C14_20  and  O2_21 
ROOT
HETATM    1  N3  UNL     1      -0.691   1.491  -1.174  1.00  0.00    -0.307 N 
HETATM    2  C7  UNL     1      -1.955   0.973  -0.799  1.00  0.00     0.259 C 
HETATM    3  O1  UNL     1      -2.028  -0.126  -0.238  1.00  0.00    -0.267 OA
HETATM    4  H9  UNL     1      -0.776   2.421  -1.637  1.00  0.00     0.170 HD
ENDROOT
BRANCH   1   5
HETATM    5  C6  UNL     1       0.584   0.908  -0.994  1.00  0.00     0.130 A 
HETATM    6  C5  UNL     1       0.893  -0.286  -0.416  1.00  0.00     0.053 A 
HETATM    7  C4  UNL     1       2.159  -0.803  -0.268  1.00  0.00     0.034 A 
HETATM    8  C3  UNL     1       3.222  -0.070  -0.736  1.00  0.00     0.048 A 
HETATM    9  C18 UNL     1       2.908   1.137  -1.319  1.00  0.00     0.148 A 
HETATM   10  N5  UNL     1       1.653   1.590  -1.436  1.00  0.00    -0.241 NA
BRANCH   8  11
HETATM   11  N2  UNL     1       4.529  -0.589  -0.590  1.00  0.00    -0.378 N 
HETATM   12  C2  UNL     1       4.693  -1.878   0.045  1.00  0.00     0.136 C 
HETATM   13  C1  UNL     1       6.166  -2.181   0.238  1.00  0.00     0.093 C 
HETATM   14  N1  UNL     1       6.888  -1.087   0.862  1.00  0.00    -0.365 NA
HETATM   15  C20 UNL     1       6.671   0.164   0.195  1.00  0.00     0.093 C 
HETATM   16  C19 UNL     1       5.754   0.045  -1.019  1.00  0.00     0.136 C 
BRANCH  14  17
HETATM   17  B1  UNL     1       6.554  -0.965   2.326  1.00  0.00     0.220 B 
HETATM   18  H1  UNL     1       5.649  -0.228   2.598  1.00  0.00    -0.013 HD
HETATM   19  H2  UNL     1       7.402  -1.123   3.142  1.00  0.00    -0.013 HD
ENDBRANCH  14  17
ENDBRANCH   8  11
ENDBRANCH   1   5
BRANCH   2  20
HETATM   20  C8  UNL     1      -3.214   1.669  -1.039  1.00  0.00     0.059 A 
HETATM   21  C9  UNL     1      -4.493   1.507  -0.842  1.00  0.00     0.056 A 
HETATM   22  C16 UNL     1      -4.837   2.791  -1.460  1.00  0.00     0.032 A 
HETATM   23  C17 UNL     1      -3.544   2.967  -1.665  1.00  0.00     0.022 A 
BRANCH  21  24
HETATM   24  N4  UNL     1      -5.257   0.468  -0.249  1.00  0.00    -0.303 N 
HETATM   25  C10 UNL     1      -5.929  -0.444  -1.107  1.00  0.00     0.096 A 
HETATM   26  C11 UNL     1      -6.621  -1.385  -0.507  1.00  0.00    -0.005 A 
HETATM   27  C12 UNL     1      -6.794  -1.623   0.947  1.00  0.00     0.060 A 
HETATM   28  C13 UNL     1      -6.025  -0.580   1.673  1.00  0.00     0.033 A 
HETATM   29  C14 UNL     1      -5.300   0.406   1.170  1.00  0.00     0.144 A 
BRANCH  29  30
HETATM   30  O2  UNL     1      -4.642   1.299   2.004  1.00  0.00    -0.341 OA
HETATM   31  C15 UNL     1      -3.793   0.767   3.012  1.00  0.00     0.211 C 
ENDBRANCH  29  30
ENDBRANCH  21  24
ENDBRANCH   2  20
TORSDOF 6
