REMARK  11 active torsions:
REMARK  status: ('A' for Active; 'I' for Inactive)
REMARK    1  A    between atoms: O1_2  and  C2_3 
REMARK    2  A    between atoms: C7_8  and  N1_9 
REMARK    3  A    between atoms: N1_9  and  C8_10 
REMARK    4  A    between atoms: C8_10  and  C9_11 
REMARK    5  A    between atoms: C9_11  and  C10_12 
REMARK    6  A    between atoms: C10_12  and  N2_13 
REMARK       I    between atoms: N2_13  and  C11_14 
REMARK    7  A    between atoms: C11_14  and  C12_16 
REMARK    8  A    between atoms: C12_16  and  C13_17 
REMARK    9  A    between atoms: C13_17  and  N3_18 
REMARK   10  A    between atoms: N3_18  and  C14_19 
REMARK   11  A    between atoms: C17_22  and  N4_23 
ROOT
HETATM    1  N2  UNL     1       1.726   2.412   0.009  1.00  0.00    -0.354 N 
HETATM    2  C11 UNL     1       0.825   2.501  -1.115  1.00  0.00     0.219 C 
HETATM    3  O2  UNL     1       1.036   2.029  -2.274  1.00  0.00    -0.274 OA
HETATM    4  H13 UNL     1       1.212   2.896   0.764  1.00  0.00     0.162 HD
ENDROOT
BRANCH   2   5
HETATM    5  C12 UNL     1      -0.538   3.087  -1.412  1.00  0.00     0.122 C 
BRANCH   5   6
HETATM    6  C13 UNL     1      -0.833   2.651  -2.834  1.00  0.00     0.130 C 
BRANCH   6   7
HETATM    7  N3  UNL     1      -0.874   1.199  -2.928  1.00  0.00    -0.374 N 
HETATM    8  H18 UNL     1      -0.255   0.523  -3.469  1.00  0.00     0.161 HD
BRANCH   7   9
HETATM    9  C14 UNL     1      -1.910   0.534  -2.185  1.00  0.00     0.123 A 
HETATM   10  C15 UNL     1      -2.022  -0.834  -2.084  1.00  0.00     0.052 A 
HETATM   11  C16 UNL     1      -3.021  -1.507  -1.389  1.00  0.00     0.034 A 
HETATM   12  C17 UNL     1      -3.973  -0.706  -0.753  1.00  0.00     0.048 A 
HETATM   13  C23 UNL     1      -3.855   0.656  -0.859  1.00  0.00     0.148 A 
HETATM   14  N6  UNL     1      -2.863   1.240  -1.546  1.00  0.00    -0.241 NA
BRANCH  12  15
HETATM   15  N4  UNL     1      -5.055  -1.252   0.009  1.00  0.00    -0.376 N 
HETATM   16  C18 UNL     1      -6.273  -0.553   0.409  1.00  0.00     0.153 C 
HETATM   17  C19 UNL     1      -7.422  -1.273  -0.271  1.00  0.00     0.291 C 
HETATM   18  N5  UNL     1      -7.593  -2.559   0.346  1.00  0.00     0.087 N 
HETATM   19  C20 UNL     1      -8.042  -2.474   1.710  1.00  0.00     0.310 C 
HETATM   20  C21 UNL     1      -6.394  -3.325   0.251  1.00  0.00     0.291 C 
HETATM   21  C22 UNL     1      -5.140  -2.582   0.540  1.00  0.00     0.153 C 
ENDBRANCH  12  15
ENDBRANCH   7   9
ENDBRANCH   6   7
ENDBRANCH   5   6
ENDBRANCH   2   5
BRANCH   1  22
HETATM   22  C10 UNL     1       2.812   1.712  -0.573  1.00  0.00     0.113 C 
BRANCH  22  23
HETATM   23  C9  UNL     1       4.096   1.668  -0.842  1.00  0.00     0.036 C 
BRANCH  23  24
HETATM   24  C8  UNL     1       5.555   2.054  -0.912  1.00  0.00     0.127 C 
BRANCH  24  25
HETATM   25  N1  UNL     1       6.306   0.999  -0.278  1.00  0.00    -0.387 N 
HETATM   26  H8  UNL     1       7.023   0.535  -0.918  1.00  0.00     0.159 HD
BRANCH  25  27
HETATM   27  C7  UNL     1       6.276   0.460   1.039  1.00  0.00     0.061 A 
HETATM   28  C2  UNL     1       7.104  -0.586   1.476  1.00  0.00     0.094 A 
HETATM   29  C3  UNL     1       6.947  -0.992   2.767  1.00  0.00     0.039 A 
HETATM   30  C4  UNL     1       6.048  -0.458   3.666  1.00  0.00     0.003 A 
HETATM   31  C5  UNL     1       5.212   0.582   3.265  1.00  0.00     0.002 A 
HETATM   32  C6  UNL     1       5.363   1.008   1.940  1.00  0.00     0.032 A 
BRANCH  28  33
HETATM   33  O1  UNL     1       7.961  -1.039   0.495  1.00  0.00    -0.354 OA
HETATM   34  C1  UNL     1       8.863  -2.083   0.787  1.00  0.00     0.210 C 
ENDBRANCH  28  33
ENDBRANCH  25  27
ENDBRANCH  24  25
ENDBRANCH  23  24
ENDBRANCH  22  23
ENDBRANCH   1  22
TORSDOF 11
