REMARK  8 active torsions:
REMARK  status: ('A' for Active; 'I' for Inactive)
REMARK    1  A    between atoms: O1_2  and  C2_3 
REMARK    2  A    between atoms: C7_8  and  N1_9 
REMARK    3  A    between atoms: N1_9  and  C8_10 
REMARK    4  A    between atoms: C8_10  and  C9_11 
REMARK    5  A    between atoms: C13_17  and  C14_18 
REMARK    6  A    between atoms: C14_18  and  N3_19 
REMARK    7  A    between atoms: N3_19  and  C15_20 
REMARK    8  A    between atoms: C18_23  and  N4_24 
ROOT
HETATM    1  C9  UNL     1      -2.820   1.980   0.403  1.00  0.00    -0.041 C 
HETATM    2  C10 UNL     1      -2.678   3.190  -0.176  1.00  0.00     0.096 C 
HETATM    3  N2  UNL     1      -2.107   3.504  -1.462  1.00  0.00    -0.337 N 
HETATM    4  C11 UNL     1      -1.640   2.356  -2.199  1.00  0.00     0.222 C 
HETATM    5  O2  UNL     1      -0.676   2.541  -3.003  1.00  0.00    -0.273 OA
HETATM    6  C12 UNL     1      -2.440   1.130  -1.833  1.00  0.00     0.114 C 
HETATM    7  C13 UNL     1      -2.284   0.813  -0.372  1.00  0.00     0.044 C 
HETATM    8  H12 UNL     1      -2.049   4.488  -1.797  1.00  0.00     0.168 HD
ENDROOT
BRANCH   7   9
HETATM    9  C14 UNL     1      -0.804   0.617  -0.045  1.00  0.00     0.131 C 
BRANCH   9  10
HETATM   10  N3  UNL     1      -0.380  -0.518  -0.833  1.00  0.00    -0.374 N 
HETATM   11  H18 UNL     1      -0.867  -1.160  -1.511  1.00  0.00     0.161 HD
BRANCH  10  12
HETATM   12  C15 UNL     1       0.998  -0.734  -0.568  1.00  0.00     0.123 A 
HETATM   13  C16 UNL     1       1.576  -1.540   0.388  1.00  0.00     0.052 A 
HETATM   14  C17 UNL     1       2.942  -1.636   0.516  1.00  0.00     0.034 A 
HETATM   15  C18 UNL     1       3.734  -0.903  -0.340  1.00  0.00     0.048 A 
HETATM   16  C24 UNL     1       3.157  -0.086  -1.308  1.00  0.00     0.148 A 
HETATM   17  N6  UNL     1       1.808  -0.026  -1.393  1.00  0.00    -0.241 NA
BRANCH  15  18
HETATM   18  N4  UNL     1       5.148  -0.979  -0.238  1.00  0.00    -0.376 N 
HETATM   19  C19 UNL     1       6.153  -0.254  -0.995  1.00  0.00     0.153 C 
HETATM   20  C20 UNL     1       7.189   0.218   0.006  1.00  0.00     0.291 C 
HETATM   21  N5  UNL     1       8.010  -0.943   0.307  1.00  0.00     0.087 N 
HETATM   22  C21 UNL     1       9.140  -1.052  -0.590  1.00  0.00     0.310 C 
HETATM   23  C22 UNL     1       7.217  -2.140   0.381  1.00  0.00     0.291 C 
HETATM   24  C23 UNL     1       5.765  -1.867   0.712  1.00  0.00     0.153 C 
ENDBRANCH  15  18
ENDBRANCH  10  12
ENDBRANCH   9  10
ENDBRANCH   7   9
BRANCH   1  25
HETATM   25  C8  UNL     1      -3.453   1.879   1.774  1.00  0.00     0.156 C 
BRANCH  25  26
HETATM   26  N1  UNL     1      -4.639   1.123   1.807  1.00  0.00    -0.384 N 
HETATM   27  H8  UNL     1      -4.605   1.374   2.849  1.00  0.00     0.160 HD
BRANCH  26  28
HETATM   28  C7  UNL     1      -5.832   0.369   1.868  1.00  0.00     0.062 A 
HETATM   29  C2  UNL     1      -6.135  -0.117   0.582  1.00  0.00     0.094 A 
HETATM   30  C3  UNL     1      -7.284  -0.882   0.414  1.00  0.00     0.039 A 
HETATM   31  C4  UNL     1      -8.041  -1.104   1.542  1.00  0.00     0.003 A 
HETATM   32  C5  UNL     1      -7.786  -0.654   2.810  1.00  0.00     0.002 A 
HETATM   33  C6  UNL     1      -6.646   0.100   2.948  1.00  0.00     0.032 A 
BRANCH  29  34
HETATM   34  O1  UNL     1      -5.449   0.049  -0.587  1.00  0.00    -0.354 OA
HETATM   35  C1  UNL     1      -5.775  -0.449  -1.842  1.00  0.00     0.210 C 
ENDBRANCH  29  34
ENDBRANCH  26  28
ENDBRANCH  25  26
ENDBRANCH   1  25
TORSDOF 8
