REMARK  6 active torsions:
REMARK  status: ('A' for Active; 'I' for Inactive)
REMARK    1  A    between atoms: N1_2  and  C2_3 
REMARK    2  A    between atoms: C2_3  and  C3_4 
REMARK    3  A    between atoms: C3_4  and  C4_5 
REMARK    4  A    between atoms: C12_13  and  C13_14 
REMARK    5  A    between atoms: C13_14  and  C14_15 
REMARK    6  A    between atoms: C14_15  and  C15_16 
ROOT
HETATM    1  C4  UNL     1       3.554  -0.815   0.045  1.00  0.00    -0.056 A 
HETATM    2  C5  UNL     1       4.608  -0.770  -0.872  1.00  0.00     0.009 A 
HETATM    3  C6  UNL     1       4.285  -0.840  -2.212  1.00  0.00     0.031 A 
HETATM    4  C7  UNL     1       3.013  -0.949  -2.700  1.00  0.00     0.042 A 
HETATM    5  C8  UNL     1       1.965  -0.993  -1.774  1.00  0.00    -0.009 A 
HETATM    6  C9  UNL     1       2.286  -0.923  -0.433  1.00  0.00     0.018 A 
HETATM    7  C10 UNL     1       0.559  -1.108  -2.172  1.00  0.00     0.096 C 
HETATM    8  C11 UNL     1      -0.388  -0.384  -1.277  1.00  0.00     0.002 C 
HETATM    9  C12 UNL     1      -1.128  -0.894  -0.286  1.00  0.00    -0.064 C 
HETATM   10  C22 UNL     1      -1.017  -2.332  -0.020  1.00  0.00     0.156 C 
HETATM   11  N2  UNL     1      -0.480  -3.078  -1.123  1.00  0.00    -0.356 N 
HETATM   12  C23 UNL     1       0.116  -2.529  -2.286  1.00  0.00     0.235 C 
HETATM   13  O1  UNL     1       0.260  -3.201  -3.344  1.00  0.00    -0.272 OA
HETATM   14  C24 UNL     1       0.387  -0.492  -3.566  1.00  0.00     0.131 C 
HETATM   15  C25 UNL     1       1.354  -1.130  -4.497  1.00  0.00     0.224 C 
HETATM   16  O2  UNL     1       1.119  -1.759  -5.584  1.00  0.00    -0.273 OA
HETATM   17  N3  UNL     1       2.734  -1.017  -4.111  1.00  0.00    -0.327 N 
HETATM   18  H26 UNL     1      -0.555  -4.113  -1.020  1.00  0.00     0.162 HD
HETATM   19  H29 UNL     1       3.519  -0.984  -4.802  1.00  0.00     0.169 HD
ENDROOT
BRANCH   9  20
HETATM   20  C13 UNL     1      -2.016   0.015   0.490  1.00  0.00     0.040 C 
BRANCH  20  21
HETATM   21  C14 UNL     1      -3.437  -0.420   0.368  1.00  0.00     0.043 C 
BRANCH  21  22
HETATM   22  C15 UNL     1      -4.407   0.426   1.106  1.00  0.00    -0.052 A 
HETATM   23  C16 UNL     1      -4.991   0.043   2.297  1.00  0.00     0.007 A 
HETATM   24  C17 UNL     1      -5.897   0.775   3.033  1.00  0.00     0.001 A 
HETATM   25  C18 UNL     1      -6.262   2.027   2.524  1.00  0.00     0.001 A 
HETATM   26  C19 UNL     1      -5.684   2.435   1.320  1.00  0.00     0.007 A 
HETATM   27  C20 UNL     1      -4.780   1.662   0.623  1.00  0.00    -0.056 A 
HETATM   28  C21 UNL     1      -4.238   2.213  -0.646  1.00  0.00     0.049 C 
ENDBRANCH  21  22
ENDBRANCH  20  21
ENDBRANCH   9  20
BRANCH   1  29
HETATM   29  C3  UNL     1       3.858  -0.742   1.518  1.00  0.00     0.068 C 
BRANCH  29  30
HETATM   30  C2  UNL     1       3.854   0.712   1.963  1.00  0.00     0.273 C 
BRANCH  30  31
HETATM   31  N1  UNL     1       4.863   1.455   1.223  1.00  0.00     0.079 N 
HETATM   32  C1  UNL     1       4.933   2.841   1.573  1.00  0.00     0.306 C 
HETATM   33  H4  UNL     1       5.780   1.006   1.420  1.00  0.00     0.315 HD
ENDBRANCH  30  31
ENDBRANCH  29  30
ENDBRANCH   1  29
TORSDOF 6
