REMARK  8 active torsions:
REMARK  status: ('A' for Active; 'I' for Inactive)
REMARK    1  A    between atoms: C4_4  and  N1_5 
REMARK    2  A    between atoms: C12_14  and  C13_15 
REMARK    3  A    between atoms: C13_15  and  N3_16 
REMARK    4  A    between atoms: C13_15  and  C14_17 
REMARK    5  A    between atoms: N4_19  and  C16_20 
REMARK    6  A    between atoms: C16_20  and  C17_21 
REMARK    7  A    between atoms: C17_21  and  C18_22 
REMARK    8  A    between atoms: C24_28  and  O1_29 
ROOT
HETATM    1  C13 UNL     1      -0.376   0.950   2.120  1.00  0.00     0.302 C 
ENDROOT
BRANCH   1   2
HETATM    2  C12 UNL     1       0.931   0.850   1.471  1.00  0.00    -0.014 A 
HETATM    3  C2  UNL     1       1.175   0.677   0.128  1.00  0.00    -0.051 A 
HETATM    4  C1  UNL     1       0.001   0.580  -0.790  1.00  0.00     0.049 C 
HETATM    5  C3  UNL     1       2.438   0.589  -0.421  1.00  0.00     0.036 A 
HETATM    6  C4  UNL     1       3.557   0.670   0.340  1.00  0.00     0.030 A 
HETATM    7  C10 UNL     1       3.383   0.844   1.697  1.00  0.00     0.030 A 
HETATM    8  C11 UNL     1       2.100   0.931   2.239  1.00  0.00     0.012 A 
BRANCH   6   9
HETATM    9  N1  UNL     1       4.885   0.586  -0.148  1.00  0.00    -0.378 N 
HETATM   10  C5  UNL     1       6.110   0.722   0.629  1.00  0.00     0.153 C 
HETATM   11  C6  UNL     1       6.766  -0.622   0.679  1.00  0.00     0.291 C 
HETATM   12  N2  UNL     1       7.080  -1.026  -0.667  1.00  0.00     0.087 N 
HETATM   13  C7  UNL     1       8.298  -0.468  -1.184  1.00  0.00     0.310 C 
HETATM   14  C8  UNL     1       5.978  -0.971  -1.573  1.00  0.00     0.291 C 
HETATM   15  C9  UNL     1       5.213   0.339  -1.545  1.00  0.00     0.153 C 
ENDBRANCH   6   9
ENDBRANCH   1   2
BRANCH   1  16
HETATM   16  N3  UNL     1      -0.190   0.924   3.575  1.00  0.00     0.093 N 
HETATM   17  H19 UNL     1      -0.917   0.353   4.033  1.00  0.00     0.314 HD
HETATM   18  H20 UNL     1      -0.148   1.857   3.998  1.00  0.00     0.314 HD
ENDBRANCH   1  16
BRANCH   1  19
HETATM   19  C14 UNL     1      -1.376  -0.038   1.700  1.00  0.00     0.062 A 
HETATM   20  C15 UNL     1      -2.610   0.094   1.186  1.00  0.00     0.120 A 
HETATM   21  N4  UNL     1      -3.467  -0.983   0.827  1.00  0.00    -0.335 N 
HETATM   22  C24 UNL     1      -2.991  -2.294   1.022  1.00  0.00     0.157 A 
HETATM   23  C25 UNL     1      -1.775  -2.495   1.529  1.00  0.00     0.144 A 
HETATM   24  N5  UNL     1      -0.923  -1.387   1.886  1.00  0.00    -0.362 N 
HETATM   25  H33 UNL     1      -0.002  -1.700   2.269  1.00  0.00     0.165 HD
BRANCH  21  26
HETATM   26  C16 UNL     1      -4.745  -0.614   0.295  1.00  0.00     0.135 C 
BRANCH  26  27
HETATM   27  C17 UNL     1      -4.703   0.039  -1.047  1.00  0.00     0.058 C 
BRANCH  27  28
HETATM   28  C18 UNL     1      -6.095   0.360  -1.462  1.00  0.00    -0.057 A 
HETATM   29  C19 UNL     1      -6.704   1.564  -1.159  1.00  0.00     0.007 A 
HETATM   30  C20 UNL     1      -7.996   1.897  -1.529  1.00  0.00     0.001 A 
HETATM   31  C21 UNL     1      -8.739   0.974  -2.249  1.00  0.00     0.000 A 
HETATM   32  C22 UNL     1      -8.132  -0.226  -2.551  1.00  0.00     0.001 A 
HETATM   33  C23 UNL     1      -6.846  -0.560  -2.184  1.00  0.00     0.007 A 
ENDBRANCH  27  28
ENDBRANCH  26  27
ENDBRANCH  21  26
BRANCH  22  34
HETATM   34  O1  UNL     1      -3.840  -3.344   0.666  1.00  0.00    -0.345 OA
HETATM   35  H31 UNL     1      -4.097  -3.547  -0.278  1.00  0.00     0.219 HD
ENDBRANCH  22  34
ENDBRANCH   1  19
TORSDOF 8
