REMARK  7 active torsions:
REMARK  status: ('A' for Active; 'I' for Inactive)
REMARK    1  A    between atoms: N2_5  and  C4_6 
REMARK    2  A    between atoms: C7_9  and  N3_10 
REMARK       I    between atoms: N3_10  and  C8_11 
REMARK    3  A    between atoms: C8_11  and  C9_13 
REMARK    4  A    between atoms: C9_13  and  C10_14 
REMARK       I    between atoms: C10_14  and  N4_16 
REMARK    5  A    between atoms: C11_17  and  C12_18 
REMARK    6  A    between atoms: C12_18  and  N5_19 
REMARK    7  A    between atoms: N5_19  and  C13_20 
ROOT
HETATM    1  N3  UNL     1       0.209  -2.025  -0.166  1.00  0.00    -0.327 N 
HETATM    2  C8  UNL     1       1.560  -1.643  -0.325  1.00  0.00     0.231 C 
HETATM    3  O1  UNL     1       1.990  -0.481  -0.566  1.00  0.00    -0.273 OA
HETATM    4  H10 UNL     1      -0.045  -3.022   0.032  1.00  0.00     0.169 HD
ENDROOT
BRANCH   2   5
HETATM    5  C9  UNL     1       2.605  -2.708  -0.200  1.00  0.00     0.208 C 
BRANCH   5   6
HETATM    6  C10 UNL     1       3.565  -2.434   0.891  1.00  0.00     0.251 C 
HETATM    7  O2  UNL     1       3.274  -1.353   1.470  1.00  0.00    -0.271 OA
HETATM    8  N4  UNL     1       4.523  -3.473   0.956  1.00  0.00    -0.229 NA
HETATM    9  C11 UNL     1       5.763  -3.155   1.094  1.00  0.00     0.113 C 
BRANCH   9  10
HETATM   10  C12 UNL     1       6.197  -1.737   1.185  1.00  0.00     0.166 C 
BRANCH  10  11
HETATM   11  N5  UNL     1       5.989  -1.008  -0.049  1.00  0.00    -0.385 N 
HETATM   12  H16 UNL     1       5.592  -1.344  -0.944  1.00  0.00     0.160 HD
BRANCH  11  13
HETATM   13  C13 UNL     1       6.400   0.350   0.023  1.00  0.00     0.029 A 
HETATM   14  C14 UNL     1       6.942   0.903   1.167  1.00  0.00     0.029 A 
HETATM   15  C15 UNL     1       7.348   2.236   1.247  1.00  0.00     0.004 A 
HETATM   16  C16 UNL     1       7.211   3.056   0.145  1.00  0.00     0.024 A 
HETATM   17  C17 UNL     1       6.667   2.519  -1.018  1.00  0.00     0.036 A 
HETATM   18 CL1  UNL     1       6.523   3.607  -2.367  1.00  0.00    -0.084 Cl
HETATM   19  C18 UNL     1       6.279   1.213  -1.067  1.00  0.00     0.052 A 
ENDBRANCH  11  13
ENDBRANCH  10  11
ENDBRANCH   9  10
ENDBRANCH   5   6
ENDBRANCH   2   5
BRANCH   1  20
HETATM   20  C7  UNL     1      -1.020  -1.331  -0.212  1.00  0.00     0.034 A 
HETATM   21  C6  UNL     1      -1.721  -1.187  -1.384  1.00  0.00     0.032 A 
HETATM   22  C5  UNL     1      -2.919  -0.504  -1.400  1.00  0.00     0.031 A 
HETATM   23  C4  UNL     1      -3.484   0.061  -0.302  1.00  0.00     0.030 A 
HETATM   24  C20 UNL     1      -2.771  -0.096   0.843  1.00  0.00     0.031 A 
HETATM   25  C19 UNL     1      -1.570  -0.767   0.921  1.00  0.00     0.032 A 
BRANCH  23  26
HETATM   26  N2  UNL     1      -4.722   0.754  -0.355  1.00  0.00    -0.378 N 
HETATM   27  C3  UNL     1      -5.578   0.880  -1.490  1.00  0.00     0.153 C 
HETATM   28  C2  UNL     1      -7.030   0.595  -1.239  1.00  0.00     0.291 C 
HETATM   29  N1  UNL     1      -7.520   0.944   0.051  1.00  0.00     0.087 N 
HETATM   30  C1  UNL     1      -8.069   2.260   0.172  1.00  0.00     0.310 C 
HETATM   31  C22 UNL     1      -6.586   0.665   1.120  1.00  0.00     0.291 C 
HETATM   32  C21 UNL     1      -5.326   1.463   0.751  1.00  0.00     0.153 C 
ENDBRANCH  23  26
ENDBRANCH   1  20
TORSDOF 7
