REMARK  5 active torsions:
REMARK  status: ('A' for Active; 'I' for Inactive)
REMARK    1  A    between atoms: O1_2  and  C2_3 
REMARK    2  A    between atoms: C7_8  and  N1_9 
REMARK    3  A    between atoms: C11_15  and  C12_16 
REMARK       I    between atoms: C12_16  and  N3_18 
REMARK    4  A    between atoms: N3_18  and  C13_19 
REMARK    5  A    between atoms: C16_22  and  N4_23 
ROOT
HETATM    1  C12 UNL     1      -1.581  -0.661  -0.192  1.00  0.00     0.254 C 
HETATM    2  O3  UNL     1      -1.317  -0.173  -1.321  1.00  0.00    -0.270 OA
HETATM    3  N3  UNL     1      -0.542  -0.756   0.775  1.00  0.00    -0.325 N 
HETATM    4  H12 UNL     1      -0.551  -1.125   1.758  1.00  0.00     0.169 HD
ENDROOT
BRANCH   1   5
HETATM    5  C11 UNL     1      -2.842  -1.212   0.422  1.00  0.00     0.274 C 
HETATM    6  N1  UNL     1      -3.907  -1.117  -0.561  1.00  0.00    -0.331 N 
HETATM    7  C8  UNL     1      -3.656  -1.850  -1.772  1.00  0.00     0.110 C 
HETATM    8  C9  UNL     1      -2.904  -2.963  -1.802  1.00  0.00     0.108 C 
HETATM    9  N2  UNL     1      -2.323  -3.449  -0.577  1.00  0.00    -0.334 N 
HETATM   10  C10 UNL     1      -2.602  -2.684   0.603  1.00  0.00     0.254 C 
HETATM   11  H10 UNL     1      -1.722  -4.314  -0.516  1.00  0.00     0.168 HD
HETATM   12  O2  UNL     1      -2.635  -3.261   1.725  1.00  0.00    -0.270 OA
BRANCH   6  13
HETATM   13  C7  UNL     1      -5.149  -0.424  -0.528  1.00  0.00     0.069 A 
HETATM   14  C2  UNL     1      -5.294   0.952  -0.378  1.00  0.00     0.095 A 
HETATM   15  C3  UNL     1      -6.556   1.528  -0.359  1.00  0.00     0.039 A 
HETATM   16  C4  UNL     1      -7.702   0.771  -0.484  1.00  0.00     0.003 A 
HETATM   17  C5  UNL     1      -7.617  -0.586  -0.634  1.00  0.00     0.002 A 
HETATM   18  C6  UNL     1      -6.349  -1.123  -0.649  1.00  0.00     0.032 A 
BRANCH  14  19
HETATM   19  O1  UNL     1      -4.125   1.698  -0.253  1.00  0.00    -0.354 OA
HETATM   20  C1  UNL     1      -4.272   3.103  -0.100  1.00  0.00     0.210 C 
ENDBRANCH  14  19
ENDBRANCH   6  13
ENDBRANCH   1   5
BRANCH   3  21
HETATM   21  C13 UNL     1       0.817  -0.367   0.659  1.00  0.00     0.034 A 
HETATM   22  C14 UNL     1       1.674  -1.319   0.195  1.00  0.00     0.032 A 
HETATM   23  C15 UNL     1       3.008  -1.021   0.054  1.00  0.00     0.031 A 
HETATM   24  C16 UNL     1       3.574   0.201   0.353  1.00  0.00     0.030 A 
HETATM   25  C21 UNL     1       2.639   1.103   0.815  1.00  0.00     0.031 A 
HETATM   26  C22 UNL     1       1.304   0.869   0.977  1.00  0.00     0.032 A 
BRANCH  24  27
HETATM   27  N4  UNL     1       4.957   0.518   0.207  1.00  0.00    -0.379 N 
HETATM   28  C17 UNL     1       5.352   1.841   0.651  1.00  0.00     0.138 C 
HETATM   29  C18 UNL     1       6.801   2.037   0.893  1.00  0.00     0.160 C 
HETATM   30  S1  UNL     1       7.825   1.249  -0.297  1.00  0.00     0.147 S 
HETATM   31  O4  UNL     1       7.941   2.107  -1.525  1.00  0.00    -0.228 OA
HETATM   32  O5  UNL     1       9.213   1.167   0.306  1.00  0.00    -0.228 OA
HETATM   33  C19 UNL     1       7.154  -0.333  -0.648  1.00  0.00     0.160 C 
HETATM   34  C20 UNL     1       5.743  -0.541  -0.368  1.00  0.00     0.138 C 
ENDBRANCH  24  27
ENDBRANCH   3  21
TORSDOF 5
