REMARK  3 active torsions:
REMARK  status: ('A' for Active; 'I' for Inactive)
REMARK    1  A    between atoms: N2_5  and  C4_6 
REMARK    2  A    between atoms: C7_9  and  N3_10 
REMARK       I    between atoms: N3_10  and  C8_11 
REMARK    3  A    between atoms: C8_11  and  C9_13 
ROOT
HETATM    1  C4  UNL     1       1.101   0.350  -0.024  1.00  0.00     0.030 A 
HETATM    2  C5  UNL     1       0.306  -0.378   0.808  1.00  0.00     0.031 A 
HETATM    3  C6  UNL     1      -1.064  -0.244   0.735  1.00  0.00     0.032 A 
HETATM    4  C7  UNL     1      -1.715   0.594  -0.137  1.00  0.00     0.034 A 
HETATM    5  C13 UNL     1      -0.879   1.310  -0.957  1.00  0.00     0.032 A 
HETATM    6  C14 UNL     1       0.482   1.197  -0.908  1.00  0.00     0.031 A 
ENDROOT
BRANCH   4   7
HETATM    7  N3  UNL     1      -3.103   0.782  -0.266  1.00  0.00    -0.326 N 
HETATM    8  C8  UNL     1      -4.164   0.183   0.439  1.00  0.00     0.239 C 
HETATM    9  O1  UNL     1      -3.908  -0.657   1.335  1.00  0.00    -0.272 OA
HETATM   10  H10 UNL     1      -3.477   1.451  -0.971  1.00  0.00     0.169 HD
BRANCH   8  11
HETATM   11  C9  UNL     1      -5.597   0.435   0.242  1.00  0.00     0.194 A 
HETATM   12  C10 UNL     1      -6.356  -0.411   1.199  1.00  0.00     0.014 A 
HETATM   13  C11 UNL     1      -7.053  -1.329   0.553  1.00  0.00     0.088 A 
HETATM   14  N4  UNL     1      -6.890  -1.260  -0.844  1.00  0.00    -0.336 N 
HETATM   15  C12 UNL     1      -5.988  -0.169  -1.062  1.00  0.00     0.238 A 
HETATM   16  H14 UNL     1      -7.282  -1.816  -1.620  1.00  0.00     0.168 HD
HETATM   17  O2  UNL     1      -5.551   0.267  -2.161  1.00  0.00    -0.272 OA
ENDBRANCH   8  11
ENDBRANCH   4   7
BRANCH   1  18
HETATM   18  N2  UNL     1       2.515   0.201   0.061  1.00  0.00    -0.378 N 
HETATM   19  C3  UNL     1       3.044  -0.718   1.028  1.00  0.00     0.153 C 
HETATM   20  C2  UNL     1       4.510  -0.952   0.875  1.00  0.00     0.291 C 
HETATM   21  N1  UNL     1       5.233   0.226   0.497  1.00  0.00     0.087 N 
HETATM   22  C1  UNL     1       6.611  -0.223   0.242  1.00  0.00     0.310 C 
HETATM   23  C16 UNL     1       4.771   0.793  -0.746  1.00  0.00     0.291 C 
HETATM   24  C15 UNL     1       3.310   0.995  -0.840  1.00  0.00     0.153 C 
ENDBRANCH   1  18
TORSDOF 3
