REMARK  0 active torsions:
REMARK  status: ('A' for Active; 'I' for Inactive)
ROOT
HETATM    1  C1  UNL     1       5.352   0.257  -2.460  1.00  0.00     0.052 C 
HETATM    2  C2  UNL     1       4.165  -0.603  -2.226  1.00  0.00    -0.015 C 
HETATM    3  C3  UNL     1       4.385  -1.883  -2.523  1.00  0.00     0.030 C 
HETATM    4  S1  UNL     1       3.170  -2.980  -2.438  1.00  0.00    -0.098 SA
HETATM    5  C4  UNL     1       1.934  -2.833  -1.336  1.00  0.00     0.082 C 
HETATM    6  C5  UNL     1       1.622  -1.678  -0.456  1.00  0.00     0.063 C 
HETATM    7  N1  UNL     1       2.068  -0.513  -0.756  1.00  0.00    -0.248 NA
HETATM    8  C6  UNL     1       2.931   0.038  -1.715  1.00  0.00     0.070 C 
HETATM    9  C7  UNL     1       2.863   1.222  -2.362  1.00  0.00     0.106 C 
HETATM   10  C8  UNL     1       1.874   2.344  -2.313  1.00  0.00     0.244 C 
HETATM   11  O1  UNL     1       1.733   3.466  -2.855  1.00  0.00    -0.269 OA
HETATM   12  N2  UNL     1       0.672   2.307  -1.464  1.00  0.00    -0.341 N 
HETATM   13  C9  UNL     1      -0.539   2.393  -0.678  1.00  0.00     0.090 A 
HETATM   14  C10 UNL     1      -0.024   2.924   0.456  1.00  0.00     0.077 A 
HETATM   15  C11 UNL     1      -0.699   2.825   1.641  1.00  0.00    -0.008 A 
HETATM   16  C12 UNL     1      -1.488   2.197   0.744  1.00  0.00     0.071 A 
HETATM   17  C13 UNL     1      -2.123   1.622  -0.299  1.00  0.00     0.007 A 
HETATM   18  C14 UNL     1      -1.421   1.738  -1.498  1.00  0.00     0.007 A 
HETATM   19  N3  UNL     1      -2.286   1.233   1.500  1.00  0.00    -0.393 N 
HETATM   20  C15 UNL     1      -3.530   0.696   1.993  1.00  0.00     0.137 C 
HETATM   21  C16 UNL     1      -3.756  -0.749   1.768  1.00  0.00     0.136 C 
HETATM   22  N4  UNL     1      -2.675  -1.576   1.381  1.00  0.00    -0.406 N 
HETATM   23  C17 UNL     1      -2.806  -2.957   1.520  1.00  0.00     0.144 C 
HETATM   24  C18 UNL     1      -1.440  -0.962   1.148  1.00  0.00     0.119 C 
HETATM   25  C19 UNL     1      -0.264  -1.785   1.432  1.00  0.00     0.002 C 
HETATM   26  C20 UNL     1       0.822  -1.944   0.709  1.00  0.00     0.030 C 
HETATM   27  C21 UNL     1      -1.299   0.292   2.025  1.00  0.00     0.147 C 
HETATM   28  H6  UNL     1       0.885   1.339  -1.064  1.00  0.00     0.164 HD
ENDROOT
TORSDOF 0
