REMARK  6 active torsions:
REMARK  status: ('A' for Active; 'I' for Inactive)
REMARK       I    between atoms: N1_2  and  C2_3 
REMARK    1  A    between atoms: C2_3  and  C3_5 
REMARK    2  A    between atoms: C4_6  and  N2_7 
REMARK    3  A    between atoms: N2_7  and  C5_8 
REMARK    4  A    between atoms: C12_16  and  C13_17 
REMARK    5  A    between atoms: C14_18  and  C15_19 
REMARK    6  A    between atoms: C15_19  and  N3_20 
ROOT
HETATM    1  C3  UNL     1      -2.831  -2.069   1.120  1.00  0.00     0.100 C 
HETATM    2  C4  UNL     1      -2.448  -0.889   1.589  1.00  0.00     0.033 C 
HETATM    3  C11 UNL     1      -1.126  -0.317   1.913  1.00  0.00     0.096 C 
HETATM    4  C12 UNL     1      -0.073  -0.870   1.061  1.00  0.00    -0.056 C 
HETATM    5  C21 UNL     1       0.144  -1.963   0.372  1.00  0.00    -0.012 C 
HETATM    6  C22 UNL     1      -0.636  -3.176   0.151  1.00  0.00     0.112 C 
HETATM    7  C23 UNL     1      -1.947  -3.183   0.801  1.00  0.00     0.170 C 
HETATM    8  O2  UNL     1      -2.423  -4.316   1.158  1.00  0.00    -0.292 OA
ENDROOT
BRANCH   4   9
HETATM    9  C13 UNL     1       1.051   0.088   0.961  1.00  0.00     0.005 C 
HETATM   10  C14 UNL     1       2.235   0.109   0.338  1.00  0.00     0.004 C 
BRANCH  10  11
HETATM   11  C15 UNL     1       3.317   1.102   0.280  1.00  0.00     0.300 C 
BRANCH  11  12
HETATM   12  N3  UNL     1       3.552   1.554  -1.049  1.00  0.00     0.095 N 
HETATM   13  C16 UNL     1       4.620   2.557  -1.056  1.00  0.00     0.303 C 
HETATM   14  C17 UNL     1       5.875   2.086  -1.715  1.00  0.00     0.302 C 
HETATM   15  N4  UNL     1       6.223   0.722  -1.456  1.00  0.00     0.087 N 
HETATM   16  C18 UNL     1       6.992   0.538  -0.261  1.00  0.00     0.310 C 
HETATM   17  C19 UNL     1       5.121  -0.185  -1.602  1.00  0.00     0.302 C 
HETATM   18  C20 UNL     1       3.847   0.529  -2.010  1.00  0.00     0.303 C 
ENDBRANCH  11  12
ENDBRANCH  10  11
ENDBRANCH   4   9
BRANCH   2  19
HETATM   19  N2  UNL     1      -3.451   0.089   1.864  1.00  0.00    -0.358 N 
HETATM   20  H5  UNL     1      -3.868  -0.097   2.825  1.00  0.00     0.166 HD
BRANCH  19  21
HETATM   21  C5  UNL     1      -3.916   1.192   1.076  1.00  0.00     0.034 A 
HETATM   22  C6  UNL     1      -4.922   2.000   1.598  1.00  0.00     0.029 A 
HETATM   23  C7  UNL     1      -5.321   3.041   0.788  1.00  0.00     0.004 A 
HETATM   24  C8  UNL     1      -4.786   3.297  -0.458  1.00  0.00     0.024 A 
HETATM   25  C9  UNL     1      -3.807   2.446  -0.873  1.00  0.00     0.036 A 
HETATM   26 CL1  UNL     1      -3.112   2.761  -2.466  1.00  0.00    -0.084 Cl
HETATM   27  C10 UNL     1      -3.325   1.374  -0.157  1.00  0.00     0.053 A 
ENDBRANCH  19  21
ENDBRANCH   2  19
BRANCH   1  28
HETATM   28  C2  UNL     1      -4.263  -2.249   0.929  1.00  0.00     0.256 C 
HETATM   29  N1  UNL     1      -4.997  -3.341   0.447  1.00  0.00    -0.361 N 
HETATM   30  C1  UNL     1      -6.448  -3.256   0.363  1.00  0.00     0.149 C 
HETATM   31  H4  UNL     1      -4.430  -4.159   0.168  1.00  0.00     0.162 HD
HETATM   32  O1  UNL     1      -5.048  -1.295   1.233  1.00  0.00    -0.267 OA
ENDBRANCH   1  28
TORSDOF 6
