REMARK  2 active torsions:
REMARK  status: ('A' for Active; 'I' for Inactive)
REMARK    1  A    between atoms: N2_7  and  C6_8 
REMARK    2  A    between atoms: C18_23  and  N4_24 
ROOT
HETATM    1  C1  UNL     1       1.529  -2.947   0.438  1.00  0.00     0.027 C 
HETATM    2  C2  UNL     1       1.197  -1.637   0.057  1.00  0.00     0.221 A 
HETATM    3  N1  UNL     1       0.013  -2.215  -0.717  1.00  0.00    -0.017 N 
HETATM    4  C3  UNL     1      -0.824  -1.089  -1.240  1.00  0.00     0.129 A 
HETATM    5  C4  UNL     1       0.230  -0.700  -0.652  1.00  0.00     0.298 A 
HETATM    6  C5  UNL     1       1.367  -1.018   0.176  1.00  0.00     0.262 A 
HETATM    7  N2  UNL     1       2.441   0.081  -0.200  1.00  0.00    -0.002 N 
HETATM    8  C12 UNL     1       2.384  -0.995   0.834  1.00  0.00     0.269 A 
HETATM    9  C13 UNL     1       0.916  -0.363   1.242  1.00  0.00     0.245 A 
HETATM   10  O1  UNL     1      -0.077  -0.762   2.043  1.00  0.00    -0.199 OA
HETATM   11  N3  UNL     1       0.063   0.825   0.986  1.00  0.00    -0.377 N 
HETATM   12  C14 UNL     1      -1.339   1.204   0.967  1.00  0.00     0.108 C 
HETATM   13  C15 UNL     1      -2.066   1.995   1.799  1.00  0.00    -0.006 C 
HETATM   14  C16 UNL     1      -3.157   2.142   0.958  1.00  0.00    -0.026 C 
HETATM   15  C17 UNL     1      -3.106   1.796  -0.561  1.00  0.00     0.069 C 
HETATM   16  C18 UNL     1      -2.796   0.352  -0.755  1.00  0.00     0.170 C 
HETATM   17  C20 UNL     1      -1.823  -0.116  -1.811  1.00  0.00     0.105 C 
HETATM   18  C21 UNL     1      -2.205  -0.014   0.621  1.00  0.00     0.047 C 
HETATM   19  C22 UNL     1      -3.308  -0.232   1.654  1.00  0.00     0.015 C 
HETATM   20  H3  UNL     1      -0.339  -3.113  -0.970  1.00  0.00     0.288 HD
HETATM   21  H5  UNL     1       2.185   0.997  -0.674  1.00  0.00     0.289 HD
HETATM   22  H10 UNL     1       0.754   1.623   0.833  1.00  0.00     0.157 HD
ENDROOT
BRANCH   7  23
HETATM   23  C6  UNL     1       3.817   0.492  -0.247  1.00  0.00     0.137 A 
HETATM   24  C7  UNL     1       4.347   0.928   0.927  1.00  0.00     0.039 A 
HETATM   25  C8  UNL     1       5.639   1.333   1.084  1.00  0.00     0.026 A 
HETATM   26  C9  UNL     1       6.333   1.247  -0.101  1.00  0.00     0.034 A 
HETATM   27 CL1  UNL     1       8.038   1.727  -0.076  1.00  0.00    -0.084 Cl
HETATM   28  C10 UNL     1       5.893   0.820  -1.327  1.00  0.00     0.026 A 
HETATM   29  C11 UNL     1       4.565   0.429  -1.386  1.00  0.00     0.039 A 
ENDBRANCH   7  23
BRANCH  16  30
HETATM   30  N4  UNL     1      -4.094  -0.309  -0.910  1.00  0.00     0.089 N 
HETATM   31  C19 UNL     1      -3.976  -1.735  -1.226  1.00  0.00     0.307 C 
HETATM   32  H16 UNL     1      -4.554   0.130  -1.737  1.00  0.00     0.316 HD
ENDBRANCH  16  30
TORSDOF 2
