REMARK  8 active torsions:
REMARK  status: ('A' for Active; 'I' for Inactive)
REMARK    1  A    between atoms: N1_2  and  C2_3 
REMARK    2  A    between atoms: C4_5  and  N2_6 
REMARK    3  A    between atoms: C10_14  and  C11_15 
REMARK    4  A    between atoms: C11_15  and  N3_17 
REMARK    5  A    between atoms: N3_17  and  C13_18 
REMARK    6  A    between atoms: C13_18  and  C14_19 
REMARK    7  A    between atoms: C14_19  and  C15_20 
REMARK    8  A    between atoms: C16_21  and  N4_22 
ROOT
HETATM    1  C11 UNL     1      -2.440  -0.157   1.955  1.00  0.00     0.114 C 
HETATM    2  C12 UNL     1      -1.956   1.271   1.817  1.00  0.00     0.037 C 
ENDROOT
BRANCH   1   3
HETATM    3  C10 UNL     1      -3.445  -0.541   0.948  1.00  0.00     0.018 A 
HETATM    4  C2  UNL     1      -3.111  -0.472  -0.490  1.00  0.00     0.040 A 
HETATM    5  C3  UNL     1      -4.354  -0.912  -0.737  1.00  0.00     0.060 A 
HETATM    6  C4  UNL     1      -4.666  -0.975   0.686  1.00  0.00     0.054 A 
BRANCH   4   7
HETATM    7  N1  UNL     1      -2.211  -0.196  -1.585  1.00  0.00    -0.394 N 
HETATM    8  C1  UNL     1      -2.408   1.169  -2.099  1.00  0.00     0.146 C 
HETATM    9  H4  UNL     1      -1.575  -0.973  -1.846  1.00  0.00     0.159 HD
ENDBRANCH   4   7
BRANCH   6  10
HETATM   10  N2  UNL     1      -5.688  -1.300   1.619  1.00  0.00    -0.288 N 
HETATM   11  C5  UNL     1      -5.488  -1.944   2.779  1.00  0.00     0.101 A 
HETATM   12  C6  UNL     1      -6.488  -2.254   3.675  1.00  0.00     0.020 A 
HETATM   13  C7  UNL     1      -7.781  -1.861   3.331  1.00  0.00     0.031 A 
HETATM   14  C8  UNL     1      -8.012  -1.198   2.145  1.00  0.00     0.102 A 
HETATM   15 CL1  UNL     1      -9.678  -0.768   1.835  1.00  0.00    -0.078 Cl
HETATM   16  C9  UNL     1      -6.948  -0.927   1.301  1.00  0.00     0.274 A 
HETATM   17  O1  UNL     1      -7.242  -0.311   0.223  1.00  0.00    -0.266 OA
ENDBRANCH   6  10
ENDBRANCH   1   3
BRANCH   1  18
HETATM   18  N3  UNL     1      -1.259  -1.011   1.903  1.00  0.00    -0.390 N 
HETATM   19  H13 UNL     1      -0.936  -1.569   2.734  1.00  0.00     0.159 HD
BRANCH  18  20
HETATM   20  C13 UNL     1      -0.361  -1.269   0.848  1.00  0.00     0.083 C 
BRANCH  20  21
HETATM   21  C14 UNL     1       0.627  -0.545   0.557  1.00  0.00     0.015 C 
BRANCH  21  22
HETATM   22  C15 UNL     1       1.697   0.416   0.397  1.00  0.00     0.001 C 
HETATM   23  C16 UNL     1       2.758   0.968  -0.119  1.00  0.00     0.129 C 
BRANCH  23  24
HETATM   24  N4  UNL     1       3.753   0.941  -1.089  1.00  0.00    -0.388 N 
HETATM   25  C17 UNL     1       4.771   0.808  -2.227  1.00  0.00     0.106 A 
HETATM   26  C18 UNL     1       5.570  -0.453  -2.199  1.00  0.00     0.057 C 
HETATM   27  C22 UNL     1       4.971   1.731  -1.097  1.00  0.00     0.131 A 
HETATM   28  C19 UNL     1       7.019  -0.235  -1.885  1.00  0.00     0.274 C 
HETATM   29  N5  UNL     1       7.265   1.045  -1.247  1.00  0.00     0.086 N 
HETATM   30  C20 UNL     1       7.400   2.046  -2.266  1.00  0.00     0.310 C 
HETATM   31  C21 UNL     1       6.183   1.265  -0.323  1.00  0.00     0.298 C 
ENDBRANCH  23  24
ENDBRANCH  21  22
ENDBRANCH  20  21
ENDBRANCH  18  20
ENDBRANCH   1  18
TORSDOF 8
