REMARK  7 active torsions:
REMARK  status: ('A' for Active; 'I' for Inactive)
REMARK    1  A    between atoms: C2_2  and  N1_3 
REMARK    2  A    between atoms: C2_2  and  N3_10 
REMARK       I    between atoms: N3_10  and  C8_12 
REMARK    3  A    between atoms: C8_12  and  C9_14 
REMARK    4  A    between atoms: C9_14  and  N4_15 
REMARK    5  A    between atoms: N4_15  and  C10_16 
REMARK    6  A    between atoms: C14_21  and  N6_22 
REMARK    7  A    between atoms: C16_24  and  O2_25 
ROOT
HETATM    1  C9  UNL     1      -1.468  -0.448  -0.200  1.00  0.00     0.151 C 
HETATM    2  C15 UNL     1      -1.626   0.501  -1.305  1.00  0.00     0.071 C 
HETATM    3  C16 UNL     1      -1.803  -0.274  -2.388  1.00  0.00     0.134 C 
HETATM    4  N7  UNL     1      -1.780  -1.682  -2.100  1.00  0.00    -0.368 N 
HETATM    5  C17 UNL     1      -2.050  -1.756  -0.687  1.00  0.00     0.167 C 
HETATM    6  H23 UNL     1      -1.597  -2.406  -2.836  1.00  0.00     0.161 HD
ENDROOT
BRANCH   1   7
HETATM    7  C8  UNL     1      -0.004  -0.613   0.087  1.00  0.00     0.259 C 
HETATM    8  N3  UNL     1       0.883  -1.014  -0.906  1.00  0.00    -0.309 N 
HETATM    9  C7  UNL     1       1.256  -1.420  -2.242  1.00  0.00     0.160 C 
HETATM   10  O1  UNL     1       0.576  -0.423   1.190  1.00  0.00    -0.270 OA
BRANCH   8  11
HETATM   11  C2  UNL     1       1.900  -0.917   0.115  1.00  0.00     0.084 C 
HETATM   12  C1  UNL     1       2.354  -1.817   0.967  1.00  0.00     0.084 C 
BRANCH  11  13
HETATM   13  N1  UNL     1       2.556   0.335   0.269  1.00  0.00    -0.359 N 
HETATM   14  C3  UNL     1       3.247   0.799   1.441  1.00  0.00     0.140 C 
HETATM   15  C4  UNL     1       4.394   1.711   1.170  1.00  0.00     0.122 C 
HETATM   16  N2  UNL     1       5.269   1.325   0.115  1.00  0.00    -0.260 NA
HETATM   17  C5  UNL     1       5.955   0.091   0.274  1.00  0.00     0.124 C 
HETATM   18  S1  UNL     1       4.306   1.396  -1.383  1.00  0.00    -0.063 SA
HETATM   19  C6  UNL     1       2.573   1.291  -0.821  1.00  0.00     0.215 C 
ENDBRANCH  11  13
ENDBRANCH   8  11
ENDBRANCH   1   7
BRANCH   1  20
HETATM   20  N4  UNL     1      -2.198  -0.035   0.955  1.00  0.00    -0.366 N 
HETATM   21  H15 UNL     1      -1.509  -0.101   1.766  1.00  0.00     0.161 HD
BRANCH  20  22
HETATM   22  C10 UNL     1      -3.420   0.408   1.458  1.00  0.00     0.053 A 
HETATM   23  C11 UNL     1      -3.679   0.674   2.790  1.00  0.00     0.050 A 
HETATM   24  C12 UNL     1      -4.899   1.120   3.207  1.00  0.00     0.118 A 
HETATM   25  N5  UNL     1      -5.892   1.320   2.354  1.00  0.00    -0.271 NA
HETATM   26  C13 UNL     1      -5.752   1.096   1.046  1.00  0.00     0.141 A 
HETATM   27  C14 UNL     1      -4.511   0.647   0.659  1.00  0.00     0.050 A 
BRANCH  27  28
HETATM   28  N6  UNL     1      -4.511   0.467  -0.745  1.00  0.00    -0.300 NA
HETATM   29  H19 UNL     1      -4.682  -0.174  -1.546  1.00  0.00     0.124 HD
HETATM   30  H20 UNL     1      -4.558   0.192  -1.727  1.00  0.00     0.124 HD
ENDBRANCH  27  28
ENDBRANCH  20  22
ENDBRANCH   1  20
BRANCH   3  31
HETATM   31  O2  UNL     1      -1.994   0.234  -3.688  1.00  0.00    -0.346 OA
HETATM   32  H22 UNL     1      -2.737   0.908  -3.795  1.00  0.00     0.219 HD
ENDBRANCH   3  31
TORSDOF 7
