REMARK  4 active torsions:
REMARK  status: ('A' for Active; 'I' for Inactive)
REMARK    1  A    between atoms: N2_5  and  C4_6 
REMARK    2  A    between atoms: C7_9  and  N3_10 
REMARK       I    between atoms: N3_10  and  C8_11 
REMARK    3  A    between atoms: C8_11  and  C9_13 
REMARK    4  A    between atoms: C15_21  and  N6_22 
ROOT
HETATM    1  C9  UNL     1      -3.174   1.898  -1.589  1.00  0.00     0.268 C 
HETATM    2  N4  UNL     1      -4.408   1.090  -1.577  1.00  0.00    -0.367 N 
HETATM    3  C10 UNL     1      -4.980   0.637  -0.343  1.00  0.00     0.057 C 
HETATM    4  C11 UNL     1      -5.722  -0.582  -0.331  1.00  0.00     0.021 A 
HETATM    5  C12 UNL     1      -5.879  -1.315  -1.499  1.00  0.00     0.035 A 
HETATM    6  C13 UNL     1      -6.582  -2.495  -1.555  1.00  0.00     0.117 A 
HETATM    7  N5  UNL     1      -7.166  -3.019  -0.475  1.00  0.00    -0.271 NA
HETATM    8  C14 UNL     1      -7.065  -2.376   0.698  1.00  0.00     0.146 A 
HETATM    9  C15 UNL     1      -6.355  -1.198   0.717  1.00  0.00     0.056 A 
HETATM   10  C16 UNL     1      -4.710   1.474   0.638  1.00  0.00     0.121 C 
HETATM   11  N7  UNL     1      -3.959   2.676   0.553  1.00  0.00    -0.333 N 
HETATM   12  C17 UNL     1      -3.399   3.095  -0.709  1.00  0.00     0.253 C 
HETATM   13  O2  UNL     1      -3.183   4.312  -0.907  1.00  0.00    -0.270 OA
HETATM   14  H12 UNL     1      -4.847   0.867  -2.523  1.00  0.00     0.161 HD
HETATM   15  H19 UNL     1      -3.814   3.266   1.429  1.00  0.00     0.168 HD
ENDROOT
BRANCH   1  16
HETATM   16  C8  UNL     1      -2.097   1.029  -1.095  1.00  0.00     0.254 C 
HETATM   17  N3  UNL     1      -0.826   1.644  -1.038  1.00  0.00    -0.325 N 
HETATM   18  H10 UNL     1      -0.633   2.619  -1.312  1.00  0.00     0.169 HD
HETATM   19  O1  UNL     1      -2.411  -0.128  -0.788  1.00  0.00    -0.270 OA
BRANCH  17  20
HETATM   20  C7  UNL     1       0.433   1.096  -0.611  1.00  0.00     0.034 A 
HETATM   21  C6  UNL     1       1.179   0.498  -1.615  1.00  0.00     0.032 A 
HETATM   22  C5  UNL     1       2.422  -0.067  -1.308  1.00  0.00     0.031 A 
HETATM   23  C4  UNL     1       2.889  -0.024  -0.019  1.00  0.00     0.030 A 
HETATM   24  C19 UNL     1       2.146   0.569   0.964  1.00  0.00     0.031 A 
HETATM   25  C18 UNL     1       0.915   1.135   0.688  1.00  0.00     0.032 A 
BRANCH  23  26
HETATM   26  N2  UNL     1       4.145  -0.589   0.323  1.00  0.00    -0.378 N 
HETATM   27  C3  UNL     1       5.047  -1.258  -0.592  1.00  0.00     0.153 C 
HETATM   28  C2  UNL     1       6.272  -0.385  -0.732  1.00  0.00     0.291 C 
HETATM   29  N1  UNL     1       6.826  -0.163   0.575  1.00  0.00     0.087 N 
HETATM   30  C1  UNL     1       8.193  -0.626   0.574  1.00  0.00     0.310 C 
HETATM   31  C21 UNL     1       6.128  -0.841   1.631  1.00  0.00     0.291 C 
HETATM   32  C20 UNL     1       4.652  -0.540   1.682  1.00  0.00     0.153 C 
ENDBRANCH  23  26
ENDBRANCH  17  20
ENDBRANCH   1  16
BRANCH   9  33
HETATM   33  N6  UNL     1      -6.296  -0.584   1.993  1.00  0.00    -0.397 N 
HETATM   34  H16 UNL     1      -7.133   0.029   1.995  1.00  0.00     0.156 HD
HETATM   35  H17 UNL     1      -5.422  -1.002   2.424  1.00  0.00     0.156 HD
ENDBRANCH   9  33
TORSDOF 4
