REMARK  5 active torsions:
REMARK  status: ('A' for Active; 'I' for Inactive)
REMARK    1  A    between atoms: C5_7  and  N3_8 
REMARK    2  A    between atoms: C9_12  and  N4_13 
REMARK    3  A    between atoms: C10_16  and  N6_17 
REMARK    4  A    between atoms: C13_20  and  N7_21 
REMARK    5  A    between atoms: N8_24  and  C16_25 
ROOT
HETATM    1  N1  UNL     1      -0.565   2.590  -3.199  1.00  0.00    -0.195 NA
HETATM    2  C1  UNL     1      -1.071   1.545  -3.064  1.00  0.00     0.091 C 
HETATM    3  C2  UNL     1      -1.729   0.233  -2.909  1.00  0.00     0.241 A 
HETATM    4  N2  UNL     1      -2.898   0.223  -3.747  1.00  0.00    -0.378 N 
HETATM    5  C3  UNL     1      -4.246   0.008  -3.343  1.00  0.00     0.087 A 
HETATM    6  C4  UNL     1      -4.438  -0.205  -2.053  1.00  0.00     0.050 A 
HETATM    7  C5  UNL     1      -3.341  -0.221  -1.090  1.00  0.00     0.084 A 
HETATM    8  C10 UNL     1      -2.098  -0.018  -1.495  1.00  0.00     0.073 A 
HETATM    9  H2  UNL     1      -2.704   0.396  -4.769  1.00  0.00     0.160 HD
ENDROOT
BRANCH   8  10
HETATM   10  N6  UNL     1      -1.078  -0.048  -0.501  1.00  0.00    -0.376 N 
HETATM   11  C11 UNL     1      -0.675   0.985   0.438  1.00  0.00     0.152 C 
HETATM   12  C12 UNL     1       0.790   0.976   0.664  1.00  0.00     0.017 C 
HETATM   13  C13 UNL     1       1.700   0.135   0.144  1.00  0.00     0.006 C 
HETATM   14  C19 UNL     1       1.155  -0.913  -0.772  1.00  0.00     0.076 C 
HETATM   15  C20 UNL     1      -0.274  -1.257  -0.338  1.00  0.00     0.129 C 
BRANCH  13  16
HETATM   16  N7  UNL     1       3.097   0.153   0.381  1.00  0.00    -0.381 N 
HETATM   17  C14 UNL     1       3.651   0.529   1.689  1.00  0.00     0.142 C 
HETATM   18  C15 UNL     1       5.066   0.013   1.830  1.00  0.00     0.145 C 
HETATM   19  N8  UNL     1       5.873   0.389   0.692  1.00  0.00    -0.356 N 
HETATM   20  C17 UNL     1       5.328   0.437  -0.640  1.00  0.00     0.145 C 
HETATM   21  C18 UNL     1       3.964  -0.210  -0.704  1.00  0.00     0.142 C 
BRANCH  19  22
HETATM   22  C16 UNL     1       7.240   0.723   0.872  1.00  0.00     0.350 C 
HETATM   23  O2  UNL     1       7.616   0.648   2.082  1.00  0.00    -0.284 OA
ENDBRANCH  19  22
ENDBRANCH  13  16
ENDBRANCH   8  10
BRANCH   7  24
HETATM   24  N3  UNL     1      -3.728  -0.465   0.258  1.00  0.00    -0.242 N 
HETATM   25  C6  UNL     1      -3.405  -1.584   1.027  1.00  0.00     0.115 A 
HETATM   26  C7  UNL     1      -3.847  -1.657   2.273  1.00  0.00     0.000 A 
HETATM   27  C8  UNL     1      -4.680  -0.627   2.945  1.00  0.00     0.113 A 
HETATM   28  C9  UNL     1      -4.940   0.497   2.009  1.00  0.00     0.180 A 
HETATM   29  N5  UNL     1      -4.517   0.586   0.788  1.00  0.00    -0.149 NA
BRANCH  28  30
HETATM   30  N4  UNL     1      -5.744   1.550   2.575  1.00  0.00    -0.080 NA
HETATM   31  O1  UNL     1      -6.964   1.599   2.247  1.00  0.00    -0.059 OA
ENDBRANCH  28  30
ENDBRANCH   7  24
TORSDOF 5
