REMARK  3 active torsions:
REMARK  status: ('A' for Active; 'I' for Inactive)
REMARK    1  A    between atoms: C2_2  and  N1_3 
REMARK    2  A    between atoms: N1_3  and  O1_4 
REMARK    3  A    between atoms: O1_4  and  C3_5 
ROOT
HETATM    1  C3  UNL     1       1.995   0.856   0.283  1.00  0.00     0.125 C 
HETATM    2  C4  UNL     1       2.438  -0.146   1.070  1.00  0.00     0.120 C 
HETATM    3  N2  UNL     1       2.756  -1.323   1.846  1.00  0.00    -0.397 N 
HETATM    4  C5  UNL     1       3.381  -2.525   1.307  1.00  0.00     0.120 C 
HETATM    5  C6  UNL     1       2.432  -3.369   0.445  1.00  0.00     0.039 C 
HETATM    6  C7  UNL     1       1.732  -2.428  -0.519  1.00  0.00     0.022 A 
HETATM    7  C8  UNL     1       2.895  -2.000  -1.089  1.00  0.00    -0.010 A 
HETATM    8  C9  UNL     1       2.034  -0.958  -1.098  1.00  0.00     0.082 A 
HETATM    9 CL1  UNL     1       3.111   0.161  -1.892  1.00  0.00    -0.112 Cl
HETATM   10  C10 UNL     1       0.760  -0.933  -0.632  1.00  0.00     0.063 A 
HETATM   11  C11 UNL     1      -0.273  -1.567  -0.056  1.00  0.00    -0.041 A 
HETATM   12  C12 UNL     1       0.503  -2.658   0.009  1.00  0.00    -0.005 A 
HETATM   13  C13 UNL     1      -1.665  -1.375   0.336  1.00  0.00     0.143 C 
HETATM   14  N3  UNL     1      -1.939  -1.249   1.714  1.00  0.00    -0.394 N 
HETATM   15  C14 UNL     1      -3.008  -0.447   2.142  1.00  0.00     0.241 C 
HETATM   16  N4  UNL     1      -3.857   0.139   1.164  1.00  0.00    -0.369 N 
HETATM   17  C15 UNL     1      -5.161   0.653   1.535  1.00  0.00     0.151 C 
HETATM   18  C16 UNL     1      -3.508   0.265  -0.221  1.00  0.00     0.035 C 
HETATM   19  C17 UNL     1      -4.209   0.753  -1.228  1.00  0.00    -0.001 C 
HETATM   20  C18 UNL     1      -5.486   1.366  -1.636  1.00  0.00     0.038 C 
HETATM   21  C19 UNL     1      -2.159  -0.219  -0.478  1.00  0.00    -0.007 C 
HETATM   22  C20 UNL     1      -1.680   0.576  -1.448  1.00  0.00     0.014 C 
HETATM   23  C21 UNL     1      -0.582   0.613  -2.463  1.00  0.00     0.298 C 
HETATM   24  N5  UNL     1       0.668   1.074  -1.834  1.00  0.00     0.099 N 
HETATM   25  C22 UNL     1       0.740   0.589  -0.511  1.00  0.00     0.297 C 
HETATM   26  H6  UNL     1       2.498  -1.298   2.879  1.00  0.00     0.158 HD
HETATM   27  H14 UNL     1      -1.726  -2.082   2.288  1.00  0.00     0.155 HD
HETATM   28  H27 UNL     1       0.645   2.116  -1.919  1.00  0.00     0.317 HD
ENDROOT
BRANCH   1  29
HETATM   29  O1  UNL     1       2.412   2.158  -0.015  1.00  0.00    -0.239 OA
BRANCH  29  30
HETATM   30  N1  UNL     1       3.384   2.794   0.711  1.00  0.00    -0.273 N 
HETATM   31  H4  UNL     1       3.443   2.607   1.754  1.00  0.00     0.193 HD
BRANCH  30  32
HETATM   32  C2  UNL     1       4.380   3.708   0.276  1.00  0.00     0.104 C 
HETATM   33  C1  UNL     1       5.700   3.632   0.157  1.00  0.00     0.032 C 
ENDBRANCH  30  32
ENDBRANCH  29  30
ENDBRANCH   1  29
TORSDOF 3
