REMARK  3 active torsions:
REMARK  status: ('A' for Active; 'I' for Inactive)
REMARK    1  A    between atoms: C2_2  and  N1_3 
REMARK       I    between atoms: N1_3  and  C3_4 
REMARK    2  A    between atoms: C3_4  and  C4_6 
REMARK    3  A    between atoms: C17_22  and  N4_23 
ROOT
HETATM    1  C4  UNL     1       1.643  -0.138   0.350  1.00  0.00     0.078 C 
HETATM    2  C5  UNL     1       1.248   1.023  -0.075  1.00  0.00     0.135 C 
HETATM    3  N2  UNL     1      -0.027   1.527  -0.644  1.00  0.00    -0.255 N 
HETATM    4  C6  UNL     1      -0.614   1.497  -2.021  1.00  0.00     0.167 C 
HETATM    5  C7  UNL     1      -1.102   0.241  -2.158  1.00  0.00     0.006 C 
HETATM    6  C8  UNL     1      -1.577  -1.189  -2.113  1.00  0.00     0.043 C 
HETATM    7  C9  UNL     1      -1.710  -1.762  -0.714  1.00  0.00    -0.029 C 
HETATM    8  C10 UNL     1      -1.597  -2.373   0.429  1.00  0.00     0.010 C 
HETATM    9  C11 UNL     1      -0.672  -3.234   1.069  1.00  0.00     0.012 C 
HETATM   10  C12 UNL     1       0.585  -3.612   0.659  1.00  0.00     0.060 C 
HETATM   11  N3  UNL     1       0.208  -2.686  -0.354  1.00  0.00    -0.261 NA
HETATM   12  C13 UNL     1       1.072  -1.538   0.185  1.00  0.00     0.192 A 
HETATM   13  O2  UNL     1       1.706  -2.146   1.144  1.00  0.00    -0.208 OA
HETATM   14  C14 UNL     1      -2.764  -0.924  -0.131  1.00  0.00     0.065 A 
HETATM   15  C15 UNL     1      -2.251   0.336   0.203  1.00  0.00     0.074 A 
HETATM   16  C16 UNL     1      -2.077   1.707   0.650  1.00  0.00     0.128 A 
HETATM   17  C17 UNL     1      -3.419   1.691   0.952  1.00  0.00     0.080 A 
HETATM   18  C18 UNL     1      -4.276   0.607   0.764  1.00  0.00     0.149 A 
HETATM   19  N5  UNL     1      -3.927  -0.607   0.251  1.00  0.00    -0.258 NA
HETATM   20  O3  UNL     1      -0.757   2.126   0.491  1.00  0.00    -0.233 OA
HETATM   21  H13 UNL     1       0.431  -1.741  -0.648  1.00  0.00     0.195 HD
ENDROOT
BRANCH   1  22
HETATM   22  C3  UNL     1       2.999  -0.141   0.840  1.00  0.00     0.257 C 
HETATM   23  N1  UNL     1       3.811   0.986   0.853  1.00  0.00    -0.337 N 
HETATM   24  H4  UNL     1       3.385   1.840   0.484  1.00  0.00     0.168 HD
HETATM   25  O1  UNL     1       3.734  -1.043   1.331  1.00  0.00    -0.267 OA
BRANCH  23  26
HETATM   26  C2  UNL     1       5.126   0.908   1.341  1.00  0.00     0.064 C 
HETATM   27  C1  UNL     1       5.836   2.019   1.328  1.00  0.00     0.049 C 
ENDBRANCH  23  26
ENDBRANCH   1  22
BRANCH  17  28
HETATM   28  N4  UNL     1      -3.485   3.036   1.441  1.00  0.00    -0.396 N 
HETATM   29  H15 UNL     1      -3.400   3.344   2.451  1.00  0.00     0.156 HD
HETATM   30  H16 UNL     1      -3.621   3.956   0.925  1.00  0.00     0.156 HD
ENDBRANCH  17  28
TORSDOF 3
