REMARK  4 active torsions:
REMARK  status: ('A' for Active; 'I' for Inactive)
REMARK    1  A    between atoms: N2_5  and  C4_6 
REMARK    2  A    between atoms: N3_11  and  C9_12 
REMARK    3  A    between atoms: C9_12  and  C10_13 
REMARK    4  A    between atoms: N5_19  and  C14_20 
ROOT
HETATM    1  C9  UNL     1      -0.730  -0.734   0.762  1.00  0.00     0.178 C 
ENDROOT
BRANCH   1   2
HETATM    2  N3  UNL     1       0.517  -1.286   0.362  1.00  0.00    -0.383 N 
HETATM    3  C4  UNL     1       1.226  -0.625  -0.668  1.00  0.00     0.188 C 
HETATM    4  C5  UNL     1       1.856  -1.451  -1.715  1.00  0.00     0.073 C 
HETATM    5  C6  UNL     1       2.062  -2.881  -1.367  1.00  0.00    -0.025 C 
HETATM    6  C7  UNL     1       1.571  -3.422  -0.264  1.00  0.00    -0.011 C 
HETATM    7  C8  UNL     1       0.793  -2.622   0.673  1.00  0.00     0.146 C 
BRANCH   3   8
HETATM    8  N2  UNL     1       2.085   0.352  -0.048  1.00  0.00    -0.328 N 
HETATM    9  C3  UNL     1       1.916   1.816  -0.121  1.00  0.00     0.158 C 
HETATM   10  C2  UNL     1       3.285   2.317  -0.543  1.00  0.00     0.292 C 
HETATM   11  N1  UNL     1       4.258   2.185   0.516  1.00  0.00     0.094 N 
HETATM   12  C1  UNL     1       5.587   1.879  -0.029  1.00  0.00     0.310 C 
HETATM   13  C20 UNL     1       3.947   1.108   1.428  1.00  0.00     0.374 C 
HETATM   14  C19 UNL     1       3.210   0.002   0.714  1.00  0.00     0.249 C 
HETATM   15  O3  UNL     1       3.615  -1.168   0.821  1.00  0.00    -0.271 OA
ENDBRANCH   3   8
ENDBRANCH   1   2
BRANCH   1  16
HETATM   16  C10 UNL     1      -1.917  -1.270   0.066  1.00  0.00     0.047 C 
HETATM   17  C11 UNL     1      -2.011  -2.194  -0.888  1.00  0.00     0.118 C 
HETATM   18  N4  UNL     1      -3.274  -2.596  -1.456  1.00  0.00    -0.334 N 
HETATM   19  C12 UNL     1      -4.499  -2.000  -1.002  1.00  0.00     0.239 C 
HETATM   20  H18 UNL     1      -3.179  -3.344  -2.207  1.00  0.00     0.168 HD
HETATM   21  O1  UNL     1      -5.405  -1.963  -1.872  1.00  0.00    -0.271 OA
HETATM   22  C13 UNL     1      -4.394  -1.556   0.432  1.00  0.00     0.234 C 
HETATM   23  N5  UNL     1      -3.185  -0.719   0.459  1.00  0.00    -0.320 N 
BRANCH  23  24
HETATM   24  C14 UNL     1      -3.340   0.653   0.886  1.00  0.00     0.145 A 
HETATM   25  C15 UNL     1      -2.997   1.299   1.974  1.00  0.00     0.056 A 
HETATM   26  C16 UNL     1      -3.297   2.718   2.118  1.00  0.00     0.002 A 
HETATM   27  C17 UNL     1      -3.918   3.324   1.127  1.00  0.00    -0.000 A 
HETATM   28  C18 UNL     1      -4.345   2.678  -0.139  1.00  0.00     0.204 A 
HETATM   29  O2  UNL     1      -4.003   1.313  -0.167  1.00  0.00    -0.332 OA
ENDBRANCH  23  24
ENDBRANCH   1  16
TORSDOF 4
