REMARK  5 active torsions:
REMARK  status: ('A' for Active; 'I' for Inactive)
REMARK    1  A    between atoms: N1_2  and  C2_3 
REMARK    2  A    between atoms: N1_2  and  C3_5 
REMARK    3  A    between atoms: C4_6  and  C5_7 
REMARK       I    between atoms: C5_7  and  N2_9 
REMARK    4  A    between atoms: N2_9  and  C6_10 
REMARK    5  A    between atoms: C11_15  and  N3_16 
ROOT
HETATM    1  C5  UNL     1      -1.018  -0.200   0.427  1.00  0.00     0.254 C 
HETATM    2  O2  UNL     1      -0.293   0.339   1.345  1.00  0.00    -0.268 OA
HETATM    3  N2  UNL     1      -0.174  -1.286   0.664  1.00  0.00    -0.321 N 
HETATM    4  H5  UNL     1      -0.596  -1.936  -0.011  1.00  0.00     0.169 HD
ENDROOT
BRANCH   3   5
HETATM    5  C6  UNL     1       0.900  -1.404   1.565  1.00  0.00     0.061 A 
HETATM    6  C7  UNL     1       0.689  -1.847   2.854  1.00  0.00     0.032 A 
HETATM    7  C8  UNL     1       1.760  -1.968   3.730  1.00  0.00     0.002 A 
HETATM    8  C9  UNL     1       3.044  -1.639   3.291  1.00  0.00     0.002 A 
HETATM    9  C10 UNL     1       3.192  -1.200   1.988  1.00  0.00     0.031 A 
HETATM   10  C11 UNL     1       2.152  -1.072   1.105  1.00  0.00     0.057 A 
BRANCH  10  11
HETATM   11  N3  UNL     1       2.492  -0.599  -0.193  1.00  0.00    -0.376 N 
HETATM   12  C12 UNL     1       2.157   0.582  -0.930  1.00  0.00     0.153 C 
HETATM   13  C13 UNL     1       3.365   1.271  -1.523  1.00  0.00     0.289 C 
HETATM   14  N4  UNL     1       4.298   0.389  -2.151  1.00  0.00     0.086 N 
HETATM   15  C14 UNL     1       4.627  -0.729  -1.314  1.00  0.00     0.289 C 
HETATM   16  H14 UNL     1       3.974   0.036  -3.067  1.00  0.00     0.316 HD
HETATM   17  C15 UNL     1       3.348  -1.460  -0.973  1.00  0.00     0.153 C 
ENDBRANCH  10  11
ENDBRANCH   3   5
BRANCH   1  18
HETATM   18  C4  UNL     1      -1.913   0.870   0.134  1.00  0.00     0.038 C 
HETATM   19  C3  UNL     1      -2.851   0.663  -0.821  1.00  0.00     0.048 C 
HETATM   20  C19 UNL     1      -3.835   1.723  -1.183  1.00  0.00     0.047 C 
HETATM   21  C18 UNL     1      -4.358   2.606  -0.301  1.00  0.00     0.085 C 
HETATM   22  N5  UNL     1      -4.148   2.770   1.090  1.00  0.00    -0.398 N 
HETATM   23  C17 UNL     1      -2.915   2.471   1.769  1.00  0.00     0.124 C 
HETATM   24  H23 UNL     1      -4.973   3.135   1.605  1.00  0.00     0.158 HD
HETATM   25  C16 UNL     1      -1.775   2.156   0.888  1.00  0.00     0.066 C 
BRANCH  19  26
HETATM   26  N1  UNL     1      -2.868  -0.601  -1.461  1.00  0.00    -0.340 N 
HETATM   27  C1  UNL     1      -2.505  -1.933  -1.822  1.00  0.00     0.158 C 
BRANCH  26  28
HETATM   28  C2  UNL     1      -3.948  -0.533  -2.333  1.00  0.00     0.476 C 
HETATM   29  O1  UNL     1      -4.928  -0.214  -2.993  1.00  0.00    -0.392 OA
ENDBRANCH  26  28
ENDBRANCH  19  26
ENDBRANCH   1  18
TORSDOF 5
