REMARK  7 active torsions:
REMARK  status: ('A' for Active; 'I' for Inactive)
REMARK    1  A    between atoms: O1_2  and  C2_3 
REMARK    2  A    between atoms: C7_8  and  N1_9 
REMARK    3  A    between atoms: N1_9  and  C8_10 
REMARK    4  A    between atoms: C8_10  and  C9_11 
REMARK    5  A    between atoms: C12_17  and  C13_18 
REMARK       I    between atoms: C13_18  and  N4_20 
REMARK    6  A    between atoms: N4_20  and  C14_21 
REMARK    7  A    between atoms: C17_24  and  N5_25 
ROOT
HETATM    1  C9  UNL     1       2.849   1.155  -0.139  1.00  0.00    -0.021 A 
HETATM    2  C10 UNL     1       3.142   2.066  -1.051  1.00  0.00     0.146 A 
HETATM    3  N2  UNL     1       2.946   3.414  -0.652  1.00  0.00    -0.159 NA
HETATM    4  N3  UNL     1       2.525   3.743   0.483  1.00  0.00    -0.111 NA
HETATM    5  C11 UNL     1       2.200   2.801   1.486  1.00  0.00     0.279 A 
HETATM    6  O2  UNL     1       1.795   3.261   2.566  1.00  0.00    -0.268 OA
HETATM    7  C12 UNL     1       2.334   1.342   1.264  1.00  0.00     0.206 A 
ENDROOT
BRANCH   7   8
HETATM    8  C13 UNL     1       0.963   0.733   1.321  1.00  0.00     0.239 C 
HETATM    9  O3  UNL     1       0.747  -0.214   2.116  1.00  0.00    -0.272 OA
HETATM   10  N4  UNL     1      -0.097   1.180   0.519  1.00  0.00    -0.326 N 
HETATM   11  H15 UNL     1       0.196   1.978  -0.109  1.00  0.00     0.169 HD
BRANCH  10  12
HETATM   12  C14 UNL     1      -1.439   0.733   0.434  1.00  0.00     0.034 A 
HETATM   13  C15 UNL     1      -2.298   1.348  -0.440  1.00  0.00     0.032 A 
HETATM   14  C16 UNL     1      -3.614   0.968  -0.581  1.00  0.00     0.031 A 
HETATM   15  C17 UNL     1      -4.139  -0.058   0.156  1.00  0.00     0.030 A 
HETATM   16  C23 UNL     1      -3.306  -0.701   1.046  1.00  0.00     0.031 A 
HETATM   17  C24 UNL     1      -1.993  -0.281   1.149  1.00  0.00     0.032 A 
BRANCH  15  18
HETATM   18  N5  UNL     1      -5.506  -0.389  -0.050  1.00  0.00    -0.378 N 
HETATM   19  C18 UNL     1      -6.281   0.345  -0.997  1.00  0.00     0.153 C 
HETATM   20  C19 UNL     1      -7.739  -0.063  -0.923  1.00  0.00     0.291 C 
HETATM   21  N6  UNL     1      -8.257  -0.071   0.420  1.00  0.00     0.087 N 
HETATM   22  C20 UNL     1      -9.563  -0.701   0.391  1.00  0.00     0.310 C 
HETATM   23  C21 UNL     1      -7.411  -0.759   1.351  1.00  0.00     0.291 C 
HETATM   24  C22 UNL     1      -6.244  -1.437   0.623  1.00  0.00     0.153 C 
ENDBRANCH  15  18
ENDBRANCH  10  12
ENDBRANCH   7   8
BRANCH   1  25
HETATM   25  C8  UNL     1       2.971  -0.292  -0.325  1.00  0.00     0.157 C 
BRANCH  25  26
HETATM   26  N1  UNL     1       3.889  -0.925   0.604  1.00  0.00    -0.384 N 
HETATM   27  H10 UNL     1       3.955  -1.566   1.405  1.00  0.00     0.160 HD
BRANCH  26  28
HETATM   28  C7  UNL     1       5.241  -0.508   0.311  1.00  0.00     0.058 A 
HETATM   29  C2  UNL     1       6.367  -1.132  -0.424  1.00  0.00     0.096 A 
HETATM   30  C3  UNL     1       7.380  -0.280  -0.375  1.00  0.00    -0.045 A 
HETATM   31  C4  UNL     1       8.732  -0.428  -0.956  1.00  0.00     0.046 C 
HETATM   32  C5  UNL     1       7.025   0.945   0.375  1.00  0.00     0.066 A 
HETATM   33  C6  UNL     1       5.619   0.678   0.766  1.00  0.00     0.010 A 
BRANCH  29  34
HETATM   34  O1  UNL     1       6.044  -2.379  -0.929  1.00  0.00    -0.353 OA
HETATM   35  C1  UNL     1       6.938  -3.108  -1.742  1.00  0.00     0.210 C 
ENDBRANCH  29  34
ENDBRANCH  26  28
ENDBRANCH  25  26
ENDBRANCH   1  25
TORSDOF 7
