REMARK  6 active torsions:
REMARK  status: ('A' for Active; 'I' for Inactive)
REMARK    1  A    between atoms: C7_9  and  N3_10 
REMARK       I    between atoms: N3_10  and  C8_11 
REMARK    2  A    between atoms: C8_11  and  C9_13 
REMARK    3  A    between atoms: C10_14  and  N4_15 
REMARK    4  A    between atoms: N4_15  and  C11_16 
REMARK    5  A    between atoms: C11_16  and  C12_17 
REMARK    6  A    between atoms: C12_17  and  C13_18 
ROOT
HETATM    1  C9  UNL     1      -1.542  -2.596  -0.754  1.00  0.00     0.054 A 
HETATM    2  C10 UNL     1      -2.765  -2.136  -1.001  1.00  0.00     0.042 A 
HETATM    3  C19 UNL     1      -3.853  -3.030  -1.368  1.00  0.00     0.046 A 
HETATM    4  C20 UNL     1      -3.702  -4.347  -1.479  1.00  0.00     0.085 A 
HETATM    5  N5  UNL     1      -2.392  -4.827  -1.214  1.00  0.00    -0.394 N 
HETATM    6  C21 UNL     1      -1.236  -4.050  -0.828  1.00  0.00     0.165 A 
HETATM    7  H24 UNL     1      -2.142  -5.863  -1.284  1.00  0.00     0.159 HD
ENDROOT
BRANCH   1   8
HETATM    8  C8  UNL     1      -0.464  -1.702  -0.404  1.00  0.00     0.256 C 
HETATM    9  N3  UNL     1       0.865  -2.027  -0.081  1.00  0.00    -0.323 N 
HETATM   10  H12 UNL     1       0.901  -3.087  -0.134  1.00  0.00     0.169 HD
HETATM   11  O1  UNL     1      -0.743  -0.456  -0.387  1.00  0.00    -0.268 OA
BRANCH   9  12
HETATM   12  C7  UNL     1       2.001  -1.245   0.237  1.00  0.00     0.034 C 
HETATM   13  C6  UNL     1       2.925  -2.019   1.141  1.00  0.00     0.027 C 
HETATM   14  C5  UNL     1       4.063  -1.710   1.850  1.00  0.00     0.005 C 
HETATM   15  C4  UNL     1       4.973  -0.622   2.163  1.00  0.00     0.300 C 
HETATM   16  N2  UNL     1       4.934   0.686   1.845  1.00  0.00     0.099 NA
HETATM   17  C3  UNL     1       6.123   1.495   1.841  1.00  0.00     0.293 C 
HETATM   18  C25 UNL     1       4.581   0.614   0.425  1.00  0.00     0.329 C 
HETATM   19  C2  UNL     1       6.030   2.628   0.841  1.00  0.00     0.152 C 
HETATM   20  N1  UNL     1       4.654   2.870   0.420  1.00  0.00    -0.385 N 
HETATM   21  C1  UNL     1       3.692   3.940   0.126  1.00  0.00     0.149 C 
HETATM   22  C24 UNL     1       3.693   1.860   0.177  1.00  0.00     0.035 C 
HETATM   23  C23 UNL     1       2.810   1.025  -0.077  1.00  0.00     0.029 C 
HETATM   24  C22 UNL     1       1.942  -0.057  -0.239  1.00  0.00     0.031 C 
ENDBRANCH   9  12
ENDBRANCH   1   8
BRANCH   2  25
HETATM   25  N4  UNL     1      -2.976  -0.709  -0.903  1.00  0.00    -0.389 N 
HETATM   26  H13 UNL     1      -2.727  -0.117  -1.724  1.00  0.00     0.159 HD
BRANCH  25  27
HETATM   27  C11 UNL     1      -3.522  -0.519   0.428  1.00  0.00     0.124 C 
BRANCH  27  28
HETATM   28  C12 UNL     1      -3.796   0.906   0.776  1.00  0.00     0.058 C 
BRANCH  28  29
HETATM   29  C13 UNL     1      -4.779   1.519  -0.140  1.00  0.00    -0.055 A 
HETATM   30  C14 UNL     1      -6.132   1.438   0.215  1.00  0.00     0.007 A 
HETATM   31  C15 UNL     1      -7.134   1.995  -0.584  1.00  0.00     0.002 A 
HETATM   32  C16 UNL     1      -6.818   2.648  -1.757  1.00  0.00     0.024 A 
HETATM   33  C17 UNL     1      -5.474   2.718  -2.092  1.00  0.00     0.034 A 
HETATM   34 CL1  UNL     1      -4.997   3.543  -3.586  1.00  0.00    -0.084 Cl
HETATM   35  C18 UNL     1      -4.466   2.177  -1.322  1.00  0.00     0.031 A 
ENDBRANCH  28  29
ENDBRANCH  27  28
ENDBRANCH  25  27
ENDBRANCH   2  25
TORSDOF 6
