REMARK  4 active torsions:
REMARK  status: ('A' for Active; 'I' for Inactive)
REMARK    1  A    between atoms: C2_2  and  C3_4 
REMARK    2  A    between atoms: C4_5  and  C5_6 
REMARK    3  A    between atoms: C5_6  and  N1_7 
REMARK    4  A    between atoms: N1_7  and  C6_8 
ROOT
HETATM    1  C6  UNL     1       0.136   0.001   1.109  1.00  0.00     0.154 A 
HETATM    2  N2  UNL     1      -0.135   0.176   2.397  1.00  0.00    -0.222 NA
HETATM    3  C7  UNL     1      -1.343   0.082   2.980  1.00  0.00     0.236 A 
HETATM    4  N3  UNL     1      -2.501  -0.222   2.277  1.00  0.00    -0.239 NA
HETATM    5  C8  UNL     1      -2.181  -0.395   0.957  1.00  0.00     0.098 A 
HETATM    6  C9  UNL     1      -0.881  -0.299   0.286  1.00  0.00     0.104 A 
HETATM    7  N4  UNL     1      -0.838  -0.466  -1.179  1.00  0.00    -0.384 N 
HETATM    8  C10 UNL     1      -1.996  -0.105  -2.015  1.00  0.00     0.129 C 
HETATM    9  C11 UNL     1      -3.317  -0.657  -1.794  1.00  0.00     0.030 C 
HETATM   10  C12 UNL     1      -3.521  -1.682  -0.739  1.00  0.00    -0.007 C 
HETATM   11  C13 UNL     1      -3.445  -0.702   0.203  1.00  0.00    -0.009 C 
HETATM   12  C14 UNL     1      -4.437   0.406   0.479  1.00  0.00     0.009 C 
HETATM   13  C15 UNL     1      -5.365   0.160  -0.489  1.00  0.00    -0.025 C 
HETATM   14  C16 UNL     1      -4.533   0.238  -1.800  1.00  0.00     0.037 C 
HETATM   15  H9  UNL     1       0.123  -0.840  -1.303  1.00  0.00     0.159 HD
ENDROOT
BRANCH   1  16
HETATM   16  N1  UNL     1       1.318   0.077   0.396  1.00  0.00    -0.362 N 
HETATM   17  H7  UNL     1       1.646  -0.020  -0.562  1.00  0.00     0.162 HD
BRANCH  16  18
HETATM   18  C5  UNL     1       2.401   0.394   1.285  1.00  0.00     0.215 C 
BRANCH  18  19
HETATM   19  C4  UNL     1       3.708   0.496   0.645  1.00  0.00    -0.086 C 
HETATM   20  C3  UNL     1       4.773   0.576   0.100  1.00  0.00    -0.089 C 
BRANCH  20  21
HETATM   21  C2  UNL     1       6.074   0.689  -0.591  1.00  0.00     0.133 C 
HETATM   22  C1  UNL     1       7.153  -0.098   0.128  1.00  0.00     0.035 C 
HETATM   23 BR1  UNL     1       6.543   2.559  -0.741  1.00  0.00    -0.078 Br
ENDBRANCH  20  21
ENDBRANCH  18  19
ENDBRANCH  16  18
ENDBRANCH   1  16
TORSDOF 4
