REMARK  5 active torsions:
REMARK  status: ('A' for Active; 'I' for Inactive)
REMARK    1  A    between atoms: C7_8  and  C8_9 
REMARK    2  A    between atoms: C8_9  and  B1_11 
REMARK    3  A    between atoms: B1_11  and  C9_12 
REMARK    4  A    between atoms: C12_15  and  N2_16 
REMARK    5  A    between atoms: C19_24  and  N4_25 
ROOT
HETATM    1  C1  UNL     1      -6.561   0.606   0.178  1.00  0.00     0.076 C 
HETATM    2  C2  UNL     1      -5.436   0.143  -0.696  1.00  0.00     0.046 C 
HETATM    3  C3  UNL     1      -4.848  -0.959  -1.073  1.00  0.00     0.033 C 
HETATM    4  C4  UNL     1      -4.092  -2.078  -1.585  1.00  0.00     0.019 C 
HETATM    5  C5  UNL     1      -3.102  -1.825  -2.425  1.00  0.00     0.090 C 
HETATM    6  N1  UNL     1      -2.565  -0.643  -2.987  1.00  0.00    -0.352 N 
HETATM    7  C6  UNL     1      -2.814   0.619  -2.421  1.00  0.00     0.119 C 
HETATM    8  C7  UNL     1      -2.680   0.917  -1.140  1.00  0.00     0.088 C 
HETATM    9  C19 UNL     1      -3.728   1.903  -0.781  1.00  0.00     0.315 C 
HETATM   10  C20 UNL     1      -3.444   3.097  -1.653  1.00  0.00     0.066 C 
HETATM   11  C21 UNL     1      -3.599   2.897  -2.970  1.00  0.00     0.091 C 
HETATM   12  N5  UNL     1      -3.270   1.570  -3.410  1.00  0.00    -0.352 N 
HETATM   13  O2  UNL     1      -4.984   1.381  -1.179  1.00  0.00    -0.308 OA
HETATM   14  H7  UNL     1      -1.974  -0.685  -3.839  1.00  0.00     0.166 HD
HETATM   15  H26 UNL     1      -3.375   1.357  -4.427  1.00  0.00     0.166 HD
ENDROOT
BRANCH   8  16
HETATM   16  C8  UNL     1      -1.694   0.418  -0.198  1.00  0.00     0.116 C 
HETATM   17  O1  UNL     1      -1.647   0.758   1.011  1.00  0.00    -0.306 OA
BRANCH  16  18
HETATM   18  B1  UNL     1      -0.584  -0.596  -0.597  1.00  0.00     0.283 B 
HETATM   19  H8  UNL     1      -0.482  -0.837  -1.771  1.00  0.00    -0.012 HD
BRANCH  18  20
HETATM   20  C9  UNL     1       0.811  -0.607   0.145  1.00  0.00    -0.092 A 
HETATM   21  C10 UNL     1       1.914  -0.054  -0.469  1.00  0.00    -0.003 A 
HETATM   22  C11 UNL     1       3.205   0.012   0.058  1.00  0.00     0.029 A 
HETATM   23  C12 UNL     1       3.356  -0.542   1.325  1.00  0.00     0.030 A 
HETATM   24  C17 UNL     1       2.275  -1.104   1.971  1.00  0.00     0.029 A 
HETATM   25  C18 UNL     1       1.001  -1.146   1.400  1.00  0.00    -0.003 A 
BRANCH  23  26
HETATM   26  N2  UNL     1       4.643  -0.488   1.875  1.00  0.00    -0.378 N 
HETATM   27  C13 UNL     1       5.730   0.105   1.115  1.00  0.00     0.153 C 
HETATM   28  C14 UNL     1       7.050  -0.110   1.819  1.00  0.00     0.289 C 
HETATM   29  N3  UNL     1       7.254  -1.487   2.204  1.00  0.00     0.086 N 
HETATM   30  C15 UNL     1       6.126  -2.023   2.940  1.00  0.00     0.289 C 
HETATM   31  H15 UNL     1       8.079  -1.514   2.843  1.00  0.00     0.316 HD
HETATM   32  C16 UNL     1       5.082  -0.962   3.172  1.00  0.00     0.153 C 
ENDBRANCH  23  26
ENDBRANCH  18  20
ENDBRANCH  16  18
ENDBRANCH   8  16
BRANCH   9  33
HETATM   33  N4  UNL     1      -3.739   2.255   0.604  1.00  0.00     0.123 N 
HETATM   34  H22 UNL     1      -3.848   1.442   1.217  1.00  0.00     0.317 HD
HETATM   35  H23 UNL     1      -4.361   3.050   0.829  1.00  0.00     0.317 HD
ENDBRANCH   9  33
TORSDOF 5
