REMARK  2 active torsions:
REMARK  status: ('A' for Active; 'I' for Inactive)
REMARK    1  A    between atoms: C2_2  and  C3_3 
REMARK    2  A    between atoms: N6_24  and  C16_25 
ROOT
HETATM    1  C3  UNL     1      -1.972  -0.537  -0.406  1.00  0.00     0.170 C 
HETATM    2  B1  UNL     1      -1.011  -1.425  -1.245  1.00  0.00     0.178 B 
HETATM    3  C4  UNL     1      -1.051  -3.027  -0.994  1.00  0.00    -0.061 C 
HETATM    4  O1  UNL     1      -0.386  -1.083  -2.567  1.00  0.00     0.000 OA
HETATM    5  C5  UNL     1       0.884  -0.624  -2.811  1.00  0.00     0.121 A 
HETATM    6  O2  UNL     1       0.212  -0.967  -1.873  1.00  0.00     0.000 OA
HETATM    7  N1  UNL     1       2.244  -0.158  -2.816  1.00  0.00    -0.378 N 
HETATM    8  C6  UNL     1       3.196   0.006  -1.847  1.00  0.00     0.005 A 
HETATM    9  C7  UNL     1       4.261   0.266  -1.135  1.00  0.00     0.058 A 
HETATM   10  C8  UNL     1       3.692   1.424  -0.466  1.00  0.00     0.080 C 
HETATM   11  N2  UNL     1       2.199   1.301  -0.407  1.00  0.00    -0.355 N 
HETATM   12  C9  UNL     1       1.491   0.774   0.795  1.00  0.00     0.142 C 
HETATM   13  N3  UNL     1       1.769   1.509   1.749  1.00  0.00    -0.227 NA
HETATM   14  C10 UNL     1       0.696   2.019   2.563  1.00  0.00     0.231 C 
HETATM   15  N4  UNL     1      -0.414   1.580   2.092  1.00  0.00    -0.244 NA
HETATM   16  C11 UNL     1      -0.683   0.233   1.629  1.00  0.00     0.385 C 
HETATM   17  C12 UNL     1       0.619  -0.318   1.260  1.00  0.00     0.343 C 
HETATM   18  N5  UNL     1       1.370  -1.068   2.293  1.00  0.00     0.099 N 
HETATM   19  C13 UNL     1       2.238  -1.962   1.443  1.00  0.00     0.276 C 
HETATM   20  C14 UNL     1       3.192  -1.045   0.770  1.00  0.00     0.031 C 
HETATM   21  C15 UNL     1       3.071  -0.618  -0.502  1.00  0.00     0.059 A 
HETATM   22  N6  UNL     1      -1.608   0.392   0.526  1.00  0.00     0.110 N 
HETATM   23  H10 UNL     1       2.662   0.147  -3.701  1.00  0.00     0.160 HD
HETATM   24  H12 UNL     1       1.537   1.584  -1.201  1.00  0.00     0.166 HD
HETATM   25  H16 UNL     1       1.965  -0.451   2.855  1.00  0.00     0.317 HD
ENDROOT
BRANCH   1  26
HETATM   26  C2  UNL     1      -2.868   0.165  -1.459  1.00  0.00     0.020 C 
HETATM   27  C1  UNL     1      -2.103   1.033  -2.400  1.00  0.00     0.006 C 
ENDBRANCH   1  26
BRANCH  22  28
HETATM   28  C16 UNL     1      -2.847   0.831   1.238  1.00  0.00     0.270 C 
HETATM   29  C17 UNL     1      -2.751   2.221   1.763  1.00  0.00     0.037 C 
ENDBRANCH  22  28
TORSDOF 2
