REMARK  7 active torsions:
REMARK  status: ('A' for Active; 'I' for Inactive)
REMARK    1  A    between atoms: C3_3  and  C4_4 
REMARK    2  A    between atoms: C8_8  and  C9_9 
REMARK    3  A    between atoms: C9_9  and  O1_10 
REMARK    4  A    between atoms: C18_22  and  O3_23 
REMARK    5  A    between atoms: O3_23  and  C19_24 
REMARK    6  A    between atoms: C19_24  and  C20_25 
REMARK    7  A    between atoms: C20_25  and  O4_26 
ROOT
HETATM    1  C1  UNL     1      -3.736  -0.857   4.404  1.00  0.00     0.012 C 
HETATM    2  C2  UNL     1      -2.730  -0.439   3.873  1.00  0.00    -0.114 C 
HETATM    3  C3  UNL     1      -1.481   0.054   3.226  1.00  0.00     0.122 C 
ENDROOT
BRANCH   3   4
HETATM    4  C4  UNL     1      -0.953  -0.997   2.363  1.00  0.00     0.014 C 
HETATM    5  C5  UNL     1      -0.608  -1.337   1.116  1.00  0.00     0.023 C 
HETATM    6  C6  UNL     1      -0.935  -0.051   0.412  1.00  0.00     0.010 C 
HETATM    7  N3  UNL     1      -0.041  -2.683   0.965  1.00  0.00    -0.359 N 
HETATM    8  C7  UNL     1      -0.950   0.542  -0.800  1.00  0.00     0.052 C 
HETATM    9  C8  UNL     1      -0.834   0.853  -2.308  1.00  0.00     0.155 C 
HETATM   10  O2  UNL     1       0.460   0.217  -2.697  1.00  0.00    -0.363 OA
HETATM   11  C11 UNL     1       0.505  -1.091  -2.069  1.00  0.00     0.134 A 
HETATM   12  C12 UNL     1      -0.254  -2.072  -2.588  1.00  0.00     0.086 A 
HETATM   13  C18 UNL     1       1.372  -0.658  -1.108  1.00  0.00     0.080 A 
HETATM   14  C16 UNL     1       0.542  -2.330  -1.321  1.00  0.00     0.089 A 
HETATM   15  C13 UNL     1      -0.217  -3.287  -1.835  1.00  0.00     0.128 A 
HETATM   16  N1  UNL     1      -0.990  -4.343  -2.068  1.00  0.00    -0.266 NA
HETATM   17  C15 UNL     1       0.014  -3.287  -0.403  1.00  0.00     0.172 A 
HETATM   18  C14 UNL     1      -1.343  -5.120  -0.984  1.00  0.00     0.225 A 
HETATM   19  N2  UNL     1      -0.695  -4.398  -0.018  1.00  0.00    -0.247 NA
HETATM   20  C17 UNL     1       1.391  -1.828  -0.417  1.00  0.00     0.028 A 
HETATM   21  H23 UNL     1       0.282  -3.059   1.874  1.00  0.00     0.162 HD
BRANCH   9  22
HETATM   22  C9  UNL     1      -0.742   2.299  -2.400  1.00  0.00     0.199 C 
BRANCH  22  23
HETATM   23  O1  UNL     1      -0.421   2.796  -3.632  1.00  0.00    -0.393 OA
HETATM   24  C10 UNL     1      -0.383   4.204  -3.496  1.00  0.00     0.201 C 
ENDBRANCH  22  23
ENDBRANCH   9  22
BRANCH  13  25
HETATM   25  O3  UNL     1       2.041   0.356  -0.752  1.00  0.00    -0.350 OA
BRANCH  25  26
HETATM   26  C19 UNL     1       2.732   1.392  -0.377  1.00  0.00     0.201 C 
BRANCH  26  27
HETATM   27  C20 UNL     1       2.292   1.889   1.015  1.00  0.00     0.193 C 
BRANCH  27  28
HETATM   28  O4  UNL     1       2.491   0.870   1.917  1.00  0.00    -0.394 OA
HETATM   29  C21 UNL     1       2.119   1.229   3.216  1.00  0.00     0.201 C 
ENDBRANCH  27  28
ENDBRANCH  26  27
ENDBRANCH  25  26
ENDBRANCH  13  25
ENDBRANCH   3   4
TORSDOF 7
