REMARK  5 active torsions:
REMARK  status: ('A' for Active; 'I' for Inactive)
REMARK    1  A    between atoms: C8_10  and  N2_11 
REMARK    2  A    between atoms: N2_11  and  C9_12 
REMARK    3  A    between atoms: C9_12  and  C10_13 
REMARK    4  A    between atoms: C11_14  and  N3_15 
REMARK    5  A    between atoms: N3_15  and  C12_16 
ROOT
HETATM    1  N2  UNL     1      -0.470   0.263  -0.348  1.00  0.00    -0.386 N 
HETATM    2  H10 UNL     1      -1.122   1.028  -0.629  1.00  0.00     0.160 HD
ENDROOT
BRANCH   1   3
HETATM    3  C8  UNL     1       0.871   0.717  -0.131  1.00  0.00     0.029 A 
HETATM    4  C7  UNL     1       1.247   2.041  -0.278  1.00  0.00     0.031 A 
HETATM    5  C6  UNL     1       2.511   2.553  -0.089  1.00  0.00     0.032 A 
HETATM    6  C5  UNL     1       3.497   1.689   0.277  1.00  0.00     0.042 A 
HETATM    7  N1  UNL     1       4.752   2.335   0.441  1.00  0.00    -0.389 N 
HETATM    8  C20 UNL     1       3.223   0.349   0.450  1.00  0.00     0.038 A 
HETATM    9  C4  UNL     1       6.038   1.729   0.700  1.00  0.00     0.120 C 
HETATM   10  H7  UNL     1       4.734   3.359   0.364  1.00  0.00     0.159 HD
HETATM   11  C3  UNL     1       6.098   0.411  -0.033  1.00  0.00     0.027 C 
HETATM   12  C2  UNL     1       5.572  -0.699   0.834  1.00  0.00     0.085 C 
HETATM   13  C1  UNL     1       4.092  -0.758   0.833  1.00  0.00     0.162 C 
HETATM   14  O1  UNL     1       3.557  -1.835   1.186  1.00  0.00    -0.292 OA
HETATM   15  C19 UNL     1       1.935  -0.088   0.242  1.00  0.00     0.046 A 
ENDBRANCH   1   3
BRANCH   1  16
HETATM   16  C9  UNL     1      -0.628  -1.158  -0.133  1.00  0.00     0.158 C 
BRANCH  16  17
HETATM   17  C10 UNL     1      -1.989  -1.674  -0.335  1.00  0.00    -0.018 A 
HETATM   18  C11 UNL     1      -3.137  -1.105  -0.665  1.00  0.00     0.036 A 
HETATM   19  C16 UNL     1      -4.333  -1.930  -0.792  1.00  0.00     0.046 A 
HETATM   20  C17 UNL     1      -4.389  -3.227  -0.604  1.00  0.00     0.085 A 
HETATM   21  N5  UNL     1      -3.168  -3.823  -0.254  1.00  0.00    -0.395 N 
HETATM   22  C18 UNL     1      -1.897  -3.156  -0.079  1.00  0.00     0.157 A 
HETATM   23  H20 UNL     1      -3.078  -4.852  -0.083  1.00  0.00     0.159 HD
BRANCH  18  24
HETATM   24  N3  UNL     1      -3.340   0.275  -0.926  1.00  0.00    -0.364 N 
HETATM   25  H13 UNL     1      -2.979   0.247  -1.922  1.00  0.00     0.162 HD
BRANCH  24  26
HETATM   26  C12 UNL     1      -3.894   1.221   0.060  1.00  0.00     0.229 A 
HETATM   27  C13 UNL     1      -5.237   0.699   0.416  1.00  0.00     0.022 A 
HETATM   28  C14 UNL     1      -6.161   1.578   0.047  1.00  0.00     0.019 A 
HETATM   29  C15 UNL     1      -5.455   2.712  -0.565  1.00  0.00     0.113 A 
HETATM   30  N4  UNL     1      -4.187   2.483  -0.543  1.00  0.00    -0.272 NA
ENDBRANCH  24  26
ENDBRANCH  18  24
ENDBRANCH  16  17
ENDBRANCH   1  16
TORSDOF 5
