REMARK  4 active torsions:
REMARK  status: ('A' for Active; 'I' for Inactive)
REMARK    1  A    between atoms: C2_2  and  C3_3 
REMARK    2  A    between atoms: C3_3  and  C4_4 
REMARK    3  A    between atoms: C3_3  and  C18_25 
REMARK    4  A    between atoms: C9_10  and  C10_11 
REMARK       I    between atoms: C10_11  and  N2_12 
ROOT
HETATM    1  C4  UNL     1       1.401  -0.216   1.154  1.00  0.00     0.039 C 
HETATM    2  C5  UNL     1       0.954   1.154   1.065  1.00  0.00     0.174 C 
HETATM    3  N1  UNL     1      -0.314   1.662   0.994  1.00  0.00    -0.411 N 
HETATM    4  C6  UNL     1      -1.082   1.552   2.196  1.00  0.00     0.143 C 
HETATM    5  C7  UNL     1      -0.990   2.225  -0.055  1.00  0.00     0.119 C 
HETATM    6  C8  UNL     1      -1.668   1.394  -1.123  1.00  0.00     0.062 C 
HETATM    7  C9  UNL     1      -2.945   0.789  -0.502  1.00  0.00     0.226 C 
HETATM    8  O2  UNL     1      -3.364  -0.295  -1.259  1.00  0.00    -0.289 OA
HETATM    9  C11 UNL     1      -3.004  -1.637  -0.973  1.00  0.00     0.362 C 
HETATM   10  O3  UNL     1      -2.288  -1.284  -0.070  1.00  0.00    -0.238 OA
HETATM   11  N3  UNL     1      -2.648  -3.047  -0.700  1.00  0.00    -0.323 N 
HETATM   12  C12 UNL     1      -1.623  -3.161   0.392  1.00  0.00     0.067 A 
HETATM   13  C13 UNL     1      -2.109  -2.850   1.608  1.00  0.00     0.007 A 
HETATM   14  C14 UNL     1      -0.954  -2.286   2.110  1.00  0.00     0.024 A 
HETATM   15  C15 UNL     1       0.193  -2.207   1.349  1.00  0.00     0.016 A 
HETATM   16  C16 UNL     1      -0.014  -2.753   0.114  1.00  0.00     0.075 A 
HETATM   17  C17 UNL     1      -0.885  -3.366  -0.745  1.00  0.00     0.039 A 
HETATM   18  N4  UNL     1       1.348  -1.540   1.760  1.00  0.00    -0.360 N 
HETATM   19  H16 UNL     1      -3.372  -3.088  -1.482  1.00  0.00     0.166 HD
HETATM   20  H21 UNL     1       2.097  -1.875   2.403  1.00  0.00     0.165 HD
ENDROOT
BRANCH   1  21
HETATM   21  C3  UNL     1       2.363  -0.516   0.234  1.00  0.00     0.016 C 
BRANCH  21  22
HETATM   22  C2  UNL     1       3.206  -1.617  -0.219  1.00  0.00     0.005 C 
HETATM   23  C1  UNL     1       4.121  -2.038  -1.046  1.00  0.00     0.012 C 
ENDBRANCH  21  22
BRANCH  21  24
HETATM   24  C18 UNL     1       3.008   0.457  -0.665  1.00  0.00     0.071 A 
HETATM   25  C19 UNL     1       3.159   0.548  -2.057  1.00  0.00     0.052 A 
HETATM   26  C20 UNL     1       3.880   1.565  -2.668  1.00  0.00     0.120 A 
HETATM   27  N5  UNL     1       4.451   2.491  -1.893  1.00  0.00    -0.254 NA
HETATM   28  C21 UNL     1       4.326   2.432  -0.570  1.00  0.00     0.233 A 
HETATM   29  N6  UNL     1       3.637   1.462   0.027  1.00  0.00    -0.241 NA
ENDBRANCH  21  24
ENDBRANCH   1  21
BRANCH   7  30
HETATM   30  C10 UNL     1      -3.969   1.743  -0.157  1.00  0.00     0.245 C 
HETATM   31  N2  UNL     1      -4.146   2.943   0.549  1.00  0.00    -0.368 N 
HETATM   32  H14 UNL     1      -4.176   3.803  -0.019  1.00  0.00     0.159 HD
HETATM   33  H15 UNL     1      -4.249   3.041   1.582  1.00  0.00     0.159 HD
HETATM   34  O1  UNL     1      -5.117   1.463  -0.612  1.00  0.00    -0.271 OA
ENDBRANCH   7  30
TORSDOF 4
