REMARK  6 active torsions:
REMARK  status: ('A' for Active; 'I' for Inactive)
REMARK    1  A    between atoms: N2_5  and  C4_6 
REMARK    2  A    between atoms: C7_9  and  N3_10 
REMARK       I    between atoms: N3_10  and  C8_11 
REMARK    3  A    between atoms: C8_11  and  C9_13 
REMARK    4  A    between atoms: C10_14  and  C11_15 
REMARK    5  A    between atoms: C13_20  and  O2_21 
REMARK    6  A    between atoms: C15_23  and  N6_24 
ROOT
HETATM    1  N3  UNL     1       1.371   0.872   0.723  1.00  0.00    -0.323 N 
HETATM    2  C8  UNL     1       2.495   0.054   0.322  1.00  0.00     0.253 C 
HETATM    3  O1  UNL     1       2.012  -1.036   0.012  1.00  0.00    -0.268 OA
HETATM    4  H10 UNL     1       1.387   1.876   1.075  1.00  0.00     0.169 HD
ENDROOT
BRANCH   2   5
HETATM    5  C9  UNL     1       3.792   0.705   0.393  1.00  0.00     0.028 A 
HETATM    6  C10 UNL     1       4.888   0.051   0.057  1.00  0.00     0.009 A 
HETATM    7  C14 UNL     1       6.011   0.950   0.235  1.00  0.00     0.039 A 
HETATM    8  C15 UNL     1       5.567   2.121   0.672  1.00  0.00     0.008 A 
HETATM    9  C16 UNL     1       4.093   2.092   0.807  1.00  0.00     0.101 A 
BRANCH   6  10
HETATM   10  C11 UNL     1       5.160  -1.318  -0.420  1.00  0.00     0.103 A 
HETATM   11  N4  UNL     1       4.427  -2.147   0.347  1.00  0.00    -0.226 NA
HETATM   12  P1  UNL     1       4.567  -3.822  -0.010  1.00  0.00     0.208 P 
HETATM   13  N5  UNL     1       5.650  -4.076  -1.316  1.00  0.00    -0.239 NA
HETATM   14  C12 UNL     1       6.194  -2.959  -1.830  1.00  0.00     0.157 A 
HETATM   15  C13 UNL     1       6.011  -1.642  -1.459  1.00  0.00     0.112 A 
BRANCH  15  16
HETATM   16  O2  UNL     1       6.619  -0.549  -2.051  1.00  0.00    -0.357 OA
HETATM   17  H12 UNL     1       7.624  -0.454  -2.079  1.00  0.00     0.218 HD
ENDBRANCH  15  16
ENDBRANCH   6  10
BRANCH   8  18
HETATM   18  N6  UNL     1       6.159   3.378   1.028  1.00  0.00    -0.402 N 
HETATM   19  H14 UNL     1       6.525   3.620   1.979  1.00  0.00     0.156 HD
HETATM   20  H15 UNL     1       6.310   4.219   0.406  1.00  0.00     0.156 HD
ENDBRANCH   8  18
ENDBRANCH   2   5
BRANCH   1  21
HETATM   21  C7  UNL     1       0.037   0.373   0.687  1.00  0.00     0.035 A 
HETATM   22  C6  UNL     1      -0.773  -0.297   1.555  1.00  0.00     0.032 A 
HETATM   23  C5  UNL     1      -2.057  -0.626   1.180  1.00  0.00     0.031 A 
HETATM   24  C4  UNL     1      -2.572  -0.307  -0.045  1.00  0.00     0.030 A 
HETATM   25  C18 UNL     1      -1.783   0.370  -0.948  1.00  0.00     0.031 A 
HETATM   26  C17 UNL     1      -0.488   0.704  -0.576  1.00  0.00     0.032 A 
BRANCH  24  27
HETATM   27  N2  UNL     1      -3.906  -0.688  -0.347  1.00  0.00    -0.378 N 
HETATM   28  C3  UNL     1      -4.695  -1.580   0.484  1.00  0.00     0.142 C 
HETATM   29  C2  UNL     1      -5.734  -0.684   1.124  1.00  0.00     0.136 C 
HETATM   30  N1  UNL     1      -6.376   0.197   0.251  1.00  0.00    -0.414 N 
HETATM   31  C1  UNL     1      -7.791   0.349   0.396  1.00  0.00     0.143 C 
HETATM   32  C20 UNL     1      -5.802   0.609  -0.949  1.00  0.00     0.136 C 
HETATM   33  C19 UNL     1      -4.677  -0.243  -1.490  1.00  0.00     0.142 C 
ENDBRANCH  24  27
ENDBRANCH   1  21
TORSDOF 6
