REMARK  6 active torsions:
REMARK  status: ('A' for Active; 'I' for Inactive)
REMARK    1  A    between atoms: N2_5  and  C4_6 
REMARK    2  A    between atoms: C4_6  and  C5_7 
REMARK    3  A    between atoms: C6_8  and  C7_9 
REMARK    4  A    between atoms: C8_10  and  N3_11 
REMARK    5  A    between atoms: N3_11  and  C9_12 
REMARK    6  A    between atoms: C9_12  and  C10_13 
ROOT
HETATM    1  C7  UNL     1       0.731  -0.355   0.505  1.00  0.00     0.061 C 
HETATM    2  C8  UNL     1       0.196   0.155   1.570  1.00  0.00     0.061 C 
ENDROOT
BRANCH   1   3
HETATM    3  C6  UNL     1       1.663  -1.471   0.295  1.00  0.00    -0.012 C 
HETATM    4  C5  UNL     1       1.963  -1.609  -1.052  1.00  0.00     0.010 C 
BRANCH   4   5
HETATM    5  C4  UNL     1       1.219  -0.555  -1.848  1.00  0.00     0.131 C 
BRANCH   5   6
HETATM    6  N2  UNL     1       0.392  -1.128  -2.873  1.00  0.00    -0.349 N 
HETATM    7  C3  UNL     1       1.140  -1.203  -4.129  1.00  0.00     0.156 C 
HETATM    8  C2  UNL     1       0.146  -1.278  -5.249  1.00  0.00     0.292 C 
HETATM    9  N1  UNL     1      -0.641  -2.501  -5.181  1.00  0.00     0.094 N 
HETATM   10  C1  UNL     1       0.217  -3.655  -5.035  1.00  0.00     0.310 C 
HETATM   11  C16 UNL     1      -1.547  -2.437  -4.031  1.00  0.00     0.374 C 
HETATM   12  C15 UNL     1      -0.953  -1.622  -2.963  1.00  0.00     0.248 C 
HETATM   13  O1  UNL     1      -1.536  -1.194  -1.891  1.00  0.00    -0.271 OA
ENDBRANCH   5   6
ENDBRANCH   4   5
ENDBRANCH   1   3
BRANCH   2  14
HETATM   14  N3  UNL     1      -0.004   0.209   2.937  1.00  0.00    -0.398 N 
HETATM   15  H14 UNL     1      -0.680  -0.614   3.029  1.00  0.00     0.158 HD
BRANCH  14  16
HETATM   16  C9  UNL     1       0.296   0.870   4.158  1.00  0.00     0.154 C 
BRANCH  16  17
HETATM   17  C10 UNL     1      -0.266   2.189   4.405  1.00  0.00    -0.045 A 
HETATM   18  C11 UNL     1      -1.035   2.367   5.484  1.00  0.00     0.007 A 
HETATM   19  C12 UNL     1      -1.834   3.157   6.341  1.00  0.00     0.017 A 
HETATM   20  C13 UNL     1      -1.816   4.432   5.761  1.00  0.00     0.083 A 
HETATM   21  N4  UNL     1      -1.026   4.454   4.588  1.00  0.00    -0.395 N 
HETATM   22  C14 UNL     1      -0.288   3.539   3.783  1.00  0.00     0.155 A 
HETATM   23  H20 UNL     1      -0.991   5.463   4.236  1.00  0.00     0.159 HD
ENDBRANCH  16  17
ENDBRANCH  14  16
ENDBRANCH   2  14
TORSDOF 6
