REMARK  10 active torsions:
REMARK  status: ('A' for Active; 'I' for Inactive)
REMARK    1  A    between atoms: C7_7  and  N1_8 
REMARK    2  A    between atoms: N1_8  and  C8_9 
REMARK    3  A    between atoms: C12_14  and  O1_15 
REMARK    4  A    between atoms: O1_15  and  C13_16 
REMARK    5  A    between atoms: C13_16  and  C14_17 
REMARK    6  A    between atoms: C14_17  and  O2_18 
REMARK    7  A    between atoms: C16_20  and  O3_21 
REMARK    8  A    between atoms: O3_21  and  C17_22 
REMARK    9  A    between atoms: C17_22  and  C18_23 
REMARK   10  A    between atoms: C18_23  and  O4_24 
ROOT
HETATM    1  C1  UNL     1      -8.458   1.675  -0.598  1.00  0.00     0.018 C 
HETATM    2  C2  UNL     1      -7.561   0.884  -0.444  1.00  0.00    -0.078 C 
HETATM    3  C3  UNL     1      -6.498  -0.067  -0.278  1.00  0.00     0.019 A 
HETATM    4  C4  UNL     1      -6.789  -1.388  -0.552  1.00  0.00     0.021 A 
HETATM    5  C5  UNL     1      -5.776  -2.308  -0.396  1.00  0.00     0.004 A 
HETATM    6  C6  UNL     1      -4.534  -1.893   0.018  1.00  0.00     0.029 A 
HETATM    7  C7  UNL     1      -4.195  -0.609   0.300  1.00  0.00     0.035 A 
HETATM    8  C22 UNL     1      -5.235   0.302   0.135  1.00  0.00     0.050 A 
ENDROOT
BRANCH   7   9
HETATM    9  N1  UNL     1      -2.933  -0.132   0.732  1.00  0.00    -0.341 N 
HETATM   10  H5  UNL     1      -2.791   0.889   0.900  1.00  0.00     0.167 HD
BRANCH   9  11
HETATM   11  C8  UNL     1      -1.814  -0.977   0.955  1.00  0.00     0.134 A 
HETATM   12  N2  UNL     1      -1.892  -2.183   1.408  1.00  0.00    -0.267 NA
HETATM   13  C9  UNL     1      -0.575  -2.787   1.526  1.00  0.00     0.190 A 
HETATM   14  C10 UNL     1       0.315  -1.696   1.052  1.00  0.00    -0.021 A 
HETATM   15  C11 UNL     1       1.667  -1.627   0.921  1.00  0.00     0.049 A 
HETATM   16  C21 UNL     1      -0.426  -0.587   0.701  1.00  0.00     0.020 A 
HETATM   17  C12 UNL     1       2.373  -0.542   0.463  1.00  0.00     0.102 A 
HETATM   18  C16 UNL     1       1.588   0.556   0.119  1.00  0.00     0.103 A 
HETATM   19  C20 UNL     1       0.199   0.549   0.231  1.00  0.00     0.055 A 
BRANCH  17  20
HETATM   20  O1  UNL     1       3.693  -0.303   0.269  1.00  0.00    -0.346 OA
BRANCH  20  21
HETATM   21  C13 UNL     1       4.812  -1.085   0.455  1.00  0.00     0.201 C 
BRANCH  21  22
HETATM   22  C14 UNL     1       4.912  -2.336  -0.353  1.00  0.00     0.193 C 
BRANCH  22  23
HETATM   23  O2  UNL     1       6.064  -3.083  -0.120  1.00  0.00    -0.394 OA
HETATM   24  C15 UNL     1       7.236  -2.413  -0.397  1.00  0.00     0.201 C 
ENDBRANCH  22  23
ENDBRANCH  21  22
ENDBRANCH  20  21
ENDBRANCH  17  20
BRANCH  18  25
HETATM   25  O3  UNL     1       2.094   1.743  -0.359  1.00  0.00    -0.346 OA
BRANCH  25  26
HETATM   26  C17 UNL     1       1.270   2.846  -0.703  1.00  0.00     0.201 C 
BRANCH  26  27
HETATM   27  C18 UNL     1       2.131   3.968  -1.185  1.00  0.00     0.193 C 
BRANCH  27  28
HETATM   28  O4  UNL     1       1.437   5.096  -1.545  1.00  0.00    -0.394 OA
HETATM   29  C19 UNL     1       0.533   4.903  -2.569  1.00  0.00     0.201 C 
ENDBRANCH  27  28
ENDBRANCH  26  27
ENDBRANCH  25  26
ENDBRANCH  18  25
ENDBRANCH   9  11
ENDBRANCH   7   9
TORSDOF 10
