REMARK  2 active torsions:
REMARK  status: ('A' for Active; 'I' for Inactive)
REMARK    1  A    between atoms: C5_6  and  O1_7 
REMARK    2  A    between atoms: O1_7  and  C6_8 
ROOT
HETATM    1  C6  UNL     1       1.010   0.662   0.929  1.00  0.00     0.202 A 
HETATM    2  N1  UNL     1       1.466   1.868   1.358  1.00  0.00    -0.215 NA
HETATM    3  C7  UNL     1       0.646   2.622   2.114  1.00  0.00     0.238 A 
HETATM    4  N2  UNL     1      -0.606   2.286   2.491  1.00  0.00    -0.215 NA
HETATM    5  C8  UNL     1      -1.125   1.082   2.091  1.00  0.00     0.212 A 
HETATM    6  C9  UNL     1      -0.260   0.328   1.315  1.00  0.00     0.137 A 
HETATM    7  N3  UNL     1      -0.866  -0.898   0.816  1.00  0.00    -0.379 N 
HETATM    8  C10 UNL     1      -1.778  -1.152  -0.172  1.00  0.00     0.147 C 
HETATM    9  C11 UNL     1      -2.697  -1.407  -1.167  1.00  0.00    -0.008 C 
HETATM   10  C12 UNL     1      -3.947  -0.970  -1.275  1.00  0.00    -0.005 C 
HETATM   11  C13 UNL     1      -4.840  -0.141  -0.524  1.00  0.00    -0.008 C 
HETATM   12  C14 UNL     1      -5.557   0.624   0.238  1.00  0.00     0.109 C 
HETATM   13  C15 UNL     1      -4.426   0.668   1.051  1.00  0.00    -0.066 C 
HETATM   14  C16 UNL     1      -3.471   0.693   1.718  1.00  0.00     0.062 C 
HETATM   15  O2  UNL     1      -2.398   0.700   2.461  1.00  0.00    -0.238 OA
HETATM   16  H5  UNL     1      -0.387  -1.580   1.426  1.00  0.00     0.160 HD
ENDROOT
BRANCH   1  17
HETATM   17  O1  UNL     1       1.560  -0.331   0.172  1.00  0.00    -0.290 OA
BRANCH  17  18
HETATM   18  C5  UNL     1       2.794  -0.416  -0.386  1.00  0.00     0.079 A 
HETATM   19  C4  UNL     1       3.106  -1.502  -1.201  1.00  0.00     0.037 A 
HETATM   20  C3  UNL     1       4.356  -1.623  -1.784  1.00  0.00     0.004 A 
HETATM   21  C2  UNL     1       5.342  -0.676  -1.583  1.00  0.00     0.019 A 
HETATM   22  C1  UNL     1       5.013   0.392  -0.773  1.00  0.00     0.013 A 
HETATM   23 BR1  UNL     1       6.344   1.729  -0.458  1.00  0.00    -0.051 Br
HETATM   24  C17 UNL     1       3.780   0.542  -0.178  1.00  0.00     0.056 A 
ENDBRANCH  17  18
ENDBRANCH   1  17
TORSDOF 2
