REMARK  6 active torsions:
REMARK  status: ('A' for Active; 'I' for Inactive)
REMARK    1  A    between atoms: O1_2  and  C2_3 
REMARK    2  A    between atoms: C7_8  and  N1_9 
REMARK    3  A    between atoms: C11_14  and  C12_15 
REMARK       I    between atoms: C12_15  and  N2_17 
REMARK    4  A    between atoms: N2_17  and  C13_18 
REMARK    5  A    between atoms: C16_21  and  C17_22 
REMARK    6  A    between atoms: C17_22  and  N3_23 
ROOT
HETATM    1  C12 UNL     1      -1.752  -1.516  -0.022  1.00  0.00     0.260 C 
HETATM    2  O3  UNL     1      -1.136  -2.469  -0.633  1.00  0.00    -0.267 OA
HETATM    3  N2  UNL     1      -1.071  -0.569   0.682  1.00  0.00    -0.323 N 
HETATM    4  H10 UNL     1      -1.843   0.025   1.035  1.00  0.00     0.169 HD
ENDROOT
BRANCH   1   5
HETATM    5  C11 UNL     1      -2.782  -2.243  -0.599  1.00  0.00     0.084 A 
HETATM    6  C10 UNL     1      -3.761  -2.933  -1.147  1.00  0.00     0.125 A 
HETATM    7  C9  UNL     1      -5.088  -3.065  -1.377  1.00  0.00     0.058 A 
HETATM    8  O2  UNL     1      -2.862  -3.773  -1.583  1.00  0.00    -0.191 OA
HETATM    9  C8  UNL     1      -5.816  -2.047  -0.806  1.00  0.00     0.099 A 
HETATM   10  N1  UNL     1      -5.106  -1.092  -0.117  1.00  0.00    -0.329 N 
HETATM   11  C25 UNL     1      -3.715  -1.208  -0.039  1.00  0.00     0.116 A 
BRANCH  10  12
HETATM   12  C7  UNL     1      -6.106  -0.165   0.376  1.00  0.00     0.071 A 
HETATM   13  C2  UNL     1      -6.282   1.054  -0.239  1.00  0.00     0.095 A 
HETATM   14  C3  UNL     1      -7.239   1.884   0.304  1.00  0.00     0.039 A 
HETATM   15  C4  UNL     1      -7.922   1.412   1.405  1.00  0.00     0.003 A 
HETATM   16  C5  UNL     1      -7.742   0.190   2.016  1.00  0.00     0.002 A 
HETATM   17  C6  UNL     1      -6.785  -0.636   1.469  1.00  0.00     0.033 A 
BRANCH  13  18
HETATM   18  O1  UNL     1      -5.509   1.390  -1.350  1.00  0.00    -0.354 OA
HETATM   19  C1  UNL     1      -5.625   2.605  -2.030  1.00  0.00     0.210 C 
ENDBRANCH  13  18
ENDBRANCH  10  12
ENDBRANCH   1   5
BRANCH   3  20
HETATM   20  C13 UNL     1       0.365  -0.785   0.635  1.00  0.00     0.035 A 
HETATM   21  C14 UNL     1       0.888  -0.130  -0.474  1.00  0.00     0.030 A 
HETATM   22  C15 UNL     1       2.255  -0.225  -0.708  1.00  0.00     0.011 A 
HETATM   23  C16 UNL     1       3.016  -0.961   0.169  1.00  0.00    -0.030 A 
HETATM   24  C23 UNL     1       2.446  -1.601   1.270  1.00  0.00     0.011 A 
HETATM   25  C24 UNL     1       1.101  -1.527   1.530  1.00  0.00     0.030 A 
BRANCH  23  26
HETATM   26  C17 UNL     1       4.467  -1.135  -0.001  1.00  0.00     0.311 C 
BRANCH  26  27
HETATM   27  N3  UNL     1       5.234  -0.100   0.661  1.00  0.00     0.096 N 
HETATM   28  C18 UNL     1       4.902   1.187   0.077  1.00  0.00     0.303 C 
HETATM   29  C19 UNL     1       5.991   2.201   0.402  1.00  0.00     0.302 C 
HETATM   30  N4  UNL     1       7.219   1.828  -0.277  1.00  0.00     0.087 N 
HETATM   31  C20 UNL     1       8.392   2.123   0.527  1.00  0.00     0.310 C 
HETATM   32  C21 UNL     1       7.220   0.406  -0.586  1.00  0.00     0.302 C 
HETATM   33  C22 UNL     1       6.658  -0.370   0.564  1.00  0.00     0.303 C 
ENDBRANCH  26  27
ENDBRANCH  23  26
ENDBRANCH   3  20
TORSDOF 6
