REMARK  7 active torsions:
REMARK  status: ('A' for Active; 'I' for Inactive)
REMARK    1  A    between atoms: O1_2  and  C2_3 
REMARK    2  A    between atoms: C7_8  and  N1_9 
REMARK    3  A    between atoms: C9_11  and  O2_12 
REMARK    4  A    between atoms: C11_15  and  C12_16 
REMARK    5  A    between atoms: C12_16  and  C13_18 
REMARK    6  A    between atoms: C18_23  and  C19_24 
REMARK    7  A    between atoms: C19_24  and  N3_25 
ROOT
HETATM    1  N1  UNL     1      -3.710   1.090   0.592  1.00  0.00    -0.311 N 
HETATM    2  C8  UNL     1      -5.079   1.445   0.561  1.00  0.00     0.153 A 
HETATM    3  C9  UNL     1      -5.407   2.662   0.174  1.00  0.00     0.156 A 
HETATM    4  N2  UNL     1      -4.413   3.603  -0.205  1.00  0.00    -0.344 N 
HETATM    5  C10 UNL     1      -3.076   3.142  -0.137  1.00  0.00     0.124 A 
HETATM    6  C11 UNL     1      -2.636   1.956   0.233  1.00  0.00     0.106 A 
HETATM    7  H10 UNL     1      -4.706   4.542  -0.501  1.00  0.00     0.167 HD
ENDROOT
BRANCH   6   8
HETATM    8  C12 UNL     1      -1.261   1.517   0.289  1.00  0.00     0.207 C 
HETATM    9  O3  UNL     1      -1.170   0.319   0.688  1.00  0.00    -0.285 OA
BRANCH   8  10
HETATM   10  C13 UNL     1       0.022   2.083   0.010  1.00  0.00     0.004 A 
HETATM   11  C14 UNL     1       0.368   3.280  -0.417  1.00  0.00     0.012 A 
HETATM   12  C15 UNL     1       1.798   3.484  -0.583  1.00  0.00     0.004 A 
HETATM   13  C16 UNL     1       2.307   2.319  -0.224  1.00  0.00    -0.073 A 
HETATM   14  C17 UNL     1       3.748   1.892  -0.178  1.00  0.00     0.044 C 
HETATM   15  C18 UNL     1       1.295   1.320   0.181  1.00  0.00     0.079 A 
BRANCH  15  16
HETATM   16  C19 UNL     1       1.369   0.121  -0.696  1.00  0.00     0.286 C 
BRANCH  16  17
HETATM   17  N3  UNL     1       2.607  -0.565  -0.486  1.00  0.00     0.092 N 
HETATM   18  C20 UNL     1       2.741  -1.710  -1.402  1.00  0.00     0.291 C 
HETATM   19  C21 UNL     1       4.237  -1.919  -1.502  1.00  0.00     0.146 C 
HETATM   20  N4  UNL     1       4.908  -1.719  -0.254  1.00  0.00    -0.413 N 
HETATM   21  C22 UNL     1       6.178  -2.346  -0.151  1.00  0.00     0.143 C 
HETATM   22  C23 UNL     1       4.082  -1.842   0.904  1.00  0.00     0.146 C 
HETATM   23  C24 UNL     1       2.758  -1.166   0.823  1.00  0.00     0.291 C 
ENDBRANCH  16  17
ENDBRANCH  15  16
ENDBRANCH   8  10
ENDBRANCH   6   8
BRANCH   1  24
HETATM   24  C7  UNL     1      -3.450  -0.263   1.028  1.00  0.00     0.072 A 
HETATM   25  C2  UNL     1      -3.394  -1.304   0.101  1.00  0.00     0.095 A 
HETATM   26  C3  UNL     1      -3.144  -2.589   0.521  1.00  0.00     0.039 A 
HETATM   27  C4  UNL     1      -2.947  -2.837   1.879  1.00  0.00     0.003 A 
HETATM   28  C5  UNL     1      -3.013  -1.771   2.759  1.00  0.00     0.002 A 
HETATM   29  C6  UNL     1      -3.263  -0.466   2.368  1.00  0.00     0.033 A 
BRANCH  25  30
HETATM   30  O1  UNL     1      -3.602  -0.949  -1.205  1.00  0.00    -0.354 OA
HETATM   31  C1  UNL     1      -3.592  -1.827  -2.315  1.00  0.00     0.210 C 
ENDBRANCH  25  30
ENDBRANCH   1  24
BRANCH   3  32
HETATM   32  O2  UNL     1      -6.747   2.994   0.149  1.00  0.00    -0.345 OA
HETATM   33  H9  UNL     1      -7.272   3.320   0.962  1.00  0.00     0.219 HD
ENDBRANCH   3  32
TORSDOF 7
