REMARK  4 active torsions:
REMARK  status: ('A' for Active; 'I' for Inactive)
REMARK    1  A    between atoms: N2_5  and  C4_6 
REMARK    2  A    between atoms: C4_6  and  C5_7 
REMARK    3  A    between atoms: C8_10  and  N3_11 
REMARK       I    between atoms: N3_11  and  C9_12 
REMARK    4  A    between atoms: C9_12  and  C10_14 
ROOT
HETATM    1  N3  UNL     1       1.833   0.099  -0.117  1.00  0.00    -0.323 N 
HETATM    2  C9  UNL     1       3.011   0.841   0.070  1.00  0.00     0.255 C 
HETATM    3  O1  UNL     1       2.740   1.893   0.740  1.00  0.00    -0.268 OA
HETATM    4  H12 UNL     1       2.003  -0.773  -0.661  1.00  0.00     0.169 HD
ENDROOT
BRANCH   1   5
HETATM    5  C8  UNL     1       0.501   0.321   0.291  1.00  0.00     0.035 A 
HETATM    6  C7  UNL     1      -0.013   1.365   1.010  1.00  0.00     0.030 A 
HETATM    7  C6  UNL     1      -1.312   1.519   1.371  1.00  0.00     0.011 A 
HETATM    8  C5  UNL     1      -2.198   0.551   0.988  1.00  0.00    -0.030 A 
HETATM    9  C18 UNL     1      -1.783  -0.536   0.264  1.00  0.00     0.011 A 
HETATM   10  C17 UNL     1      -0.457  -0.631  -0.067  1.00  0.00     0.030 A 
BRANCH   8  11
HETATM   11  C4  UNL     1      -3.626   0.655   1.347  1.00  0.00     0.311 C 
BRANCH  11  12
HETATM   12  N2  UNL     1      -4.321   1.368   0.324  1.00  0.00     0.096 N 
HETATM   13  C3  UNL     1      -4.280   0.787  -0.981  1.00  0.00     0.303 C 
HETATM   14  C2  UNL     1      -5.142  -0.435  -1.116  1.00  0.00     0.302 C 
HETATM   15  N1  UNL     1      -5.859  -0.776   0.098  1.00  0.00     0.087 N 
HETATM   16  C1  UNL     1      -6.846  -1.774  -0.250  1.00  0.00     0.310 C 
HETATM   17  C20 UNL     1      -6.538   0.378   0.659  1.00  0.00     0.302 C 
HETATM   18  C19 UNL     1      -5.708   1.617   0.648  1.00  0.00     0.303 C 
ENDBRANCH  11  12
ENDBRANCH   8  11
ENDBRANCH   1   5
BRANCH   2  19
HETATM   19  C10 UNL     1       4.395   0.558  -0.384  1.00  0.00     0.049 C 
HETATM   20  C11 UNL     1       4.437  -0.559  -1.045  1.00  0.00     0.102 C 
HETATM   21  N4  UNL     1       5.287  -1.438  -1.734  1.00  0.00    -0.377 N 
HETATM   22  C12 UNL     1       5.697  -2.766  -1.432  1.00  0.00     0.110 C 
HETATM   23  H14 UNL     1       5.886  -1.579  -2.563  1.00  0.00     0.164 HD
HETATM   24  C13 UNL     1       6.131  -2.937  -0.193  1.00  0.00     0.017 C 
HETATM   25  C14 UNL     1       6.299  -1.873   0.575  1.00  0.00    -0.009 C 
HETATM   26  P1  UNL     1       7.345  -0.834  -0.500  1.00  0.00    -0.084 P 
HETATM   27  C15 UNL     1       7.511   0.874   0.163  1.00  0.00     0.202 C 
HETATM   28  H17 UNL     1       8.624  -1.441  -0.812  1.00  0.00     0.063 HD
HETATM   29  O2  UNL     1       6.551   1.708  -0.222  1.00  0.00    -0.382 OA
HETATM   30  C16 UNL     1       5.266   1.657   0.051  1.00  0.00     0.213 C 
ENDBRANCH   2  19
TORSDOF 4
