REMARK  7 active torsions:
REMARK  status: ('A' for Active; 'I' for Inactive)
REMARK    1  A    between atoms: C7_7  and  N1_8 
REMARK    2  A    between atoms: N1_8  and  C8_9 
REMARK    3  A    between atoms: C9_10  and  C10_11 
REMARK       I    between atoms: C10_11  and  N2_13 
REMARK    4  A    between atoms: N2_13  and  C11_14 
REMARK    5  A    between atoms: C14_17  and  C15_18 
REMARK    6  A    between atoms: C15_18  and  N3_19 
REMARK    7  A    between atoms: C23_28  and  O2_29 
ROOT
HETATM    1  C8  UNL     1      -4.582  -1.010  -0.725  1.00  0.00     0.050 A 
HETATM    2  C9  UNL     1      -3.557  -1.690  -1.163  1.00  0.00     0.084 A 
HETATM    3  C23 UNL     1      -3.710  -2.726  -2.215  1.00  0.00     0.259 A 
HETATM    4  N5  UNL     1      -5.098  -2.794  -2.590  1.00  0.00    -0.369 N 
HETATM    5  C24 UNL     1      -6.243  -2.080  -2.145  1.00  0.00     0.088 A 
HETATM    6  C25 UNL     1      -5.941  -1.194  -1.208  1.00  0.00     0.047 A 
HETATM    7  H29 UNL     1      -5.177  -3.532  -3.330  1.00  0.00     0.161 HD
ENDROOT
BRANCH   2   8
HETATM    8  C10 UNL     1      -2.172  -1.569  -0.735  1.00  0.00     0.258 C 
HETATM    9  O1  UNL     1      -1.213  -2.251  -1.190  1.00  0.00    -0.267 OA
HETATM   10  N2  UNL     1      -1.552  -0.728   0.229  1.00  0.00    -0.323 N 
HETATM   11  H9  UNL     1      -2.164  -0.068   0.741  1.00  0.00     0.169 HD
BRANCH  10  12
HETATM   12  C11 UNL     1      -0.147  -0.960   0.315  1.00  0.00     0.035 A 
HETATM   13  C12 UNL     1       0.426  -1.871   1.162  1.00  0.00     0.030 A 
HETATM   14  C13 UNL     1       1.802  -1.991   1.139  1.00  0.00     0.011 A 
HETATM   15  C14 UNL     1       2.662  -1.257   0.320  1.00  0.00    -0.030 A 
HETATM   16  C21 UNL     1       2.015  -0.354  -0.511  1.00  0.00     0.011 A 
HETATM   17  C22 UNL     1       0.654  -0.204  -0.519  1.00  0.00     0.030 A 
BRANCH  15  18
HETATM   18  C15 UNL     1       4.108  -1.480   0.391  1.00  0.00     0.311 C 
BRANCH  18  19
HETATM   19  N3  UNL     1       4.695  -0.617   1.367  1.00  0.00     0.096 N 
HETATM   20  C16 UNL     1       4.521   0.787   1.130  1.00  0.00     0.303 C 
HETATM   21  C17 UNL     1       5.345   1.303  -0.007  1.00  0.00     0.302 C 
HETATM   22  N4  UNL     1       6.712   0.817   0.038  1.00  0.00     0.087 N 
HETATM   23  C18 UNL     1       7.641   1.955  -0.032  1.00  0.00     0.310 C 
HETATM   24  C19 UNL     1       7.015   0.152   1.292  1.00  0.00     0.302 C 
HETATM   25  C20 UNL     1       6.079  -0.966   1.627  1.00  0.00     0.303 C 
ENDBRANCH  18  19
ENDBRANCH  15  18
ENDBRANCH  10  12
ENDBRANCH   2   8
BRANCH   1  26
HETATM   26  N1  UNL     1      -4.484  -0.024   0.265  1.00  0.00    -0.355 N 
HETATM   27  H8  UNL     1      -4.418  -0.604   1.117  1.00  0.00     0.166 HD
BRANCH  26  28
HETATM   28  C7  UNL     1      -4.499   1.379  -0.002  1.00  0.00     0.038 A 
HETATM   29  C2  UNL     1      -4.401   2.356   0.972  1.00  0.00    -0.035 A 
HETATM   30  C1  UNL     1      -4.275   1.829   2.378  1.00  0.00     0.050 C 
HETATM   31  C3  UNL     1      -4.423   3.707   0.636  1.00  0.00     0.009 A 
HETATM   32  C4  UNL     1      -4.542   4.065  -0.672  1.00  0.00     0.001 A 
HETATM   33  C5  UNL     1      -4.638   3.088  -1.631  1.00  0.00     0.002 A 
HETATM   34  C6  UNL     1      -4.619   1.735  -1.329  1.00  0.00     0.030 A 
ENDBRANCH  26  28
ENDBRANCH   1  26
BRANCH   3  35
HETATM   35  O2  UNL     1      -3.331  -3.985  -1.754  1.00  0.00    -0.372 OA
HETATM   36  H28 UNL     1      -3.906  -4.278  -1.011  1.00  0.00     0.212 HD
ENDBRANCH   3  35
TORSDOF 7
