REMARK  8 active torsions:
REMARK  status: ('A' for Active; 'I' for Inactive)
REMARK    1  A    between atoms: O1_2  and  C2_3 
REMARK    2  A    between atoms: C7_8  and  N1_9 
REMARK    3  A    between atoms: N1_9  and  C8_10 
REMARK    4  A    between atoms: N2_13  and  C11_14 
REMARK    5  A    between atoms: C11_14  and  N3_16 
REMARK    6  A    between atoms: N3_16  and  C12_17 
REMARK    7  A    between atoms: C12_17  and  C13_18 
REMARK    8  A    between atoms: C16_21  and  N4_22 
ROOT
HETATM    1  C11 UNL     1       2.138  -0.189   1.054  1.00  0.00     0.508 C 
HETATM    2  F1  UNL     1       2.487  -0.151   2.434  1.00  0.00    -0.193 F 
ENDROOT
BRANCH   1   3
HETATM    3  N2  UNL     1       2.901   0.823   0.353  1.00  0.00    -0.335 N 
HETATM    4  C10 UNL     1       3.103   1.093  -1.029  1.00  0.00     0.088 C 
HETATM    5  C9  UNL     1       4.275   1.736  -1.187  1.00  0.00     0.017 C 
HETATM    6  C8  UNL     1       4.895   1.905   0.149  1.00  0.00     0.124 C 
HETATM    7  C25 UNL     1       3.673   1.875   1.038  1.00  0.00     0.156 C 
BRANCH   6   8
HETATM    8  N1  UNL     1       5.676   0.729   0.436  1.00  0.00    -0.378 N 
HETATM    9  H8  UNL     1       5.421   0.109   1.264  1.00  0.00     0.160 HD
BRANCH   8  10
HETATM   10  C7  UNL     1       6.813   0.229  -0.261  1.00  0.00     0.062 A 
HETATM   11  C2  UNL     1       7.506  -0.941   0.076  1.00  0.00     0.094 A 
HETATM   12  C3  UNL     1       8.589  -1.327  -0.655  1.00  0.00     0.039 A 
HETATM   13  C4  UNL     1       9.074  -0.629  -1.741  1.00  0.00     0.003 A 
HETATM   14  C5  UNL     1       8.410   0.516  -2.085  1.00  0.00     0.002 A 
HETATM   15  C6  UNL     1       7.312   0.922  -1.356  1.00  0.00     0.032 A 
BRANCH  11  16
HETATM   16  O1  UNL     1       7.012  -1.633   1.166  1.00  0.00    -0.354 OA
HETATM   17  C1  UNL     1       7.655  -2.826   1.570  1.00  0.00     0.210 C 
ENDBRANCH  11  16
ENDBRANCH   8  10
ENDBRANCH   6   8
ENDBRANCH   1   3
BRANCH   1  18
HETATM   18  N3  UNL     1       0.727   0.023   1.053  1.00  0.00     0.141 N 
HETATM   19  H13 UNL     1       0.549   0.931   1.550  1.00  0.00     0.322 HD
BRANCH  18  20
HETATM   20  C12 UNL     1       0.190   0.121  -0.257  1.00  0.00     0.314 C 
BRANCH  20  21
HETATM   21  C13 UNL     1      -1.315   0.167  -0.079  1.00  0.00    -0.030 A 
HETATM   22  C14 UNL     1      -2.031  -1.011  -0.066  1.00  0.00     0.011 A 
HETATM   23  C15 UNL     1      -3.419  -1.021   0.095  1.00  0.00     0.030 A 
HETATM   24  C16 UNL     1      -4.110   0.142   0.245  1.00  0.00     0.030 A 
HETATM   25  C23 UNL     1      -3.361   1.297   0.227  1.00  0.00     0.030 A 
HETATM   26  C24 UNL     1      -1.994   1.357   0.071  1.00  0.00     0.011 A 
BRANCH  24  27
HETATM   27  N4  UNL     1      -5.504   0.091   0.409  1.00  0.00    -0.379 N 
HETATM   28  C17 UNL     1      -6.063  -1.250   0.510  1.00  0.00     0.124 C 
HETATM   29  C18 UNL     1      -6.263  -1.687  -0.925  1.00  0.00     0.039 C 
HETATM   30  C19 UNL     1      -7.508  -1.083  -1.472  1.00  0.00     0.118 C 
HETATM   31  N5  UNL     1      -8.007   0.081  -0.877  1.00  0.00    -0.415 N 
HETATM   32  C20 UNL     1      -9.255   0.037  -0.214  1.00  0.00     0.143 C 
HETATM   33  C21 UNL     1      -7.216   1.234  -0.763  1.00  0.00     0.136 C 
HETATM   34  C22 UNL     1      -6.338   1.275   0.467  1.00  0.00     0.142 C 
ENDBRANCH  24  27
ENDBRANCH  20  21
ENDBRANCH  18  20
ENDBRANCH   1  18
TORSDOF 8
