REMARK  8 active torsions:
REMARK  status: ('A' for Active; 'I' for Inactive)
REMARK    1  A    between atoms: N2_5  and  C4_6 
REMARK    2  A    between atoms: C4_6  and  C5_7 
REMARK    3  A    between atoms: C8_10  and  N3_11 
REMARK    4  A    between atoms: N3_11  and  C9_12 
REMARK    5  A    between atoms: C9_12  and  C10_13 
REMARK    6  A    between atoms: C10_13  and  C11_14 
REMARK    7  A    between atoms: C11_14  and  N4_15 
REMARK    8  A    between atoms: N4_15  and  C12_16 
ROOT
HETATM    1  C5  UNL     1      -1.339   0.220   0.754  1.00  0.00    -0.030 A 
HETATM    2  C6  UNL     1      -1.082   0.894  -0.423  1.00  0.00     0.011 A 
HETATM    3  C7  UNL     1       0.183   1.074  -0.945  1.00  0.00     0.029 A 
HETATM    4  C8  UNL     1       1.270   0.556  -0.259  1.00  0.00     0.027 A 
HETATM    5  C13 UNL     1       1.041  -0.122   0.921  1.00  0.00     0.029 A 
HETATM    6  C14 UNL     1      -0.243  -0.304   1.448  1.00  0.00     0.011 A 
ENDROOT
BRANCH   4   7
HETATM    7  N3  UNL     1       2.592   0.718  -0.760  1.00  0.00    -0.390 N 
HETATM    8  H12 UNL     1       2.730   1.236  -1.656  1.00  0.00     0.159 HD
BRANCH   7   9
HETATM    9  C9  UNL     1       3.762   0.213  -0.110  1.00  0.00     0.121 C 
BRANCH   9  10
HETATM   10  C10 UNL     1       5.034   0.534  -0.869  1.00  0.00     0.050 C 
BRANCH  10  11
HETATM   11  C11 UNL     1       6.232  -0.037  -0.114  1.00  0.00     0.274 C 
BRANCH  11  12
HETATM   12  N4  UNL     1       7.467   0.237  -0.788  1.00  0.00     0.111 N 
HETATM   13  H19 UNL     1       7.572   1.278  -0.816  1.00  0.00     0.319 HD
BRANCH  12  14
HETATM   14  C12 UNL     1       8.550  -0.329  -0.023  1.00  0.00     0.490 C 
HETATM   15  F1  UNL     1       8.581   0.230   1.247  1.00  0.00    -0.224 F 
ENDBRANCH  12  14
ENDBRANCH  11  12
ENDBRANCH  10  11
ENDBRANCH   9  10
ENDBRANCH   7   9
ENDBRANCH   4   7
BRANCH   1  16
HETATM   16  C4  UNL     1      -2.699   0.022   1.317  1.00  0.00     0.311 C 
BRANCH  16  17
HETATM   17  N2  UNL     1      -3.355  -1.172   0.903  1.00  0.00     0.096 N 
HETATM   18  C3  UNL     1      -3.572  -1.336  -0.494  1.00  0.00     0.303 C 
HETATM   19  C2  UNL     1      -4.769  -0.618  -1.033  1.00  0.00     0.302 C 
HETATM   20  N1  UNL     1      -5.238   0.385  -0.122  1.00  0.00     0.087 N 
HETATM   21  C1  UNL     1      -6.384   1.026  -0.739  1.00  0.00     0.310 C 
HETATM   22  C16 UNL     1      -5.621  -0.214   1.143  1.00  0.00     0.302 C 
HETATM   23  C15 UNL     1      -4.618  -1.239   1.617  1.00  0.00     0.303 C 
ENDBRANCH  16  17
ENDBRANCH   1  16
TORSDOF 8
