REMARK  7 active torsions:
REMARK  status: ('A' for Active; 'I' for Inactive)
REMARK    1  A    between atoms: C2_2  and  N1_3 
REMARK    2  A    between atoms: C2_2  and  C13_16 
REMARK    3  A    between atoms: N1_3  and  C3_4 
REMARK    4  A    between atoms: C4_5  and  C5_6 
REMARK    5  A    between atoms: C8_9  and  N2_10 
REMARK    6  A    between atoms: C14_17  and  O1_18 
REMARK    7  A    between atoms: O1_18  and  C15_19 
ROOT
HETATM    1  C1  UNL     1       0.900  -0.233  -1.929  1.00  0.00     0.039 C 
HETATM    2  C2  UNL     1       1.731   0.095  -0.725  1.00  0.00     0.132 C 
ENDROOT
BRANCH   2   3
HETATM    3  N1  UNL     1       1.142  -0.107   0.546  1.00  0.00    -0.408 N 
HETATM    4  H5  UNL     1       1.378  -0.962   1.056  1.00  0.00     0.154 HD
BRANCH   3   5
HETATM    5  C3  UNL     1      -0.026   0.595   0.915  1.00  0.00     0.142 C 
HETATM    6  C4  UNL     1      -1.321   0.226   0.398  1.00  0.00     0.002 C 
BRANCH   6   7
HETATM    7  C5  UNL     1      -2.225  -0.434  -0.264  1.00  0.00    -0.031 A 
HETATM    8  C6  UNL     1      -2.069  -1.636  -1.123  1.00  0.00     0.070 A 
HETATM    9  C7  UNL     1      -3.536  -1.433  -1.206  1.00  0.00     0.008 A 
HETATM   10  C8  UNL     1      -3.654  -0.374  -0.450  1.00  0.00     0.033 A 
BRANCH  10  11
HETATM   11  N2  UNL     1      -4.784   0.390  -0.073  1.00  0.00    -0.377 N 
HETATM   12  C9  UNL     1      -4.775   1.275   1.073  1.00  0.00     0.153 C 
HETATM   13  C10 UNL     1      -6.220   1.298   1.585  1.00  0.00     0.289 C 
HETATM   14  N3  UNL     1      -6.825  -0.015   1.462  1.00  0.00     0.086 N 
HETATM   15  C11 UNL     1      -7.026  -0.395   0.082  1.00  0.00     0.289 C 
HETATM   16  H16 UNL     1      -6.282  -0.738   1.993  1.00  0.00     0.316 HD
HETATM   17  C12 UNL     1      -6.040   0.342  -0.811  1.00  0.00     0.153 C 
ENDBRANCH  10  11
ENDBRANCH   6   7
ENDBRANCH   3   5
ENDBRANCH   2   3
BRANCH   2  18
HETATM   18  C13 UNL     1       2.941  -0.816  -0.837  1.00  0.00     0.104 C 
HETATM   19  C14 UNL     1       4.136  -0.217  -0.884  1.00  0.00     0.110 C 
HETATM   20  C19 UNL     1       5.480  -0.817  -0.992  1.00  0.00     0.057 C 
HETATM   21  C20 UNL     1       5.681  -2.123  -1.071  1.00  0.00     0.087 C 
HETATM   22  N6  UNL     1       4.810  -3.239  -1.079  1.00  0.00    -0.378 N 
HETATM   23  C21 UNL     1       3.481  -3.295  -0.508  1.00  0.00     0.297 C 
HETATM   24  H26 UNL     1       5.267  -4.055  -1.571  1.00  0.00     0.161 HD
HETATM   25  O2  UNL     1       2.687  -2.176  -0.879  1.00  0.00    -0.331 OA
BRANCH  19  26
HETATM   26  O1  UNL     1       4.175   1.169  -0.828  1.00  0.00    -0.289 OA
BRANCH  26  27
HETATM   27  C15 UNL     1       4.597   1.766   0.350  1.00  0.00     0.172 A 
HETATM   28  C16 UNL     1       4.622   3.161   0.371  1.00  0.00     0.077 A 
HETATM   29  C17 UNL     1       5.042   3.746   1.547  1.00  0.00     0.122 A 
HETATM   30  N4  UNL     1       5.412   3.053   2.626  1.00  0.00    -0.254 NA
HETATM   31  C18 UNL     1       5.377   1.698   2.573  1.00  0.00     0.235 A 
HETATM   32  N5  UNL     1       4.973   1.052   1.446  1.00  0.00    -0.218 NA
ENDBRANCH  26  27
ENDBRANCH  19  26
ENDBRANCH   2  18
TORSDOF 7
