REMARK  5 active torsions:
REMARK  status: ('A' for Active; 'I' for Inactive)
REMARK    1  A    between atoms: N1_2  and  C2_3 
REMARK    2  A    between atoms: C7_8  and  N2_9 
REMARK    3  A    between atoms: N2_9  and  C8_10 
REMARK    4  A    between atoms: C13_17  and  N4_18 
REMARK    5  A    between atoms: N4_18  and  C14_19 
ROOT
HETATM    1  C8  UNL     1      -1.164   0.805   0.169  1.00  0.00     0.118 C 
HETATM    2  C9  UNL     1      -1.507  -0.637   0.250  1.00  0.00     0.130 C 
HETATM    3  C10 UNL     1      -1.598  -1.013   1.706  1.00  0.00     0.223 C 
HETATM    4  O1  UNL     1      -1.445  -2.200   2.147  1.00  0.00    -0.273 OA
HETATM    5  N3  UNL     1      -1.864  -0.131   2.815  1.00  0.00    -0.337 N 
HETATM    6  C11 UNL     1      -2.573   1.126   2.774  1.00  0.00     0.089 C 
HETATM    7  C12 UNL     1      -2.748   1.827   1.639  1.00  0.00     0.017 C 
HETATM    8  C13 UNL     1      -2.377   1.691   0.158  1.00  0.00     0.129 C 
HETATM    9  H15 UNL     1      -1.553  -0.331   3.804  1.00  0.00     0.168 HD
ENDROOT
BRANCH   1  10
HETATM   10  N2  UNL     1      -0.270   1.107  -0.946  1.00  0.00    -0.362 N 
HETATM   11  H11 UNL     1      -0.647   1.796  -1.661  1.00  0.00     0.162 HD
BRANCH  10  12
HETATM   12  C7  UNL     1       1.025   0.505  -1.064  1.00  0.00     0.166 C 
HETATM   13  C6  UNL     1       1.334  -0.578  -1.787  1.00  0.00     0.058 C 
HETATM   14  C5  UNL     1       2.411  -1.478  -2.178  1.00  0.00     0.003 C 
HETATM   15  C4  UNL     1       3.701  -1.473  -1.840  1.00  0.00     0.019 C 
HETATM   16  C2  UNL     1       4.219  -0.427  -0.923  1.00  0.00     0.195 C 
HETATM   17  C3  UNL     1       5.738  -0.595  -0.877  1.00  0.00     0.059 C 
HETATM   18  C21 UNL     1       3.590  -0.587   0.402  1.00  0.00    -0.025 C 
HETATM   19  C20 UNL     1       2.772   0.108   1.165  1.00  0.00     0.119 C 
HETATM   20  C22 UNL     1       4.048  -1.917   0.874  1.00  0.00     0.048 C 
HETATM   21  N5  UNL     1       2.169   1.365   0.931  1.00  0.00    -0.270 N 
HETATM   22  O2  UNL     1       1.513   1.463  -0.233  1.00  0.00    -0.221 OA
HETATM   23  H25 UNL     1       2.216   2.162   1.590  1.00  0.00     0.194 HD
BRANCH  16  24
HETATM   24  N1  UNL     1       3.968   0.920  -1.396  1.00  0.00     0.096 N 
HETATM   25  C1  UNL     1       4.687   1.813  -0.508  1.00  0.00     0.308 C 
HETATM   26  H4  UNL     1       4.228   1.057  -2.387  1.00  0.00     0.317 HD
ENDBRANCH  16  24
ENDBRANCH  10  12
ENDBRANCH   1  10
BRANCH   8  27
HETATM   27  N4  UNL     1      -3.534   1.210  -0.508  1.00  0.00    -0.380 N 
HETATM   28  H19 UNL     1      -3.473   1.778  -1.419  1.00  0.00     0.160 HD
BRANCH  27  29
HETATM   29  C14 UNL     1      -4.651   0.343  -0.484  1.00  0.00     0.028 A 
HETATM   30  C15 UNL     1      -5.009  -0.501   0.542  1.00  0.00     0.029 A 
HETATM   31  C16 UNL     1      -6.084  -1.348   0.588  1.00  0.00     0.002 A 
HETATM   32  C17 UNL     1      -6.846  -1.292  -0.558  1.00  0.00     0.000 A 
HETATM   33  C18 UNL     1      -6.589  -0.496  -1.637  1.00  0.00     0.002 A 
HETATM   34  C19 UNL     1      -5.492   0.317  -1.592  1.00  0.00     0.029 A 
ENDBRANCH  27  29
ENDBRANCH   8  27
TORSDOF 5
