REMARK  6 active torsions:
REMARK  status: ('A' for Active; 'I' for Inactive)
REMARK    1  A    between atoms: O1_2  and  C2_3 
REMARK    2  A    between atoms: C7_8  and  N1_9 
REMARK    3  A    between atoms: N1_9  and  C8_10 
REMARK    4  A    between atoms: C9_11  and  C10_12 
REMARK       I    between atoms: C10_12  and  N2_14 
REMARK    5  A    between atoms: N2_14  and  C11_15 
REMARK    6  A    between atoms: C14_18  and  C15_19 
ROOT
HETATM    1  C8  UNL     1       3.679   1.109  -0.874  1.00  0.00     0.166 C 
HETATM    2  C9  UNL     1       2.448   1.622  -1.037  1.00  0.00     0.150 C 
HETATM    3  C23 UNL     1       2.474   2.999  -1.509  1.00  0.00     0.263 C 
HETATM    4  O3  UNL     1       1.359   3.549  -1.685  1.00  0.00    -0.267 OA
HETATM    5  N4  UNL     1       3.634   3.739  -1.774  1.00  0.00    -0.335 N 
HETATM    6  C24 UNL     1       4.853   2.953  -1.986  1.00  0.00     0.303 C 
HETATM    7  O4  UNL     1       4.849   1.833  -1.132  1.00  0.00    -0.315 OA
HETATM    8  H26 UNL     1       3.560   4.769  -1.803  1.00  0.00     0.164 HD
ENDROOT
BRANCH   2   9
HETATM    9  C10 UNL     1       1.318   0.769  -0.734  1.00  0.00     0.266 C 
HETATM   10  O2  UNL     1       1.623  -0.385  -0.342  1.00  0.00    -0.267 OA
HETATM   11  N2  UNL     1      -0.043   1.066  -0.823  1.00  0.00    -0.323 N 
HETATM   12  H9  UNL     1      -0.245   2.035  -1.152  1.00  0.00     0.169 HD
BRANCH  11  13
HETATM   13  C11 UNL     1      -1.187   0.281  -0.543  1.00  0.00     0.035 A 
HETATM   14  C12 UNL     1      -2.461   0.780  -0.702  1.00  0.00     0.030 A 
HETATM   15  C13 UNL     1      -3.597   0.084  -0.453  1.00  0.00     0.010 A 
HETATM   16  C14 UNL     1      -3.540  -1.199  -0.013  1.00  0.00    -0.054 A 
HETATM   17  C21 UNL     1      -2.284  -1.772   0.172  1.00  0.00     0.010 A 
HETATM   18  C22 UNL     1      -1.165  -1.016  -0.098  1.00  0.00     0.030 A 
BRANCH  16  19
HETATM   19  C15 UNL     1      -4.828  -1.922   0.253  1.00  0.00     0.022 C 
HETATM   20  C16 UNL     1      -5.467  -1.546   1.547  1.00  0.00     0.039 C 
HETATM   21  C17 UNL     1      -6.376  -0.386   1.363  1.00  0.00     0.272 C 
HETATM   22  N3  UNL     1      -7.319  -0.587   0.320  1.00  0.00     0.084 N 
HETATM   23  C18 UNL     1      -8.006   0.695   0.123  1.00  0.00     0.309 C 
HETATM   24  C19 UNL     1      -6.843  -0.999  -0.945  1.00  0.00     0.272 C 
HETATM   25  C20 UNL     1      -5.712  -1.975  -0.934  1.00  0.00     0.039 C 
ENDBRANCH  16  19
ENDBRANCH  11  13
ENDBRANCH   2   9
BRANCH   1  26
HETATM   26  N1  UNL     1       3.968  -0.231  -0.418  1.00  0.00    -0.334 N 
HETATM   27  H8  UNL     1       3.784  -1.242  -0.556  1.00  0.00     0.168 HD
BRANCH  26  28
HETATM   28  C7  UNL     1       4.879  -0.413   0.685  1.00  0.00     0.067 A 
HETATM   29  C2  UNL     1       6.242  -0.563   0.407  1.00  0.00     0.094 A 
HETATM   30  C3  UNL     1       7.143  -0.740   1.448  1.00  0.00     0.039 A 
HETATM   31  C4  UNL     1       6.702  -0.766   2.736  1.00  0.00     0.003 A 
HETATM   32  C5  UNL     1       5.366  -0.620   3.040  1.00  0.00     0.002 A 
HETATM   33  C6  UNL     1       4.466  -0.445   2.015  1.00  0.00     0.032 A 
BRANCH  29  34
HETATM   34  O1  UNL     1       6.630  -0.529  -0.914  1.00  0.00    -0.354 OA
HETATM   35  C1  UNL     1       7.974  -0.668  -1.342  1.00  0.00     0.210 C 
ENDBRANCH  29  34
ENDBRANCH  26  28
ENDBRANCH   1  26
TORSDOF 6
