REMARK  3 active torsions:
REMARK  status: ('A' for Active; 'I' for Inactive)
REMARK    1  A    between atoms: C4_4  and  C5_5 
REMARK       I    between atoms: N2_14  and  C13_15 
REMARK    2  A    between atoms: C13_15  and  C14_17 
REMARK    3  A    between atoms: C23_28  and  O3_29 
ROOT
HETATM    1  C14 UNL     1      -2.297   0.115  -0.297  1.00  0.00     0.116 C 
HETATM    2  C15 UNL     1      -2.946  -0.732   0.438  1.00  0.00     0.123 C 
HETATM    3  N3  UNL     1      -4.249  -0.999   0.820  1.00  0.00    -0.361 N 
HETATM    4  C16 UNL     1      -5.609  -0.832   0.529  1.00  0.00     0.065 A 
HETATM    5  C17 UNL     1      -6.236  -1.744  -0.307  1.00  0.00     0.032 A 
HETATM    6  C18 UNL     1      -7.567  -1.734  -0.720  1.00  0.00     0.002 A 
HETATM    7  C19 UNL     1      -8.254  -0.673  -0.192  1.00  0.00     0.003 A 
HETATM    8  C20 UNL     1      -7.715   0.271   0.641  1.00  0.00     0.039 A 
HETATM    9  C21 UNL     1      -6.390   0.212   1.018  1.00  0.00     0.095 A 
HETATM   10  O2  UNL     1      -5.947   1.199   1.856  1.00  0.00    -0.342 OA
HETATM   11  C22 UNL     1      -5.720   2.550   1.568  1.00  0.00     0.241 C 
HETATM   12  C23 UNL     1      -4.713   2.802   0.522  1.00  0.00     0.082 C 
HETATM   13  C24 UNL     1      -3.905   2.157  -0.286  1.00  0.00     0.122 C 
HETATM   14  N4  UNL     1      -3.352   0.965  -0.809  1.00  0.00    -0.358 N 
HETATM   15  H21 UNL     1      -4.507  -1.548   1.652  1.00  0.00     0.165 HD
HETATM   16  H30 UNL     1      -3.613   0.483  -1.693  1.00  0.00     0.165 HD
ENDROOT
BRANCH   1  17
HETATM   17  C13 UNL     1      -0.941   0.406  -0.706  1.00  0.00     0.276 C 
HETATM   18  N2  UNL     1       0.346  -0.094  -0.514  1.00  0.00    -0.315 N 
HETATM   19  C2  UNL     1       1.465   0.578  -1.176  1.00  0.00     0.111 A 
HETATM   20  C12 UNL     1       0.720  -1.215   0.256  1.00  0.00     0.095 A 
HETATM   21  C1  UNL     1       1.548   1.972  -0.536  1.00  0.00     0.037 C 
HETATM   22  C3  UNL     1       2.747  -0.113  -0.950  1.00  0.00     0.006 A 
HETATM   23  C4  UNL     1       3.057  -1.174  -0.227  1.00  0.00    -0.054 A 
HETATM   24  C11 UNL     1       1.899  -1.763   0.436  1.00  0.00     0.024 A 
HETATM   25  O1  UNL     1      -0.927   1.438  -1.482  1.00  0.00    -0.265 OA
BRANCH  23  26
HETATM   26  C5  UNL     1       4.422  -1.680  -0.156  1.00  0.00     0.022 C 
HETATM   27  C6  UNL     1       5.303  -0.836  -1.068  1.00  0.00     0.039 C 
HETATM   28  C7  UNL     1       6.713  -1.393  -1.005  1.00  0.00     0.272 C 
HETATM   29  N1  UNL     1       7.252  -1.018   0.284  1.00  0.00     0.084 N 
HETATM   30  C8  UNL     1       8.109   0.138   0.131  1.00  0.00     0.309 C 
HETATM   31  C9  UNL     1       6.225  -0.749   1.269  1.00  0.00     0.272 C 
HETATM   32  C10 UNL     1       5.085  -1.740   1.156  1.00  0.00     0.039 C 
ENDBRANCH  23  26
ENDBRANCH   1  17
BRANCH  12  33
HETATM   33  O3  UNL     1      -4.662   4.193   0.413  1.00  0.00    -0.361 OA
HETATM   34  H28 UNL     1      -4.398   4.818   1.138  1.00  0.00     0.217 HD
ENDBRANCH  12  33
TORSDOF 3
