REMARK  4 active torsions:
REMARK  status: ('A' for Active; 'I' for Inactive)
REMARK    1  A    between atoms: O1_2  and  C2_3 
REMARK    2  A    between atoms: C5_6  and  C6_7 
REMARK    3  A    between atoms: C7_8  and  C8_9 
REMARK    4  A    between atoms: C8_9  and  N1_10 
ROOT
HETATM    1  C2  UNL     1      -4.426   0.197  -0.639  1.00  0.00     0.147 C 
HETATM    2  C3  UNL     1      -3.893  -0.534   0.382  1.00  0.00     0.034 C 
HETATM    3  C4  UNL     1      -2.595  -1.261   0.388  1.00  0.00     0.070 C 
HETATM    4  C5  UNL     1      -1.601  -0.756  -0.549  1.00  0.00    -0.058 C 
HETATM    5  C14 UNL     1      -1.487  -0.244  -1.792  1.00  0.00    -0.005 C 
HETATM    6  C15 UNL     1      -2.201  -0.226  -3.061  1.00  0.00     0.105 C 
HETATM    7  C16 UNL     1      -2.208   1.111  -3.785  1.00  0.00     0.046 C 
HETATM    8  C17 UNL     1      -3.587   1.770  -3.728  1.00  0.00    -0.008 C 
HETATM    9  C18 UNL     1      -4.033   1.607  -2.466  1.00  0.00     0.098 C 
HETATM   10  N4  UNL     1      -4.031   0.191  -2.048  1.00  0.00    -0.273 N 
HETATM   11  C19 UNL     1      -3.582  -0.787  -3.031  1.00  0.00     0.237 C 
HETATM   12  O2  UNL     1      -3.891  -1.799  -3.771  1.00  0.00    -0.272 OA
ENDROOT
BRANCH   4  13
HETATM   13  C6  UNL     1      -0.246  -0.814   0.059  1.00  0.00     0.005 C 
HETATM   14  C7  UNL     1       0.315  -1.192   1.196  1.00  0.00    -0.007 C 
BRANCH  14  15
HETATM   15  C8  UNL     1       1.706  -1.219   1.739  1.00  0.00     0.144 C 
BRANCH  15  16
HETATM   16  N1  UNL     1       2.682  -0.714   0.838  1.00  0.00    -0.403 N 
HETATM   17  C9  UNL     1       2.656   0.667   0.550  1.00  0.00     0.165 C 
HETATM   18  C10 UNL     1       3.818   1.435   1.066  1.00  0.00     0.130 C 
HETATM   19  N2  UNL     1       5.042   1.218   1.487  1.00  0.00    -0.193 NA
HETATM   20  N3  UNL     1       5.635  -0.071   1.549  1.00  0.00    -0.309 N 
HETATM   21  C11 UNL     1       7.084  -0.193   1.350  1.00  0.00     0.173 C 
HETATM   22  C12 UNL     1       4.887  -1.313   1.801  1.00  0.00     0.163 C 
HETATM   23  C13 UNL     1       3.885  -1.423   0.687  1.00  0.00     0.139 C 
ENDBRANCH  15  16
ENDBRANCH  14  15
ENDBRANCH   4  13
BRANCH   1  24
HETATM   24  O1  UNL     1      -5.465   1.109  -0.540  1.00  0.00    -0.341 OA
HETATM   25  C1  UNL     1      -5.686   1.904   0.606  1.00  0.00     0.211 C 
ENDBRANCH   1  24
TORSDOF 4
