REMARK  8 active torsions:
REMARK  status: ('A' for Active; 'I' for Inactive)
REMARK    1  A    between atoms: O1_2  and  C2_3 
REMARK    2  A    between atoms: C2_3  and  C3_4 
REMARK    3  A    between atoms: C3_4  and  N1_5 
REMARK    4  A    between atoms: N1_5  and  C4_6 
REMARK    5  A    between atoms: N2_14  and  C12_15 
REMARK    6  A    between atoms: C12_15  and  N3_16 
REMARK    7  A    between atoms: N3_16  and  C13_17 
REMARK    8  A    between atoms: C16_20  and  N4_21 
ROOT
HETATM    1  C2  UNL     1       4.530   0.524  -1.270  1.00  0.00     0.176 A 
HETATM    2  C10 UNL     1       4.249   1.935  -0.940  1.00  0.00     0.040 A 
HETATM    3  C11 UNL     1       3.025   2.124  -0.465  1.00  0.00     0.095 A 
HETATM    4  N2  UNL     1       2.322   0.868  -0.413  1.00  0.00    -0.309 N 
HETATM    5  C25 UNL     1       3.224  -0.118  -0.900  1.00  0.00     0.265 A 
HETATM    6  O2  UNL     1       2.914  -1.320  -0.982  1.00  0.00    -0.269 OA
ENDROOT
BRANCH   4   7
HETATM    7  C12 UNL     1       0.962   0.657   0.048  1.00  0.00     0.254 C 
BRANCH   7   8
HETATM    8  N3  UNL     1       0.057   0.791  -1.063  1.00  0.00    -0.373 N 
HETATM    9  H16 UNL     1       0.388   1.005  -2.020  1.00  0.00     0.161 HD
BRANCH   8  10
HETATM   10  C13 UNL     1      -1.334   0.623  -0.834  1.00  0.00     0.029 A 
HETATM   11  C14 UNL     1      -2.243   0.742  -1.866  1.00  0.00     0.031 A 
HETATM   12  C15 UNL     1      -3.584   0.573  -1.605  1.00  0.00     0.031 A 
HETATM   13  C16 UNL     1      -4.107   0.288  -0.363  1.00  0.00     0.030 A 
HETATM   14  C23 UNL     1      -3.182   0.175   0.649  1.00  0.00     0.031 A 
HETATM   15  C24 UNL     1      -1.832   0.337   0.425  1.00  0.00     0.031 A 
BRANCH  13  16
HETATM   16  N4  UNL     1      -5.485   0.118  -0.071  1.00  0.00    -0.379 N 
HETATM   17  C17 UNL     1      -6.525   0.341  -1.050  1.00  0.00     0.125 C 
HETATM   18  C18 UNL     1      -7.196  -1.014  -1.317  1.00  0.00     0.050 C 
HETATM   19  C19 UNL     1      -8.429  -1.081  -0.458  1.00  0.00     0.273 C 
HETATM   20  N5  UNL     1      -8.198  -0.201   0.698  1.00  0.00     0.085 N 
HETATM   21  C20 UNL     1      -9.449  -0.051   1.388  1.00  0.00     0.309 C 
HETATM   22  C21 UNL     1      -7.173  -0.797   1.494  1.00  0.00     0.291 C 
HETATM   23  C22 UNL     1      -5.789  -0.295   1.262  1.00  0.00     0.153 C 
ENDBRANCH  13  16
ENDBRANCH   8  10
ENDBRANCH   7   8
ENDBRANCH   4   7
BRANCH   1  24
HETATM   24  O1  UNL     1       4.883   0.358  -2.577  1.00  0.00    -0.369 OA
HETATM   25  C1  UNL     1       5.080  -0.945  -2.948  1.00  0.00     0.204 C 
ENDBRANCH   1  24
BRANCH   1  26
HETATM   26  C3  UNL     1       5.552   0.004  -0.289  1.00  0.00     0.172 C 
BRANCH  26  27
HETATM   27  N1  UNL     1       6.838   0.625  -0.393  1.00  0.00    -0.386 N 
HETATM   28  H6  UNL     1       7.105   1.375  -1.066  1.00  0.00     0.159 HD
BRANCH  27  29
HETATM   29  C4  UNL     1       7.841   0.160   0.522  1.00  0.00     0.028 A 
HETATM   30  C5  UNL     1       7.522  -0.841   1.436  1.00  0.00     0.029 A 
HETATM   31  C6  UNL     1       8.480  -1.300   2.325  1.00  0.00     0.002 A 
HETATM   32  C7  UNL     1       9.764  -0.797   2.344  1.00  0.00     0.000 A 
HETATM   33  C8  UNL     1      10.047   0.190   1.431  1.00  0.00     0.002 A 
HETATM   34  C9  UNL     1       9.117   0.680   0.521  1.00  0.00     0.029 A 
ENDBRANCH  27  29
ENDBRANCH  26  27
ENDBRANCH   1  26
TORSDOF 8
