REMARK  3 active torsions:
REMARK  status: ('A' for Active; 'I' for Inactive)
REMARK    1  A    between atoms: C2_2  and  C3_3 
REMARK    2  A    between atoms: C8_11  and  N3_12 
REMARK    3  A    between atoms: N3_12  and  C9_13 
ROOT
HETATM    1  C3  UNL     1      -2.380  -0.718  -0.015  1.00  0.00     0.210 A 
HETATM    2  C4  UNL     1      -2.964   0.472  -0.434  1.00  0.00     0.219 A 
HETATM    3  C5  UNL     1      -3.707   1.704  -0.173  1.00  0.00     0.222 C 
HETATM    4  O1  UNL     1      -2.698   2.703   0.318  1.00  0.00    -0.330 OA
HETATM    5  C6  UNL     1      -1.290   2.328   0.377  1.00  0.00     0.205 A 
HETATM    6  N1  UNL     1      -0.712   3.464   0.921  1.00  0.00    -0.216 NA
HETATM    7  C7  UNL     1       0.617   3.405   1.095  1.00  0.00     0.238 A 
HETATM    8  N2  UNL     1       1.397   2.358   0.789  1.00  0.00    -0.222 NA
HETATM    9  C8  UNL     1       0.938   1.226   0.264  1.00  0.00     0.169 A 
HETATM   10  C15 UNL     1      -0.373   1.222   0.068  1.00  0.00     0.237 A 
HETATM   11  N4  UNL     1      -1.351   0.338  -0.430  1.00  0.00     0.003 N 
HETATM   12  C16 UNL     1      -2.143   0.213  -1.721  1.00  0.00     0.292 A 
ENDROOT
BRANCH   9  13
HETATM   13  N3  UNL     1       1.401  -0.015  -0.166  1.00  0.00    -0.339 N 
HETATM   14  H9  UNL     1       0.853  -0.807  -0.568  1.00  0.00     0.167 HD
BRANCH  13  15
HETATM   15  C9  UNL     1       2.763  -0.372  -0.105  1.00  0.00     0.035 A 
HETATM   16  C10 UNL     1       3.682   0.498   0.384  1.00  0.00     0.029 A 
HETATM   17  C11 UNL     1       5.022   0.188   0.461  1.00  0.00     0.004 A 
HETATM   18  C12 UNL     1       5.465  -1.053   0.027  1.00  0.00     0.019 A 
HETATM   19  C13 UNL     1       4.592  -1.971  -0.474  1.00  0.00     0.013 A 
HETATM   20 BR1  UNL     1       5.124  -3.684  -1.085  1.00  0.00    -0.051 Br
HETATM   21  C14 UNL     1       3.281  -1.582  -0.515  1.00  0.00     0.048 A 
ENDBRANCH  13  15
ENDBRANCH   9  13
BRANCH   1  22
HETATM   22  C2  UNL     1      -2.620  -2.115   0.563  1.00  0.00     0.041 C 
HETATM   23  C1  UNL     1      -4.054  -2.380   0.794  1.00  0.00     0.007 C 
ENDBRANCH   1  22
TORSDOF 3
