REMARK  8 active torsions:
REMARK  status: ('A' for Active; 'I' for Inactive)
REMARK    1  A    between atoms: O1_2  and  C2_3 
REMARK    2  A    between atoms: C7_8  and  C8_9 
REMARK    3  A    between atoms: C8_9  and  C9_10 
REMARK    4  A    between atoms: C8_9  and  C12_15 
REMARK    5  A    between atoms: C9_10  and  C10_11 
REMARK    6  A    between atoms: C10_11  and  N1_12 
REMARK    7  A    between atoms: C11_13  and  N2_14 
REMARK       I    between atoms: C12_15  and  N3_17 
REMARK    8  A    between atoms: N3_17  and  C13_18 
ROOT
HETATM    1  C12 UNL     1       1.590   0.392  -0.506  1.00  0.00     0.234 C 
HETATM    2  O2  UNL     1       1.038   1.113   0.393  1.00  0.00    -0.272 OA
HETATM    3  N3  UNL     1       0.658  -0.237  -1.370  1.00  0.00    -0.326 N 
HETATM    4  H14 UNL     1       1.028  -0.839  -2.128  1.00  0.00     0.169 HD
ENDROOT
BRANCH   1   5
HETATM    5  C8  UNL     1       3.047   0.281  -0.565  1.00  0.00     0.138 C 
BRANCH   5   6
HETATM    6  C7  UNL     1       3.541  -1.111  -0.389  1.00  0.00    -0.008 A 
HETATM    7  C2  UNL     1       4.047  -1.508   0.851  1.00  0.00     0.075 A 
HETATM    8  C3  UNL     1       4.527  -2.789   1.083  1.00  0.00     0.037 A 
HETATM    9  C4  UNL     1       4.516  -3.727   0.074  1.00  0.00     0.003 A 
HETATM   10  C5  UNL     1       4.021  -3.358  -1.158  1.00  0.00     0.001 A 
HETATM   11  C6  UNL     1       3.558  -2.091  -1.350  1.00  0.00     0.011 A 
BRANCH   7  12
HETATM   12  O1  UNL     1       4.058  -0.564   1.867  1.00  0.00    -0.355 OA
HETATM   13  C1  UNL     1       4.564  -0.920   3.146  1.00  0.00     0.210 C 
ENDBRANCH   7  12
ENDBRANCH   5   6
BRANCH   5  14
HETATM   14  C9  UNL     1       3.549   0.825  -1.849  1.00  0.00     0.011 C 
BRANCH  14  15
HETATM   15  C10 UNL     1       4.632   1.557  -1.897  1.00  0.00     0.115 C 
BRANCH  15  16
HETATM   16  N1  UNL     1       5.794   2.270  -1.501  1.00  0.00    -0.257 NA
HETATM   17  C11 UNL     1       5.837   2.997  -0.460  1.00  0.00     0.199 C 
BRANCH  17  18
HETATM   18  N2  UNL     1       4.887   3.322   0.549  1.00  0.00    -0.394 N 
HETATM   19  H12 UNL     1       4.141   4.035   0.556  1.00  0.00     0.156 HD
HETATM   20  H13 UNL     1       4.670   2.975   1.503  1.00  0.00     0.156 HD
ENDBRANCH  17  18
ENDBRANCH  15  16
ENDBRANCH  14  15
ENDBRANCH   5  14
ENDBRANCH   1   5
BRANCH   3  21
HETATM   21  C13 UNL     1      -0.754  -0.094  -1.267  1.00  0.00     0.034 C 
HETATM   22  C14 UNL     1      -1.306   0.433  -2.374  1.00  0.00     0.029 C 
HETATM   23  C15 UNL     1      -2.700   0.759  -2.723  1.00  0.00    -0.001 C 
HETATM   24  C16 UNL     1      -3.860   0.544  -2.092  1.00  0.00    -0.021 C 
HETATM   25  C17 UNL     1      -4.389  -0.062  -0.840  1.00  0.00     0.019 C 
HETATM   26  C18 UNL     1      -5.877   0.146  -0.823  1.00  0.00     0.039 C 
HETATM   27  C22 UNL     1      -3.672   0.563   0.323  1.00  0.00     0.044 C 
HETATM   28  C19 UNL     1      -6.515  -0.096   0.496  1.00  0.00     0.272 C 
HETATM   29  N4  UNL     1      -5.636  -0.140   1.627  1.00  0.00     0.084 N 
HETATM   30  C20 UNL     1      -6.433   0.296   2.781  1.00  0.00     0.309 C 
HETATM   31  C21 UNL     1      -4.504   0.742   1.548  1.00  0.00     0.280 C 
HETATM   32  C23 UNL     1      -2.463  -0.262   0.604  1.00  0.00    -0.017 C 
HETATM   33  C24 UNL     1      -1.309  -0.551   0.025  1.00  0.00     0.026 C 
ENDBRANCH   3  21
TORSDOF 8
