REMARK  7 active torsions:
REMARK  status: ('A' for Active; 'I' for Inactive)
REMARK    1  A    between atoms: O1_2  and  C2_3 
REMARK    2  A    between atoms: C7_8  and  N1_9 
REMARK    3  A    between atoms: N1_9  and  C8_10 
REMARK    4  A    between atoms: C8_10  and  C9_11 
REMARK    5  A    between atoms: C8_10  and  C10_13 
REMARK    6  A    between atoms: C10_13  and  C11_14 
REMARK    7  A    between atoms: C11_14  and  C12_16 
ROOT
HETATM    1  C11 UNL     1       0.728   0.358  -0.073  1.00  0.00     0.155 C 
HETATM    2  O3  UNL     1       1.271   0.682   1.036  1.00  0.00    -0.293 OA
ENDROOT
BRANCH   1   3
HETATM    3  C10 UNL     1       0.927   0.308  -1.525  1.00  0.00     0.115 C 
BRANCH   3   4
HETATM    4  C8  UNL     1       2.146   1.011  -2.037  1.00  0.00     0.150 C 
BRANCH   4   5
HETATM    5  N1  UNL     1       3.411   0.670  -1.581  1.00  0.00    -0.376 N 
HETATM    6  H8  UNL     1       2.977   0.565  -0.612  1.00  0.00     0.160 HD
BRANCH   5   7
HETATM    7  C7  UNL     1       4.689   0.317  -1.091  1.00  0.00     0.062 A 
HETATM    8  C2  UNL     1       5.503   0.634  -2.203  1.00  0.00     0.094 A 
HETATM    9  C3  UNL     1       6.890   0.400  -2.099  1.00  0.00     0.039 A 
HETATM   10  C4  UNL     1       7.359  -0.115  -0.937  1.00  0.00     0.003 A 
HETATM   11  C5  UNL     1       6.575  -0.422   0.139  1.00  0.00     0.002 A 
HETATM   12  C6  UNL     1       5.231  -0.205   0.061  1.00  0.00     0.032 A 
BRANCH   8  13
HETATM   13  O1  UNL     1       5.198   1.161  -3.462  1.00  0.00    -0.354 OA
HETATM   14  C1  UNL     1       6.102   1.449  -4.481  1.00  0.00     0.210 C 
ENDBRANCH   8  13
ENDBRANCH   5   7
ENDBRANCH   4   5
BRANCH   4  15
HETATM   15  C9  UNL     1       2.115   1.062  -3.552  1.00  0.00     0.256 C 
HETATM   16  O2  UNL     1       1.850   1.320  -4.713  1.00  0.00    -0.305 OA
ENDBRANCH   4  15
ENDBRANCH   3   4
ENDBRANCH   1   3
BRANCH   1  17
HETATM   17  C12 UNL     1      -0.587  -0.188  -0.060  1.00  0.00    -0.020 A 
HETATM   18  C13 UNL     1      -1.827  -0.705  -0.228  1.00  0.00     0.052 A 
HETATM   19  C14 UNL     1      -2.680  -1.106   0.915  1.00  0.00     0.008 C 
HETATM   20  C20 UNL     1      -1.486   0.729   0.738  1.00  0.00     0.037 A 
HETATM   21  C15 UNL     1      -3.682  -1.510   1.607  1.00  0.00     0.005 C 
HETATM   22  C16 UNL     1      -4.921  -1.798   0.763  1.00  0.00     0.076 C 
HETATM   23  N3  UNL     1      -3.594  -1.560   3.010  1.00  0.00    -0.387 N 
HETATM   24  C17 UNL     1      -5.660  -0.402   0.928  1.00  0.00     0.123 C 
HETATM   25  N2  UNL     1      -4.894   0.317   1.924  1.00  0.00    -0.410 N 
HETATM   26  C18 UNL     1      -4.150   1.449   1.471  1.00  0.00     0.122 C 
HETATM   27  C21 UNL     1      -5.265   0.177   3.268  1.00  0.00     0.136 C 
HETATM   28  C19 UNL     1      -2.812   0.957   0.989  1.00  0.00     0.019 C 
HETATM   29  C22 UNL     1      -4.840  -1.227   3.743  1.00  0.00     0.141 C 
HETATM   30  C23 UNL     1      -2.227  -1.946   3.359  1.00  0.00     0.149 C 
ENDBRANCH   1  17
TORSDOF 7
