REMARK  7 active torsions:
REMARK  status: ('A' for Active; 'I' for Inactive)
REMARK    1  A    between atoms: O1_2  and  C2_3 
REMARK    2  A    between atoms: C7_8  and  N1_9 
REMARK    3  A    between atoms: C12_15  and  C13_16 
REMARK    4  A    between atoms: C16_19  and  C17_20 
REMARK    5  A    between atoms: C17_20  and  C18_21 
REMARK    6  A    between atoms: C18_21  and  C19_22 
REMARK    7  A    between atoms: C19_22  and  C20_23 
ROOT
HETATM    1  C13 UNL     1      -1.933   1.892  -1.484  1.00  0.00     0.107 A 
HETATM    2  C14 UNL     1      -1.154   1.225  -2.300  1.00  0.00     0.040 A 
HETATM    3  C15 UNL     1       0.249   1.025  -1.953  1.00  0.00     0.034 A 
HETATM    4  C16 UNL     1       0.610   1.558  -0.803  1.00  0.00     0.054 A 
HETATM    5  N3  UNL     1      -0.159   2.287   0.131  1.00  0.00    -0.261 N 
HETATM    6  O3  UNL     1      -1.473   2.423  -0.287  1.00  0.00    -0.239 OA
HETATM    7  H30 UNL     1       0.179   2.688   1.030  1.00  0.00     0.195 HD
ENDROOT
BRANCH   1   8
HETATM    8  C12 UNL     1      -3.360   2.087  -1.851  1.00  0.00     0.220 C 
HETATM    9  N1  UNL     1      -4.275   1.519  -0.905  1.00  0.00    -0.340 N 
HETATM   10  C8  UNL     1      -5.683   1.770  -1.196  1.00  0.00     0.153 C 
HETATM   11  C9  UNL     1      -5.971   3.214  -1.207  1.00  0.00    -0.003 C 
HETATM   12  C10 UNL     1      -5.014   4.048  -1.584  1.00  0.00     0.050 C 
HETATM   13  C11 UNL     1      -3.690   3.534  -1.983  1.00  0.00     0.178 C 
HETATM   14  O2  UNL     1      -2.954   4.454  -2.417  1.00  0.00    -0.291 OA
BRANCH   9  15
HETATM   15  C7  UNL     1      -4.009   0.741   0.281  1.00  0.00     0.149 C 
HETATM   16  C6  UNL     1      -3.848   1.466   1.383  1.00  0.00     0.056 C 
HETATM   17  C5  UNL     1      -3.570   1.015   2.744  1.00  0.00     0.004 C 
HETATM   18  C4  UNL     1      -3.532  -0.241   3.206  1.00  0.00     0.005 C 
HETATM   19  C3  UNL     1      -3.774  -1.424   2.388  1.00  0.00     0.064 C 
HETATM   20  C2  UNL     1      -3.958  -1.651   1.099  1.00  0.00     0.186 C 
HETATM   21  O4  UNL     1      -3.958  -0.655   0.100  1.00  0.00    -0.271 OA
BRANCH  20  22
HETATM   22  O1  UNL     1      -4.180  -2.875   0.486  1.00  0.00    -0.335 OA
HETATM   23  C1  UNL     1      -3.575  -4.030   1.034  1.00  0.00     0.212 C 
ENDBRANCH  20  22
ENDBRANCH   9  15
ENDBRANCH   1   8
BRANCH   4  24
HETATM   24  C17 UNL     1       1.985   1.409  -0.377  1.00  0.00     0.027 C 
BRANCH  24  25
HETATM   25  C18 UNL     1       3.179   0.960  -0.588  1.00  0.00    -0.024 C 
BRANCH  25  26
HETATM   26  C19 UNL     1       4.550   0.499  -0.731  1.00  0.00     0.032 C 
BRANCH  26  27
HETATM   27  C20 UNL     1       4.676  -1.028  -0.832  1.00  0.00    -0.005 C 
HETATM   28  C21 UNL     1       4.128  -1.664   0.396  1.00  0.00     0.020 C 
HETATM   29  C22 UNL     1       4.773  -2.992   0.719  1.00  0.00     0.094 C 
HETATM   30  N2  UNL     1       6.037  -2.766   1.398  1.00  0.00    -0.296 NA
HETATM   31  C23 UNL     1       5.872  -1.896   2.549  1.00  0.00     0.115 C 
HETATM   32  P1  UNL     1       7.107  -1.911   0.230  1.00  0.00    -0.055 P 
HETATM   33  C24 UNL     1       6.048  -1.441  -1.228  1.00  0.00     0.052 C 
HETATM   34  H27 UNL     1       8.106  -2.867  -0.240  1.00  0.00     0.074 HD
ENDBRANCH  26  27
ENDBRANCH  25  26
ENDBRANCH  24  25
ENDBRANCH   4  24
TORSDOF 7
