REMARK  4 active torsions:
REMARK  status: ('A' for Active; 'I' for Inactive)
REMARK    1  A    between atoms: C4_5  and  C5_6 
REMARK    2  A    between atoms: C8_9  and  N2_10 
REMARK       I    between atoms: N2_10  and  C9_11 
REMARK    3  A    between atoms: C9_11  and  C10_13 
REMARK    4  A    between atoms: C10_13  and  C11_14 
ROOT
HETATM    1  C5  UNL     1      -1.727  -0.521  -0.453  1.00  0.00    -0.054 A 
HETATM    2  C6  UNL     1      -0.914  -1.333  -1.237  1.00  0.00     0.010 A 
HETATM    3  C7  UNL     1       0.435  -1.077  -1.371  1.00  0.00     0.030 A 
HETATM    4  C8  UNL     1       1.016  -0.016  -0.735  1.00  0.00     0.034 A 
HETATM    5  C15 UNL     1       0.219   0.812   0.056  1.00  0.00     0.030 A 
HETATM    6  C16 UNL     1      -1.138   0.550   0.187  1.00  0.00     0.010 A 
ENDROOT
BRANCH   4   7
HETATM    7  N2  UNL     1       2.412   0.144  -0.949  1.00  0.00    -0.327 N 
HETATM    8  C9  UNL     1       3.423  -0.438  -0.147  1.00  0.00     0.224 C 
HETATM    9  O1  UNL     1       3.040  -1.144   0.822  1.00  0.00    -0.273 OA
HETATM   10  H11 UNL     1       2.438   0.751  -1.781  1.00  0.00     0.169 HD
BRANCH   8  11
HETATM   11  C10 UNL     1       4.777  -0.076  -0.638  1.00  0.00     0.136 C 
BRANCH  11  12
HETATM   12  C11 UNL     1       5.866  -0.691   0.210  1.00  0.00     0.164 C 
HETATM   13  N3  UNL     1       7.126  -0.258  -0.380  1.00  0.00    -0.387 N 
HETATM   14  C12 UNL     1       7.760   0.797   0.354  1.00  0.00     0.087 C 
HETATM   15  H15 UNL     1       7.465  -0.723  -1.255  1.00  0.00     0.159 HD
HETATM   16  C13 UNL     1       7.064   0.982   1.479  1.00  0.00     0.069 C 
HETATM   17  C14 UNL     1       5.935   0.037   1.516  1.00  0.00     0.173 C 
HETATM   18  O2  UNL     1       5.261   0.019   2.601  1.00  0.00    -0.291 OA
ENDBRANCH  11  12
ENDBRANCH   8  11
ENDBRANCH   4   7
BRANCH   1  19
HETATM   19  C4  UNL     1      -3.172  -0.838  -0.342  1.00  0.00     0.022 C 
HETATM   20  C3  UNL     1      -3.627  -1.158   1.044  1.00  0.00     0.039 C 
HETATM   21  C2  UNL     1      -4.563  -0.116   1.620  1.00  0.00     0.272 C 
HETATM   22  N1  UNL     1      -5.719   0.138   0.800  1.00  0.00     0.084 N 
HETATM   23  C1  UNL     1      -6.202   1.503   1.063  1.00  0.00     0.309 C 
HETATM   24  C18 UNL     1      -5.480  -0.055  -0.614  1.00  0.00     0.272 C 
HETATM   25  C17 UNL     1      -4.032   0.262  -0.928  1.00  0.00     0.039 C 
ENDBRANCH   1  19
TORSDOF 4
