REMARK  2 active torsions:
REMARK  status: ('A' for Active; 'I' for Inactive)
REMARK    1  A    between atoms: N2_6  and  C4_7 
REMARK    2  A    between atoms: C4_7  and  C5_8 
ROOT
HETATM    1  O1  UNL     1       2.549  -1.151   0.617  1.00  0.00     0.000 OA
HETATM    2  C1  UNL     1       3.426  -1.826  -0.028  1.00  0.00     0.290 A 
HETATM    3  N1  UNL     1       2.193  -2.419   0.444  1.00  0.00     0.117 N 
HETATM    4  C2  UNL     1       1.135  -1.706   1.205  1.00  0.00     0.298 A 
HETATM    5  C3  UNL     1       0.167  -1.065   0.500  1.00  0.00     0.097 C 
HETATM    6  N2  UNL     1      -0.883  -0.368  -0.169  1.00  0.00    -0.380 N 
HETATM    7  C10 UNL     1      -0.569   1.000  -0.648  1.00  0.00     0.206 C 
HETATM    8  S1  UNL     1       0.834   1.156  -1.724  1.00  0.00    -0.049 SA
HETATM    9  C11 UNL     1       2.438   0.937  -1.073  1.00  0.00     0.291 C 
HETATM   10  O2  UNL     1       2.875   1.031  -2.245  1.00  0.00    -0.259 OA
HETATM   11  N4  UNL     1       3.755   0.758  -0.537  1.00  0.00    -0.284 N 
HETATM   12  C12 UNL     1       4.643   1.855  -0.414  1.00  0.00     0.101 C 
HETATM   13  C13 UNL     1       5.846   1.710   0.116  1.00  0.00     0.019 C 
HETATM   14  C14 UNL     1       6.156   0.356   0.548  1.00  0.00     0.016 C 
HETATM   15  C15 UNL     1       5.377  -0.674   0.375  1.00  0.00     0.002 C 
HETATM   16  C16 UNL     1       4.171  -0.576  -0.072  1.00  0.00     0.076 C 
HETATM   17  H1  UNL     1       1.688  -3.307   0.457  1.00  0.00     0.318 HD
ENDROOT
BRANCH   6  18
HETATM   18  C4  UNL     1      -2.171  -1.010  -0.332  1.00  0.00     0.152 C 
BRANCH  18  19
HETATM   19  C5  UNL     1      -3.153  -0.250   0.573  1.00  0.00     0.147 A 
HETATM   20  N3  UNL     1      -3.240   1.131   0.194  1.00  0.00    -0.293 NA
HETATM   21  C6  UNL     1      -4.339   1.669  -0.102  1.00  0.00     0.110 A 
HETATM   22  C7  UNL     1      -5.678   1.099  -0.133  1.00  0.00     0.016 A 
HETATM   23  C8  UNL     1      -5.633  -0.174   0.223  1.00  0.00    -0.003 A 
HETATM   24  C9  UNL     1      -4.457  -0.985   0.616  1.00  0.00     0.131 A 
HETATM   25 CL1  UNL     1      -4.807  -1.546   2.300  1.00  0.00    -0.118 Cl
ENDBRANCH  18  19
ENDBRANCH   6  18
TORSDOF 2
