REMARK  3 active torsions:
REMARK  status: ('A' for Active; 'I' for Inactive)
REMARK    1  A    between atoms: O1_1  and  C1_2 
REMARK    2  A    between atoms: C3_6  and  N3_7 
REMARK    3  A    between atoms: N3_7  and  C4_8 
ROOT
HETATM    1  C1  UNL     1      -2.119  -2.006   1.421  1.00  0.00     0.397 C 
HETATM    2  N1  UNL     1      -0.715  -1.494   1.626  1.00  0.00    -0.225 NA
HETATM    3  C2  UNL     1      -0.023  -1.356   0.514  1.00  0.00     0.234 C 
HETATM    4  N2  UNL     1       1.224  -0.964  -0.016  1.00  0.00    -0.227 NA
HETATM    5  C3  UNL     1       1.318   0.348  -0.200  1.00  0.00     0.134 C 
HETATM    6  C10 UNL     1       0.442   1.503   0.038  1.00  0.00     0.347 C 
HETATM    7  N4  UNL     1      -0.941   1.275   0.192  1.00  0.00     0.094 N 
HETATM    8  C11 UNL     1      -1.704   0.915  -0.967  1.00  0.00     0.311 C 
HETATM    9  C12 UNL     1      -3.135   0.739  -0.522  1.00  0.00     0.003 A 
HETATM   10  C13 UNL     1      -4.066   1.657  -1.026  1.00  0.00     0.012 A 
HETATM   11  C14 UNL     1      -5.402   1.619  -0.703  1.00  0.00     0.001 A 
HETATM   12  C15 UNL     1      -5.891   0.656   0.148  1.00  0.00     0.003 A 
HETATM   13  C16 UNL     1      -4.980  -0.226   0.628  1.00  0.00     0.037 A 
HETATM   14  C17 UNL     1      -3.642  -0.219   0.329  1.00  0.00     0.082 A 
HETATM   15  O2  UNL     1      -2.875  -1.099   0.843  1.00  0.00    -0.300 OA
HETATM   16  H11 UNL     1      -1.378   2.154   0.571  1.00  0.00     0.316 HD
ENDROOT
BRANCH   5  17
HETATM   17  N3  UNL     1       2.604   0.650  -0.734  1.00  0.00    -0.343 N 
HETATM   18  H4  UNL     1       2.668   1.375  -1.515  1.00  0.00     0.167 HD
BRANCH  17  19
HETATM   19  C4  UNL     1       3.858   0.072  -0.316  1.00  0.00     0.034 A 
HETATM   20  C5  UNL     1       4.008  -0.800   0.717  1.00  0.00     0.029 A 
HETATM   21  C6  UNL     1       5.228  -1.336   1.075  1.00  0.00     0.004 A 
HETATM   22  C7  UNL     1       6.362  -1.002   0.386  1.00  0.00     0.019 A 
HETATM   23  C8  UNL     1       6.225  -0.124  -0.657  1.00  0.00     0.013 A 
HETATM   24 BR1  UNL     1       7.780   0.378  -1.655  1.00  0.00    -0.051 Br
HETATM   25  C9  UNL     1       5.012   0.393  -0.992  1.00  0.00     0.048 A 
ENDBRANCH  17  19
ENDBRANCH   5  17
BRANCH   1  26
HETATM   26  O1  UNL     1      -1.928  -3.215   0.735  1.00  0.00    -0.353 OA
HETATM   27  H1  UNL     1      -1.936  -3.099  -0.247  1.00  0.00     0.214 HD
ENDBRANCH   1  26
TORSDOF 3
