REMARK  6 active torsions:
REMARK  status: ('A' for Active; 'I' for Inactive)
REMARK    1  A    between atoms: C2_2  and  O1_3 
REMARK    2  A    between atoms: O1_3  and  C3_4 
REMARK    3  A    between atoms: N1_9  and  C8_10 
REMARK    4  A    between atoms: C10_12  and  N2_14 
REMARK    5  A    between atoms: N2_14  and  C12_15 
REMARK    6  A    between atoms: C15_18  and  C16_19 
ROOT
HETATM    1  C8  UNL     1      -3.372  -0.583   0.340  1.00  0.00     0.031 C 
HETATM    2  C9  UNL     1      -2.341  -0.887   1.094  1.00  0.00     0.040 C 
HETATM    3  C10 UNL     1      -1.023  -0.227   1.273  1.00  0.00     0.128 C 
HETATM    4  C11 UNL     1      -0.880   0.168   2.728  1.00  0.00     0.054 C 
HETATM    5  C23 UNL     1      -1.014   1.008   0.452  1.00  0.00     0.249 C 
HETATM    6  O2  UNL     1      -0.172   1.936   0.706  1.00  0.00    -0.270 OA
HETATM    7  N4  UNL     1      -1.939   1.160  -0.613  1.00  0.00    -0.353 N 
HETATM    8  C24 UNL     1      -3.258   0.612  -0.499  1.00  0.00     0.179 C 
HETATM    9  H32 UNL     1      -1.641   1.676  -1.475  1.00  0.00     0.162 HD
ENDROOT
BRANCH   3  10
HETATM   10  N2  UNL     1       0.024  -1.146   0.866  1.00  0.00    -0.372 N 
HETATM   11  H15 UNL     1      -0.220  -2.110   0.513  1.00  0.00     0.161 HD
BRANCH  10  12
HETATM   12  C12 UNL     1       1.441  -1.077   0.816  1.00  0.00     0.010 A 
HETATM   13  C13 UNL     1       2.312  -1.520   1.701  1.00  0.00     0.025 A 
HETATM   14  C14 UNL     1       3.654  -1.227   1.224  1.00  0.00     0.005 A 
HETATM   15  C15 UNL     1       3.623  -0.611   0.061  1.00  0.00    -0.070 A 
HETATM   16  C22 UNL     1       2.206  -0.462  -0.300  1.00  0.00     0.091 A 
BRANCH  15  17
HETATM   17  C16 UNL     1       4.769  -0.150  -0.743  1.00  0.00     0.018 C 
HETATM   18  C17 UNL     1       6.087  -0.564  -0.179  1.00  0.00     0.028 C 
HETATM   19  C18 UNL     1       7.168   0.216  -0.927  1.00  0.00     0.117 C 
HETATM   20  N3  UNL     1       7.134   1.553  -0.390  1.00  0.00    -0.417 N 
HETATM   21  C19 UNL     1       8.111   2.435  -0.947  1.00  0.00     0.143 C 
HETATM   22  C20 UNL     1       5.824   2.086  -0.235  1.00  0.00     0.117 C 
HETATM   23  C21 UNL     1       4.761   1.326  -0.983  1.00  0.00     0.028 C 
ENDBRANCH  15  17
ENDBRANCH  10  12
ENDBRANCH   3  10
BRANCH   1  24
HETATM   24  N1  UNL     1      -4.544  -1.365   0.328  1.00  0.00    -0.327 N 
HETATM   25  C3  UNL     1      -5.860  -0.846   0.259  1.00  0.00     0.144 A 
HETATM   26  C4  UNL     1      -6.969  -1.568   0.247  1.00  0.00     0.056 A 
HETATM   27  C5  UNL     1      -6.859  -3.022   0.307  1.00  0.00     0.002 A 
HETATM   28  C6  UNL     1      -5.635  -3.526   0.372  1.00  0.00    -0.007 A 
HETATM   29  C7  UNL     1      -4.361  -2.804   0.391  1.00  0.00     0.158 A 
BRANCH  25  30
HETATM   30  O1  UNL     1      -6.033   0.531   0.200  1.00  0.00    -0.336 OA
BRANCH  30  31
HETATM   31  C2  UNL     1      -6.636   1.021  -0.986  1.00  0.00     0.173 C 
HETATM   32  C1  UNL     1      -6.782   2.516  -0.996  1.00  0.00     0.034 C 
ENDBRANCH  30  31
ENDBRANCH  25  30
ENDBRANCH   1  24
TORSDOF 6
