REMARK  8 active torsions:
REMARK  status: ('A' for Active; 'I' for Inactive)
REMARK    1  A    between atoms: C2_2  and  C3_3 
REMARK    2  A    between atoms: C3_3  and  O1_4 
REMARK    3  A    between atoms: O1_4  and  C4_5 
REMARK    4  A    between atoms: N1_10  and  C9_11 
REMARK    5  A    between atoms: C9_11  and  C10_12 
REMARK    6  A    between atoms: C11_13  and  N2_14 
REMARK       I    between atoms: N2_14  and  C12_15 
REMARK    7  A    between atoms: C12_15  and  C13_17 
REMARK       I    between atoms: C13_17  and  N3_19 
REMARK    8  A    between atoms: N3_19  and  C14_20 
ROOT
HETATM    1  N2  UNL     1       0.870   1.210   0.441  1.00  0.00    -0.329 N 
HETATM    2  C12 UNL     1      -0.453   1.420   0.920  1.00  0.00     0.313 C 
HETATM    3  O2  UNL     1      -0.640   1.760   2.107  1.00  0.00    -0.262 OA
HETATM    4  H15 UNL     1       1.076   0.921  -0.557  1.00  0.00     0.168 HD
ENDROOT
BRANCH   2   5
HETATM    5  C13 UNL     1      -1.567   1.223  -0.028  1.00  0.00     0.314 C 
HETATM    6  O3  UNL     1      -1.360   0.881  -1.221  1.00  0.00    -0.262 OA
HETATM    7  N3  UNL     1      -2.915   1.431   0.441  1.00  0.00    -0.320 N 
HETATM    8  H16 UNL     1      -3.016   1.719   1.459  1.00  0.00     0.169 HD
BRANCH   7   9
HETATM    9  C14 UNL     1      -4.072   1.264  -0.404  1.00  0.00     0.046 A 
HETATM   10  C15 UNL     1      -4.837   2.329  -0.566  1.00  0.00     0.027 A 
HETATM   11  C16 UNL     1      -5.999   2.216  -1.401  1.00  0.00    -0.002 A 
HETATM   12  C17 UNL     1      -6.181   1.021  -1.935  1.00  0.00    -0.019 A 
HETATM   13  C18 UNL     1      -5.413  -0.243  -1.845  1.00  0.00     0.049 A 
HETATM   14  C19 UNL     1      -6.233  -1.366  -1.207  1.00  0.00     0.041 C 
HETATM   15  C22 UNL     1      -4.235  -0.120  -0.959  1.00  0.00     0.279 A 
HETATM   16  C20 UNL     1      -5.149  -2.138  -0.433  1.00  0.00     0.273 C 
HETATM   17  N4  UNL     1      -4.276  -1.102   0.063  1.00  0.00     0.095 N 
HETATM   18  C21 UNL     1      -4.779  -0.653   1.329  1.00  0.00     0.310 C 
ENDBRANCH   7   9
ENDBRANCH   2   5
BRANCH   1  19
HETATM   19  C11 UNL     1       1.998   1.380   1.296  1.00  0.00     0.089 C 
HETATM   20  C10 UNL     1       2.831   0.383   1.543  1.00  0.00     0.010 C 
BRANCH  20  21
HETATM   21  C9  UNL     1       2.630  -0.948   0.948  1.00  0.00     0.159 C 
BRANCH  21  22
HETATM   22  N1  UNL     1       3.731  -1.385   0.115  1.00  0.00    -0.335 N 
HETATM   23  C4  UNL     1       4.944  -0.746  -0.217  1.00  0.00     0.141 A 
HETATM   24  C5  UNL     1       5.772  -1.376  -1.003  1.00  0.00     0.033 A 
HETATM   25  C6  UNL     1       5.608  -2.712  -1.612  1.00  0.00     0.060 A 
HETATM   26  C7  UNL     1       4.318  -3.317  -1.220  1.00  0.00    -0.006 A 
HETATM   27  C8  UNL     1       3.456  -2.695  -0.421  1.00  0.00     0.089 A 
BRANCH  23  28
HETATM   28  O1  UNL     1       5.087   0.498   0.355  1.00  0.00    -0.332 OA
BRANCH  28  29
HETATM   29  C3  UNL     1       6.312   0.879   0.953  1.00  0.00     0.204 C 
BRANCH  29  30
HETATM   30  C2  UNL     1       6.166   2.267   1.480  1.00  0.00    -0.011 C 
HETATM   31  C1  UNL     1       5.374   3.309   1.632  1.00  0.00     0.009 C 
ENDBRANCH  29  30
ENDBRANCH  28  29
ENDBRANCH  23  28
ENDBRANCH  21  22
ENDBRANCH  20  21
ENDBRANCH   1  19
TORSDOF 8
