REMARK  3 active torsions:
REMARK  status: ('A' for Active; 'I' for Inactive)
REMARK    1  A    between atoms: C4_5  and  C5_6 
REMARK    2  A    between atoms: C8_9  and  N2_10 
REMARK       I    between atoms: N2_10  and  C9_11 
REMARK    3  A    between atoms: C9_11  and  C10_13 
ROOT
HETATM    1  C5  UNL     1      -1.111   0.399  -0.576  1.00  0.00    -0.054 A 
HETATM    2  C6  UNL     1      -0.527  -0.816  -0.773  1.00  0.00     0.010 A 
HETATM    3  C7  UNL     1       0.836  -0.926  -0.933  1.00  0.00     0.030 A 
HETATM    4  C8  UNL     1       1.658   0.166  -0.902  1.00  0.00     0.035 A 
HETATM    5  C14 UNL     1       1.105   1.431  -0.703  1.00  0.00     0.030 A 
HETATM    6  C15 UNL     1      -0.254   1.503  -0.547  1.00  0.00     0.010 A 
ENDROOT
BRANCH   4   7
HETATM    7  N2  UNL     1       3.079   0.142  -1.059  1.00  0.00    -0.323 N 
HETATM    8  C9  UNL     1       3.804  -0.008   0.151  1.00  0.00     0.261 C 
HETATM    9  O1  UNL     1       3.078  -0.097   1.176  1.00  0.00    -0.267 OA
HETATM   10  H11 UNL     1       3.580   0.224  -1.963  1.00  0.00     0.169 HD
BRANCH   8  11
HETATM   11  C10 UNL     1       5.257  -0.057   0.208  1.00  0.00     0.097 A 
HETATM   12  C11 UNL     1       5.936  -0.197   1.335  1.00  0.00     0.015 A 
HETATM   13  C12 UNL     1       7.391  -0.209   1.052  1.00  0.00     0.151 A 
HETATM   14  N3  UNL     1       7.447  -0.058  -0.371  1.00  0.00    -0.353 N 
HETATM   15  C13 UNL     1       6.145   0.038  -0.919  1.00  0.00     0.257 A 
HETATM   16  H15 UNL     1       8.412  -0.039  -0.814  1.00  0.00     0.163 HD
HETATM   17  O2  UNL     1       5.910   0.175  -2.142  1.00  0.00    -0.267 OA
ENDBRANCH   8  11
ENDBRANCH   4   7
BRANCH   1  18
HETATM   18  C4  UNL     1      -2.567   0.615  -0.394  1.00  0.00     0.022 C 
HETATM   19  C3  UNL     1      -3.352   0.174  -1.602  1.00  0.00     0.039 C 
HETATM   20  C2  UNL     1      -4.705  -0.354  -1.287  1.00  0.00     0.272 C 
HETATM   21  N1  UNL     1      -5.345   0.160  -0.125  1.00  0.00     0.084 N 
HETATM   22  C1  UNL     1      -6.366  -0.814   0.271  1.00  0.00     0.309 C 
HETATM   23  C17 UNL     1      -4.524   0.416   1.009  1.00  0.00     0.272 C 
HETATM   24  C16 UNL     1      -3.130  -0.134   0.791  1.00  0.00     0.039 C 
ENDBRANCH   1  18
TORSDOF 3
