REMARK  8 active torsions:
REMARK  status: ('A' for Active; 'I' for Inactive)
REMARK    1  A    between atoms: N1_2  and  C3_4 
REMARK    2  A    between atoms: C3_4  and  C5_7 
REMARK    3  A    between atoms: C5_7  and  C6_8 
REMARK    4  A    between atoms: C6_8  and  N2_9 
REMARK       I    between atoms: N2_9  and  C7_10 
REMARK    5  A    between atoms: C7_10  and  C8_12 
REMARK    6  A    between atoms: N3_14  and  C10_15 
REMARK    7  A    between atoms: C10_15  and  C11_16 
REMARK    8  A    between atoms: C11_16  and  C12_17 
ROOT
HETATM    1  C8  UNL     1       0.023   0.262   0.564  1.00  0.00     0.115 C 
HETATM    2  C9  UNL     1      -1.140   0.416  -0.095  1.00  0.00     0.113 C 
HETATM    3  N3  UNL     1      -2.413   0.863   0.346  1.00  0.00    -0.364 N 
HETATM    4  C18 UNL     1      -2.604   1.721   1.490  1.00  0.00     0.107 C 
HETATM    5  C19 UNL     1      -1.789   1.996   2.503  1.00  0.00     0.108 C 
HETATM    6  N4  UNL     1      -0.459   1.519   2.769  1.00  0.00    -0.331 N 
HETATM    7  C20 UNL     1       0.206   0.540   1.980  1.00  0.00     0.262 C 
HETATM    8  O2  UNL     1       1.063  -0.201   2.519  1.00  0.00    -0.267 OA
HETATM    9  H24 UNL     1       0.098   1.866   3.565  1.00  0.00     0.168 HD
ENDROOT
BRANCH   1  10
HETATM   10  C7  UNL     1       1.094  -0.222  -0.260  1.00  0.00     0.258 C 
HETATM   11  N2  UNL     1       2.443  -0.497   0.049  1.00  0.00    -0.356 N 
HETATM   12  H12 UNL     1       2.728  -0.318   1.033  1.00  0.00     0.162 HD
HETATM   13  O1  UNL     1       0.886  -0.472  -1.485  1.00  0.00    -0.267 OA
BRANCH  11  14
HETATM   14  C6  UNL     1       3.293  -0.981  -0.993  1.00  0.00     0.128 C 
BRANCH  14  15
HETATM   15  C5  UNL     1       4.694  -1.219  -0.478  1.00  0.00     0.085 C 
BRANCH  15  16
HETATM   16  C3  UNL     1       5.333  -0.010   0.059  1.00  0.00     0.169 A 
HETATM   17  C4  UNL     1       4.673   1.120   0.050  1.00  0.00     0.223 A 
HETATM   18  F1  UNL     1       5.940   1.006   0.539  1.00  0.00    -0.366 F 
BRANCH  16  19
HETATM   19  N1  UNL     1       6.648  -0.238   0.542  1.00  0.00    -0.387 N 
HETATM   20  C1  UNL     1       7.783  -0.010  -0.337  1.00  0.00     0.146 C 
HETATM   21  C2  UNL     1       6.929  -0.691   1.877  1.00  0.00     0.146 C 
ENDBRANCH  16  19
ENDBRANCH  15  16
ENDBRANCH  14  15
ENDBRANCH  11  14
ENDBRANCH   1  10
BRANCH   3  22
HETATM   22  C10 UNL     1      -3.527   0.404  -0.422  1.00  0.00     0.132 C 
BRANCH  22  23
HETATM   23  C11 UNL     1      -4.852   0.886   0.044  1.00  0.00     0.058 C 
BRANCH  23  24
HETATM   24  C12 UNL     1      -5.976   0.356  -0.811  1.00  0.00    -0.055 A 
HETATM   25  C13 UNL     1      -6.587  -0.838  -0.484  1.00  0.00     0.007 A 
HETATM   26  C14 UNL     1      -7.625  -1.300  -1.299  1.00  0.00     0.002 A 
HETATM   27  C15 UNL     1      -8.034  -0.583  -2.407  1.00  0.00     0.024 A 
HETATM   28  C16 UNL     1      -7.425   0.612  -2.739  1.00  0.00     0.034 A 
HETATM   29 CL1  UNL     1      -7.905   1.558  -4.131  1.00  0.00    -0.084 Cl
HETATM   30  C17 UNL     1      -6.419   1.035  -1.927  1.00  0.00     0.031 A 
ENDBRANCH  23  24
ENDBRANCH  22  23
ENDBRANCH   3  22
TORSDOF 8
