REMARK  4 active torsions:
REMARK  status: ('A' for Active; 'I' for Inactive)
REMARK    1  A    between atoms: N2_6  and  C3_7 
REMARK    2  A    between atoms: C3_7  and  C4_8 
REMARK    3  A    between atoms: C10_15  and  C11_16 
REMARK       I    between atoms: C11_16  and  N3_18 
REMARK    4  A    between atoms: N3_18  and  C12_19 
ROOT
HETATM    1  O1  UNL     1      -1.239  -2.412   0.415  1.00  0.00    -0.271 OA
HETATM    2  C1  UNL     1      -0.284  -2.136  -0.389  1.00  0.00     0.246 C 
HETATM    3  N1  UNL     1       0.650  -3.153  -0.710  1.00  0.00    -0.349 N 
HETATM    4  C2  UNL     1       2.044  -2.907  -0.902  1.00  0.00     0.214 C 
HETATM    5  S1  UNL     1       2.250  -1.302  -1.719  1.00  0.00    -0.061 SA
HETATM    6  N2  UNL     1       1.152  -0.203  -0.867  1.00  0.00    -0.231 NA
HETATM    7  C10 UNL     1      -0.151  -0.782  -0.975  1.00  0.00     0.254 C 
HETATM    8  H1  UNL     1       0.317  -4.153  -0.816  1.00  0.00     0.163 HD
ENDROOT
BRANCH   7   9
HETATM    9  C11 UNL     1      -1.236   0.059  -0.480  1.00  0.00     0.250 C 
HETATM   10  O2  UNL     1      -1.066   1.190   0.002  1.00  0.00    -0.271 OA
HETATM   11  N3  UNL     1      -2.550  -0.487  -0.574  1.00  0.00    -0.325 N 
HETATM   12  H11 UNL     1      -2.852  -1.414  -0.951  1.00  0.00     0.169 HD
BRANCH  11  13
HETATM   13  C12 UNL     1      -3.698   0.219  -0.132  1.00  0.00     0.034 A 
HETATM   14  C13 UNL     1      -4.027  -0.008   1.195  1.00  0.00     0.029 A 
HETATM   15  C14 UNL     1      -5.133   0.629   1.742  1.00  0.00     0.002 A 
HETATM   16  C15 UNL     1      -5.903   1.490   0.955  1.00  0.00     0.000 A 
HETATM   17  C16 UNL     1      -5.573   1.717  -0.374  1.00  0.00     0.002 A 
HETATM   18  C17 UNL     1      -4.462   1.077  -0.919  1.00  0.00     0.029 A 
ENDBRANCH  11  13
ENDBRANCH   7   9
BRANCH   6  19
HETATM   19  C3  UNL     1       1.626  -0.012   0.471  1.00  0.00     0.143 C 
BRANCH  19  20
HETATM   20  C4  UNL     1       2.989   0.575   0.395  1.00  0.00    -0.043 A 
HETATM   21  C5  UNL     1       2.977   1.966   0.379  1.00  0.00     0.008 A 
HETATM   22  C6  UNL     1       4.158   2.701   0.311  1.00  0.00     0.002 A 
HETATM   23  C7  UNL     1       5.356   2.004   0.259  1.00  0.00     0.024 A 
HETATM   24  C8  UNL     1       5.378   0.621   0.275  1.00  0.00     0.034 A 
HETATM   25 CL1  UNL     1       6.877  -0.276   0.211  1.00  0.00    -0.084 Cl
HETATM   26  C9  UNL     1       4.195  -0.086   0.343  1.00  0.00     0.032 A 
ENDBRANCH  19  20
ENDBRANCH   6  19
TORSDOF 4
