REMARK  3 active torsions:
REMARK  status: ('A' for Active; 'I' for Inactive)
REMARK    1  A    between atoms: C3_3  and  C4_5 
REMARK    2  A    between atoms: C4_5  and  C5_6 
REMARK    3  A    between atoms: N1_11  and  C10_12 
ROOT
HETATM    1  C5  UNL     1       1.326   1.768   0.224  1.00  0.00     0.031 C 
HETATM    2  C6  UNL     1       1.539   2.963  -0.308  1.00  0.00    -0.001 C 
HETATM    3  C7  UNL     1       2.052   3.049  -1.509  1.00  0.00     0.015 C 
HETATM    4  C8  UNL     1       1.495   2.114  -2.491  1.00  0.00     0.018 C 
HETATM    5  C9  UNL     1       0.860   1.016  -2.043  1.00  0.00     0.095 C 
HETATM    6  N1  UNL     1       0.740   0.782  -0.617  1.00  0.00    -0.320 N 
ENDROOT
BRANCH   6   7
HETATM    7  C10 UNL     1       0.049  -0.409  -0.351  1.00  0.00     0.315 C 
HETATM    8  N2  UNL     1      -0.094  -0.606   1.056  1.00  0.00    -0.258 NA
HETATM    9  C11 UNL     1      -0.764  -1.548   1.609  1.00  0.00     0.121 C 
HETATM   10  C12 UNL     1      -2.151  -1.579   1.028  1.00  0.00     0.179 C 
HETATM   11  C13 UNL     1      -1.906  -1.751  -0.474  1.00  0.00     0.158 C 
HETATM   12  O1  UNL     1      -2.722  -0.347   1.324  1.00  0.00    -0.379 OA
HETATM   13  N3  UNL     1      -1.241  -0.570  -0.930  1.00  0.00    -0.372 N 
HETATM   14  C14 UNL     1      -2.085   0.556  -1.039  1.00  0.00     0.123 C 
HETATM   15  C15 UNL     1      -3.569   0.249  -0.828  1.00  0.00     0.046 C 
HETATM   16  C16 UNL     1      -3.868  -0.216   0.566  1.00  0.00     0.170 C 
ENDBRANCH   6   7
BRANCH   1  17
HETATM   17  C4  UNL     1       1.614   1.283   1.597  1.00  0.00     0.104 C 
BRANCH  17  18
HETATM   18  C3  UNL     1       2.552   0.128   1.631  1.00  0.00    -0.010 C 
HETATM   19  C2  UNL     1       3.146  -0.476   0.607  1.00  0.00    -0.016 C 
HETATM   20  C1  UNL     1       4.048  -1.617   0.898  1.00  0.00     0.037 C 
HETATM   21 BR1  UNL     1       2.947  -0.564   3.368  1.00  0.00    -0.056 Br
ENDBRANCH  17  18
ENDBRANCH   1  17
TORSDOF 3
