REMARK  8 active torsions:
REMARK  status: ('A' for Active; 'I' for Inactive)
REMARK    1  A    between atoms: C2_2  and  C3_3 
REMARK    2  A    between atoms: C3_3  and  N1_4 
REMARK    3  A    between atoms: N1_4  and  C4_5 
REMARK    4  A    between atoms: C5_6  and  C6_7 
REMARK       I    between atoms: C6_7  and  N2_9 
REMARK    5  A    between atoms: N2_9  and  C7_10 
REMARK    6  A    between atoms: C10_13  and  N3_14 
REMARK    7  A    between atoms: N3_14  and  C11_15 
REMARK    8  A    between atoms: C11_15  and  C12_16 
ROOT
HETATM    1  C6  UNL     1      -0.688   0.533   0.362  1.00  0.00     0.256 C 
HETATM    2  O1  UNL     1      -0.552  -0.625   0.825  1.00  0.00    -0.268 OA
HETATM    3  N2  UNL     1       0.563   1.040  -0.082  1.00  0.00    -0.323 N 
HETATM    4  H9  UNL     1       0.668   1.994  -0.505  1.00  0.00     0.169 HD
ENDROOT
BRANCH   1   5
HETATM    5  C5  UNL     1      -1.905   1.326   0.250  1.00  0.00     0.054 A 
HETATM    6  C4  UNL     1      -3.024   0.776   0.690  1.00  0.00     0.042 A 
HETATM    7  C17 UNL     1      -4.275   1.529   0.597  1.00  0.00     0.046 A 
HETATM    8  C16 UNL     1      -4.350   2.755   0.086  1.00  0.00     0.085 A 
HETATM    9  N4  UNL     1      -3.118   3.266  -0.358  1.00  0.00    -0.394 N 
HETATM   10  C15 UNL     1      -1.804   2.676  -0.336  1.00  0.00     0.165 A 
HETATM   11  H20 UNL     1      -3.043   4.226  -0.791  1.00  0.00     0.159 HD
BRANCH   6  12
HETATM   12  N1  UNL     1      -3.173  -0.514   1.265  1.00  0.00    -0.389 N 
HETATM   13  H8  UNL     1      -2.522  -0.839   2.040  1.00  0.00     0.159 HD
BRANCH  12  14
HETATM   14  C3  UNL     1      -4.185  -1.431   0.849  1.00  0.00     0.119 C 
BRANCH  14  15
HETATM   15  C2  UNL     1      -3.891  -1.904  -0.565  1.00  0.00     0.015 C 
HETATM   16  C1  UNL     1      -4.993  -2.881  -0.967  1.00  0.00     0.006 C 
ENDBRANCH  14  15
ENDBRANCH  12  14
ENDBRANCH   6  12
ENDBRANCH   1   5
BRANCH   3  17
HETATM   17  C7  UNL     1       1.865   0.479  -0.084  1.00  0.00     0.035 A 
HETATM   18  C8  UNL     1       2.761   0.606   0.956  1.00  0.00     0.032 A 
HETATM   19  C9  UNL     1       4.020   0.043   0.906  1.00  0.00     0.031 A 
HETATM   20  C10 UNL     1       4.451  -0.678  -0.188  1.00  0.00     0.028 A 
HETATM   21  C13 UNL     1       3.552  -0.802  -1.226  1.00  0.00     0.031 A 
HETATM   22  C14 UNL     1       2.296  -0.244  -1.182  1.00  0.00     0.032 A 
BRANCH  20  23
HETATM   23  N3  UNL     1       5.727  -1.260  -0.268  1.00  0.00    -0.384 N 
HETATM   24  H12 UNL     1       6.005  -1.795  -1.109  1.00  0.00     0.160 HD
BRANCH  23  25
HETATM   25  C11 UNL     1       6.679  -1.133   0.807  1.00  0.00     0.189 C 
BRANCH  25  26
HETATM   26  C12 UNL     1       7.032   0.284   1.103  1.00  0.00     0.250 C 
HETATM   27  O2  UNL     1       7.793   0.776   1.933  1.00  0.00    -0.305 OA
ENDBRANCH  25  26
ENDBRANCH  23  25
ENDBRANCH  20  23
ENDBRANCH   3  17
TORSDOF 8
