REMARK  2 active torsions:
REMARK  status: ('A' for Active; 'I' for Inactive)
REMARK    1  A    between atoms: C9_10  and  C10_11 
REMARK    2  A    between atoms: C10_11  and  C11_12 
ROOT
HETATM    1  C1  UNL     1       4.623  -0.325   0.551  1.00  0.00     0.149 C 
HETATM    2  N1  UNL     1       3.462  -0.732  -0.247  1.00  0.00    -0.391 N 
HETATM    3  C2  UNL     1       2.985  -2.024   0.114  1.00  0.00     0.085 C 
HETATM    4  C3  UNL     1       1.778  -2.568   0.149  1.00  0.00     0.017 C 
HETATM    5  C4  UNL     1       0.412  -2.148  -0.145  1.00  0.00     0.010 C 
HETATM    6  C5  UNL     1      -0.133  -0.953  -0.466  1.00  0.00    -0.035 C 
HETATM    7  C6  UNL     1       0.537   0.403  -0.633  1.00  0.00    -0.049 C 
HETATM    8  C7  UNL     1       1.731   0.820  -0.911  1.00  0.00     0.001 C 
HETATM    9  C8  UNL     1       3.071   0.259  -1.212  1.00  0.00     0.149 C 
HETATM   10  C9  UNL     1      -0.018   1.843  -0.543  1.00  0.00     0.020 C 
HETATM   11  C12 UNL     1      -1.417   1.674  -0.691  1.00  0.00     0.014 C 
HETATM   12  C13 UNL     1      -2.784   1.570  -0.932  1.00  0.00     0.036 C 
HETATM   13  C14 UNL     1      -3.038   0.025  -0.851  1.00  0.00    -0.065 C 
HETATM   14  C15 UNL     1      -2.476  -1.029  -1.535  1.00  0.00    -0.004 C 
HETATM   15  C16 UNL     1      -1.455  -1.541  -0.565  1.00  0.00     0.134 C 
HETATM   16  C17 UNL     1      -2.157  -1.786   0.748  1.00  0.00     0.230 C 
HETATM   17  O1  UNL     1      -1.544  -2.306   1.745  1.00  0.00    -0.272 OA
HETATM   18  N2  UNL     1      -3.534  -1.467   0.990  1.00  0.00    -0.356 N 
HETATM   19  C18 UNL     1      -4.041  -0.347   0.215  1.00  0.00     0.156 C 
HETATM   20  H21 UNL     1      -4.156  -1.970   1.657  1.00  0.00     0.162 HD
ENDROOT
BRANCH  10  21
HETATM   21  C10 UNL     1       0.373   2.515   0.731  1.00  0.00     0.024 C 
BRANCH  21  22
HETATM   22  C11 UNL     1      -0.069   1.885   1.998  1.00  0.00     0.115 C 
HETATM   23 CL1  UNL     1       0.499   0.269   2.318  1.00  0.00    -0.130 Cl
ENDBRANCH  21  22
ENDBRANCH  10  21
TORSDOF 2
