REMARK  8 active torsions:
REMARK  status: ('A' for Active; 'I' for Inactive)
REMARK    1  A    between atoms: C1_2  and  N1_3 
REMARK    2  A    between atoms: N1_3  and  C2_4 
REMARK       I    between atoms: N1_3  and  C10_14 
REMARK    3  A    between atoms: C3_5  and  C4_6 
REMARK    4  A    between atoms: C4_6  and  N2_7 
REMARK    5  A    between atoms: N2_7  and  C5_8 
REMARK    6  A    between atoms: C5_8  and  C6_9 
REMARK    7  A    between atoms: C6_9  and  C7_10 
REMARK       I    between atoms: C10_14  and  N3_16 
REMARK    8  A    between atoms: N3_16  and  C11_17 
ROOT
HETATM    1  N1  UNL     1       1.054  -1.787   0.039  1.00  0.00    -0.263 N 
HETATM    2  C10 UNL     1       2.472  -1.709   0.064  1.00  0.00     0.332 C 
HETATM    3  O2  UNL     1       3.445  -2.470  -0.039  1.00  0.00    -0.246 OA
HETATM    4  N3  UNL     1       2.928  -0.369   0.267  1.00  0.00    -0.308 N 
HETATM    5  H13 UNL     1       2.295   0.471   0.386  1.00  0.00     0.170 HD
ENDROOT
BRANCH   1   6
HETATM    6  C1  UNL     1       0.781  -3.167  -0.166  1.00  0.00     0.485 C 
HETATM    7  O1  UNL     1      -0.246  -3.884  -0.280  1.00  0.00    -0.391 OA
ENDBRANCH   1   6
BRANCH   1   8
HETATM    8  C2  UNL     1      -0.179  -1.089   0.131  1.00  0.00     0.101 C 
HETATM    9  C3  UNL     1      -1.062  -1.365   1.062  1.00  0.00     0.020 C 
BRANCH   9  10
HETATM   10  C4  UNL     1      -2.250  -0.497   0.932  1.00  0.00     0.298 C 
BRANCH  10  11
HETATM   11  N2  UNL     1      -2.153   0.416  -0.163  1.00  0.00     0.086 N 
HETATM   12  H6  UNL     1      -1.921  -0.040  -1.067  1.00  0.00     0.316 HD
BRANCH  11  13
HETATM   13  C5  UNL     1      -3.323   1.257  -0.259  1.00  0.00     0.271 C 
BRANCH  13  14
HETATM   14  C6  UNL     1      -4.568   0.511  -0.664  1.00  0.00     0.044 C 
BRANCH  14  15
HETATM   15  C7  UNL     1      -5.754   1.439  -0.751  1.00  0.00     0.056 A 
HETATM   16  C8  UNL     1      -6.123   2.156   0.505  1.00  0.00     0.003 A 
HETATM   17  C9  UNL     1      -6.888   1.085   0.144  1.00  0.00     0.016 A 
HETATM   18 CL1  UNL     1      -8.287   0.239   0.775  1.00  0.00    -0.088 Cl
ENDBRANCH  14  15
ENDBRANCH  13  14
ENDBRANCH  11  13
ENDBRANCH  10  11
ENDBRANCH   9  10
ENDBRANCH   1   8
BRANCH   4  19
HETATM   19  C11 UNL     1       4.258   0.165   0.359  1.00  0.00     0.036 A 
HETATM   20  C12 UNL     1       4.884   0.245   1.589  1.00  0.00     0.029 A 
HETATM   21  C13 UNL     1       6.175   0.776   1.593  1.00  0.00     0.002 A 
HETATM   22  C14 UNL     1       6.785   1.199   0.408  1.00  0.00     0.000 A 
HETATM   23  C15 UNL     1       6.099   1.089  -0.784  1.00  0.00     0.002 A 
HETATM   24  C16 UNL     1       4.823   0.570  -0.831  1.00  0.00     0.029 A 
ENDBRANCH   4  19
TORSDOF 8
