REMARK  3 active torsions:
REMARK  status: ('A' for Active; 'I' for Inactive)
REMARK    1  A    between atoms: C3_3  and  N1_4 
REMARK    2  A    between atoms: C12_14  and  C13_15 
REMARK    3  A    between atoms: C18_22  and  C19_23 
ROOT
HETATM    1  N1  UNL     1       2.393   0.611   1.575  1.00  0.00    -0.327 N 
HETATM    2  C4  UNL     1       1.257   1.215   0.970  1.00  0.00     0.148 C 
HETATM    3  C5  UNL     1      -0.018   0.996   1.427  1.00  0.00     0.083 C 
HETATM    4  C6  UNL     1      -0.468  -0.253   0.729  1.00  0.00     0.042 C 
HETATM    5  N2  UNL     1      -1.101  -0.562  -0.309  1.00  0.00    -0.251 NA
HETATM    6  C7  UNL     1      -1.696   0.172  -1.325  1.00  0.00     0.090 A 
HETATM    7  C8  UNL     1      -1.251   1.114  -2.286  1.00  0.00     0.059 A 
HETATM    8  C9  UNL     1      -2.093   1.661  -3.211  1.00  0.00     0.031 A 
HETATM    9  C10 UNL     1      -3.425   1.335  -3.265  1.00  0.00     0.003 A 
HETATM   10  C11 UNL     1      -3.903   0.427  -2.351  1.00  0.00     0.010 A 
HETATM   11  C12 UNL     1      -3.060  -0.150  -1.394  1.00  0.00    -0.024 A 
HETATM   12  N3  UNL     1       0.152   1.307  -2.001  1.00  0.00    -0.366 N 
HETATM   13  C16 UNL     1       0.173   2.214  -0.885  1.00  0.00     0.300 C 
HETATM   14  O1  UNL     1       1.417   2.081  -0.159  1.00  0.00    -0.316 OA
HETATM   15  C17 UNL     1      -0.015  -1.459   1.492  1.00  0.00     0.095 C 
HETATM   16  C18 UNL     1       1.464  -1.627   1.471  1.00  0.00     0.090 C 
HETATM   17  N4  UNL     1       1.822  -2.855   2.156  1.00  0.00    -0.385 N 
HETATM   18  C20 UNL     1       3.244  -2.670   2.336  1.00  0.00     0.082 C 
HETATM   19  C21 UNL     1       3.526  -1.358   2.432  1.00  0.00     0.018 C 
HETATM   20  C22 UNL     1       2.248  -0.641   2.313  1.00  0.00     0.146 C 
HETATM   21  H17 UNL     1       0.380   0.666  -2.777  1.00  0.00     0.162 HD
HETATM   22  H23 UNL     1       1.496  -3.781   2.559  1.00  0.00     0.159 HD
ENDROOT
BRANCH   1  23
HETATM   23  C3  UNL     1       3.522   1.439   1.296  1.00  0.00     0.089 C 
HETATM   24  C2  UNL     1       4.105   1.485   0.134  1.00  0.00    -0.014 C 
HETATM   25  C1  UNL     1       5.290   2.345  -0.184  1.00  0.00     0.037 C 
ENDBRANCH   1  23
BRANCH  16  26
HETATM   26  C19 UNL     1       2.046  -1.578   0.110  1.00  0.00     0.424 C 
HETATM   27  O2  UNL     1       2.656  -1.825  -0.917  1.00  0.00    -0.428 OA
ENDBRANCH  16  26
BRANCH  11  28
HETATM   28  C13 UNL     1      -3.787  -1.103  -0.508  1.00  0.00     0.013 C 
HETATM   29  C14 UNL     1      -4.336  -0.413   0.720  1.00  0.00     0.015 C 
HETATM   30  C15 UNL     1      -4.951  -1.751  -1.202  1.00  0.00     0.015 C 
ENDBRANCH  11  28
TORSDOF 3
