REMARK  4 active torsions:
REMARK  status: ('A' for Active; 'I' for Inactive)
REMARK    1  A    between atoms: O1_2  and  C2_3 
REMARK    2  A    between atoms: C2_3  and  C3_4 
REMARK    3  A    between atoms: C10_12  and  N2_13 
REMARK    4  A    between atoms: C15_19  and  N3_20 
ROOT
HETATM    1  C3  UNL     1       3.135   0.153  -0.786  1.00  0.00    -0.032 A 
HETATM    2  C4  UNL     1       2.431   0.819   0.203  1.00  0.00     0.010 A 
HETATM    3  C5  UNL     1       1.069   0.653   0.353  1.00  0.00     0.016 A 
HETATM    4  C6  UNL     1       0.335  -0.177  -0.464  1.00  0.00     0.017 A 
HETATM    5  C7  UNL     1       1.010  -0.853  -1.457  1.00  0.00     0.064 A 
HETATM    6  C8  UNL     1       2.386  -0.689  -1.613  1.00  0.00     0.041 A 
HETATM    7  N1  UNL     1       0.319  -1.630  -2.221  1.00  0.00    -0.283 NA
HETATM    8  C9  UNL     1      -1.050  -1.537  -1.754  1.00  0.00     0.207 A 
HETATM    9  C10 UNL     1      -0.915  -0.578  -0.627  1.00  0.00     0.042 A 
ENDROOT
BRANCH   9  10
HETATM   10  N2  UNL     1      -1.981  -0.105   0.223  1.00  0.00    -0.349 N 
HETATM   11  C11 UNL     1      -1.981  -0.762   1.523  1.00  0.00     0.153 A 
HETATM   12  C12 UNL     1      -3.153  -0.257   2.308  1.00  0.00     0.008 A 
HETATM   13  C13 UNL     1      -3.954   0.701   1.850  1.00  0.00    -0.010 A 
HETATM   14 BR1  UNL     1      -5.455   1.330   2.886  1.00  0.00    -0.056 Br
HETATM   15  C14 UNL     1      -3.874   1.424   0.563  1.00  0.00     0.103 A 
HETATM   16  C15 UNL     1      -2.833   0.918  -0.375  1.00  0.00     0.324 A 
BRANCH  16  17
HETATM   17  N3  UNL     1      -3.407   0.442  -1.632  1.00  0.00     0.101 N 
HETATM   18  H17 UNL     1      -3.891  -0.481  -1.516  1.00  0.00     0.315 HD
HETATM   19  H18 UNL     1      -4.160   1.151  -1.877  1.00  0.00     0.315 HD
ENDBRANCH  16  17
ENDBRANCH   9  10
BRANCH   1  20
HETATM   20  C2  UNL     1       4.593   0.335  -0.943  1.00  0.00     0.205 C 
BRANCH  20  21
HETATM   21  O1  UNL     1       5.359  -0.552  -0.217  1.00  0.00    -0.391 OA
HETATM   22  C1  UNL     1       5.098  -0.432   1.145  1.00  0.00     0.201 C 
ENDBRANCH  20  21
ENDBRANCH   1  20
TORSDOF 4
