REMARK  8 active torsions:
REMARK  status: ('A' for Active; 'I' for Inactive)
REMARK    1  A    between atoms: C2_2  and  C3_3 
REMARK    2  A    between atoms: C3_3  and  N1_5 
REMARK    3  A    between atoms: N1_5  and  C5_6 
REMARK    4  A    between atoms: C10_11  and  N2_12 
REMARK    5  A    between atoms: N2_12  and  C11_13 
REMARK    6  A    between atoms: N3_15  and  C13_16 
REMARK    7  A    between atoms: C18_21  and  O1_22 
REMARK    8  A    between atoms: C20_24  and  B1_25 
ROOT
HETATM    1  C11 UNL     1      -0.380   0.592   0.240  1.00  0.00     0.121 A 
HETATM    2  C12 UNL     1      -1.630   0.641  -0.192  1.00  0.00     0.144 A 
HETATM    3  N3  UNL     1      -2.751   0.386   0.647  1.00  0.00    -0.327 N 
HETATM    4  C20 UNL     1      -2.460   0.069   2.006  1.00  0.00     0.023 A 
HETATM    5  C21 UNL     1      -1.235   0.004   2.501  1.00  0.00     0.105 A 
HETATM    6  N4  UNL     1      -0.144   0.267   1.623  1.00  0.00    -0.350 N 
HETATM    7  H27 UNL     1       0.844   0.230   1.958  1.00  0.00     0.166 HD
ENDROOT
BRANCH   1   8
HETATM    8  N2  UNL     1       0.657   0.866  -0.696  1.00  0.00    -0.339 N 
HETATM    9  H17 UNL     1       0.590   1.884  -0.990  1.00  0.00     0.167 HD
BRANCH   8  10
HETATM   10  C10 UNL     1       1.714   0.167  -1.314  1.00  0.00     0.062 A 
HETATM   11  C5  UNL     1       3.137   0.529  -1.183  1.00  0.00     0.052 A 
HETATM   12  C6  UNL     1       3.785  -0.358  -1.900  1.00  0.00     0.009 A 
HETATM   13  C7  UNL     1       2.892  -1.344  -2.544  1.00  0.00     0.065 A 
HETATM   14  C8  UNL     1       1.554  -0.900  -2.088  1.00  0.00    -0.051 A 
HETATM   15  C9  UNL     1       0.293  -1.575  -2.466  1.00  0.00     0.046 C 
BRANCH  11  16
HETATM   16  N1  UNL     1       3.621   1.625  -0.418  1.00  0.00    -0.384 N 
HETATM   17  H10 UNL     1       3.335   2.572  -0.808  1.00  0.00     0.160 HD
BRANCH  16  18
HETATM   18  C3  UNL     1       4.421   1.467   0.766  1.00  0.00     0.077 C 
HETATM   19  C4  UNL     1       3.680   0.832   1.919  1.00  0.00     0.032 C 
BRANCH  18  20
HETATM   20  C2  UNL     1       5.716   0.734   0.483  1.00  0.00     0.020 C 
HETATM   21  C1  UNL     1       6.636   0.752   1.684  1.00  0.00     0.007 C 
ENDBRANCH  18  20
ENDBRANCH  16  18
ENDBRANCH  11  16
ENDBRANCH   8  10
ENDBRANCH   1   8
BRANCH   3  22
HETATM   22  C13 UNL     1      -4.105   0.432   0.207  1.00  0.00     0.071 A 
HETATM   23  C14 UNL     1      -4.781   1.636   0.293  1.00  0.00     0.033 A 
HETATM   24  C15 UNL     1      -6.111   1.768  -0.116  1.00  0.00     0.002 A 
HETATM   25  C16 UNL     1      -6.725   0.619  -0.617  1.00  0.00     0.003 A 
HETATM   26  C17 UNL     1      -6.081  -0.597  -0.716  1.00  0.00     0.039 A 
HETATM   27  C18 UNL     1      -4.768  -0.689  -0.302  1.00  0.00     0.095 A 
BRANCH  27  28
HETATM   28  O1  UNL     1      -4.010  -1.854  -0.351  1.00  0.00    -0.354 OA
HETATM   29  C19 UNL     1      -4.635  -3.016  -0.859  1.00  0.00     0.210 C 
ENDBRANCH  27  28
ENDBRANCH   3  22
BRANCH   4  30
HETATM   30  B1  UNL     1      -3.851  -0.264   3.120  1.00  0.00     0.429 B 
HETATM   31  O2  UNL     1      -5.015  -0.936   4.137  1.00  0.00    -0.333 OA
ENDBRANCH   4  30
TORSDOF 8
