REMARK  4 active torsions:
REMARK  status: ('A' for Active; 'I' for Inactive)
REMARK    1  A    between atoms: C6_8  and  N3_9 
REMARK    2  A    between atoms: N3_9  and  C7_10 
REMARK    3  A    between atoms: C14_18  and  C15_19 
REMARK    4  A    between atoms: C15_19  and  O1_20 
ROOT
HETATM    1  C1  UNL     1      -3.615   0.415  -1.389  1.00  0.00     0.049 C 
HETATM    2  C2  UNL     1      -2.534   0.572  -0.351  1.00  0.00    -0.052 C 
HETATM    3  C3  UNL     1      -2.156   1.820  -0.014  1.00  0.00     0.039 C 
HETATM    4  C4  UNL     1      -1.127   1.700   1.026  1.00  0.00     0.091 A 
HETATM    5  N1  UNL     1      -0.927   2.459   2.087  1.00  0.00    -0.242 NA
HETATM    6  C5  UNL     1       0.202   1.928   2.814  1.00  0.00     0.230 A 
HETATM    7  N2  UNL     1       0.667   0.888   2.209  1.00  0.00    -0.240 NA
HETATM    8  C6  UNL     1      -0.086   0.657   1.058  1.00  0.00     0.192 A 
HETATM    9  C13 UNL     1      -0.605  -0.654   0.710  1.00  0.00     0.045 C 
HETATM   10  C14 UNL     1      -1.776  -0.649   0.022  1.00  0.00    -0.028 C 
ENDROOT
BRANCH   8  11
HETATM   11  N3  UNL     1       0.869   0.953  -0.083  1.00  0.00    -0.354 N 
HETATM   12  H6  UNL     1       0.629   1.724  -0.732  1.00  0.00     0.163 HD
BRANCH  11  13
HETATM   13  C7  UNL     1       2.065   0.223  -0.293  1.00  0.00     0.031 A 
HETATM   14  C8  UNL     1       2.543  -0.804   0.487  1.00  0.00     0.029 A 
HETATM   15  C9  UNL     1       3.712  -1.477   0.219  1.00  0.00     0.004 A 
HETATM   16  C10 UNL     1       4.472  -1.149  -0.862  1.00  0.00     0.019 A 
HETATM   17  C11 UNL     1       4.010  -0.127  -1.650  1.00  0.00     0.013 A 
HETATM   18 BR1  UNL     1       5.027   0.382  -3.179  1.00  0.00    -0.051 Br
HETATM   19  C12 UNL     1       2.852   0.535  -1.378  1.00  0.00     0.048 A 
ENDBRANCH  11  13
ENDBRANCH   8  11
BRANCH  10  20
HETATM   20  C15 UNL     1      -2.392  -1.957  -0.414  1.00  0.00     0.203 C 
BRANCH  20  21
HETATM   21  O1  UNL     1      -3.644  -2.160   0.108  1.00  0.00    -0.396 OA
HETATM   22  H14 UNL     1      -3.854  -1.581   0.882  1.00  0.00     0.209 HD
ENDBRANCH  20  21
ENDBRANCH  10  20
TORSDOF 4
