REMARK  6 active torsions:
REMARK  status: ('A' for Active; 'I' for Inactive)
REMARK    1  A    between atoms: N1_2  and  C3_4 
REMARK    2  A    between atoms: C6_7  and  N2_8 
REMARK    3  A    between atoms: C9_11  and  C10_12 
REMARK    4  A    between atoms: C10_12  and  C11_13 
REMARK    5  A    between atoms: C11_13  and  C12_14 
REMARK    6  A    between atoms: C12_14  and  O1_15 
ROOT
HETATM    1  N2  UNL     1      -0.897   0.346   0.030  1.00  0.00    -0.296 N 
HETATM    2  C7  UNL     1      -1.750   0.086  -1.104  1.00  0.00     0.163 A 
HETATM    3  C8  UNL     1      -3.142   0.544  -0.858  1.00  0.00     0.023 A 
HETATM    4  C9  UNL     1      -3.536   1.119   0.268  1.00  0.00     0.041 A 
HETATM    5  N3  UNL     1      -2.651   1.352   1.357  1.00  0.00    -0.308 N 
HETATM    6  C13 UNL     1      -1.281   0.961   1.256  1.00  0.00     0.327 A 
HETATM    7  O2  UNL     1      -0.466   1.147   2.192  1.00  0.00    -0.246 OA
HETATM    8  H15 UNL     1      -2.959   1.803   2.242  1.00  0.00     0.170 HD
ENDROOT
BRANCH   1   9
HETATM    9  C6  UNL     1       0.467  -0.044  -0.074  1.00  0.00     0.039 A 
HETATM   10  C5  UNL     1       1.055  -1.242   0.267  1.00  0.00     0.032 A 
HETATM   11  C4  UNL     1       2.405  -1.426   0.089  1.00  0.00     0.031 A 
HETATM   12  C3  UNL     1       3.213  -0.433  -0.430  1.00  0.00     0.029 A 
HETATM   13  C15 UNL     1       2.629   0.776  -0.776  1.00  0.00     0.031 A 
HETATM   14  C14 UNL     1       1.276   0.964  -0.599  1.00  0.00     0.032 A 
BRANCH  12  15
HETATM   15  N1  UNL     1       4.597  -0.642  -0.605  1.00  0.00    -0.390 N 
HETATM   16  C1  UNL     1       5.440   0.422  -1.158  1.00  0.00     0.149 C 
HETATM   17  C2  UNL     1       5.185  -1.910  -0.238  1.00  0.00     0.149 C 
ENDBRANCH  12  15
ENDBRANCH   1   9
BRANCH   4  18
HETATM   18  C10 UNL     1      -4.902   1.548   0.464  1.00  0.00     0.083 C 
BRANCH  18  19
HETATM   19  C11 UNL     1      -5.860   0.756   0.060  1.00  0.00    -0.118 C 
BRANCH  19  20
HETATM   20  C12 UNL     1      -6.674  -0.242  -0.252  1.00  0.00     0.228 C 
BRANCH  20  21
HETATM   21  O1  UNL     1      -6.959  -1.154   0.743  1.00  0.00    -0.380 OA
HETATM   22  H14 UNL     1      -6.194  -1.509   1.320  1.00  0.00     0.211 HD
ENDBRANCH  20  21
ENDBRANCH  19  20
ENDBRANCH  18  19
ENDBRANCH   4  18
TORSDOF 6
