REMARK  6 active torsions:
REMARK  status: ('A' for Active; 'I' for Inactive)
REMARK    1  A    between atoms: O1_2  and  C2_3 
REMARK    2  A    between atoms: C2_3  and  C16_21 
REMARK    3  A    between atoms: C3_4  and  C4_5 
REMARK    4  A    between atoms: C7_10  and  N3_11 
REMARK    5  A    between atoms: C16_21  and  C17_22 
REMARK    6  A    between atoms: C17_22  and  O2_23 
ROOT
HETATM    1  C4  UNL     1      -1.279  -1.534  -0.772  1.00  0.00     0.030 A 
HETATM    2  C5  UNL     1      -2.282  -2.348  -1.219  1.00  0.00     0.133 A 
HETATM    3  N1  UNL     1      -1.904  -3.532  -1.709  1.00  0.00    -0.253 NA
HETATM    4  C6  UNL     1      -0.653  -3.983  -1.801  1.00  0.00     0.234 A 
HETATM    5  N2  UNL     1       0.305  -3.157  -1.353  1.00  0.00    -0.224 NA
HETATM    6  C7  UNL     1       0.026  -1.921  -0.829  1.00  0.00     0.139 A 
ENDROOT
BRANCH   6   7
HETATM    7  N3  UNL     1       1.238  -1.351  -0.428  1.00  0.00    -0.361 N 
HETATM    8  C8  UNL     1       2.133  -0.881   0.644  1.00  0.00     0.151 C 
HETATM    9  C9  UNL     1       1.954   0.651   0.572  1.00  0.00    -0.007 C 
HETATM   10  C10 UNL     1       2.039   1.965   0.423  1.00  0.00    -0.001 C 
HETATM   11  C11 UNL     1       3.047   2.936  -0.044  1.00  0.00     0.014 C 
HETATM   12  C12 UNL     1       4.064   2.247  -0.441  1.00  0.00    -0.011 C 
HETATM   13 BR1  UNL     1       5.449   3.492  -1.004  1.00  0.00    -0.056 Br
HETATM   14  C13 UNL     1       4.184   0.842  -0.931  1.00  0.00     0.018 C 
HETATM   15  C14 UNL     1       2.886   0.315  -1.040  1.00  0.00     0.048 C 
HETATM   16  C15 UNL     1       2.299  -0.950  -1.418  1.00  0.00     0.130 C 
ENDBRANCH   6   7
BRANCH   1  17
HETATM   17  C3  UNL     1      -1.557  -0.220  -0.232  1.00  0.00     0.049 C 
HETATM   18  C2  UNL     1      -2.607  -0.020   0.548  1.00  0.00     0.048 C 
BRANCH  18  19
HETATM   19  O1  UNL     1      -3.522  -0.978   0.929  1.00  0.00    -0.360 OA
HETATM   20  C1  UNL     1      -3.787  -1.401   2.235  1.00  0.00     0.209 C 
ENDBRANCH  18  19
BRANCH  18  21
HETATM   21  C16 UNL     1      -3.006   1.251   1.158  1.00  0.00     0.090 C 
BRANCH  21  22
HETATM   22  C17 UNL     1      -2.095   2.409   0.804  1.00  0.00     0.170 C 
BRANCH  22  23
HETATM   23  O2  UNL     1      -2.051   2.642  -0.554  1.00  0.00    -0.400 OA
HETATM   24  H20 UNL     1      -1.618   3.521  -0.702  1.00  0.00     0.209 HD
ENDBRANCH  22  23
ENDBRANCH  21  22
ENDBRANCH  18  21
ENDBRANCH   1  17
TORSDOF 6
