REMARK  6 active torsions:
REMARK  status: ('A' for Active; 'I' for Inactive)
REMARK    1  A    between atoms: O1_2  and  C2_3 
REMARK    2  A    between atoms: C4_6  and  C5_7 
REMARK    3  A    between atoms: N1_8  and  C6_9 
REMARK    4  A    between atoms: N2_10  and  C7_11 
REMARK    5  A    between atoms: C7_11  and  N3_12 
REMARK    6  A    between atoms: C15_21  and  O2_22 
ROOT
HETATM    1  C5  UNL     1       0.712   0.761  -0.042  1.00  0.00     0.110 C 
HETATM    2  N1  UNL     1      -0.558   0.748   0.166  1.00  0.00    -0.257 NA
ENDROOT
BRANCH   2   3
HETATM    3  C6  UNL     1      -1.167   0.559   1.437  1.00  0.00     0.227 C 
HETATM    4  N2  UNL     1      -2.116  -0.302   1.708  1.00  0.00    -0.264 NA
BRANCH   4   5
HETATM    5  C7  UNL     1      -2.591  -1.134   0.641  1.00  0.00     0.269 C 
BRANCH   5   6
HETATM    6  N3  UNL     1      -3.911  -0.815   0.185  1.00  0.00    -0.389 N 
HETATM    7  C8  UNL     1      -4.416  -1.602  -0.856  1.00  0.00     0.146 C 
HETATM    8  C9  UNL     1      -5.883  -1.905  -0.760  1.00  0.00    -0.006 C 
HETATM    9  C10 UNL     1      -6.859  -1.024  -0.477  1.00  0.00     0.016 C 
HETATM   10  C11 UNL     1      -6.663   0.404  -0.210  1.00  0.00     0.008 C 
HETATM   11 BR1  UNL     1      -8.227   1.516  -0.260  1.00  0.00    -0.051 Br
HETATM   12  C12 UNL     1      -5.512   1.040   0.070  1.00  0.00     0.011 C 
HETATM   13  C13 UNL     1      -4.134   0.574   0.200  1.00  0.00     0.147 C 
ENDBRANCH   5   6
ENDBRANCH   4   5
ENDBRANCH   2   3
BRANCH   1  14
HETATM   14  C4  UNL     1       1.839   0.596   0.904  1.00  0.00     0.117 A 
HETATM   15  S1  UNL     1       2.265  -1.151   1.142  1.00  0.00    -0.124 SA
HETATM   16  C3  UNL     1       3.974  -1.285   0.640  1.00  0.00     0.085 A 
HETATM   17  C2  UNL     1       4.815  -0.384   0.186  1.00  0.00     0.107 A 
HETATM   18  C15 UNL     1       4.272   0.963   0.068  1.00  0.00     0.099 A 
HETATM   19  C14 UNL     1       3.031   1.287   0.386  1.00  0.00     0.033 A 
BRANCH  17  20
HETATM   20  O1  UNL     1       6.135  -0.619  -0.175  1.00  0.00    -0.353 OA
HETATM   21  C1  UNL     1       6.803  -1.826   0.035  1.00  0.00     0.210 C 
ENDBRANCH  17  20
BRANCH  18  22
HETATM   22  O2  UNL     1       5.118   1.963  -0.408  1.00  0.00    -0.353 OA
HETATM   23  C16 UNL     1       5.735   2.940   0.377  1.00  0.00     0.210 C 
ENDBRANCH  18  22
ENDBRANCH   1  14
TORSDOF 6
