REMARK  0 active torsions:
REMARK  status: ('A' for Active; 'I' for Inactive)
ROOT
HETATM    1 BR1  UNL     1      -4.741  -0.109  -1.415  1.00  0.00    -0.051 Br
HETATM    2  C1  UNL     1      -3.126  -0.323  -0.431  1.00  0.00     0.012 A 
HETATM    3  C2  UNL     1      -2.639   0.629   0.502  1.00  0.00     0.033 A 
HETATM    4  C3  UNL     1      -1.465   0.535   1.262  1.00  0.00     0.000 A 
HETATM    5  C4  UNL     1      -0.712  -0.609   1.086  1.00  0.00     0.091 A 
HETATM    6  C5  UNL     1      -1.270  -1.493   0.134  1.00  0.00    -0.005 A 
HETATM    7  C6  UNL     1      -2.399  -1.484  -0.650  1.00  0.00     0.030 A 
HETATM    8  C7  UNL     1      -0.434  -2.636  -0.411  1.00  0.00     0.161 C 
HETATM    9  N1  UNL     1       0.655  -1.887  -1.165  1.00  0.00    -0.384 N 
HETATM   10  C8  UNL     1       1.470  -1.095  -0.404  1.00  0.00     0.102 A 
HETATM   11  C9  UNL     1       2.585  -0.466  -0.553  1.00  0.00     0.226 A 
HETATM   12  N2  UNL     1       3.693   0.239  -0.342  1.00  0.00    -0.239 NA
HETATM   13  C10 UNL     1       3.722   0.583   1.049  1.00  0.00     0.228 A 
HETATM   14  N3  UNL     1       2.599   0.060   1.583  1.00  0.00    -0.234 NA
HETATM   15  C11 UNL     1       1.682  -0.635   0.921  1.00  0.00     0.257 A 
HETATM   16  O1  UNL     1       0.539  -1.032   1.724  1.00  0.00    -0.306 OA
HETATM   17  N4  UNL     1       1.826   0.156  -1.709  1.00  0.00    -0.379 N 
HETATM   18  C12 UNL     1       0.566   0.985  -1.512  1.00  0.00     0.137 C 
HETATM   19  C13 UNL     1       0.474   1.722  -0.338  1.00  0.00     0.022 C 
HETATM   20  C14 UNL     1      -0.661   2.581   0.027  1.00  0.00    -0.012 C 
HETATM   21  C15 UNL     1      -1.199   2.861   1.149  1.00  0.00    -0.029 C 
HETATM   22  C16 UNL     1      -1.385   1.820   1.970  1.00  0.00     0.026 C 
HETATM   23  H5  UNL     1       1.056  -1.741  -2.141  1.00  0.00     0.159 HD
HETATM   24  H7  UNL     1       2.226   0.008  -2.635  1.00  0.00     0.156 HD
ENDROOT
TORSDOF 0
