REMARK  1 active torsions:
REMARK  status: ('A' for Active; 'I' for Inactive)
REMARK    1  A    between atoms: O1_2  and  C2_3 
ROOT
HETATM    1  C2  UNL     1       3.254  -0.441   0.249  1.00  0.00     0.101 C 
HETATM    2  C3  UNL     1       2.759  -1.626   0.486  1.00  0.00     0.120 C 
HETATM    3  N1  UNL     1       1.597  -1.861   0.034  1.00  0.00    -0.237 NA
HETATM    4  C4  UNL     1       0.848  -0.710  -0.340  1.00  0.00     0.230 C 
HETATM    5  N2  UNL     1       0.004  -0.632   0.617  1.00  0.00    -0.246 NA
HETATM    6  C5  UNL     1      -0.980   0.428   0.641  1.00  0.00     0.157 C 
HETATM    7  C6  UNL     1      -0.408   1.788   0.746  1.00  0.00     0.053 C 
HETATM    8  C7  UNL     1       0.793   2.352   0.644  1.00  0.00     0.135 C 
HETATM    9  O2  UNL     1       1.859   1.581   0.371  1.00  0.00    -0.357 OA
HETATM   10  C8  UNL     1       2.485   0.556   1.028  1.00  0.00     0.241 C 
HETATM   11  N3  UNL     1      -1.799   0.285   1.848  1.00  0.00    -0.368 N 
HETATM   12  C9  UNL     1      -2.762  -0.735   2.120  1.00  0.00     0.085 C 
HETATM   13  C10 UNL     1      -3.152  -1.694   1.288  1.00  0.00     0.017 C 
HETATM   14  C11 UNL     1      -2.708  -1.952  -0.099  1.00  0.00    -0.002 C 
HETATM   15  C12 UNL     1      -2.113  -1.103  -0.952  1.00  0.00    -0.013 C 
HETATM   16  C13 UNL     1      -1.791   0.327  -0.604  1.00  0.00     0.020 C 
HETATM   17  C14 UNL     1      -3.132   1.018  -0.496  1.00  0.00     0.024 C 
HETATM   18  C15 UNL     1      -1.024   0.923  -1.755  1.00  0.00     0.024 C 
HETATM   19  H9  UNL     1      -1.717   0.982   2.646  1.00  0.00     0.161 HD
ENDROOT
BRANCH   1  20
HETATM   20  O1  UNL     1       4.301  -0.164  -0.575  1.00  0.00    -0.356 OA
HETATM   21  C1  UNL     1       5.304  -1.138  -0.773  1.00  0.00     0.209 C 
ENDBRANCH   1  20
TORSDOF 1
