REMARK  2 active torsions:
REMARK  status: ('A' for Active; 'I' for Inactive)
REMARK    1  A    between atoms: C9_11  and  C10_12 
REMARK    2  A    between atoms: C16_19  and  N3_20 
ROOT
HETATM    1  C1  UNL     1       1.367   2.739   1.194  1.00  0.00     0.023 C 
HETATM    2  C2  UNL     1       1.546   1.840  -0.047  1.00  0.00     0.092 C 
HETATM    3  C3  UNL     1       2.846   1.196   0.041  1.00  0.00    -0.013 C 
HETATM    4 BR1  UNL     1       3.967   2.824   0.091  1.00  0.00    -0.059 Br
HETATM    5  C4  UNL     1       3.343  -0.030   0.094  1.00  0.00     0.057 C 
HETATM    6  C5  UNL     1       4.068  -1.288   0.159  1.00  0.00    -0.019 C 
HETATM    7  C6  UNL     1       3.377  -2.454   0.174  1.00  0.00    -0.011 C 
HETATM    8  C7  UNL     1       1.939  -2.273   0.134  1.00  0.00     0.146 C 
HETATM    9  N1  UNL     1       1.123  -2.684  -0.909  1.00  0.00    -0.394 N 
HETATM   10  C8  UNL     1      -0.251  -2.240  -0.730  1.00  0.00     0.111 C 
HETATM   11  C9  UNL     1      -0.960  -1.116  -0.449  1.00  0.00     0.059 C 
HETATM   12  N2  UNL     1       0.089  -0.242  -0.325  1.00  0.00    -0.233 NA
HETATM   13  C16 UNL     1       0.330   0.969  -0.174  1.00  0.00     0.164 C 
HETATM   14  H10 UNL     1       1.239  -3.220  -1.771  1.00  0.00     0.159 HD
ENDROOT
BRANCH  11  15
HETATM   15  C10 UNL     1      -2.464  -0.997  -0.331  1.00  0.00     0.065 A 
HETATM   16  C11 UNL     1      -3.001  -0.112  -1.399  1.00  0.00    -0.016 A 
HETATM   17  C12 UNL     1      -3.717   0.969  -1.364  1.00  0.00    -0.004 A 
HETATM   18  C13 UNL     1      -4.085   1.436  -0.049  1.00  0.00    -0.004 A 
HETATM   19  C14 UNL     1      -3.646   0.701   0.947  1.00  0.00    -0.026 A 
HETATM   20  C15 UNL     1      -2.842  -0.521   1.053  1.00  0.00     0.042 A 
ENDBRANCH  11  15
BRANCH  13  21
HETATM   21  N3  UNL     1      -0.777   1.883  -0.108  1.00  0.00    -0.082 NA
HETATM   22  O1  UNL     1      -0.942   2.613  -1.101  1.00  0.00    -0.059 OA
ENDBRANCH  13  21
TORSDOF 2
