REMARK  10 active torsions:
REMARK  status: ('A' for Active; 'I' for Inactive)
REMARK    1  A    between atoms: O1_2  and  C2_3 
REMARK    2  A    between atoms: C2_3  and  C3_4 
REMARK    3  A    between atoms: C3_4  and  C4_5 
REMARK    4  A    between atoms: C5_6  and  O2_7 
REMARK    5  A    between atoms: C8_10  and  C9_11 
REMARK    6  A    between atoms: C9_11  and  N3_15 
REMARK    7  A    between atoms: N1_12  and  C10_13 
REMARK    8  A    between atoms: N3_15  and  C11_16 
REMARK    9  A    between atoms: C14_19  and  O3_20 
REMARK   10  A    between atoms: C16_22  and  O4_23 
ROOT
HETATM    1  C9  UNL     1       0.226   0.865  -0.560  1.00  0.00     0.140 C 
HETATM    2  N1  UNL     1      -0.604   1.640  -1.154  1.00  0.00    -0.224 NA
ENDROOT
BRANCH   1   3
HETATM    3  C8  UNL     1       1.402   1.214   0.202  1.00  0.00     0.022 A 
HETATM    4  C4  UNL     1       2.491   0.648   0.970  1.00  0.00    -0.009 A 
HETATM    5  C5  UNL     1       2.991   1.867   1.245  1.00  0.00     0.076 A 
HETATM    6  C7  UNL     1       1.886   2.413   0.464  1.00  0.00     0.053 A 
BRANCH   4   7
HETATM    7  C3  UNL     1       2.942  -0.689   1.354  1.00  0.00     0.068 C 
BRANCH   7   8
HETATM    8  C2  UNL     1       3.458  -1.545   0.226  1.00  0.00     0.171 C 
BRANCH   8   9
HETATM    9  O1  UNL     1       4.557  -0.938  -0.397  1.00  0.00    -0.396 OA
HETATM   10  C1  UNL     1       5.048  -1.719  -1.440  1.00  0.00     0.201 C 
ENDBRANCH   8   9
ENDBRANCH   7   8
ENDBRANCH   4   7
BRANCH   5  11
HETATM   11  O2  UNL     1       4.115   2.280   1.990  1.00  0.00    -0.355 OA
HETATM   12  C6  UNL     1       4.836   3.457   1.652  1.00  0.00     0.210 C 
ENDBRANCH   5  11
ENDBRANCH   1   3
BRANCH   1  13
HETATM   13  N3  UNL     1      -0.204  -0.455  -0.744  1.00  0.00    -0.340 N 
HETATM   14  H14 UNL     1       0.509  -1.194  -0.994  1.00  0.00     0.167 HD
BRANCH  13  15
HETATM   15  C11 UNL     1      -1.544  -0.902  -0.608  1.00  0.00     0.036 A 
HETATM   16  C12 UNL     1      -1.890  -2.226  -0.859  1.00  0.00     0.032 A 
HETATM   17  C13 UNL     1      -3.162  -2.731  -0.740  1.00  0.00     0.042 A 
HETATM   18  C14 UNL     1      -4.185  -1.908  -0.350  1.00  0.00     0.101 A 
HETATM   19  C16 UNL     1      -3.910  -0.583  -0.086  1.00  0.00     0.103 A 
HETATM   20  C18 UNL     1      -2.617  -0.134  -0.222  1.00  0.00     0.069 A 
BRANCH  18  21
HETATM   21  O3  UNL     1      -5.476  -2.396  -0.223  1.00  0.00    -0.353 OA
HETATM   22  C15 UNL     1      -5.694  -3.753  -0.505  1.00  0.00     0.210 C 
ENDBRANCH  18  21
BRANCH  19  23
HETATM   23  O4  UNL     1      -4.963   0.209   0.301  1.00  0.00    -0.353 OA
HETATM   24  C17 UNL     1      -4.743   1.566   0.582  1.00  0.00     0.210 C 
ENDBRANCH  19  23
ENDBRANCH  13  15
ENDBRANCH   1  13
BRANCH   2  25
HETATM   25  C10 UNL     1      -0.424   3.029  -1.111  1.00  0.00     0.225 C 
HETATM   26  N2  UNL     1      -0.626   3.895  -2.056  1.00  0.00    -0.293 NA
HETATM   27  H13 UNL     1      -0.962   3.652  -3.008  1.00  0.00     0.187 HD
ENDBRANCH   2  25
TORSDOF 10
