REMARK  7 active torsions:
REMARK  status: ('A' for Active; 'I' for Inactive)
REMARK    1  A    between atoms: C2_2  and  C3_3 
REMARK    2  A    between atoms: C4_4  and  C5_5 
REMARK    3  A    between atoms: C4_4  and  O3_23 
REMARK    4  A    between atoms: C8_8  and  N1_9 
REMARK    5  A    between atoms: N1_9  and  C9_10 
REMARK    6  A    between atoms: C12_13  and  O1_14 
REMARK    7  A    between atoms: C14_16  and  O2_17 
ROOT
HETATM    1  C5  UNL     1      -3.349   0.242   0.156  1.00  0.00     0.064 C 
HETATM    2  C6  UNL     1      -2.072   0.097  -0.240  1.00  0.00     0.045 A 
HETATM    3  C7  UNL     1      -1.139   1.202  -0.009  1.00  0.00     0.137 A 
HETATM    4  C8  UNL     1       0.209   0.860  -0.524  1.00  0.00     0.111 A 
HETATM    5  N2  UNL     1       0.442  -0.260  -1.074  1.00  0.00    -0.228 NA
HETATM    6  C17 UNL     1      -0.492  -1.309  -1.277  1.00  0.00     0.235 A 
HETATM    7  N3  UNL     1      -1.697  -1.118  -0.868  1.00  0.00    -0.246 NA
ENDROOT
BRANCH   4   8
HETATM    8  N1  UNL     1       1.308   1.754  -0.438  1.00  0.00    -0.344 N 
HETATM    9  H10 UNL     1       1.027   2.780  -0.398  1.00  0.00     0.167 HD
BRANCH   8  10
HETATM   10  C9  UNL     1       2.684   1.433  -0.399  1.00  0.00     0.036 A 
HETATM   11  C10 UNL     1       3.610   2.482  -0.349  1.00  0.00     0.032 A 
HETATM   12  C11 UNL     1       4.969   2.275  -0.308  1.00  0.00     0.042 A 
HETATM   13  C12 UNL     1       5.490   1.003  -0.314  1.00  0.00     0.101 A 
HETATM   14  C14 UNL     1       4.603  -0.049  -0.363  1.00  0.00     0.103 A 
HETATM   15  C16 UNL     1       3.251   0.206  -0.403  1.00  0.00     0.069 A 
BRANCH  13  16
HETATM   16  O1  UNL     1       6.851   0.747  -0.274  1.00  0.00    -0.353 OA
HETATM   17  C13 UNL     1       7.804   1.785  -0.224  1.00  0.00     0.210 C 
ENDBRANCH  13  16
BRANCH  14  18
HETATM   18  O2  UNL     1       5.112  -1.344  -0.370  1.00  0.00    -0.353 OA
HETATM   19  C15 UNL     1       4.269  -2.481  -0.415  1.00  0.00     0.210 C 
ENDBRANCH  14  18
ENDBRANCH   8  10
ENDBRANCH   4   8
BRANCH   1  20
HETATM   20  C4  UNL     1      -4.316  -0.824  -0.050  1.00  0.00     0.066 C 
HETATM   21  C3  UNL     1      -5.571  -0.713   0.315  1.00  0.00     0.010 C 
BRANCH  21  22
HETATM   22  C2  UNL     1      -6.308   0.387   0.966  1.00  0.00     0.025 C 
HETATM   23  C1  UNL     1      -6.916  -0.028   2.289  1.00  0.00     0.009 C 
ENDBRANCH  21  22
BRANCH  20  24
HETATM   24  O3  UNL     1      -3.945  -2.019  -0.648  1.00  0.00    -0.356 OA
HETATM   25  C18 UNL     1      -4.173  -3.200   0.093  1.00  0.00     0.210 C 
ENDBRANCH  20  24
ENDBRANCH   1  20
TORSDOF 7
