REMARK  8 active torsions:
REMARK  status: ('A' for Active; 'I' for Inactive)
REMARK    1  A    between atoms: O1_2  and  C2_3 
REMARK    2  A    between atoms: C2_3  and  C3_4 
REMARK    3  A    between atoms: C5_6  and  O2_7 
REMARK    4  A    between atoms: O2_7  and  C6_8 
REMARK    5  A    between atoms: C6_8  and  C7_9 
REMARK    6  A    between atoms: C9_11  and  O3_12 
REMARK    7  A    between atoms: C11_14  and  O4_15 
REMARK    8  A    between atoms: C18_24  and  O5_25 
ROOT
HETATM    1  C3  UNL     1      -2.846  -0.043  -0.022  1.00  0.00    -0.007 A 
HETATM    2  C4  UNL     1      -1.752   0.545  -0.456  1.00  0.00     0.053 A 
HETATM    3  C5  UNL     1      -0.573   0.020  -0.947  1.00  0.00     0.178 A 
HETATM    4  N1  UNL     1       0.448   0.799  -1.348  1.00  0.00    -0.217 NA
HETATM    5  C15 UNL     1       0.337   2.138  -1.275  1.00  0.00     0.236 A 
HETATM    6  N2  UNL     1      -0.812   2.687  -0.795  1.00  0.00    -0.241 NA
HETATM    7  C16 UNL     1      -1.841   1.920  -0.391  1.00  0.00     0.072 A 
HETATM    8  C17 UNL     1      -3.039   2.254   0.104  1.00  0.00     0.042 A 
HETATM    9  C18 UNL     1      -3.788   1.005   0.384  1.00  0.00     0.178 A 
ENDROOT
BRANCH   3  10
HETATM   10  O2  UNL     1      -0.427  -1.337  -1.035  1.00  0.00    -0.329 OA
BRANCH  10  11
HETATM   11  C6  UNL     1       0.769  -1.945  -1.536  1.00  0.00     0.213 C 
BRANCH  11  12
HETATM   12  C7  UNL     1       1.955  -1.580  -0.726  1.00  0.00    -0.038 C 
HETATM   13  C8  UNL     1       2.977  -0.961  -1.234  1.00  0.00     0.018 C 
HETATM   14  C9  UNL     1       3.747  -0.157  -0.540  1.00  0.00     0.112 C 
HETATM   15  C11 UNL     1       3.405   0.139   0.867  1.00  0.00     0.099 C 
HETATM   16  C13 UNL     1       2.573  -0.717   1.480  1.00  0.00     0.017 C 
HETATM   17  C14 UNL     1       2.047  -1.903   0.719  1.00  0.00     0.067 C 
BRANCH  14  18
HETATM   18  O3  UNL     1       4.847   0.353  -1.225  1.00  0.00    -0.352 OA
HETATM   19  C10 UNL     1       6.174   0.186  -0.704  1.00  0.00     0.210 C 
ENDBRANCH  14  18
BRANCH  15  20
HETATM   20  O4  UNL     1       3.981   1.265   1.392  1.00  0.00    -0.353 OA
HETATM   21  C12 UNL     1       4.679   1.360   2.602  1.00  0.00     0.210 C 
ENDBRANCH  15  20
ENDBRANCH  11  12
ENDBRANCH  10  11
ENDBRANCH   3  10
BRANCH   1  22
HETATM   22  C2  UNL     1      -3.206  -1.475   0.095  1.00  0.00     0.205 C 
BRANCH  22  23
HETATM   23  O1  UNL     1      -4.342  -1.656  -0.705  1.00  0.00    -0.392 OA
HETATM   24  C1  UNL     1      -4.079  -1.329  -2.032  1.00  0.00     0.201 C 
ENDBRANCH  22  23
ENDBRANCH   1  22
BRANCH   9  25
HETATM   25  O5  UNL     1      -4.281   0.916   1.657  1.00  0.00    -0.382 OA
HETATM   26  C19 UNL     1      -5.689   0.865   1.614  1.00  0.00     0.202 C 
ENDBRANCH   9  25
TORSDOF 8
