REMARK  7 active torsions:
REMARK  status: ('A' for Active; 'I' for Inactive)
REMARK    1  A    between atoms: O1_2  and  C2_3 
REMARK    2  A    between atoms: C5_6  and  O2_7 
REMARK    3  A    between atoms: O2_7  and  C6_8 
REMARK    4  A    between atoms: C12_15  and  O3_16 
REMARK    5  A    between atoms: O3_16  and  C13_17 
REMARK    6  A    between atoms: C13_17  and  C14_18 
REMARK    7  A    between atoms: C14_18  and  N1_19 
ROOT
HETATM    1  C2  UNL     1       3.079   0.266   0.187  1.00  0.00     0.071 A 
HETATM    2  C3  UNL     1       2.443   1.196  -0.609  1.00  0.00     0.039 A 
HETATM    3  C4  UNL     1       1.071   1.306  -0.568  1.00  0.00     0.042 A 
HETATM    4  C5  UNL     1       0.246   0.547   0.222  1.00  0.00     0.103 A 
HETATM    5  C12 UNL     1       0.902  -0.393   1.025  1.00  0.00     0.105 A 
HETATM    6  C15 UNL     1       2.296  -0.520   0.997  1.00  0.00     0.076 A 
ENDROOT
BRANCH   4   7
HETATM    7  O2  UNL     1      -1.125   0.584   0.330  1.00  0.00    -0.335 OA
BRANCH   7   8
HETATM    8  C6  UNL     1      -1.888   1.471  -0.413  1.00  0.00     0.183 A 
HETATM    9  C7  UNL     1      -2.903   2.249   0.354  1.00  0.00     0.005 A 
HETATM   10  C8  UNL     1      -3.982   1.667  -0.192  1.00  0.00    -0.095 A 
HETATM   11  B1  UNL     1      -5.433   1.232  -0.590  1.00  0.00     0.198 B 
HETATM   12  C11 UNL     1      -3.112   0.824  -1.019  1.00  0.00    -0.035 A 
HETATM   13  C9  UNL     1      -5.228   0.095  -1.691  1.00  0.00    -0.021 A 
HETATM   14  H8  UNL     1      -6.423   1.729  -0.209  1.00  0.00    -0.021 HD
HETATM   15  C10 UNL     1      -3.766   0.005  -1.799  1.00  0.00    -0.027 A 
ENDBRANCH   7   8
ENDBRANCH   4   7
BRANCH   5  16
HETATM   16  O3  UNL     1       0.165  -1.206   1.855  1.00  0.00    -0.343 OA
BRANCH  16  17
HETATM   17  C13 UNL     1       0.696  -2.179   2.699  1.00  0.00     0.222 C 
BRANCH  17  18
HETATM   18  C14 UNL     1       1.452  -3.232   1.961  1.00  0.00     0.106 C 
BRANCH  18  19
HETATM   19  N1  UNL     1       2.111  -4.166   1.389  1.00  0.00    -0.314 NA
HETATM   20  H15 UNL     1       2.496  -4.944   1.978  1.00  0.00     0.185 HD
ENDBRANCH  18  19
ENDBRANCH  17  18
ENDBRANCH  16  17
ENDBRANCH   5  16
BRANCH   1  21
HETATM   21  O1  UNL     1       4.443   0.140   0.162  1.00  0.00    -0.356 OA
HETATM   22  C1  UNL     1       5.312   0.893  -0.626  1.00  0.00     0.210 C 
ENDBRANCH   1  21
TORSDOF 7
