REMARK  9 active torsions:
REMARK  status: ('A' for Active; 'I' for Inactive)
REMARK    1  A    between atoms: O1_2  and  C2_3 
REMARK    2  A    between atoms: C5_6  and  C6_7 
REMARK    3  A    between atoms: C9_12  and  C10_13 
REMARK    4  A    between atoms: C10_13  and  C14_18 
REMARK    5  A    between atoms: C11_14  and  C12_15 
REMARK    6  A    between atoms: C12_15  and  C13_16 
REMARK    7  A    between atoms: C13_16  and  O2_17 
REMARK    8  A    between atoms: C14_18  and  N3_19 
REMARK    9  A    between atoms: C17_22  and  O3_23 
ROOT
HETATM    1  C6  UNL     1       1.159   0.200  -0.562  1.00  0.00     0.051 A 
HETATM    2  N1  UNL     1       1.056   0.703  -1.727  1.00  0.00    -0.245 NA
HETATM    3  C7  UNL     1      -0.173   1.153  -2.293  1.00  0.00     0.233 A 
HETATM    4  N2  UNL     1      -1.267   1.062  -1.617  1.00  0.00    -0.246 NA
HETATM    5  C8  UNL     1      -1.251   0.514  -0.307  1.00  0.00     0.042 A 
HETATM    6  C9  UNL     1      -2.398   0.434   0.366  1.00  0.00     0.036 C 
HETATM    7  C15 UNL     1      -0.011   0.031   0.335  1.00  0.00     0.119 A 
ENDROOT
BRANCH   6   8
HETATM    8  C10 UNL     1      -3.682   0.874  -0.154  1.00  0.00    -0.032 C 
HETATM    9  C11 UNL     1      -4.792   0.777   0.558  1.00  0.00    -0.016 C 
BRANCH   9  10
HETATM   10  C12 UNL     1      -5.044   0.259   1.926  1.00  0.00     0.054 C 
BRANCH  10  11
HETATM   11  C13 UNL     1      -6.040  -0.906   1.852  1.00  0.00     0.168 C 
BRANCH  11  12
HETATM   12  O2  UNL     1      -7.231  -0.440   1.292  1.00  0.00    -0.401 OA
HETATM   13  H13 UNL     1      -7.557   0.301   1.835  1.00  0.00     0.209 HD
ENDBRANCH  11  12
ENDBRANCH  10  11
ENDBRANCH   9  10
BRANCH   8  14
HETATM   14  C14 UNL     1      -3.830   1.455  -1.504  1.00  0.00     0.304 C 
BRANCH  14  15
HETATM   15  N3  UNL     1      -5.227   1.816  -1.771  1.00  0.00     0.082 N 
HETATM   16  H16 UNL     1      -5.254   2.529  -2.525  1.00  0.00     0.313 HD
HETATM   17  H17 UNL     1      -5.712   0.965  -2.130  1.00  0.00     0.313 HD
ENDBRANCH  14  15
ENDBRANCH   8  14
ENDBRANCH   6   8
BRANCH   1  18
HETATM   18  C5  UNL     1       2.466  -0.233  -0.070  1.00  0.00    -0.008 A 
HETATM   19  C4  UNL     1       2.662  -0.786   1.178  1.00  0.00     0.016 A 
HETATM   20  C3  UNL     1       3.888  -1.198   1.654  1.00  0.00     0.040 A 
HETATM   21  C2  UNL     1       4.993  -1.043   0.818  1.00  0.00     0.101 A 
HETATM   22  C17 UNL     1       4.861  -0.491  -0.452  1.00  0.00     0.102 A 
HETATM   23  C16 UNL     1       3.601  -0.103  -0.856  1.00  0.00     0.053 A 
BRANCH  21  24
HETATM   24  O1  UNL     1       6.243  -1.432   1.228  1.00  0.00    -0.353 OA
HETATM   25  C1  UNL     1       6.531  -2.000   2.473  1.00  0.00     0.210 C 
ENDBRANCH  21  24
BRANCH  22  26
HETATM   26  O3  UNL     1       5.991  -0.358  -1.245  1.00  0.00    -0.353 OA
HETATM   27  C18 UNL     1       5.855   0.206  -2.545  1.00  0.00     0.210 C 
ENDBRANCH  22  26
ENDBRANCH   1  18
TORSDOF 9
