REMARK  2 active torsions:
REMARK  status: ('A' for Active; 'I' for Inactive)
REMARK    1  A    between atoms: O1_2  and  C2_3 
REMARK    2  A    between atoms: C11_15  and  O3_16 
ROOT
HETATM    1  C2  UNL     1      -3.365   0.414   0.888  1.00  0.00     0.048 C 
HETATM    2  C3  UNL     1      -2.641   1.453   0.527  1.00  0.00     0.010 C 
HETATM    3  C4  UNL     1      -1.260   1.397   0.036  1.00  0.00     0.071 C 
HETATM    4  C5  UNL     1      -0.592   0.087   0.250  1.00  0.00    -0.012 C 
HETATM    5  C6  UNL     1      -1.375  -1.008   0.452  1.00  0.00     0.068 C 
HETATM    6  O2  UNL     1      -1.015  -2.267   0.364  1.00  0.00    -0.307 OA
HETATM    7  C7  UNL     1      -0.426  -2.801  -0.681  1.00  0.00     0.259 C 
HETATM    8  N1  UNL     1       0.879  -3.167  -0.522  1.00  0.00    -0.230 NA
HETATM    9  C8  UNL     1       1.483  -3.157   0.703  1.00  0.00     0.235 C 
HETATM   10  N2  UNL     1       1.129  -2.017   1.369  1.00  0.00    -0.241 NA
HETATM   11  C9  UNL     1       1.540  -0.892   0.753  1.00  0.00     0.071 A 
HETATM   12  C10 UNL     1       2.918  -0.814   0.692  1.00  0.00     0.069 A 
HETATM   13  C11 UNL     1       3.579   0.266   0.097  1.00  0.00     0.070 A 
HETATM   14  C13 UNL     1       2.822   1.271  -0.439  1.00  0.00     0.038 A 
HETATM   15  C14 UNL     1       1.454   1.148  -0.354  1.00  0.00     0.017 A 
HETATM   16  C15 UNL     1       0.771   0.098   0.226  1.00  0.00     0.002 A 
HETATM   17  C16 UNL     1      -2.790  -0.924   0.811  1.00  0.00     0.130 C 
ENDROOT
BRANCH   1  18
HETATM   18  O1  UNL     1      -4.674   0.465   1.354  1.00  0.00    -0.360 OA
HETATM   19  C1  UNL     1      -5.736   1.076   0.663  1.00  0.00     0.209 C 
ENDBRANCH   1  18
BRANCH  13  20
HETATM   20  O3  UNL     1       4.967   0.350   0.032  1.00  0.00    -0.356 OA
HETATM   21  C12 UNL     1       5.601   1.446  -0.572  1.00  0.00     0.210 C 
ENDBRANCH  13  20
TORSDOF 2
