REMARK  6 active torsions:
REMARK  status: ('A' for Active; 'I' for Inactive)
REMARK    1  A    between atoms: O1_2  and  C2_3 
REMARK    2  A    between atoms: C5_6  and  N1_7 
REMARK    3  A    between atoms: N1_7  and  C6_8 
REMARK    4  A    between atoms: C10_14  and  O2_15 
REMARK    5  A    between atoms: C12_17  and  O3_18 
REMARK    6  A    between atoms: C17_23  and  O4_24 
ROOT
HETATM    1  C6  UNL     1      -0.494  -1.787   1.145  1.00  0.00     0.142 A 
HETATM    2  N2  UNL     1      -0.392  -2.313   2.380  1.00  0.00    -0.224 NA
HETATM    3  C7  UNL     1      -1.330  -2.169   3.334  1.00  0.00     0.236 A 
HETATM    4  N3  UNL     1      -2.460  -1.455   3.067  1.00  0.00    -0.241 NA
HETATM    5  C8  UNL     1      -2.611  -0.908   1.848  1.00  0.00     0.075 A 
HETATM    6  C9  UNL     1      -3.725  -0.170   1.510  1.00  0.00     0.072 A 
HETATM    7  C10 UNL     1      -3.840   0.378   0.249  1.00  0.00     0.103 A 
HETATM    8  C12 UNL     1      -2.883   0.233  -0.731  1.00  0.00     0.102 A 
HETATM    9  C14 UNL     1      -1.771  -0.508  -0.382  1.00  0.00     0.057 A 
HETATM   10  C15 UNL     1      -1.643  -1.061   0.874  1.00  0.00     0.042 A 
ENDROOT
BRANCH   1  11
HETATM   11  N1  UNL     1       0.537  -1.981   0.204  1.00  0.00    -0.340 N 
HETATM   12  H6  UNL     1       0.605  -2.813  -0.423  1.00  0.00     0.167 HD
BRANCH  11  13
HETATM   13  C5  UNL     1       1.560  -1.001   0.082  1.00  0.00     0.036 A 
HETATM   14  C4  UNL     1       1.459   0.149   0.852  1.00  0.00     0.032 A 
HETATM   15  C3  UNL     1       2.444   1.106   0.740  1.00  0.00     0.042 A 
HETATM   16  C2  UNL     1       3.498   0.931  -0.109  1.00  0.00     0.101 A 
HETATM   17  C17 UNL     1       3.644  -0.202  -0.900  1.00  0.00     0.103 A 
HETATM   18  C16 UNL     1       2.636  -1.149  -0.766  1.00  0.00     0.069 A 
BRANCH  16  19
HETATM   19  O1  UNL     1       4.497   1.882  -0.235  1.00  0.00    -0.353 OA
HETATM   20  C1  UNL     1       4.442   3.066   0.522  1.00  0.00     0.210 C 
ENDBRANCH  16  19
BRANCH  17  21
HETATM   21  O4  UNL     1       4.726  -0.346  -1.748  1.00  0.00    -0.353 OA
HETATM   22  C18 UNL     1       4.858  -1.492  -2.534  1.00  0.00     0.210 C 
ENDBRANCH  17  21
ENDBRANCH  11  13
ENDBRANCH   1  11
BRANCH   8  23
HETATM   23  O3  UNL     1      -3.139   0.843  -1.951  1.00  0.00    -0.353 OA
HETATM   24  C13 UNL     1      -2.166   0.705  -2.970  1.00  0.00     0.210 C 
ENDBRANCH   8  23
BRANCH   7  25
HETATM   25  O2  UNL     1      -4.991   1.087   0.038  1.00  0.00    -0.353 OA
HETATM   26  C11 UNL     1      -6.010   1.284   0.965  1.00  0.00     0.210 C 
ENDBRANCH   7  25
TORSDOF 6
