REMARK  6 active torsions:
REMARK  status: ('A' for Active; 'I' for Inactive)
REMARK    1  A    between atoms: C3_3  and  C4_4 
REMARK    2  A    between atoms: C3_3  and  O3_21 
REMARK    3  A    between atoms: C5_5  and  C6_6 
REMARK    4  A    between atoms: C6_6  and  C7_7 
REMARK    5  A    between atoms: C12_12  and  O1_13 
REMARK    6  A    between atoms: C15_16  and  O2_17 
ROOT
HETATM    1  C7  UNL     1      -0.222  -0.159   0.755  1.00  0.00    -0.019 A 
HETATM    2  C8  UNL     1      -0.478  -0.827  -0.444  1.00  0.00     0.041 A 
HETATM    3  C9  UNL     1      -1.716  -0.778  -1.016  1.00  0.00     0.057 A 
HETATM    4  C10 UNL     1      -2.775  -0.087  -0.470  1.00  0.00    -0.020 A 
HETATM    5  C11 UNL     1      -2.506   0.572   0.722  1.00  0.00     0.047 A 
HETATM    6  C12 UNL     1      -1.255   0.554   1.349  1.00  0.00     0.075 A 
HETATM    7  C14 UNL     1      -4.162   0.058  -0.969  1.00  0.00     0.129 A 
HETATM    8  C15 UNL     1      -4.263  -0.700  -2.243  1.00  0.00     0.163 A 
HETATM    9  N1  UNL     1      -3.295  -1.355  -2.782  1.00  0.00    -0.153 NA
HETATM   10  N2  UNL     1      -2.006  -1.449  -2.248  1.00  0.00    -0.276 N 
HETATM   11  H19 UNL     1      -1.243  -1.989  -2.709  1.00  0.00     0.189 HD
ENDROOT
BRANCH   1  12
HETATM   12  C6  UNL     1       1.096  -0.158   1.437  1.00  0.00     0.068 C 
BRANCH  12  13
HETATM   13  C5  UNL     1       1.851   1.074   1.263  1.00  0.00    -0.019 C 
HETATM   14  C4  UNL     1       2.977   1.583   0.807  1.00  0.00     0.032 C 
BRANCH  14  15
HETATM   15  C3  UNL     1       4.054   0.815   0.189  1.00  0.00     0.063 C 
HETATM   16  C2  UNL     1       5.163   1.350  -0.260  1.00  0.00     0.006 C 
HETATM   17  C1  UNL     1       6.264   0.587  -0.892  1.00  0.00     0.038 C 
BRANCH  15  18
HETATM   18  O3  UNL     1       3.946  -0.574   0.045  1.00  0.00    -0.356 OA
HETATM   19  C17 UNL     1       4.533  -1.337   1.108  1.00  0.00     0.210 C 
ENDBRANCH  15  18
ENDBRANCH  14  15
ENDBRANCH  12  13
ENDBRANCH   1  12
BRANCH   6  20
HETATM   20  O1  UNL     1      -1.020   1.222   2.538  1.00  0.00    -0.355 OA
HETATM   21  C13 UNL     1      -2.104   1.939   3.114  1.00  0.00     0.210 C 
ENDBRANCH   6  20
BRANCH   8  22
HETATM   22  O2  UNL     1      -5.445  -0.760  -2.968  1.00  0.00    -0.341 OA
HETATM   23  C16 UNL     1      -5.831  -1.890  -3.728  1.00  0.00     0.211 C 
ENDBRANCH   8  22
TORSDOF 6
