REMARK  4 active torsions:
REMARK  status: ('A' for Active; 'I' for Inactive)
REMARK    1  A    between atoms: C4_4  and  C5_5 
REMARK    2  A    between atoms: C6_6  and  N1_7 
REMARK    3  A    between atoms: N1_7  and  C7_8 
REMARK    4  A    between atoms: C16_19  and  O1_20 
ROOT
HETATM    1  C1  UNL     1       5.334   3.271   0.384  1.00  0.00     0.017 C 
HETATM    2  C2  UNL     1       5.186   2.248  -0.263  1.00  0.00    -0.089 C 
HETATM    3  C3  UNL     1       5.008   1.059  -1.038  1.00  0.00     0.063 C 
HETATM    4  C4  UNL     1       4.273   0.029  -0.598  1.00  0.00     0.010 C 
ENDROOT
BRANCH   4   5
HETATM    5  C5  UNL     1       4.085  -1.183  -1.374  1.00  0.00     0.018 C 
HETATM    6  C6  UNL     1       3.371  -2.194  -0.954  1.00  0.00     0.090 C 
BRANCH   6   7
HETATM    7  N1  UNL     1       2.768  -2.060   0.328  1.00  0.00    -0.350 N 
HETATM    8  H6  UNL     1       2.889  -2.310   1.342  1.00  0.00     0.166 HD
BRANCH   7   9
HETATM    9  C7  UNL     1       1.545  -1.339   0.376  1.00  0.00     0.143 C 
HETATM   10  C8  UNL     1       0.757  -1.238  -0.696  1.00  0.00     0.134 C 
HETATM   11  N2  UNL     1      -0.517  -0.565  -0.885  1.00  0.00    -0.392 N 
HETATM   12  C9  UNL     1      -1.676  -1.248  -0.313  1.00  0.00     0.158 C 
HETATM   13  H8  UNL     1      -0.496   0.338  -1.406  1.00  0.00     0.159 HD
HETATM   14  C10 UNL     1      -2.877  -0.378  -0.336  1.00  0.00    -0.029 A 
HETATM   15  C11 UNL     1      -3.739  -0.496  -1.401  1.00  0.00     0.028 A 
HETATM   16  C15 UNL     1      -3.158   0.550   0.673  1.00  0.00     0.001 A 
HETATM   17  C12 UNL     1      -4.896   0.234  -1.582  1.00  0.00     0.011 A 
HETATM   18 BR1  UNL     1      -5.985  -0.040  -3.100  1.00  0.00    -0.051 Br
HETATM   19  C13 UNL     1      -5.188   1.154  -0.596  1.00  0.00     0.020 A 
HETATM   20  C14 UNL     1      -4.335   1.285   0.479  1.00  0.00     0.013 A 
HETATM   21  C16 UNL     1      -2.462   0.917   1.911  1.00  0.00     0.298 C 
HETATM   22  N3  UNL     1      -1.424   0.037   2.331  1.00  0.00    -0.154 NA
HETATM   23  N4  UNL     1      -0.199   0.369   2.084  1.00  0.00    -0.145 NA
HETATM   24  C17 UNL     1       0.766  -0.606   2.557  1.00  0.00     0.259 C 
HETATM   25  N5  UNL     1       0.797  -0.608   1.295  1.00  0.00    -0.221 NA
BRANCH  21  26
HETATM   26  O1  UNL     1      -1.913   2.219   1.828  1.00  0.00    -0.369 OA
HETATM   27  H15 UNL     1      -1.790   2.457   0.888  1.00  0.00     0.212 HD
ENDBRANCH  21  26
ENDBRANCH   7   9
ENDBRANCH   6   7
ENDBRANCH   4   5
TORSDOF 4
