REMARK  1 active torsions:
REMARK  status: ('A' for Active; 'I' for Inactive)
REMARK    1  A    between atoms: O1_2  and  C2_3 
ROOT
HETATM    1  C2  UNL     1      -3.135  -1.346  -1.384  1.00  0.00     0.200 C 
HETATM    2  C3  UNL     1      -3.034  -0.315  -0.315  1.00  0.00     0.047 C 
HETATM    3  C4  UNL     1      -2.141   0.663  -0.164  1.00  0.00     0.053 C 
HETATM    4  C5  UNL     1      -1.784   0.900   1.280  1.00  0.00     0.150 C 
HETATM    5  C6  UNL     1      -0.346   1.373   1.290  1.00  0.00     0.152 C 
HETATM    6  N1  UNL     1       0.086   1.879   0.202  1.00  0.00    -0.221 NA
HETATM    7  C7  UNL     1       1.309   2.407  -0.171  1.00  0.00     0.236 C 
HETATM    8  N2  UNL     1       2.317   1.680  -0.228  1.00  0.00    -0.241 NA
HETATM    9  C8  UNL     1       2.503   0.326   0.025  1.00  0.00     0.067 C 
HETATM   10  C9  UNL     1       1.636  -0.590  -0.407  1.00  0.00     0.011 C 
HETATM   11  C10 UNL     1       0.523  -1.331  -1.008  1.00  0.00     0.072 C 
HETATM   12  C11 UNL     1      -0.459  -0.568  -1.784  1.00  0.00    -0.026 C 
HETATM   13  S1  UNL     1      -1.553  -1.747  -2.129  1.00  0.00    -0.170 SA
HETATM   14  C12 UNL     1      -0.788   0.811  -2.312  1.00  0.00     0.216 C 
HETATM   15  O2  UNL     1      -1.622   1.360  -1.277  1.00  0.00    -0.351 OA
HETATM   16  C13 UNL     1       3.692  -0.156   0.737  1.00  0.00     0.007 C 
HETATM   17  C14 UNL     1       4.072  -1.521   1.050  1.00  0.00     0.059 C 
HETATM   18  S2  UNL     1       4.721   1.005   1.242  1.00  0.00    -0.104 SA
HETATM   19  C15 UNL     1       4.037   2.312   1.998  1.00  0.00     0.052 C 
HETATM   20  C16 UNL     1       2.670   2.349   2.353  1.00  0.00     0.032 C 
HETATM   21  C17 UNL     1       1.411   2.315   2.649  1.00  0.00     0.144 C 
HETATM   22  O3  UNL     1       0.534   1.302   2.394  1.00  0.00    -0.307 OA
HETATM   23  H12 UNL     1      -1.700  -1.787  -3.518  1.00  0.00     0.098 HD
ENDROOT
BRANCH   1  24
HETATM   24  O1  UNL     1      -3.571  -2.514  -0.724  1.00  0.00    -0.377 OA
HETATM   25  C1  UNL     1      -4.797  -2.947  -1.163  1.00  0.00     0.203 C 
ENDBRANCH   1  24
TORSDOF 1
