REMARK  9 active torsions:
REMARK  status: ('A' for Active; 'I' for Inactive)
REMARK    1  A    between atoms: C2_2  and  O1_3 
REMARK    2  A    between atoms: C2_2  and  C3_4 
REMARK    3  A    between atoms: C3_4  and  C4_5 
REMARK    4  A    between atoms: C3_4  and  O5_24 
REMARK    5  A    between atoms: C4_5  and  C5_6 
REMARK    6  A    between atoms: C6_7  and  O2_8 
REMARK    7  A    between atoms: O2_8  and  C7_9 
REMARK    8  A    between atoms: C12_16  and  O3_17 
REMARK    9  A    between atoms: C14_19  and  O4_20 
ROOT
HETATM    1  C7  UNL     1       0.217   1.614  -0.936  1.00  0.00     0.203 C 
HETATM    2  C8  UNL     1       0.541   3.110  -1.146  1.00  0.00     0.128 C 
HETATM    3  N1  UNL     1      -0.191   3.064  -2.206  1.00  0.00    -0.255 NA
HETATM    4  C9  UNL     1      -0.599   3.935  -3.164  1.00  0.00     0.232 C 
HETATM    5  N2  UNL     1      -1.718   3.234  -3.076  1.00  0.00    -0.241 NA
HETATM    6  C10 UNL     1      -2.032   2.127  -2.246  1.00  0.00     0.070 A 
HETATM    7  C11 UNL     1      -3.350   1.656  -2.331  1.00  0.00     0.072 A 
HETATM    8  C12 UNL     1      -4.041   0.746  -1.754  1.00  0.00     0.103 A 
HETATM    9  C14 UNL     1      -3.213   0.080  -0.800  1.00  0.00     0.102 A 
HETATM   10  C16 UNL     1      -1.845   0.387  -0.539  1.00  0.00     0.052 A 
HETATM   11  C17 UNL     1      -1.236   1.423  -1.270  1.00  0.00     0.008 A 
ENDROOT
BRANCH   1  12
HETATM   12  O2  UNL     1       0.494   1.307   0.378  1.00  0.00    -0.348 OA
BRANCH  12  13
HETATM   13  C6  UNL     1       1.345   0.443   0.881  1.00  0.00     0.136 C 
HETATM   14  C5  UNL     1       1.370  -0.890   1.189  1.00  0.00     0.027 C 
BRANCH  14  15
HETATM   15  C4  UNL     1       2.669  -1.255   1.760  1.00  0.00     0.037 C 
BRANCH  15  16
HETATM   16  C3  UNL     1       3.773  -1.705   2.280  1.00  0.00     0.083 C 
BRANCH  16  17
HETATM   17  C2  UNL     1       4.118  -3.052   2.734  1.00  0.00     0.143 C 
HETATM   18  C1  UNL     1       4.602  -4.138   3.186  1.00  0.00     0.052 C 
BRANCH  17  19
HETATM   19  O1  UNL     1       5.373  -2.601   3.205  1.00  0.00    -0.379 OA
HETATM   20  H3  UNL     1       5.531  -2.164   4.126  1.00  0.00     0.211 HD
ENDBRANCH  17  19
ENDBRANCH  16  17
BRANCH  16  21
HETATM   21  O5  UNL     1       4.066  -0.405   2.079  1.00  0.00    -0.357 OA
HETATM   22  C18 UNL     1       5.103   0.086   1.262  1.00  0.00     0.209 C 
ENDBRANCH  16  21
ENDBRANCH  15  16
ENDBRANCH  14  15
ENDBRANCH  12  13
ENDBRANCH   1  12
BRANCH   9  23
HETATM   23  O4  UNL     1      -3.461  -0.951   0.084  1.00  0.00    -0.353 OA
HETATM   24  C15 UNL     1      -2.659  -1.582   0.985  1.00  0.00     0.210 C 
ENDBRANCH   9  23
BRANCH   8  25
HETATM   25  O3  UNL     1      -5.160   0.028  -1.516  1.00  0.00    -0.353 OA
HETATM   26  C13 UNL     1      -6.407   0.101  -2.108  1.00  0.00     0.210 C 
ENDBRANCH   8  25
TORSDOF 9
