REMARK  3 active torsions:
REMARK  status: ('A' for Active; 'I' for Inactive)
REMARK    1  A    between atoms: C3_3  and  C4_4 
REMARK    2  A    between atoms: C5_6  and  C6_7 
REMARK    3  A    between atoms: C11_14  and  O1_15 
ROOT
HETATM    1  C6  UNL     1       0.400  -0.273  -1.133  1.00  0.00     0.072 A 
HETATM    2  N1  UNL     1       0.976  -1.026  -2.111  1.00  0.00    -0.241 NA
HETATM    3  C7  UNL     1       0.283  -2.065  -2.653  1.00  0.00     0.234 A 
HETATM    4  N2  UNL     1      -0.978  -2.424  -2.287  1.00  0.00    -0.241 NA
HETATM    5  C8  UNL     1      -1.587  -1.705  -1.321  1.00  0.00     0.072 A 
HETATM    6  C9  UNL     1      -0.869  -0.657  -0.783  1.00  0.00     0.024 A 
HETATM    7  C10 UNL     1      -1.219   0.270   0.285  1.00  0.00     0.050 C 
HETATM    8  C11 UNL     1      -2.285   0.689   0.923  1.00  0.00     0.070 C 
HETATM    9  C13 UNL     1      -3.732   0.389   0.845  1.00  0.00     0.238 C 
HETATM   10  O2  UNL     1      -4.067  -0.937   0.620  1.00  0.00    -0.357 OA
HETATM   11  C14 UNL     1      -3.945  -1.959  -0.312  1.00  0.00     0.137 C 
HETATM   12  C15 UNL     1      -2.936  -2.278  -1.107  1.00  0.00     0.056 C 
ENDROOT
BRANCH   1  13
HETATM   13  C5  UNL     1       1.150   0.823  -0.577  1.00  0.00     0.051 C 
HETATM   14  C4  UNL     1       2.422   0.721  -0.161  1.00  0.00     0.013 C 
HETATM   15 BR1  UNL     1       3.318   2.245   0.590  1.00  0.00    -0.051 Br
BRANCH  14  16
HETATM   16  C3  UNL     1       3.395  -0.351  -0.113  1.00  0.00     0.015 C 
HETATM   17  C2  UNL     1       4.646  -0.609   0.254  1.00  0.00    -0.030 C 
HETATM   18  C1  UNL     1       5.726   0.184   0.849  1.00  0.00     0.036 C 
ENDBRANCH  14  16
ENDBRANCH   1  13
BRANCH   8  19
HETATM   19  O1  UNL     1      -1.952   1.645   1.906  1.00  0.00    -0.358 OA
HETATM   20  C12 UNL     1      -2.307   2.999   1.762  1.00  0.00     0.209 C 
ENDBRANCH   8  19
TORSDOF 3
