REMARK  2 active torsions:
REMARK  status: ('A' for Active; 'I' for Inactive)
REMARK    1  A    between atoms: C5_7  and  C6_8 
REMARK    2  A    between atoms: C7_9  and  C8_10 
ROOT
HETATM    1  C1  UNL     1      -1.671   3.149  -0.921  1.00  0.00     0.000 C 
HETATM    2  O1  UNL     1      -1.658   1.816  -1.397  1.00  0.00     0.000 OA
HETATM    3  C2  UNL     1      -2.633   0.885  -1.084  1.00  0.00    -0.042 A 
HETATM    4  C3  UNL     1      -1.473   0.413  -1.523  1.00  0.00     0.116 A 
HETATM    5  P1  UNL     1      -0.028  -0.560  -2.090  1.00  0.00    -0.123 P 
HETATM    6  C4  UNL     1       1.230  -0.784  -0.766  1.00  0.00    -0.048 C 
HETATM    7  C5  UNL     1       1.966   0.252  -0.420  1.00  0.00     0.008 C 
HETATM    8  C10 UNL     1       1.320  -2.134  -0.209  1.00  0.00     0.143 C 
HETATM    9  N1  UNL     1       0.098  -2.570   0.423  1.00  0.00    -0.418 NA
HETATM   10  C11 UNL     1      -0.846  -3.195  -0.183  1.00  0.00     0.435 C 
HETATM   11  N2  UNL     1      -2.099  -3.832  -0.252  1.00  0.00    -0.272 NA
HETATM   12  C12 UNL     1      -3.215  -3.234  -0.087  1.00  0.00     0.112 C 
HETATM   13  C13 UNL     1      -3.098  -1.768   0.192  1.00  0.00     0.214 C 
HETATM   14  O2  UNL     1      -3.898  -1.107  -0.685  1.00  0.00    -0.382 OA
HETATM   15  C14 UNL     1      -3.876   0.251  -0.658  1.00  0.00     0.203 C 
HETATM   16  H5  UNL     1       0.590   0.142  -3.231  1.00  0.00     0.052 HD
ENDROOT
BRANCH   7  17
HETATM   17  C6  UNL     1       3.031   0.477   0.550  1.00  0.00     0.001 C 
HETATM   18  C7  UNL     1       3.760   1.527   0.884  1.00  0.00     0.001 C 
BRANCH  18  19
HETATM   19  C8  UNL     1       4.747   1.380   1.913  1.00  0.00     0.007 C 
HETATM   20  C9  UNL     1       5.414   2.491   2.163  1.00  0.00     0.056 C 
HETATM   21 BR1  UNL     1       4.992   4.064   1.168  1.00  0.00    -0.064 Br
ENDBRANCH  18  19
ENDBRANCH   7  17
TORSDOF 2
