REMARK  4 active torsions:
REMARK  status: ('A' for Active; 'I' for Inactive)
REMARK    1  A    between atoms: C5_6  and  C6_7 
REMARK    2  A    between atoms: C6_7  and  O1_8 
REMARK    3  A    between atoms: O1_8  and  O2_9 
REMARK    4  A    between atoms: O2_9  and  C7_10 
ROOT
HETATM    1  C7  UNL     1       0.501  -1.030  -0.360  1.00  0.00     0.191 C 
HETATM    2  C8  UNL     1       0.979  -2.134   0.244  1.00  0.00     0.060 C 
HETATM    3  C9  UNL     1       2.105  -2.704   0.966  1.00  0.00     0.001 C 
HETATM    4  C10 UNL     1       3.268  -2.283   1.362  1.00  0.00    -0.023 C 
HETATM    5  C11 UNL     1       4.259  -1.194   1.445  1.00  0.00     0.054 C 
HETATM    6  C12 UNL     1       3.680  -0.023   0.741  1.00  0.00    -0.022 C 
HETATM    7  C13 UNL     1       3.673   0.903  -0.181  1.00  0.00     0.015 C 
HETATM    8  C14 UNL     1       3.065   2.028  -0.818  1.00  0.00     0.113 C 
HETATM    9  N1  UNL     1       2.008   2.692  -0.652  1.00  0.00    -0.268 NA
HETATM   10  C15 UNL     1       1.004   2.492   0.325  1.00  0.00     0.482 C 
HETATM   11  N2  UNL     1       0.469   1.343   0.220  1.00  0.00    -0.331 NA
HETATM   12  N3  UNL     1       0.775   0.351  -0.706  1.00  0.00    -0.290 N 
HETATM   13  H15 UNL     1       1.206   0.634  -1.639  1.00  0.00     0.187 HD
ENDROOT
BRANCH   1  14
HETATM   14  O2  UNL     1      -0.741  -0.850  -1.002  1.00  0.00    -0.178 OA
BRANCH  14  15
HETATM   15  O1  UNL     1      -1.675  -1.804  -0.994  1.00  0.00    -0.229 OA
BRANCH  15  16
HETATM   16  C6  UNL     1      -2.830  -1.427  -1.633  1.00  0.00     0.249 C 
BRANCH  16  17
HETATM   17  C5  UNL     1      -3.349  -0.219  -0.904  1.00  0.00    -0.030 A 
HETATM   18  C4  UNL     1      -4.221  -0.309   0.161  1.00  0.00     0.009 A 
HETATM   19  C3  UNL     1      -4.650   0.856   0.775  1.00  0.00     0.002 A 
HETATM   20  C2  UNL     1      -4.250   2.106   0.376  1.00  0.00     0.019 A 
HETATM   21  C1  UNL     1      -3.372   2.167  -0.698  1.00  0.00     0.011 A 
HETATM   22 BR1  UNL     1      -2.796   3.890  -1.279  1.00  0.00    -0.051 Br
HETATM   23  C16 UNL     1      -2.921   1.013  -1.339  1.00  0.00     0.028 A 
ENDBRANCH  16  17
ENDBRANCH  15  16
ENDBRANCH  14  15
ENDBRANCH   1  14
TORSDOF 4
