REMARK  9 active torsions:
REMARK  status: ('A' for Active; 'I' for Inactive)
REMARK    1  A    between atoms: N1_2  and  C2_3 
REMARK    2  A    between atoms: C2_3  and  C4_5 
REMARK    3  A    between atoms: C5_6  and  C6_7 
REMARK    4  A    between atoms: C6_7  and  O1_8 
REMARK    5  A    between atoms: O1_8  and  C7_9 
REMARK    6  A    between atoms: C10_12  and  C11_13 
REMARK    7  A    between atoms: C11_13  and  O2_14 
REMARK    8  A    between atoms: C13_16  and  C14_17 
REMARK    9  A    between atoms: C14_17  and  O3_18 
ROOT
HETATM    1  C7  UNL     1      -0.166  -0.140   0.109  1.00  0.00     0.164 A 
HETATM    2  C8  UNL     1      -0.522  -0.772   1.289  1.00  0.00     0.059 A 
HETATM    3  C9  UNL     1      -1.855  -0.841   1.693  1.00  0.00     0.015 A 
HETATM    4  C10 UNL     1      -2.827  -0.256   0.879  1.00  0.00    -0.008 A 
HETATM    5  C13 UNL     1      -2.408   0.361  -0.287  1.00  0.00     0.069 A 
HETATM    6  N2  UNL     1      -1.116   0.418  -0.663  1.00  0.00    -0.227 NA
ENDROOT
BRANCH   1   7
HETATM    7  O1  UNL     1       1.205  -0.202  -0.075  1.00  0.00    -0.331 OA
BRANCH   7   8
HETATM    8  C6  UNL     1       1.735   0.400  -1.242  1.00  0.00     0.205 C 
BRANCH   8   9
HETATM    9  C5  UNL     1       3.212   0.250  -1.297  1.00  0.00     0.002 C 
HETATM   10  C4  UNL     1       3.802  -0.390  -0.303  1.00  0.00     0.028 C 
BRANCH  10  11
HETATM   11  C2  UNL     1       5.209  -0.709  -0.048  1.00  0.00     0.045 C 
HETATM   12  C3  UNL     1       5.804  -1.352   0.949  1.00  0.00     0.045 C 
BRANCH  11  13
HETATM   13  N1  UNL     1       6.295  -0.373  -0.867  1.00  0.00    -0.273 NA
HETATM   14  C1  UNL     1       7.247   0.434  -0.531  1.00  0.00     0.149 C 
ENDBRANCH  11  13
ENDBRANCH  10  11
ENDBRANCH   8   9
ENDBRANCH   7   8
ENDBRANCH   1   7
BRANCH   5  15
HETATM   15  C14 UNL     1      -3.456   0.957  -1.105  1.00  0.00     0.226 C 
BRANCH  15  16
HETATM   16  O3  UNL     1      -4.209   0.049  -1.836  1.00  0.00    -0.390 OA
HETATM   17  C15 UNL     1      -3.428  -0.683  -2.721  1.00  0.00     0.201 C 
ENDBRANCH  15  16
ENDBRANCH   5  15
BRANCH   4  18
HETATM   18  C11 UNL     1      -4.251  -0.313   1.283  1.00  0.00     0.207 C 
BRANCH  18  19
HETATM   19  O2  UNL     1      -4.564   0.962   1.769  1.00  0.00    -0.391 OA
HETATM   20  C12 UNL     1      -3.784   1.318   2.856  1.00  0.00     0.201 C 
ENDBRANCH  18  19
ENDBRANCH   4  18
TORSDOF 9
