REMARK  1 active torsions:
REMARK  status: ('A' for Active; 'I' for Inactive)
REMARK    1  A    between atoms: O1_2  and  C2_3 
ROOT
HETATM    1  C2  UNL     1      -1.418  -0.332  -0.398  1.00  0.00     0.057 C 
HETATM    2  C3  UNL     1      -0.874   0.626  -1.140  1.00  0.00    -0.011 C 
HETATM    3  C4  UNL     1       0.282   0.830  -1.992  1.00  0.00     0.127 C 
HETATM    4  N1  UNL     1       1.259   0.026  -2.337  1.00  0.00    -0.254 NA
HETATM    5  C5  UNL     1       1.263  -1.325  -1.818  1.00  0.00     0.230 C 
HETATM    6  N2  UNL     1       1.517  -0.804  -0.667  1.00  0.00    -0.240 NA
HETATM    7  C6  UNL     1       1.699  -1.537   0.566  1.00  0.00     0.178 C 
HETATM    8  C7  UNL     1       1.127  -2.890   0.403  1.00  0.00     0.039 C 
HETATM    9  C8  UNL     1      -0.069  -2.227   0.397  1.00  0.00    -0.068 C 
HETATM   10  C9  UNL     1      -1.447  -1.673   0.192  1.00  0.00     0.099 C 
HETATM   11  C10 UNL     1       0.597  -1.428   1.523  1.00  0.00     0.102 C 
HETATM   12  O2  UNL     1       2.952  -1.377   1.058  1.00  0.00    -0.351 OA
HETATM   13  C11 UNL     1       3.278  -0.055   0.645  1.00  0.00     0.200 C 
HETATM   14  C12 UNL     1       2.557   0.967   1.421  1.00  0.00     0.014 C 
HETATM   15  C13 UNL     1       1.675   1.952   1.323  1.00  0.00    -0.009 A 
HETATM   16 BR1  UNL     1       0.851   3.245   2.521  1.00  0.00    -0.122 Br
HETATM   17  C14 UNL     1       0.448   2.591   0.741  1.00  0.00     0.096 A 
HETATM   18  C15 UNL     1      -0.692   2.766  -0.023  1.00  0.00     0.014 C 
HETATM   19  C16 UNL     1      -1.526   1.990  -1.044  1.00  0.00     0.049 C 
ENDROOT
BRANCH   1  20
HETATM   20  O1  UNL     1      -2.630   0.142   0.193  1.00  0.00    -0.359 OA
HETATM   21  C1  UNL     1      -3.814  -0.253  -0.469  1.00  0.00     0.209 C 
ENDBRANCH   1  20
TORSDOF 1
