REMARK  2 active torsions:
REMARK  status: ('A' for Active; 'I' for Inactive)
REMARK    1  A    between atoms: C5_6  and  O1_7 
REMARK    2  A    between atoms: O1_7  and  C6_8 
ROOT
HETATM    1  C6  UNL     1       0.799   0.622  -0.222  1.00  0.00     0.156 C 
HETATM    2  C7  UNL     1      -0.115  -0.495  -0.581  1.00  0.00     0.002 C 
HETATM    3  C8  UNL     1      -0.969  -1.340  -0.047  1.00  0.00    -0.026 C 
HETATM    4  C9  UNL     1      -1.953  -2.430   0.061  1.00  0.00     0.053 C 
HETATM    5  C10 UNL     1      -3.297  -2.061   0.582  1.00  0.00     0.178 C 
HETATM    6  O2  UNL     1      -4.037  -1.153  -0.154  1.00  0.00    -0.361 OA
HETATM    7  C11 UNL     1      -5.246  -0.699   0.346  1.00  0.00     0.153 C 
HETATM    8  C12 UNL     1      -5.207   0.579   0.753  1.00  0.00     0.142 C 
HETATM    9  N1  UNL     1      -4.365   1.724   0.882  1.00  0.00    -0.252 NA
HETATM   10  C13 UNL     1      -3.193   1.680   0.348  1.00  0.00     0.231 C 
HETATM   11  N2  UNL     1      -1.902   1.566  -0.268  1.00  0.00    -0.258 NA
HETATM   12  C14 UNL     1      -0.951   2.284   0.281  1.00  0.00     0.093 C 
HETATM   13  C15 UNL     1       0.254   1.986  -0.531  1.00  0.00     0.083 C 
ENDROOT
BRANCH   1  14
HETATM   14  O1  UNL     1       1.952   0.466  -1.035  1.00  0.00    -0.342 OA
BRANCH  14  15
HETATM   15  C5  UNL     1       3.235   0.276  -0.579  1.00  0.00     0.071 A 
HETATM   16  C4  UNL     1       3.775   0.183   0.687  1.00  0.00     0.037 A 
HETATM   17  C3  UNL     1       5.123  -0.013   0.863  1.00  0.00     0.004 A 
HETATM   18  C2  UNL     1       5.998  -0.125  -0.195  1.00  0.00     0.019 A 
HETATM   19  C1  UNL     1       5.483  -0.035  -1.465  1.00  0.00     0.013 A 
HETATM   20 BR1  UNL     1       6.723  -0.194  -2.903  1.00  0.00    -0.051 Br
HETATM   21  C16 UNL     1       4.115   0.164  -1.662  1.00  0.00     0.055 A 
ENDBRANCH  14  15
ENDBRANCH   1  14
TORSDOF 2
