REMARK  6 active torsions:
REMARK  status: ('A' for Active; 'I' for Inactive)
REMARK    1  A    between atoms: C2_2  and  O1_3 
REMARK    2  A    between atoms: C2_2  and  C4_5 
REMARK    3  A    between atoms: C4_5  and  O2_6 
REMARK    4  A    between atoms: C4_5  and  C6_8 
REMARK    5  A    between atoms: C9_13  and  C10_14 
REMARK    6  A    between atoms: C12_16  and  O3_17 
ROOT
HETATM    1  C6  UNL     1      -0.878  -1.442   0.403  1.00  0.00     0.024 A 
HETATM    2  C7  UNL     1      -1.800  -2.490   0.522  1.00  0.00     0.130 A 
HETATM    3  N1  UNL     1      -1.391  -3.729   0.143  1.00  0.00    -0.253 NA
HETATM    4  C8  UNL     1      -0.149  -3.930  -0.326  1.00  0.00     0.233 A 
HETATM    5  N2  UNL     1       0.671  -2.887  -0.409  1.00  0.00    -0.241 NA
HETATM    6  C9  UNL     1       0.390  -1.625  -0.068  1.00  0.00     0.079 A 
ENDROOT
BRANCH   6   7
HETATM    7  C10 UNL     1       1.404  -0.607  -0.105  1.00  0.00    -0.007 A 
HETATM    8  C11 UNL     1       2.534  -0.863  -0.788  1.00  0.00     0.023 A 
HETATM    9  C12 UNL     1       3.520   0.212  -0.780  1.00  0.00     0.170 A 
HETATM   10  C13 UNL     1       2.863   1.242   0.063  1.00  0.00    -0.051 A 
HETATM   11  C14 UNL     1       3.407   2.560   0.438  1.00  0.00     0.046 C 
HETATM   12  C15 UNL     1       1.705   0.710   0.387  1.00  0.00     0.019 A 
BRANCH   9  13
HETATM   13  O3  UNL     1       4.693  -0.264  -0.186  1.00  0.00    -0.387 OA
HETATM   14  H14 UNL     1       5.401  -0.279  -0.906  1.00  0.00     0.210 HD
ENDBRANCH   9  13
ENDBRANCH   6   7
BRANCH   1  15
HETATM   15  C4  UNL     1      -1.448  -0.143   0.735  1.00  0.00     0.213 C 
BRANCH  15  16
HETATM   16  C2  UNL     1      -1.280   0.877  -0.361  1.00  0.00     0.070 C 
HETATM   17  C1  UNL     1      -1.018   1.867  -1.215  1.00  0.00     0.049 C 
BRANCH  16  18
HETATM   18  O1  UNL     1      -2.099   0.327  -1.313  1.00  0.00    -0.358 OA
HETATM   19  C3  UNL     1      -3.432   0.625  -1.567  1.00  0.00     0.209 C 
ENDBRANCH  16  18
ENDBRANCH  15  16
BRANCH  15  20
HETATM   20  O2  UNL     1      -2.773  -0.200   1.147  1.00  0.00    -0.379 OA
HETATM   21  C5  UNL     1      -2.960   0.257   2.441  1.00  0.00     0.202 C 
ENDBRANCH  15  20
ENDBRANCH   1  15
TORSDOF 6
