REMARK  4 active torsions:
REMARK  status: ('A' for Active; 'I' for Inactive)
REMARK    1  A    between atoms: O1_2  and  C2_3 
REMARK    2  A    between atoms: C6_9  and  O2_10 
REMARK    3  A    between atoms: O2_10  and  C7_11 
REMARK    4  A    between atoms: C15_21  and  O3_22 
ROOT
HETATM    1  C2  UNL     1      -2.933  -2.190  -0.146  1.00  0.00     0.103 A 
HETATM    2  C3  UNL     1      -1.900  -3.075  -0.379  1.00  0.00     0.072 A 
HETATM    3  C4  UNL     1      -0.630  -2.536  -0.415  1.00  0.00     0.075 A 
HETATM    4  N1  UNL     1       0.404  -3.385  -0.643  1.00  0.00    -0.241 NA
HETATM    5  C5  UNL     1       1.673  -2.946  -0.693  1.00  0.00     0.236 A 
HETATM    6  N2  UNL     1       1.985  -1.650  -0.522  1.00  0.00    -0.217 NA
HETATM    7  C6  UNL     1       1.007  -0.760  -0.293  1.00  0.00     0.185 A 
HETATM    8  C13 UNL     1      -0.309  -1.209  -0.239  1.00  0.00     0.049 A 
HETATM    9  C14 UNL     1      -1.396  -0.384  -0.010  1.00  0.00     0.057 A 
HETATM   10  C15 UNL     1      -2.692  -0.844   0.040  1.00  0.00     0.102 A 
ENDROOT
BRANCH   7  11
HETATM   11  O2  UNL     1       1.118   0.587  -0.094  1.00  0.00    -0.274 OA
BRANCH  11  12
HETATM   12  C7  UNL     1       2.271   1.340  -0.085  1.00  0.00     0.150 A 
HETATM   13  C8  UNL     1       3.511   1.070  -0.463  1.00  0.00     0.056 A 
HETATM   14  C9  UNL     1       4.627   2.002  -0.382  1.00  0.00     0.007 A 
HETATM   15  C10 UNL     1       4.465   3.223   0.093  1.00  0.00     0.030 A 
HETATM   16  C11 UNL     1       3.124   3.597   0.531  1.00  0.00     0.040 A 
HETATM   17  C12 UNL     1       2.923   4.813   1.013  1.00  0.00     0.085 C 
HETATM   18  N3  UNL     1       2.033   2.663   0.443  1.00  0.00    -0.336 N 
HETATM   19 BR1  UNL     1       4.377   6.027   1.120  1.00  0.00    -0.061 Br
HETATM   20  H10 UNL     1       1.110   3.027   0.783  1.00  0.00     0.168 HD
ENDBRANCH  11  12
ENDBRANCH   7  11
BRANCH  10  21
HETATM   21  O3  UNL     1      -3.749   0.027   0.274  1.00  0.00    -0.353 OA
HETATM   22  C16 UNL     1      -3.424   1.395   0.455  1.00  0.00     0.210 C 
ENDBRANCH  10  21
BRANCH   1  23
HETATM   23  O1  UNL     1      -4.224  -2.627  -0.092  1.00  0.00    -0.353 OA
HETATM   24  C1  UNL     1      -4.641  -3.963  -0.260  1.00  0.00     0.210 C 
ENDBRANCH   1  23
TORSDOF 4
