REMARK  8 active torsions:
REMARK  status: ('A' for Active; 'I' for Inactive)
REMARK    1  A    between atoms: O1_2  and  C2_3 
REMARK    2  A    between atoms: C3_4  and  C4_5 
REMARK    3  A    between atoms: C3_4  and  C7_9 
REMARK    4  A    between atoms: C7_9  and  C10_12 
REMARK    5  A    between atoms: C10_12  and  O2_13 
REMARK    6  A    between atoms: O2_13  and  C11_14 
REMARK    7  A    between atoms: C11_14  and  O3_15 
REMARK    8  A    between atoms: O3_15  and  C12_16 
ROOT
HETATM    1  C2  UNL     1      -1.072  -1.784   0.471  1.00  0.00     0.065 A 
HETATM    2  C3  UNL     1      -1.973  -0.844   0.005  1.00  0.00     0.145 A 
HETATM    3  C10 UNL     1      -0.955  -0.645  -0.446  1.00  0.00     0.200 A 
ENDROOT
BRANCH   3   4
HETATM    4  C7  UNL     1      -2.420  -0.001  -0.211  1.00  0.00     0.191 A 
HETATM    5  C6  UNL     1      -3.224  -0.606  -1.311  1.00  0.00     0.275 A 
HETATM    6  C5  UNL     1      -4.345  -0.077  -2.028  1.00  0.00     0.262 A 
HETATM    7  N1  UNL     1      -3.611   0.293  -1.131  1.00  0.00    -0.018 N 
HETATM    8  C4  UNL     1      -2.887   0.669  -0.239  1.00  0.00     0.199 A 
HETATM    9  C8  UNL     1      -2.199   1.025   0.609  1.00  0.00    -0.027 A 
HETATM   10  C9  UNL     1      -2.050   2.193   1.469  1.00  0.00     0.044 C 
ENDBRANCH   3   4
BRANCH   3  11
HETATM   11  O2  UNL     1       0.082   0.238  -0.240  1.00  0.00    -0.354 OA
BRANCH  11  12
HETATM   12  C11 UNL     1       0.743   0.387  -1.475  1.00  0.00     0.345 C 
BRANCH  12  13
HETATM   13  O3  UNL     1       1.784   1.309  -1.267  1.00  0.00    -0.326 OA
BRANCH  13  14
HETATM   14  C12 UNL     1       2.841   1.239  -0.423  1.00  0.00     0.072 A 
HETATM   15  C13 UNL     1       3.627   2.366  -0.504  1.00  0.00     0.037 A 
HETATM   16  C14 UNL     1       4.749   2.446   0.305  1.00  0.00     0.004 A 
HETATM   17  C15 UNL     1       5.067   1.404   1.180  1.00  0.00     0.019 A 
HETATM   18  C16 UNL     1       4.302   0.280   1.276  1.00  0.00     0.013 A 
HETATM   19 BR1  UNL     1       4.601  -1.206   2.414  1.00  0.00    -0.051 Br
HETATM   20  C17 UNL     1       3.188   0.202   0.468  1.00  0.00     0.055 A 
ENDBRANCH  13  14
ENDBRANCH  12  13
ENDBRANCH  11  12
ENDBRANCH   3  11
BRANCH   1  21
HETATM   21  O1  UNL     1      -0.748  -2.878   1.222  1.00  0.00    -0.361 OA
HETATM   22  C1  UNL     1      -1.444  -4.082   0.809  1.00  0.00     0.209 C 
ENDBRANCH   1  21
TORSDOF 8
