REMARK  4 active torsions:
REMARK  status: ('A' for Active; 'I' for Inactive)
REMARK    1  A    between atoms: C2_2  and  C3_3 
REMARK    2  A    between atoms: C3_3  and  C4_4 
REMARK    3  A    between atoms: C5_5  and  N1_6 
REMARK    4  A    between atoms: C10_14  and  C11_15 
ROOT
HETATM    1  N1  UNL     1       1.610   0.915  -0.072  1.00  0.00    -0.347 N 
HETATM    2  C6  UNL     1       1.549   1.582   1.244  1.00  0.00     0.275 C 
HETATM    3  N2  UNL     1       0.234   1.963   1.583  1.00  0.00    -0.263 NA
HETATM    4  C7  UNL     1      -0.455   1.836   2.635  1.00  0.00     0.230 C 
HETATM    5  N3  UNL     1      -1.343   2.506   1.761  1.00  0.00    -0.230 NA
HETATM    6  C8  UNL     1      -2.297   1.986   1.097  1.00  0.00     0.259 C 
HETATM    7  O1  UNL     1      -3.306   1.320   0.419  1.00  0.00    -0.307 OA
HETATM    8  C9  UNL     1      -3.092   0.038  -0.127  1.00  0.00     0.083 C 
HETATM    9  C10 UNL     1      -3.915  -0.990   0.101  1.00  0.00     0.053 C 
HETATM   10  C14 UNL     1      -1.839   0.108  -0.944  1.00  0.00     0.336 C 
HETATM   11  N4  UNL     1      -0.725   0.497  -0.081  1.00  0.00     0.106 N 
HETATM   12  C15 UNL     1       0.487   0.472  -0.917  1.00  0.00     0.396 C 
HETATM   13  H19 UNL     1      -0.624  -0.221   0.690  1.00  0.00     0.318 HD
ENDROOT
BRANCH   1  14
HETATM   14  C5  UNL     1       3.010   0.781  -0.417  1.00  0.00     0.085 C 
HETATM   15  C4  UNL     1       3.909   1.778  -0.574  1.00  0.00    -0.004 C 
BRANCH  15  16
HETATM   16  C3  UNL     1       5.114   1.088  -0.903  1.00  0.00     0.021 C 
BRANCH  16  17
HETATM   17  C2  UNL     1       6.268   0.636  -1.206  1.00  0.00    -0.006 C 
HETATM   18  C1  UNL     1       5.993  -0.840  -1.230  1.00  0.00     0.011 C 
ENDBRANCH  16  17
ENDBRANCH  15  16
ENDBRANCH   1  14
BRANCH   9  19
HETATM   19  C11 UNL     1      -3.969  -2.390  -0.303  1.00  0.00     0.009 C 
HETATM   20 BR1  UNL     1      -2.665  -3.198  -1.459  1.00  0.00    -0.051 Br
HETATM   21  C12 UNL     1      -4.950  -3.179   0.123  1.00  0.00    -0.012 C 
HETATM   22  C13 UNL     1      -6.125  -2.969   1.000  1.00  0.00     0.037 C 
ENDBRANCH   9  19
TORSDOF 4
