REMARK  5 active torsions:
REMARK  status: ('A' for Active; 'I' for Inactive)
REMARK    1  A    between atoms: O1_2  and  C2_3 
REMARK    2  A    between atoms: N1_7  and  C6_8 
REMARK    3  A    between atoms: C7_9  and  O2_10 
REMARK    4  A    between atoms: O2_10  and  C8_11 
REMARK    5  A    between atoms: C15_19  and  O3_20 
ROOT
HETATM    1  C2  UNL     1      -3.763   0.091  -0.176  1.00  0.00     0.099 A 
HETATM    2  C3  UNL     1      -2.804   0.988  -0.069  1.00  0.00     0.019 A 
HETATM    3  C4  UNL     1      -1.337   0.872   0.142  1.00  0.00     0.090 A 
HETATM    4  C5  UNL     1      -0.987  -0.550   0.236  1.00  0.00     0.058 A 
HETATM    5  N1  UNL     1       0.180  -1.016   0.416  1.00  0.00    -0.262 NA
HETATM    6  C14 UNL     1      -2.003  -1.618   0.126  1.00  0.00     0.072 A 
HETATM    7 BR1  UNL     1      -1.581  -3.490   0.244  1.00  0.00    -0.046 Br
HETATM    8  C15 UNL     1      -3.288  -1.298  -0.066  1.00  0.00     0.120 A 
ENDROOT
BRANCH   5   9
HETATM    9  C6  UNL     1       1.321  -0.199   0.552  1.00  0.00     0.141 C 
HETATM   10  C7  UNL     1       2.022   0.765  -0.008  1.00  0.00     0.161 C 
BRANCH  10  11
HETATM   11  O2  UNL     1       3.074   0.973   0.877  1.00  0.00    -0.321 OA
BRANCH  11  12
HETATM   12  C8  UNL     1       4.361   0.753   0.413  1.00  0.00     0.074 A 
HETATM   13  C9  UNL     1       4.579   0.344  -0.878  1.00  0.00     0.037 A 
HETATM   14  C10 UNL     1       5.843   0.120  -1.359  1.00  0.00     0.003 A 
HETATM   15  C11 UNL     1       6.922   0.318  -0.503  1.00  0.00     0.000 A 
HETATM   16  C12 UNL     1       6.722   0.729   0.797  1.00  0.00     0.003 A 
HETATM   17  C13 UNL     1       5.442   0.949   1.263  1.00  0.00     0.037 A 
ENDBRANCH  11  12
ENDBRANCH  10  11
ENDBRANCH   5   9
BRANCH   8  18
HETATM   18  O3  UNL     1      -4.247  -2.312  -0.170  1.00  0.00    -0.352 OA
HETATM   19  C16 UNL     1      -5.065  -2.457   1.002  1.00  0.00     0.210 C 
ENDBRANCH   8  18
BRANCH   1  20
HETATM   20  O1  UNL     1      -5.125   0.332  -0.376  1.00  0.00    -0.353 OA
HETATM   21  C1  UNL     1      -5.607   1.261  -1.308  1.00  0.00     0.210 C 
ENDBRANCH   1  20
TORSDOF 5
