REMARK  5 active torsions:
REMARK  status: ('A' for Active; 'I' for Inactive)
REMARK    1  A    between atoms: O1_2  and  P1_3 
REMARK    2  A    between atoms: C6_9  and  C7_10 
REMARK    3  A    between atoms: C7_10  and  O2_11 
REMARK    4  A    between atoms: O2_11  and  C8_12 
REMARK    5  A    between atoms: C17_22  and  O3_23 
ROOT
HETATM    1  P1  UNL     1       3.553   0.996   0.586  1.00  0.00     0.053 P 
HETATM    2  C2  UNL     1       3.762   0.228  -0.829  1.00  0.00     0.015 C 
HETATM    3  C3  UNL     1       2.625  -0.264  -1.300  1.00  0.00    -0.015 A 
HETATM    4  C4  UNL     1       2.851  -1.176  -2.414  1.00  0.00     0.125 A 
HETATM    5  N1  UNL     1       1.828  -1.709  -2.988  1.00  0.00    -0.272 NA
HETATM    6  C5  UNL     1       0.511  -1.414  -2.544  1.00  0.00     0.122 A 
HETATM    7  C6  UNL     1       0.270  -0.593  -1.533  1.00  0.00    -0.027 A 
HETATM    8  C15 UNL     1       1.306   0.107  -0.729  1.00  0.00     0.079 A 
HETATM    9  C16 UNL     1       1.319  -0.430   0.682  1.00  0.00     0.026 C 
HETATM   10  C17 UNL     1       2.366  -0.072   1.441  1.00  0.00     0.089 C 
HETATM   11  H4  UNL     1       2.905   2.197   0.335  1.00  0.00     0.093 HD
ENDROOT
BRANCH   7  12
HETATM   12  C7  UNL     1      -1.131  -0.297  -1.084  1.00  0.00     0.206 C 
BRANCH  12  13
HETATM   13  O2  UNL     1      -1.379  -0.646   0.216  1.00  0.00    -0.371 OA
BRANCH  13  14
HETATM   14  C8  UNL     1      -2.665  -0.387   0.669  1.00  0.00     0.092 A 
HETATM   15  C9  UNL     1      -2.701  -0.851   2.123  1.00  0.00     0.052 C 
HETATM   16  C10 UNL     1      -2.826   1.098   0.708  1.00  0.00     0.012 A 
HETATM   17  C11 UNL     1      -3.795   1.819   0.167  1.00  0.00    -0.001 A 
HETATM   18  C12 UNL     1      -4.862   1.161  -0.566  1.00  0.00    -0.003 A 
HETATM   19  C13 UNL     1      -4.778  -0.158  -0.639  1.00  0.00    -0.008 A 
HETATM   20  C14 UNL     1      -3.751  -1.077  -0.080  1.00  0.00     0.118 A 
HETATM   21 BR1  UNL     1      -4.677  -2.346   1.083  1.00  0.00    -0.084 Br
ENDBRANCH  13  14
ENDBRANCH  12  13
ENDBRANCH   7  12
BRANCH  10  22
HETATM   22  O3  UNL     1       2.564  -0.455   2.753  1.00  0.00    -0.358 OA
HETATM   23  H19 UNL     1       3.388  -0.903   3.109  1.00  0.00     0.217 HD
ENDBRANCH  10  22
BRANCH   1  24
HETATM   24  O1  UNL     1       4.987   1.128   1.436  1.00  0.00    -0.366 OA
HETATM   25  C1  UNL     1       5.980   1.478   0.501  1.00  0.00     0.207 C 
ENDBRANCH   1  24
TORSDOF 5
