REMARK  6 active torsions:
REMARK  status: ('A' for Active; 'I' for Inactive)
REMARK    1  A    between atoms: O1_2  and  C2_3 
REMARK    2  A    between atoms: C5_6  and  C6_7 
REMARK    3  A    between atoms: C6_7  and  C7_8 
REMARK    4  A    between atoms: C7_8  and  O2_9 
REMARK    5  A    between atoms: O2_9  and  C8_10 
REMARK    6  A    between atoms: C15_18  and  O3_19 
ROOT
HETATM    1  C2  UNL     1      -3.438  -0.059  -0.759  1.00  0.00     0.097 A 
HETATM    2  C3  UNL     1      -2.372   0.505  -1.300  1.00  0.00     0.013 A 
HETATM    3  C4  UNL     1      -0.913   0.155  -1.222  1.00  0.00     0.038 A 
HETATM    4  C5  UNL     1      -0.665  -1.048  -0.374  1.00  0.00     0.016 A 
HETATM    5  C14 UNL     1      -1.930  -1.601   0.184  1.00  0.00     0.018 A 
HETATM    6  C15 UNL     1      -3.202  -1.233   0.069  1.00  0.00     0.097 A 
ENDROOT
BRANCH   4   7
HETATM    7  C6  UNL     1       0.341  -0.774   0.737  1.00  0.00     0.035 C 
BRANCH   7   8
HETATM    8  C7  UNL     1       1.637  -0.354   0.091  1.00  0.00     0.176 C 
BRANCH   8   9
HETATM    9  O2  UNL     1       2.643  -0.076   1.060  1.00  0.00    -0.351 OA
BRANCH   9  10
HETATM   10  C8  UNL     1       3.882   0.321   0.585  1.00  0.00     0.070 A 
HETATM   11  C9  UNL     1       4.843   0.586   1.551  1.00  0.00     0.037 A 
HETATM   12  C10 UNL     1       6.091   0.984   1.118  1.00  0.00     0.004 A 
HETATM   13  C11 UNL     1       6.430   1.132  -0.220  1.00  0.00     0.019 A 
HETATM   14  C12 UNL     1       5.426   0.852  -1.128  1.00  0.00     0.013 A 
HETATM   15 BR1  UNL     1       5.760   1.015  -2.996  1.00  0.00    -0.051 Br
HETATM   16  C13 UNL     1       4.174   0.455  -0.760  1.00  0.00     0.055 A 
ENDBRANCH   9  10
ENDBRANCH   8   9
ENDBRANCH   7   8
ENDBRANCH   4   7
BRANCH   6  17
HETATM   17  O3  UNL     1      -4.149  -1.991   0.737  1.00  0.00    -0.353 OA
HETATM   18  C16 UNL     1      -4.729  -1.544   1.951  1.00  0.00     0.210 C 
ENDBRANCH   6  17
BRANCH   1  19
HETATM   19  O1  UNL     1      -4.776   0.337  -0.885  1.00  0.00    -0.353 OA
HETATM   20  C1  UNL     1      -5.203   1.570  -0.338  1.00  0.00     0.210 C 
ENDBRANCH   1  19
TORSDOF 6
