REMARK  3 active torsions:
REMARK  status: ('A' for Active; 'I' for Inactive)
REMARK    1  A    between atoms: O1_1  and  C1_2 
REMARK    2  A    between atoms: C6_8  and  N2_9 
REMARK    3  A    between atoms: N2_9  and  C7_10 
ROOT
HETATM    1  C1  UNL     1       5.448   0.152   0.754  1.00  0.00     0.167 A 
HETATM    2  C2  UNL     1       4.274   0.176   1.638  1.00  0.00     0.020 A 
HETATM    3  C3  UNL     1       3.155   0.107   0.916  1.00  0.00    -0.008 A 
HETATM    4  C4  UNL     1       1.863   0.116   1.607  1.00  0.00     0.161 C 
HETATM    5  N1  UNL     1       0.749   0.465   0.765  1.00  0.00    -0.379 N 
HETATM    6  C5  UNL     1       0.417   0.085  -0.562  1.00  0.00     0.129 A 
HETATM    7  C6  UNL     1      -0.937  -0.043  -0.759  1.00  0.00     0.160 A 
HETATM    8  N3  UNL     1      -1.286  -0.379  -2.006  1.00  0.00    -0.222 NA
HETATM    9  C13 UNL     1      -0.449  -0.591  -3.030  1.00  0.00     0.238 A 
HETATM   10  N4  UNL     1       0.871  -0.463  -2.820  1.00  0.00    -0.215 NA
HETATM   11  C14 UNL     1       1.331  -0.122  -1.579  1.00  0.00     0.202 A 
HETATM   12  O2  UNL     1       2.721  -0.050  -1.604  1.00  0.00    -0.290 OA
HETATM   13  C15 UNL     1       3.572   0.036  -0.483  1.00  0.00     0.084 A 
HETATM   14  C16 UNL     1       4.888   0.060  -0.611  1.00  0.00     0.046 A 
HETATM   15  H6  UNL     1       0.017   1.127   1.158  1.00  0.00     0.160 HD
ENDROOT
BRANCH   7  16
HETATM   16  N2  UNL     1      -1.871   0.129   0.296  1.00  0.00    -0.339 N 
HETATM   17  H7  UNL     1      -1.645   0.257   1.300  1.00  0.00     0.167 HD
BRANCH  16  18
HETATM   18  C7  UNL     1      -3.288   0.137   0.154  1.00  0.00     0.033 A 
HETATM   19  C8  UNL     1      -4.185  -0.050   1.186  1.00  0.00     0.029 A 
HETATM   20  C9  UNL     1      -5.545  -0.036   1.080  1.00  0.00     0.002 A 
HETATM   21  C10 UNL     1      -6.116   0.180  -0.146  1.00  0.00     0.000 A 
HETATM   22  C11 UNL     1      -5.295   0.372  -1.209  1.00  0.00     0.002 A 
HETATM   23  C12 UNL     1      -3.926   0.349  -1.051  1.00  0.00     0.029 A 
ENDBRANCH  16  18
ENDBRANCH   7  16
BRANCH   1  24
HETATM   24  O1  UNL     1       6.222   1.307   0.843  1.00  0.00    -0.388 OA
HETATM   25  H1  UNL     1       6.733   1.322   1.709  1.00  0.00     0.210 HD
ENDBRANCH   1  24
TORSDOF 3
