REMARK  6 active torsions:
REMARK  status: ('A' for Active; 'I' for Inactive)
REMARK    1  A    between atoms: C3_3  and  C4_4 
REMARK    2  A    between atoms: C4_4  and  O1_5 
REMARK    3  A    between atoms: C6_7  and  O2_8 
REMARK    4  A    between atoms: C11_13  and  N1_14 
REMARK    5  A    between atoms: C11_13  and  N2_15 
REMARK    6  A    between atoms: N2_15  and  C12_16 
ROOT
HETATM    1  C1  UNL     1       0.557   2.303  -1.326  1.00  0.00     0.049 C 
HETATM    2  C2  UNL     1       0.893   0.913  -0.925  1.00  0.00    -0.041 A 
HETATM    3  C3  UNL     1       2.152   0.476  -0.760  1.00  0.00     0.005 A 
HETATM    4  C6  UNL     1       2.424  -0.900  -0.361  1.00  0.00     0.073 A 
HETATM    5  C8  UNL     1       1.500  -1.786  -0.140  1.00  0.00     0.015 A 
HETATM    6  C9  UNL     1       0.078  -1.473  -0.275  1.00  0.00     0.072 A 
HETATM    7  C10 UNL     1      -0.155  -0.064  -0.693  1.00  0.00    -0.010 A 
HETATM    8  C11 UNL     1      -1.433   0.204  -0.832  1.00  0.00     0.085 C 
ENDROOT
BRANCH   8   9
HETATM    9  N1  UNL     1      -2.295   1.266  -1.182  1.00  0.00    -0.288 NA
HETATM   10  H15 UNL     1      -2.685   2.012  -0.557  1.00  0.00     0.125 HD
HETATM   11  H16 UNL     1      -2.723   2.039  -0.632  1.00  0.00     0.125 HD
ENDBRANCH   8   9
BRANCH   8  12
HETATM   12  N2  UNL     1      -2.533  -0.667  -0.633  1.00  0.00    -0.347 N 
HETATM   13  H17 UNL     1      -2.701  -1.373  -1.408  1.00  0.00     0.167 HD
BRANCH  12  14
HETATM   14  C12 UNL     1      -3.466  -0.764   0.438  1.00  0.00     0.034 A 
HETATM   15  C13 UNL     1      -3.397  -1.517   1.585  1.00  0.00     0.029 A 
HETATM   16  C14 UNL     1      -4.438  -1.441   2.481  1.00  0.00     0.004 A 
HETATM   17  C15 UNL     1      -5.554  -0.651   2.301  1.00  0.00     0.019 A 
HETATM   18  C16 UNL     1      -5.602   0.096   1.143  1.00  0.00     0.013 A 
HETATM   19 BR1  UNL     1      -7.157   1.189   0.904  1.00  0.00    -0.051 Br
HETATM   20  C17 UNL     1      -4.576   0.044   0.222  1.00  0.00     0.048 A 
ENDBRANCH  12  14
ENDBRANCH   8  12
BRANCH   3  21
HETATM   21  C4  UNL     1       3.342   1.319  -0.955  1.00  0.00     0.209 C 
BRANCH  21  22
HETATM   22  O1  UNL     1       4.105   1.412   0.228  1.00  0.00    -0.391 OA
HETATM   23  C5  UNL     1       5.232   2.197   0.075  1.00  0.00     0.201 C 
ENDBRANCH  21  22
ENDBRANCH   3  21
BRANCH   4  24
HETATM   24  O2  UNL     1       3.730  -1.365  -0.186  1.00  0.00    -0.356 OA
HETATM   25  C7  UNL     1       4.075  -2.535   0.468  1.00  0.00     0.210 C 
ENDBRANCH   4  24
TORSDOF 6
