REMARK  3 active torsions:
REMARK  status: ('A' for Active; 'I' for Inactive)
REMARK    1  A    between atoms: O1_2  and  C2_3 
REMARK    2  A    between atoms: C5_6  and  N1_7 
REMARK    3  A    between atoms: N1_7  and  C6_8 
ROOT
HETATM    1  C2  UNL     1      -1.765  -0.760   0.723  1.00  0.00     0.185 C 
HETATM    2  C3  UNL     1      -0.956  -0.133  -0.150  1.00  0.00     0.080 C 
HETATM    3  C4  UNL     1      -0.761   1.311  -0.309  1.00  0.00     0.024 A 
HETATM    4  C5  UNL     1       0.438   1.621  -0.921  1.00  0.00     0.046 A 
HETATM    5  C12 UNL     1       0.702   2.981  -1.121  1.00  0.00     0.049 A 
HETATM    6  C13 UNL     1      -0.176   3.971  -0.733  1.00  0.00     0.119 A 
HETATM    7  N2  UNL     1      -1.321   3.583  -0.143  1.00  0.00    -0.260 NA
HETATM    8  C14 UNL     1      -1.664   2.304   0.092  1.00  0.00     0.070 A 
HETATM    9  C15 UNL     1      -2.965   2.143   0.750  1.00  0.00     0.057 C 
HETATM   10  C16 UNL     1      -3.339   1.052   1.440  1.00  0.00     0.147 C 
HETATM   11  O2  UNL     1      -2.591  -0.117   1.665  1.00  0.00    -0.300 OA
ENDROOT
BRANCH   4  12
HETATM   12  N1  UNL     1       1.353   0.613  -1.327  1.00  0.00    -0.355 N 
HETATM   13  H5  UNL     1       1.415   0.753  -2.358  1.00  0.00     0.166 HD
BRANCH  12  14
HETATM   14  C6  UNL     1       2.098  -0.410  -0.679  1.00  0.00     0.033 A 
HETATM   15  C7  UNL     1       2.840  -1.276  -1.454  1.00  0.00     0.029 A 
HETATM   16  C8  UNL     1       3.534  -2.230  -0.756  1.00  0.00     0.004 A 
HETATM   17  C9  UNL     1       3.562  -2.405   0.612  1.00  0.00     0.019 A 
HETATM   18  C10 UNL     1       2.811  -1.523   1.346  1.00  0.00     0.013 A 
HETATM   19 BR1  UNL     1       2.775  -1.670   3.251  1.00  0.00    -0.051 Br
HETATM   20  C11 UNL     1       2.085  -0.533   0.694  1.00  0.00     0.048 A 
ENDBRANCH  12  14
ENDBRANCH   4  12
BRANCH   1  21
HETATM   21  O1  UNL     1      -1.671  -2.139   0.563  1.00  0.00    -0.335 OA
HETATM   22  C1  UNL     1      -2.906  -2.811   0.333  1.00  0.00     0.212 C 
ENDBRANCH   1  21
TORSDOF 3
