REMARK  4 active torsions:
REMARK  status: ('A' for Active; 'I' for Inactive)
REMARK    1  A    between atoms: O1_2  and  C2_3 
REMARK    2  A    between atoms: C5_6  and  N1_7 
REMARK    3  A    between atoms: N1_7  and  C6_8 
REMARK    4  A    between atoms: C15_19  and  O3_20 
ROOT
HETATM    1  C2  UNL     1      -2.479  -0.902   0.571  1.00  0.00     0.078 C 
HETATM    2  C3  UNL     1      -1.167  -1.200   0.598  1.00  0.00     0.047 C 
HETATM    3  C4  UNL     1      -0.423   0.044   0.293  1.00  0.00     0.003 C 
HETATM    4  C5  UNL     1       0.749   0.335  -0.209  1.00  0.00     0.043 C 
HETATM    5  C12 UNL     1       1.168   1.682  -0.444  1.00  0.00     0.054 C 
HETATM    6  C13 UNL     1       0.267   2.620  -0.115  1.00  0.00     0.138 C 
HETATM    7  O2  UNL     1      -0.992   2.380   0.411  1.00  0.00    -0.350 OA
HETATM    8  C14 UNL     1      -1.368   1.108   0.795  1.00  0.00     0.198 C 
HETATM    9  C15 UNL     1      -2.643   0.568   0.245  1.00  0.00     0.211 C 
ENDROOT
BRANCH   4  10
HETATM   10  N1  UNL     1       1.567  -0.784  -0.568  1.00  0.00    -0.356 N 
HETATM   11  H5  UNL     1       1.439  -1.732  -0.956  1.00  0.00     0.166 HD
BRANCH  10  12
HETATM   12  C6  UNL     1       2.954  -0.573  -0.341  1.00  0.00     0.033 A 
HETATM   13  C7  UNL     1       3.385  -0.827   0.967  1.00  0.00     0.029 A 
HETATM   14  C8  UNL     1       4.698  -0.676   1.353  1.00  0.00     0.004 A 
HETATM   15  C9  UNL     1       5.648  -0.260   0.441  1.00  0.00     0.019 A 
HETATM   16  C10 UNL     1       5.209  -0.013  -0.844  1.00  0.00     0.013 A 
HETATM   17 BR1  UNL     1       6.426   0.564  -2.200  1.00  0.00    -0.051 Br
HETATM   18  C11 UNL     1       3.909  -0.154  -1.262  1.00  0.00     0.048 A 
ENDBRANCH  10  12
ENDBRANCH   4  10
BRANCH   1  19
HETATM   19  O1  UNL     1      -3.295  -2.013   0.845  1.00  0.00    -0.357 OA
HETATM   20  C1  UNL     1      -4.130  -2.503  -0.206  1.00  0.00     0.209 C 
ENDBRANCH   1  19
BRANCH   9  21
HETATM   21  O3  UNL     1      -3.770   1.023   0.901  1.00  0.00    -0.381 OA
HETATM   22  C16 UNL     1      -4.795   1.458   0.091  1.00  0.00     0.202 C 
ENDBRANCH   9  21
TORSDOF 4
