REMARK  1 active torsions:
REMARK  status: ('A' for Active; 'I' for Inactive)
REMARK    1  A    between atoms: O1_2  and  C2_3 
ROOT
HETATM    1  C2  UNL     1      -1.466   0.998  -0.270  1.00  0.00     0.110 C 
HETATM    2  C3  UNL     1      -2.321  -0.011  -0.008  1.00  0.00     0.009 C 
HETATM    3  C4  UNL     1      -3.515  -0.077   0.810  1.00  0.00     0.127 C 
HETATM    4  N1  UNL     1      -3.496  -1.187   1.537  1.00  0.00    -0.270 NA
HETATM    5  C5  UNL     1      -2.358  -2.048   1.306  1.00  0.00     0.141 C 
HETATM    6  C6  UNL     1      -1.275  -2.078   0.498  1.00  0.00     0.035 C 
HETATM    7  N2  UNL     1      -0.219  -3.013   0.447  1.00  0.00    -0.384 N 
HETATM    8  C7  UNL     1       0.887  -2.313  -0.136  1.00  0.00     0.139 C 
HETATM    9  C8  UNL     1       1.823  -2.721  -0.973  1.00  0.00     0.021 C 
HETATM   10  C9  UNL     1       2.549  -1.429  -1.085  1.00  0.00    -0.028 C 
HETATM   11  C10 UNL     1       2.369  -0.220  -0.505  1.00  0.00    -0.024 C 
HETATM   12  C11 UNL     1       2.721   1.234  -0.281  1.00  0.00     0.028 C 
HETATM   13  C12 UNL     1       3.200   1.406   1.120  1.00  0.00     0.016 C 
HETATM   14  C13 UNL     1       1.421   2.024  -0.513  1.00  0.00     0.183 C 
HETATM   15  O2  UNL     1       0.718   1.438  -1.641  1.00  0.00    -0.348 OA
HETATM   16  C14 UNL     1      -0.380   0.591  -1.192  1.00  0.00     0.100 C 
HETATM   17  C15 UNL     1      -0.607  -0.675  -1.499  1.00  0.00     0.028 C 
HETATM   18  C16 UNL     1      -1.645  -1.129  -0.637  1.00  0.00     0.099 C 
HETATM   19  H6  UNL     1      -0.695  -3.881   0.880  1.00  0.00     0.160 HD
ENDROOT
BRANCH   1  20
HETATM   20  O1  UNL     1      -1.515   2.314   0.224  1.00  0.00    -0.352 OA
HETATM   21  C1  UNL     1      -2.642   2.979   0.677  1.00  0.00     0.210 C 
ENDBRANCH   1  20
TORSDOF 1
