REMARK  4 active torsions:
REMARK  status: ('A' for Active; 'I' for Inactive)
REMARK    1  A    between atoms: C2_2  and  C3_3 
REMARK    2  A    between atoms: C5_6  and  N2_7 
REMARK    3  A    between atoms: C8_10  and  O1_11 
REMARK    4  A    between atoms: C10_13  and  O2_14 
ROOT
HETATM    1  N2  UNL     1       0.491   1.116   1.100  1.00  0.00    -0.235 NA
HETATM    2  C6  UNL     1      -0.764   0.873   0.905  1.00  0.00     0.043 A 
HETATM    3  C7  UNL     1      -1.294  -0.262   0.157  1.00  0.00     0.067 A 
HETATM    4  C8  UNL     1      -2.608  -0.417   0.016  1.00  0.00     0.103 A 
HETATM    5  C10 UNL     1      -3.524   0.564   0.619  1.00  0.00     0.098 A 
HETATM    6  C12 UNL     1      -3.081   1.595   1.298  1.00  0.00     0.019 A 
HETATM    7  C13 UNL     1      -1.646   1.900   1.540  1.00  0.00     0.089 A 
ENDROOT
BRANCH   1   8
HETATM    8  C5  UNL     1       1.531   0.261   0.581  1.00  0.00     0.137 C 
HETATM    9  N1  UNL     1       1.792   0.289  -0.840  1.00  0.00    -0.374 N 
HETATM   10  C4  UNL     1       3.158   0.189  -1.317  1.00  0.00     0.126 C 
HETATM   11  H7  UNL     1       0.976   0.384  -1.498  1.00  0.00     0.161 HD
HETATM   12  C3  UNL     1       3.937  -0.850  -0.588  1.00  0.00     0.013 C 
HETATM   13  C15 UNL     1       3.320  -1.400   0.644  1.00  0.00     0.057 C 
HETATM   14  C14 UNL     1       2.298  -0.579   1.294  1.00  0.00     0.035 C 
HETATM   15 BR1  UNL     1       1.957  -0.620   3.175  1.00  0.00    -0.052 Br
BRANCH  12  16
HETATM   16  C2  UNL     1       5.344  -0.370  -0.328  1.00  0.00    -0.004 C 
HETATM   17  C1  UNL     1       5.655   0.905  -0.538  1.00  0.00     0.006 C 
ENDBRANCH  12  16
ENDBRANCH   1   8
BRANCH   4  18
HETATM   18  O1  UNL     1      -3.051  -1.516  -0.707  1.00  0.00    -0.353 OA
HETATM   19  C9  UNL     1      -3.953  -2.473  -0.186  1.00  0.00     0.210 C 
ENDBRANCH   4  18
BRANCH   5  20
HETATM   20  O2  UNL     1      -4.868   0.289   0.400  1.00  0.00    -0.353 OA
HETATM   21  C11 UNL     1      -5.487   1.047  -0.645  1.00  0.00     0.210 C 
ENDBRANCH   5  20
TORSDOF 4
