REMARK  7 active torsions:
REMARK  status: ('A' for Active; 'I' for Inactive)
REMARK    1  A    between atoms: O1_2  and  C2_3 
REMARK    2  A    between atoms: C4_5  and  C5_6 
REMARK    3  A    between atoms: C5_6  and  C6_7 
REMARK    4  A    between atoms: C6_7  and  C7_8 
REMARK    5  A    between atoms: C11_13  and  N2_14 
REMARK    6  A    between atoms: N2_14  and  C12_15 
REMARK    7  A    between atoms: C15_18  and  O2_19 
ROOT
HETATM    1  C7  UNL     1      -1.221   0.951  -1.218  1.00  0.00    -0.015 A 
HETATM    2  C8  UNL     1      -1.769   1.763  -2.332  1.00  0.00     0.189 A 
HETATM    3  N1  UNL     1      -1.149   3.056  -2.366  1.00  0.00    -0.297 NA
HETATM    4  C9  UNL     1      -0.247   3.446  -1.540  1.00  0.00     0.113 A 
HETATM    5  C10 UNL     1       0.290   2.646  -0.446  1.00  0.00     0.049 A 
HETATM    6  C11 UNL     1      -0.205   1.408  -0.298  1.00  0.00     0.041 A 
ENDROOT
BRANCH   6   7
HETATM    7  N2  UNL     1       0.377   0.729   0.781  1.00  0.00    -0.357 N 
HETATM    8  H15 UNL     1       0.259   0.444   1.778  1.00  0.00     0.166 HD
BRANCH   7   9
HETATM    9  C12 UNL     1       1.653   0.179   0.475  1.00  0.00     0.033 C 
HETATM   10  C13 UNL     1       2.673   0.795   1.097  1.00  0.00     0.029 C 
HETATM   11  C14 UNL     1       4.130   0.587   1.093  1.00  0.00     0.036 C 
HETATM   12  C15 UNL     1       4.770  -0.316   0.348  1.00  0.00     0.069 C 
HETATM   13  C17 UNL     1       4.225  -1.300  -0.622  1.00  0.00     0.232 C 
HETATM   14  O3  UNL     1       3.090  -0.743  -1.189  1.00  0.00    -0.379 OA
HETATM   15  C18 UNL     1       1.941  -0.976  -0.440  1.00  0.00     0.225 C 
BRANCH  12  16
HETATM   16  O2  UNL     1       6.127  -0.258   0.575  1.00  0.00    -0.358 OA
HETATM   17  C16 UNL     1       6.662  -1.057   1.621  1.00  0.00     0.209 C 
ENDBRANCH  12  16
ENDBRANCH   7   9
ENDBRANCH   6   7
BRANCH   1  18
HETATM   18  C6  UNL     1      -1.687  -0.259  -1.052  1.00  0.00    -0.012 C 
BRANCH  18  19
HETATM   19  C5  UNL     1      -1.583  -1.473  -0.220  1.00  0.00     0.057 C 
BRANCH  19  20
HETATM   20  C4  UNL     1      -2.856  -1.839   0.444  1.00  0.00     0.009 C 
HETATM   21  C2  UNL     1      -4.087  -1.368   0.508  1.00  0.00     0.038 C 
HETATM   22  C3  UNL     1      -4.554  -0.155  -0.193  1.00  0.00     0.076 C 
BRANCH  21  23
HETATM   23  O1  UNL     1      -5.035  -2.035   1.280  1.00  0.00    -0.361 OA
HETATM   24  C1  UNL     1      -6.408  -1.856   1.142  1.00  0.00     0.209 C 
ENDBRANCH  21  23
ENDBRANCH  19  20
ENDBRANCH  18  19
ENDBRANCH   1  18
TORSDOF 7
