REMARK  7 active torsions:
REMARK  status: ('A' for Active; 'I' for Inactive)
REMARK    1  A    between atoms: O1_2  and  C2_3 
REMARK    2  A    between atoms: C4_5  and  S1_6 
REMARK    3  A    between atoms: C5_7  and  N1_8 
REMARK    4  A    between atoms: N1_8  and  C6_9 
REMARK    5  A    between atoms: C11_15  and  O2_16 
REMARK    6  A    between atoms: C13_18  and  O3_19 
REMARK    7  A    between atoms: C18_24  and  O4_25 
ROOT
HETATM    1  C6  UNL     1       0.655   0.489   0.527  1.00  0.00     0.046 A 
HETATM    2  C7  UNL     1       0.357   1.447   1.469  1.00  0.00     0.049 A 
HETATM    3  C8  UNL     1       1.362   2.117   2.149  1.00  0.00     0.119 A 
HETATM    4  N2  UNL     1       2.643   1.808   1.866  1.00  0.00    -0.260 NA
HETATM    5  C9  UNL     1       2.930   0.860   0.934  1.00  0.00     0.071 A 
HETATM    6  C10 UNL     1       4.274   0.620   0.721  1.00  0.00     0.072 A 
HETATM    7  C11 UNL     1       4.641  -0.324  -0.205  1.00  0.00     0.103 A 
HETATM    8  C13 UNL     1       3.687  -1.038  -0.929  1.00  0.00     0.102 A 
HETATM    9  C15 UNL     1       2.356  -0.771  -0.688  1.00  0.00     0.055 A 
HETATM   10  C16 UNL     1       1.952   0.160   0.225  1.00  0.00     0.022 A 
ENDROOT
BRANCH   1  11
HETATM   11  N1  UNL     1      -0.377  -0.177  -0.160  1.00  0.00    -0.354 N 
HETATM   12  H6  UNL     1      -0.352  -0.916  -0.867  1.00  0.00     0.166 HD
BRANCH  11  13
HETATM   13  C5  UNL     1      -1.786  -0.021  -0.079  1.00  0.00     0.052 A 
HETATM   14  C4  UNL     1      -2.245   1.248  -0.452  1.00  0.00     0.027 A 
HETATM   15  C3  UNL     1      -3.595   1.531  -0.427  1.00  0.00     0.060 A 
HETATM   16  C2  UNL     1      -4.529   0.612  -0.049  1.00  0.00     0.102 A 
HETATM   17  C18 UNL     1      -4.085  -0.651   0.323  1.00  0.00     0.103 A 
HETATM   18  C17 UNL     1      -2.738  -0.942   0.302  1.00  0.00     0.070 A 
BRANCH  14  19
HETATM   19  S1  UNL     1      -1.247   2.648  -1.008  1.00  0.00    -0.141 SA
HETATM   20  H5  UNL     1      -1.095   3.614  -0.020  1.00  0.00     0.107 HD
ENDBRANCH  14  19
BRANCH  16  21
HETATM   21  O1  UNL     1      -5.905   0.789   0.012  1.00  0.00    -0.353 OA
HETATM   22  C1  UNL     1      -6.421   2.055  -0.354  1.00  0.00     0.210 C 
ENDBRANCH  16  21
BRANCH  17  23
HETATM   23  O4  UNL     1      -4.966  -1.648   0.723  1.00  0.00    -0.353 OA
HETATM   24  C19 UNL     1      -4.440  -2.899   1.083  1.00  0.00     0.210 C 
ENDBRANCH  17  23
ENDBRANCH  11  13
ENDBRANCH   1  11
BRANCH   8  25
HETATM   25  O3  UNL     1       4.103  -1.974  -1.846  1.00  0.00    -0.353 OA
HETATM   26  C14 UNL     1       3.184  -2.712  -2.592  1.00  0.00     0.210 C 
ENDBRANCH   8  25
BRANCH   7  27
HETATM   27  O2  UNL     1       5.975  -0.597  -0.451  1.00  0.00    -0.353 OA
HETATM   28  C12 UNL     1       6.997   0.093   0.249  1.00  0.00     0.210 C 
ENDBRANCH   7  27
TORSDOF 7
