REMARK  8 active torsions:
REMARK  status: ('A' for Active; 'I' for Inactive)
REMARK    1  A    between atoms: C2_2  and  O1_3 
REMARK    2  A    between atoms: O1_3  and  C3_4 
REMARK    3  A    between atoms: C6_7  and  N1_8 
REMARK    4  A    between atoms: N1_8  and  C7_9 
REMARK    5  A    between atoms: C8_10  and  C9_11 
REMARK    6  A    between atoms: C10_12  and  O2_13 
REMARK    7  A    between atoms: C10_12  and  C11_14 
REMARK    8  A    between atoms: C16_21  and  O3_22 
ROOT
HETATM    1  C3  UNL     1      -2.886   0.143   0.667  1.00  0.00     0.103 A 
HETATM    2  C4  UNL     1      -1.522   0.103   0.504  1.00  0.00     0.055 A 
HETATM    3  C5  UNL     1      -0.888  -0.984  -0.028  1.00  0.00     0.022 A 
HETATM    4  C6  UNL     1       0.475  -1.040  -0.182  1.00  0.00     0.042 A 
HETATM    5  C12 UNL     1       1.180  -2.127  -0.713  1.00  0.00     0.049 A 
HETATM    6  C13 UNL     1       0.373  -3.180  -1.081  1.00  0.00     0.119 A 
HETATM    7  N2  UNL     1      -0.958  -3.136  -0.931  1.00  0.00    -0.260 NA
HETATM    8  C14 UNL     1      -1.615  -2.083  -0.422  1.00  0.00     0.071 A 
HETATM    9  C15 UNL     1      -2.980  -2.112  -0.286  1.00  0.00     0.072 A 
HETATM   10  C16 UNL     1      -3.565  -1.008   0.249  1.00  0.00     0.103 A 
ENDROOT
BRANCH   4  11
HETATM   11  N1  UNL     1       1.164   0.149   0.282  1.00  0.00    -0.388 N 
HETATM   12  H7  UNL     1       0.833   0.393   1.297  1.00  0.00     0.159 HD
BRANCH  11  13
HETATM   13  C7  UNL     1       2.136   1.093  -0.247  1.00  0.00     0.071 C 
HETATM   14  C8  UNL     1       3.470   1.379  -0.555  1.00  0.00     0.095 C 
BRANCH  14  15
HETATM   15  C9  UNL     1       4.564   0.395  -0.305  1.00  0.00     0.015 C 
HETATM   16  C10 UNL     1       5.859   0.501  -0.539  1.00  0.00     0.068 C 
BRANCH  16  17
HETATM   17  O2  UNL     1       6.465  -0.679  -0.152  1.00  0.00    -0.363 OA
HETATM   18  H11 UNL     1       6.247  -1.161   0.740  1.00  0.00     0.217 HD
ENDBRANCH  16  17
BRANCH  16  19
HETATM   19  C11 UNL     1       6.512   1.678  -1.118  1.00  0.00     0.286 C 
HETATM   20  F1  UNL     1       7.454   2.154  -0.215  1.00  0.00    -0.248 F 
ENDBRANCH  16  19
ENDBRANCH  14  15
ENDBRANCH  11  13
ENDBRANCH   4  11
BRANCH   1  21
HETATM   21  O1  UNL     1      -3.664   1.141   1.177  1.00  0.00    -0.349 OA
BRANCH  21  22
HETATM   22  C2  UNL     1      -3.343   2.390   1.640  1.00  0.00     0.171 C 
HETATM   23  C1  UNL     1      -2.717   3.325   0.610  1.00  0.00     0.034 C 
ENDBRANCH  21  22
ENDBRANCH   1  21
BRANCH  10  24
HETATM   24  O3  UNL     1      -4.955  -1.057   0.373  1.00  0.00    -0.353 OA
HETATM   25  C17 UNL     1      -5.727  -2.150  -0.013  1.00  0.00     0.210 C 
ENDBRANCH  10  24
TORSDOF 8
