REMARK  5 active torsions:
REMARK  status: ('A' for Active; 'I' for Inactive)
REMARK    1  A    between atoms: C2_2  and  O1_3 
REMARK    2  A    between atoms: O1_3  and  C3_4 
REMARK    3  A    between atoms: N1_6  and  C5_7 
REMARK    4  A    between atoms: C10_14  and  O2_15 
REMARK    5  A    between atoms: C14_20  and  O4_21 
ROOT
HETATM    1  C5  UNL     1       1.257  -0.194   0.284  1.00  0.00     0.126 C 
HETATM    2  C6  UNL     1       1.554   0.203   1.578  1.00  0.00     0.202 C 
HETATM    3  C7  UNL     1       2.902   0.800   1.939  1.00  0.00     0.121 C 
HETATM    4  N2  UNL     1       4.145   1.307   2.084  1.00  0.00    -0.195 NA
HETATM    5  N3  UNL     1       4.866   1.288   0.815  1.00  0.00    -0.307 N 
HETATM    6  C8  UNL     1       4.082   1.273  -0.354  1.00  0.00     0.135 C 
HETATM    7  C9  UNL     1       3.333   0.957  -1.339  1.00  0.00     0.078 C 
HETATM    8  C10 UNL     1       2.700  -0.347  -1.702  1.00  0.00     0.268 C 
HETATM    9  O3  UNL     1       1.402  -0.449  -1.142  1.00  0.00    -0.335 OA
HETATM   10  H9  UNL     1       5.337   1.300   1.714  1.00  0.00     0.182 HD
ENDROOT
BRANCH   1  11
HETATM   11  N1  UNL     1      -0.064  -0.641   0.565  1.00  0.00    -0.336 N 
HETATM   12  C4  UNL     1      -1.052   0.317   0.100  1.00  0.00     0.128 A 
HETATM   13  C3  UNL     1      -2.363   0.085   0.266  1.00  0.00     0.094 A 
HETATM   14  C14 UNL     1      -2.912  -1.110   0.908  1.00  0.00     0.203 A 
HETATM   15  C13 UNL     1      -1.816  -2.003   1.337  1.00  0.00     0.029 A 
HETATM   16  C12 UNL     1      -0.517  -1.816   1.194  1.00  0.00     0.092 A 
BRANCH  13  17
HETATM   17  O1  UNL     1      -3.275   1.041  -0.203  1.00  0.00    -0.351 OA
BRANCH  17  18
HETATM   18  C2  UNL     1      -2.849   2.111  -1.023  1.00  0.00     0.171 C 
HETATM   19  C1  UNL     1      -3.947   2.985  -1.528  1.00  0.00     0.034 C 
ENDBRANCH  17  18
ENDBRANCH  13  17
BRANCH  14  20
HETATM   20  O4  UNL     1      -3.777  -0.836   1.967  1.00  0.00    -0.380 OA
HETATM   21  C15 UNL     1      -5.038  -1.422   1.704  1.00  0.00     0.202 C 
ENDBRANCH  14  20
ENDBRANCH   1  11
BRANCH   8  22
HETATM   22  O2  UNL     1       3.466  -1.331  -1.096  1.00  0.00    -0.366 OA
HETATM   23  C11 UNL     1       3.950  -2.288  -1.959  1.00  0.00     0.204 C 
ENDBRANCH   8  22
TORSDOF 5
