REMARK  5 active torsions:
REMARK  status: ('A' for Active; 'I' for Inactive)
REMARK    1  A    between atoms: C2_2  and  O1_3 
REMARK    2  A    between atoms: O1_3  and  C3_4 
REMARK    3  A    between atoms: C4_5  and  O2_6 
REMARK    4  A    between atoms: N1_11  and  C9_12 
REMARK    5  A    between atoms: C14_19  and  O4_20 
ROOT
HETATM    1  C9  UNL     1       0.221  -1.575  -0.329  1.00  0.00     0.161 A 
HETATM    2  C10 UNL     1       0.331  -2.762  -1.216  1.00  0.00     0.119 A 
HETATM    3  N2  UNL     1      -0.622  -3.474  -1.751  1.00  0.00    -0.274 NA
HETATM    4  C11 UNL     1      -2.000  -3.136  -1.502  1.00  0.00     0.125 A 
HETATM    5  C12 UNL     1      -2.329  -2.109  -0.735  1.00  0.00    -0.008 A 
HETATM    6  C13 UNL     1      -3.743  -1.760  -0.478  1.00  0.00     0.212 C 
HETATM    7  O3  UNL     1      -3.763  -0.369  -0.313  1.00  0.00    -0.353 OA
HETATM    8  C14 UNL     1      -3.045  -0.014   0.830  1.00  0.00     0.284 C 
HETATM    9  C16 UNL     1      -1.611  -0.315   0.608  1.00  0.00     0.043 C 
HETATM   10  C17 UNL     1      -1.231  -1.338  -0.156  1.00  0.00    -0.019 A 
ENDROOT
BRANCH   1  11
HETATM   11  N1  UNL     1       0.922  -0.431  -0.854  1.00  0.00    -0.345 N 
HETATM   12  C3  UNL     1       2.011   0.376  -0.361  1.00  0.00     0.281 A 
HETATM   13  C4  UNL     1       2.283   1.432  -1.381  1.00  0.00     0.094 A 
HETATM   14  C6  UNL     1       1.773   1.755  -2.552  1.00  0.00     0.038 A 
HETATM   15  C7  UNL     1       0.683   0.869  -2.945  1.00  0.00     0.020 A 
HETATM   16  C8  UNL     1       0.316  -0.134  -2.131  1.00  0.00     0.090 A 
BRANCH  12  17
HETATM   17  O1  UNL     1       1.741   0.918   0.868  1.00  0.00    -0.361 OA
BRANCH  17  18
HETATM   18  C2  UNL     1       2.643   0.605   1.840  1.00  0.00     0.166 C 
HETATM   19  C1  UNL     1       2.825  -0.837   2.158  1.00  0.00     0.033 C 
ENDBRANCH  17  18
ENDBRANCH  12  17
BRANCH  13  20
HETATM   20  O2  UNL     1       3.338   2.175  -0.847  1.00  0.00    -0.356 OA
HETATM   21  C5  UNL     1       3.140   3.487  -0.340  1.00  0.00     0.209 C 
ENDBRANCH  13  20
ENDBRANCH   1  11
BRANCH   8  22
HETATM   22  O4  UNL     1      -3.272   1.290   1.191  1.00  0.00    -0.363 OA
HETATM   23  C15 UNL     1      -3.865   1.439   2.449  1.00  0.00     0.205 C 
ENDBRANCH   8  22
TORSDOF 5
