REMARK  5 active torsions:
REMARK  status: ('A' for Active; 'I' for Inactive)
REMARK    1  A    between atoms: B1_1  and  C1_2 
REMARK    2  A    between atoms: C11_14  and  N2_15 
REMARK    3  A    between atoms: N2_15  and  C12_16 
REMARK    4  A    between atoms: C15_19  and  O2_20 
REMARK    5  A    between atoms: C17_22  and  O3_23 
ROOT
HETATM    1  C1  UNL     1       1.627  -1.840   2.037  1.00  0.00    -0.065 A 
HETATM    2  C2  UNL     1       1.919  -3.191   1.786  1.00  0.00     0.113 A 
HETATM    3  N1  UNL     1       1.091  -3.910   1.000  1.00  0.00    -0.261 NA
HETATM    4  C3  UNL     1      -0.013  -3.324   0.459  1.00  0.00     0.069 A 
HETATM    5  C4  UNL     1      -0.761  -4.189  -0.321  1.00  0.00     0.042 A 
HETATM    6  C5  UNL     1      -1.876  -3.593  -0.862  1.00  0.00    -0.026 A 
HETATM    7  C6  UNL     1      -2.799  -4.379  -1.720  1.00  0.00     0.051 C 
HETATM    8  C7  UNL     1      -2.307  -2.278  -0.714  1.00  0.00     0.075 A 
HETATM    9  O1  UNL     1      -3.324  -1.733  -1.204  1.00  0.00    -0.355 OA
HETATM   10  C8  UNL     1      -4.317  -1.012  -1.619  1.00  0.00     0.210 C 
HETATM   11  C9  UNL     1      -1.470  -1.482   0.100  1.00  0.00     0.053 A 
HETATM   12  C10 UNL     1      -0.334  -2.006   0.680  1.00  0.00     0.022 A 
HETATM   13  C11 UNL     1       0.515  -1.266   1.488  1.00  0.00     0.041 A 
ENDROOT
BRANCH  13  14
HETATM   14  N2  UNL     1       0.201   0.085   1.717  1.00  0.00    -0.356 N 
HETATM   15  H12 UNL     1      -0.407   0.371   2.539  1.00  0.00     0.166 HD
BRANCH  14  16
HETATM   16  C12 UNL     1       0.710   1.088   0.812  1.00  0.00     0.035 A 
HETATM   17  C13 UNL     1       1.339   0.687  -0.340  1.00  0.00     0.032 A 
HETATM   18  C14 UNL     1       1.839   1.641  -1.192  1.00  0.00     0.042 A 
HETATM   19  C15 UNL     1       1.690   2.982  -0.858  1.00  0.00     0.101 A 
HETATM   20  C17 UNL     1       1.051   3.393   0.308  1.00  0.00     0.103 A 
HETATM   21  C19 UNL     1       0.542   2.399   1.176  1.00  0.00     0.069 A 
BRANCH  19  22
HETATM   22  O2  UNL     1       2.125   4.016  -1.588  1.00  0.00    -0.353 OA
HETATM   23  C16 UNL     1       2.783   3.902  -2.818  1.00  0.00     0.210 C 
ENDBRANCH  19  22
BRANCH  20  24
HETATM   24  O3  UNL     1       0.933   4.735   0.580  1.00  0.00    -0.353 OA
HETATM   25  C18 UNL     1       0.302   5.206   1.732  1.00  0.00     0.210 C 
ENDBRANCH  20  24
ENDBRANCH  14  16
ENDBRANCH  13  14
BRANCH   1  26
HETATM   26  B1  UNL     1       2.577  -1.026   2.939  1.00  0.00     0.179 B 
HETATM   27  H1  UNL     1       3.358  -1.571   3.645  1.00  0.00    -0.026 HD
HETATM   28  H2  UNL     1       2.481   0.146   3.080  1.00  0.00    -0.026 HD
ENDBRANCH   1  26
TORSDOF 5
