REMARK  6 active torsions:
REMARK  status: ('A' for Active; 'I' for Inactive)
REMARK    1  A    between atoms: O1_2  and  C2_3 
REMARK    2  A    between atoms: C9_11  and  N2_12 
REMARK    3  A    between atoms: N2_12  and  C10_13 
REMARK    4  A    between atoms: C12_15  and  O2_16 
REMARK    5  A    between atoms: C14_18  and  O3_19 
REMARK    6  A    between atoms: C17_22  and  O4_23 
ROOT
HETATM    1  N2  UNL     1       0.142   0.573  -0.151  1.00  0.00    -0.379 N 
HETATM    2  H9  UNL     1       0.561   1.531  -0.348  1.00  0.00     0.160 HD
ENDROOT
BRANCH   1   3
HETATM    3  C9  UNL     1       1.063  -0.523  -0.258  1.00  0.00     0.123 C 
HETATM    4  C4  UNL     1       2.466  -0.150  -0.659  1.00  0.00     0.004 C 
HETATM    5  C3  UNL     1       3.186   0.670  -1.353  1.00  0.00     0.021 C 
HETATM    6  C5  UNL     1       2.899  -1.268   0.175  1.00  0.00     0.045 C 
HETATM    7  C2  UNL     1       4.296   0.320  -1.934  1.00  0.00     0.081 C 
HETATM    8  C7  UNL     1       4.988  -0.986  -1.993  1.00  0.00     0.057 C 
HETATM    9  C6  UNL     1       4.778  -1.999  -1.134  1.00  0.00     0.119 C 
HETATM   10  N1  UNL     1       3.891  -2.074  -0.013  1.00  0.00    -0.265 NA
HETATM   11  C8  UNL     1       1.743  -0.889   1.065  1.00  0.00     0.090 C 
BRANCH   7  12
HETATM   12  O1  UNL     1       4.918   1.389  -2.611  1.00  0.00    -0.355 OA
HETATM   13  C1  UNL     1       6.324   1.568  -2.404  1.00  0.00     0.210 C 
ENDBRANCH   7  12
ENDBRANCH   1   3
BRANCH   1  14
HETATM   14  C10 UNL     1      -1.237   0.514   0.183  1.00  0.00     0.065 A 
HETATM   15  C11 UNL     1      -1.999   1.686   0.253  1.00  0.00     0.071 A 
HETATM   16  C12 UNL     1      -3.336   1.632   0.574  1.00  0.00     0.103 A 
HETATM   17  C14 UNL     1      -3.934   0.419   0.830  1.00  0.00     0.104 A 
HETATM   18  C16 UNL     1      -3.147  -0.708   0.750  1.00  0.00     0.078 A 
HETATM   19  C17 UNL     1      -1.806  -0.739   0.436  1.00  0.00     0.097 A 
BRANCH  16  20
HETATM   20  O2  UNL     1      -4.099   2.763   0.647  1.00  0.00    -0.353 OA
HETATM   21  C13 UNL     1      -3.575   4.059   0.401  1.00  0.00     0.210 C 
ENDBRANCH  16  20
BRANCH  17  22
HETATM   22  O3  UNL     1      -5.268   0.366   1.150  1.00  0.00    -0.353 OA
HETATM   23  C15 UNL     1      -5.902  -0.879   1.417  1.00  0.00     0.210 C 
ENDBRANCH  17  22
BRANCH  19  24
HETATM   24  O4  UNL     1      -1.112  -1.918   0.382  1.00  0.00    -0.354 OA
HETATM   25  C18 UNL     1      -1.786  -3.128   0.656  1.00  0.00     0.210 C 
ENDBRANCH  19  24
ENDBRANCH   1  14
TORSDOF 6
