REMARK  7 active torsions:
REMARK  status: ('A' for Active; 'I' for Inactive)
REMARK    1  A    between atoms: N1_2  and  C2_3 
REMARK    2  A    between atoms: N1_2  and  C10_13 
REMARK    3  A    between atoms: C4_5  and  C5_6 
REMARK    4  A    between atoms: C5_6  and  N2_7 
REMARK    5  A    between atoms: N2_7  and  C6_8 
REMARK    6  A    between atoms: C6_8  and  C7_9 
REMARK    7  A    between atoms: C16_22  and  C17_23 
ROOT
HETATM    1  C7  UNL     1       6.814   0.581   1.412  1.00  0.00     0.153 C 
HETATM    2  C8  UNL     1       6.871   1.935   2.013  1.00  0.00     0.060 C 
HETATM    3  N3  UNL     1       6.898   2.987   2.488  1.00  0.00    -0.197 NA
ENDROOT
BRANCH   1   4
HETATM    4  C6  UNL     1       5.858   0.653   0.226  1.00  0.00     0.283 C 
BRANCH   4   5
HETATM    5  N2  UNL     1       5.728  -0.608  -0.433  1.00  0.00     0.084 N 
HETATM    6  H10 UNL     1       5.527  -1.407   0.172  1.00  0.00     0.315 HD
BRANCH   5   7
HETATM    7  C5  UNL     1       4.836  -0.565  -1.545  1.00  0.00     0.274 C 
BRANCH   7   8
HETATM    8  C4  UNL     1       3.400  -0.352  -1.193  1.00  0.00     0.017 C 
HETATM    9  C3  UNL     1       2.511  -0.318  -2.414  1.00  0.00     0.031 C 
HETATM   10  C2  UNL     1       1.490  -1.053  -1.611  1.00  0.00     0.081 C 
HETATM   11  C9  UNL     1       2.622  -1.570  -0.743  1.00  0.00     0.031 C 
BRANCH  10  12
HETATM   12  N1  UNL     1       0.442  -0.373  -1.006  1.00  0.00    -0.387 N 
HETATM   13  C1  UNL     1       0.631   0.638  -0.066  1.00  0.00     0.146 C 
BRANCH  12  14
HETATM   14  C10 UNL     1      -0.838  -0.516  -1.590  1.00  0.00     0.241 A 
HETATM   15  N4  UNL     1      -1.269   0.653  -2.329  1.00  0.00    -0.252 NA
HETATM   16  C11 UNL     1      -2.388   1.192  -1.987  1.00  0.00     0.230 A 
HETATM   17  N5  UNL     1      -3.360   0.864  -0.969  1.00  0.00    -0.243 NA
HETATM   18  C12 UNL     1      -3.138  -0.170  -0.194  1.00  0.00     0.079 A 
HETATM   19  C13 UNL     1      -1.875  -0.806  -0.552  1.00  0.00     0.026 A 
HETATM   20  C16 UNL     1      -3.857  -0.812   0.921  1.00  0.00     0.209 C 
HETATM   21  C14 UNL     1      -1.505  -1.855   0.136  1.00  0.00     0.011 C 
HETATM   22  C15 UNL     1      -1.644  -1.793   1.430  1.00  0.00     0.148 C 
HETATM   23  O1  UNL     1      -2.888  -1.327   1.829  1.00  0.00    -0.348 OA
BRANCH  20  24
HETATM   24  C17 UNL     1      -4.718   0.244   1.597  1.00  0.00     0.157 C 
HETATM   25  C18 UNL     1      -5.714   0.701   0.555  1.00  0.00     0.037 C 
HETATM   26  C19 UNL     1      -7.017   0.644   1.310  1.00  0.00     0.029 C 
HETATM   27  C20 UNL     1      -6.727  -0.402   2.365  1.00  0.00     0.168 C 
HETATM   28  O2  UNL     1      -5.403  -0.231   2.684  1.00  0.00    -0.383 OA
ENDBRANCH  20  24
ENDBRANCH  12  14
ENDBRANCH  10  12
ENDBRANCH   7   8
ENDBRANCH   5   7
ENDBRANCH   4   5
ENDBRANCH   1   4
TORSDOF 7
