REMARK  9 active torsions:
REMARK  status: ('A' for Active; 'I' for Inactive)
REMARK    1  A    between atoms: O1_2  and  C2_3 
REMARK    2  A    between atoms: N1_4  and  C3_5 
REMARK    3  A    between atoms: C7_11  and  C8_12 
REMARK    4  A    between atoms: C8_12  and  O2_13 
REMARK    5  A    between atoms: O2_13  and  C9_14 
REMARK    6  A    between atoms: N3_15  and  C10_16 
REMARK    7  A    between atoms: N4_17  and  C11_18 
REMARK    8  A    between atoms: C11_18  and  N5_19 
REMARK    9  A    between atoms: N5_19  and  C12_20 
ROOT
HETATM    1  O2  UNL     1      -1.040  -0.778  -2.337  1.00  0.00    -0.344 OA
ENDROOT
BRANCH   1   2
HETATM    2  C8  UNL     1      -1.537  -0.426  -1.058  1.00  0.00     0.192 C 
BRANCH   2   3
HETATM    3  C7  UNL     1      -3.063  -0.424  -1.256  1.00  0.00     0.103 C 
HETATM    4  C3  UNL     1      -3.747  -0.068   0.012  1.00  0.00     0.062 C 
HETATM    5  C4  UNL     1      -4.030  -0.996   0.913  1.00  0.00     0.034 C 
HETATM    6 BR1  UNL     1      -4.909  -0.490   2.528  1.00  0.00    -0.052 Br
HETATM    7  C5  UNL     1      -3.683  -2.443   0.712  1.00  0.00     0.196 C 
HETATM    8  N2  UNL     1      -3.698  -2.686  -0.702  1.00  0.00    -0.300 NA
HETATM    9  C6  UNL     1      -3.433  -1.827  -1.588  1.00  0.00     0.096 C 
BRANCH   4  10
HETATM   10  N1  UNL     1      -4.204   1.210   0.498  1.00  0.00    -0.240 NA
HETATM   11  C2  UNL     1      -5.479   1.483   0.469  1.00  0.00     0.250 C 
BRANCH  11  12
HETATM   12  O1  UNL     1      -6.059   2.664   0.900  1.00  0.00    -0.349 OA
HETATM   13  C1  UNL     1      -5.181   3.597   1.502  1.00  0.00     0.211 C 
ENDBRANCH  11  12
ENDBRANCH   4  10
ENDBRANCH   2   3
ENDBRANCH   1   2
BRANCH   1  14
HETATM   14  C9  UNL     1       0.342  -0.869  -2.403  1.00  0.00     0.252 C 
HETATM   15  N3  UNL     1       1.292  -0.644  -1.584  1.00  0.00    -0.231 NA
BRANCH  15  16
HETATM   16  C10 UNL     1       1.005  -0.198  -0.279  1.00  0.00     0.230 C 
HETATM   17  N4  UNL     1       2.060  -0.672   0.315  1.00  0.00    -0.263 NA
BRANCH  17  18
HETATM   18  C11 UNL     1       3.004  -1.392  -0.522  1.00  0.00     0.272 C 
BRANCH  18  19
HETATM   19  N5  UNL     1       4.201  -1.593   0.271  1.00  0.00    -0.372 N 
HETATM   20  H15 UNL     1       4.565  -2.544   0.497  1.00  0.00     0.161 HD
BRANCH  19  21
HETATM   21  C12 UNL     1       4.921  -0.475   0.770  1.00  0.00     0.029 A 
HETATM   22  C13 UNL     1       4.540   0.829   0.536  1.00  0.00     0.029 A 
HETATM   23  C14 UNL     1       5.248   1.913   1.026  1.00  0.00     0.002 A 
HETATM   24  C15 UNL     1       6.383   1.719   1.782  1.00  0.00     0.000 A 
HETATM   25  C16 UNL     1       6.804   0.419   2.043  1.00  0.00     0.002 A 
HETATM   26  C17 UNL     1       6.051  -0.609   1.523  1.00  0.00     0.029 A 
ENDBRANCH  19  21
ENDBRANCH  18  19
ENDBRANCH  17  18
ENDBRANCH  15  16
ENDBRANCH   1  14
TORSDOF 9
