REMARK  5 active torsions:
REMARK  status: ('A' for Active; 'I' for Inactive)
REMARK    1  A    between atoms: N1_5  and  C5_6 
REMARK    2  A    between atoms: C5_6  and  C6_7 
REMARK    3  A    between atoms: C8_9  and  C9_10 
REMARK    4  A    between atoms: C9_10  and  N2_11 
REMARK    5  A    between atoms: N2_11  and  C10_12 
ROOT
HETATM    1  C1  UNL     1      -3.773   2.803  -0.332  1.00  0.00     0.004 C 
HETATM    2  C2  UNL     1      -2.851   1.843  -0.170  1.00  0.00     0.012 C 
HETATM    3  C3  UNL     1      -3.085   0.400  -0.191  1.00  0.00     0.005 C 
HETATM    4  C4  UNL     1      -1.877  -0.008   0.213  1.00  0.00     0.100 C 
HETATM    5  N1  UNL     1      -1.239  -1.249   0.466  1.00  0.00    -0.371 N 
HETATM    6  C13 UNL     1      -1.406  -2.574  -0.027  1.00  0.00     0.273 C 
HETATM    7  N3  UNL     1      -2.763  -3.080   0.033  1.00  0.00    -0.263 NA
HETATM    8  C14 UNL     1      -3.978  -2.716  -0.152  1.00  0.00     0.229 C 
HETATM    9  N4  UNL     1      -4.659  -1.547  -0.538  1.00  0.00    -0.244 NA
HETATM   10  C15 UNL     1      -4.315  -0.293  -0.559  1.00  0.00     0.075 C 
HETATM   11  C16 UNL     1      -5.615   0.193  -1.091  1.00  0.00     0.329 C 
HETATM   12  N5  UNL     1      -5.409   1.535  -1.603  1.00  0.00     0.092 N 
HETATM   13  C17 UNL     1      -5.231   2.504  -0.564  1.00  0.00     0.297 C 
HETATM   14  H22 UNL     1      -4.608   1.577  -2.265  1.00  0.00     0.316 HD
ENDROOT
BRANCH   5  15
HETATM   15  C5  UNL     1      -0.195  -1.155   1.428  1.00  0.00     0.129 C 
BRANCH  15  16
HETATM   16  C6  UNL     1       1.198  -1.361   0.946  1.00  0.00     0.010 A 
HETATM   17  C7  UNL     1       2.228  -1.233   2.080  1.00  0.00     0.013 A 
HETATM   18  C8  UNL     1       2.188  -0.175   0.990  1.00  0.00     0.009 A 
BRANCH  18  19
HETATM   19  C9  UNL     1       3.364  -0.169   0.076  1.00  0.00     0.124 C 
BRANCH  19  20
HETATM   20  N2  UNL     1       4.201   1.003   0.230  1.00  0.00    -0.392 N 
HETATM   21  H12 UNL     1       4.080   1.814   0.883  1.00  0.00     0.159 HD
BRANCH  20  22
HETATM   22  C10 UNL     1       5.366   1.092  -0.618  1.00  0.00     0.014 A 
HETATM   23  P1  UNL     1       5.906   1.583  -2.084  1.00  0.00    -0.035 P 
HETATM   24  C11 UNL     1       7.526   0.973  -1.513  1.00  0.00     0.051 A 
HETATM   25  C12 UNL     1       6.725   0.644  -0.291  1.00  0.00     0.063 A 
ENDBRANCH  20  22
ENDBRANCH  19  20
ENDBRANCH  18  19
ENDBRANCH  15  16
ENDBRANCH   5  15
TORSDOF 5
