REMARK  8 active torsions:
REMARK  status: ('A' for Active; 'I' for Inactive)
REMARK    1  A    between atoms: N1_1  and  C1_2 
REMARK    2  A    between atoms: C5_8  and  C6_9 
REMARK    3  A    between atoms: C10_13  and  O1_14 
REMARK    4  A    between atoms: O1_14  and  C11_15 
REMARK    5  A    between atoms: C11_15  and  C12_16 
REMARK    6  A    between atoms: N4_23  and  C18_24 
REMARK    7  A    between atoms: C18_24  and  C19_25 
REMARK    8  A    between atoms: C19_25  and  C20_26 
ROOT
HETATM    1  C1  UNL     1      -0.590  -1.828  -2.479  1.00  0.00     0.117 A 
HETATM    2  N2  UNL     1      -0.073  -3.063  -2.746  1.00  0.00    -0.229 NA
HETATM    3  C2  UNL     1       1.007  -3.461  -2.012  1.00  0.00     0.237 A 
HETATM    4  N3  UNL     1       1.604  -2.741  -1.049  1.00  0.00    -0.223 NA
HETATM    5  C3  UNL     1       1.122  -1.519  -0.757  1.00  0.00     0.145 A 
HETATM    6  C4  UNL     1       0.032  -1.102  -1.489  1.00  0.00     0.062 A 
HETATM    7  C5  UNL     1      -0.364   0.160  -1.101  1.00  0.00     0.007 A 
HETATM    8  C17 UNL     1       0.537   0.512  -0.090  1.00  0.00     0.106 A 
HETATM    9  N4  UNL     1       1.426  -0.506   0.108  1.00  0.00    -0.340 N 
ENDROOT
BRANCH   7  10
HETATM   10  C6  UNL     1      -1.404   1.120  -1.428  1.00  0.00    -0.021 A 
HETATM   11  C7  UNL     1      -1.087   2.422  -1.748  1.00  0.00     0.012 A 
HETATM   12  C8  UNL     1      -2.056   3.358  -2.045  1.00  0.00     0.004 A 
HETATM   13  C9  UNL     1      -3.396   2.947  -2.013  1.00  0.00     0.037 A 
HETATM   14  C10 UNL     1      -3.760   1.624  -1.690  1.00  0.00     0.069 A 
HETATM   15  C16 UNL     1      -2.720   0.780  -1.414  1.00  0.00     0.049 A 
BRANCH  14  16
HETATM   16  O1  UNL     1      -5.100   1.591  -1.758  1.00  0.00    -0.349 OA
BRANCH  16  17
HETATM   17  C11 UNL     1      -6.117   0.719  -1.573  1.00  0.00     0.207 C 
BRANCH  17  18
HETATM   18  C12 UNL     1      -6.245   0.209  -0.183  1.00  0.00     0.145 C 
HETATM   19  C13 UNL     1      -7.482  -0.658  -0.053  1.00  0.00     0.036 C 
HETATM   20  C14 UNL     1      -7.120  -1.435   1.211  1.00  0.00     0.029 C 
HETATM   21  C15 UNL     1      -5.628  -1.558   1.047  1.00  0.00     0.168 C 
HETATM   22  O2  UNL     1      -5.195  -0.471   0.319  1.00  0.00    -0.384 OA
ENDBRANCH  17  18
ENDBRANCH  16  17
ENDBRANCH  14  16
ENDBRANCH   7  10
BRANCH   1  23
HETATM   23  N1  UNL     1      -1.697  -1.390  -3.233  1.00  0.00    -0.286 NA
HETATM   24  H1  UNL     1      -1.339  -0.520  -3.676  1.00  0.00     0.125 HD
HETATM   25  H2  UNL     1      -1.734  -0.525  -3.836  1.00  0.00     0.125 HD
ENDBRANCH   1  23
BRANCH   9  26
HETATM   26  C18 UNL     1       2.526  -0.583   1.050  1.00  0.00     0.130 C 
BRANCH  26  27
HETATM   27  C19 UNL     1       3.783  -0.046   0.404  1.00  0.00     0.027 C 
BRANCH  27  28
HETATM   28  C20 UNL     1       4.987  -0.080   1.285  1.00  0.00     0.017 C 
HETATM   29  C21 UNL     1       4.873   0.711   2.551  1.00  0.00     0.042 C 
HETATM   30  C22 UNL     1       6.064   1.640   2.577  1.00  0.00     0.225 C 
HETATM   31  C23 UNL     1       7.153   1.207   3.560  1.00  0.00     0.066 C 
HETATM   32  N5  UNL     1       6.939   1.242   1.502  1.00  0.00     0.093 N 
HETATM   33  C24 UNL     1       7.570   0.298   2.423  1.00  0.00     0.275 C 
HETATM   34  C25 UNL     1       6.120   0.581   0.507  1.00  0.00     0.277 C 
ENDBRANCH  27  28
ENDBRANCH  26  27
ENDBRANCH   9  26
TORSDOF 8
