REMARK  3 active torsions:
REMARK  status: ('A' for Active; 'I' for Inactive)
REMARK    1  A    between atoms: N1_1  and  C1_2 
REMARK    2  A    between atoms: C4_7  and  C5_8 
REMARK    3  A    between atoms: C5_8  and  C6_9 
ROOT
HETATM    1  C6  UNL     1       1.200  -0.610  -0.166  1.00  0.00    -0.052 C 
HETATM    2  C7  UNL     1       0.441  -1.703  -0.361  1.00  0.00     0.007 C 
HETATM    3  C8  UNL     1      -1.005  -1.904  -0.425  1.00  0.00    -0.003 C 
HETATM    4  C9  UNL     1      -2.269  -1.536  -0.380  1.00  0.00    -0.020 C 
HETATM    5  C10 UNL     1      -3.709  -1.211  -0.347  1.00  0.00     0.034 C 
HETATM    6  C11 UNL     1      -4.210  -0.985   1.032  1.00  0.00     0.176 C 
HETATM    7  O1  UNL     1      -4.111   0.332   1.294  1.00  0.00    -0.383 OA
HETATM    8  C12 UNL     1      -3.754   1.068   0.153  1.00  0.00     0.146 C 
HETATM    9  C13 UNL     1      -2.487   1.785   0.334  1.00  0.00     0.206 C 
HETATM   10  O2  UNL     1      -1.527   1.746  -0.712  1.00  0.00    -0.360 OA
HETATM   11  C14 UNL     1      -0.199   1.397  -0.402  1.00  0.00     0.135 C 
HETATM   12  C15 UNL     1       1.008   0.849  -0.134  1.00  0.00     0.031 C 
HETATM   13  C16 UNL     1      -3.895   0.133  -1.001  1.00  0.00     0.044 C 
ENDROOT
BRANCH   1  14
HETATM   14  C5  UNL     1       2.566  -1.145  -0.223  1.00  0.00     0.082 C 
BRANCH  14  15
HETATM   15  C4  UNL     1       3.596  -0.270   0.391  1.00  0.00     0.004 A 
HETATM   16  C1  UNL     1       4.215   0.585  -0.610  1.00  0.00     0.110 A 
HETATM   17  N2  UNL     1       5.125   1.431  -0.022  1.00  0.00    -0.230 NA
HETATM   18  C2  UNL     1       5.338   1.384   1.329  1.00  0.00     0.234 A 
HETATM   19  N3  UNL     1       4.720   0.558   2.168  1.00  0.00    -0.253 NA
HETATM   20  C3  UNL     1       3.804  -0.332   1.769  1.00  0.00     0.128 A 
BRANCH  16  21
HETATM   21  N1  UNL     1       3.860   0.433  -2.030  1.00  0.00    -0.287 NA
HETATM   22  H1  UNL     1       3.245   1.205  -1.757  1.00  0.00     0.125 HD
HETATM   23  H2  UNL     1       4.633  -0.325  -1.946  1.00  0.00     0.125 HD
ENDBRANCH  16  21
ENDBRANCH  14  15
ENDBRANCH   1  14
TORSDOF 3
