REMARK  5 active torsions:
REMARK  status: ('A' for Active; 'I' for Inactive)
REMARK    1  A    between atoms: C3_3  and  C4_4 
REMARK    2  A    between atoms: C10_12  and  C11_13 
REMARK    3  A    between atoms: N1_15  and  C13_16 
REMARK    4  A    between atoms: C13_16  and  C14_17 
REMARK    5  A    between atoms: C14_17  and  C15_18 
ROOT
HETATM    1  C11 UNL     1       0.011   0.769  -2.022  1.00  0.00    -0.004 A 
HETATM    2  C12 UNL     1      -0.497   0.816  -0.742  1.00  0.00     0.103 A 
HETATM    3  N1  UNL     1      -1.835   0.947  -0.805  1.00  0.00    -0.340 N 
HETATM    4  C20 UNL     1      -2.156   0.981  -2.133  1.00  0.00     0.143 A 
HETATM    5  N2  UNL     1      -3.331   1.096  -2.754  1.00  0.00    -0.223 NA
HETATM    6  C21 UNL     1      -3.377   1.101  -4.108  1.00  0.00     0.234 A 
HETATM    7  N3  UNL     1      -2.272   0.994  -4.898  1.00  0.00    -0.253 NA
HETATM    8  C22 UNL     1      -1.086   0.878  -4.291  1.00  0.00     0.134 A 
HETATM    9  C23 UNL     1      -1.024   0.872  -2.913  1.00  0.00     0.037 A 
ENDROOT
BRANCH   1  10
HETATM   10  C10 UNL     1       1.463   0.623  -2.380  1.00  0.00     0.128 C 
HETATM   11  C9  UNL     1       2.302   1.517  -1.578  1.00  0.00     0.045 A 
HETATM   12  C8  UNL     1       3.167   1.609  -0.547  1.00  0.00    -0.022 A 
HETATM   13  O2  UNL     1       2.789   0.303  -0.684  1.00  0.00     0.000 OA
HETATM   14  C3  UNL     1       3.760  -0.720  -0.646  1.00  0.00     0.028 C 
HETATM   15  C2  UNL     1       3.179  -1.970  -1.179  1.00  0.00     0.027 C 
HETATM   16  C1  UNL     1       2.221  -2.377  -1.959  1.00  0.00     0.127 A 
HETATM   17  C24 UNL     1       1.213  -1.689  -2.713  1.00  0.00     0.085 A 
HETATM   18  N4  UNL     1       1.866  -0.750  -2.143  1.00  0.00    -0.372 N 
BRANCH  14  19
HETATM   19  C4  UNL     1       4.162  -0.865   0.810  1.00  0.00     0.126 C 
HETATM   20  C5  UNL     1       4.906   0.360   1.280  1.00  0.00     0.034 C 
HETATM   21  C6  UNL     1       5.681  -0.195   2.479  1.00  0.00     0.029 C 
HETATM   22  C7  UNL     1       5.496  -1.690   2.304  1.00  0.00     0.168 C 
HETATM   23  O1  UNL     1       5.118  -1.868   0.974  1.00  0.00    -0.385 OA
ENDBRANCH  14  19
ENDBRANCH   1  10
BRANCH   3  24
HETATM   24  C13 UNL     1      -2.826   1.043   0.248  1.00  0.00     0.134 C 
BRANCH  24  25
HETATM   25  C14 UNL     1      -3.353  -0.314   0.647  1.00  0.00     0.054 C 
BRANCH  25  26
HETATM   26  C15 UNL     1      -4.361  -0.117   1.727  1.00  0.00    -0.082 C 
HETATM   27  C16 UNL     1      -5.635  -0.484   1.642  1.00  0.00    -0.024 C 
HETATM   28  C17 UNL     1      -6.321  -0.125   2.905  1.00  0.00     0.027 C 
HETATM   29  C18 UNL     1      -5.190  -0.011   3.905  1.00  0.00     0.008 C 
HETATM   30  C19 UNL     1      -4.065   0.515   3.039  1.00  0.00     0.034 C 
ENDBRANCH  25  26
ENDBRANCH  24  25
ENDBRANCH   3  24
TORSDOF 5
