REMARK  6 active torsions:
REMARK  status: ('A' for Active; 'I' for Inactive)
REMARK    1  A    between atoms: N1_1  and  C1_2 
REMARK    2  A    between atoms: N4_8  and  C4_9 
REMARK    3  A    between atoms: C11_16  and  C12_17 
REMARK    4  A    between atoms: C16_21  and  O1_22 
REMARK    5  A    between atoms: O1_22  and  C17_23 
REMARK    6  A    between atoms: C17_23  and  C18_24 
ROOT
HETATM    1  C1  UNL     1       0.078   2.849  -1.095  1.00  0.00     0.114 C 
HETATM    2  N2  UNL     1      -0.419   3.832  -1.668  1.00  0.00    -0.230 NA
HETATM    3  C2  UNL     1      -1.584   3.761  -2.451  1.00  0.00     0.233 C 
HETATM    4  N3  UNL     1      -2.573   3.427  -3.170  1.00  0.00    -0.256 NA
HETATM    5  P1  UNL     1      -2.943   1.789  -3.751  1.00  0.00     0.018 P 
HETATM    6  C3  UNL     1      -2.083   0.479  -2.809  1.00  0.00     0.177 C 
HETATM    7  N4  UNL     1      -2.088   0.596  -1.391  1.00  0.00    -0.379 N 
HETATM    8  C10 UNL     1      -0.801   0.715  -0.828  1.00  0.00     0.102 C 
HETATM    9  C11 UNL     1       0.212   1.507  -0.605  1.00  0.00     0.029 C 
HETATM   10  H4  UNL     1      -2.738   1.682  -5.170  1.00  0.00     0.084 HD
ENDROOT
BRANCH   9  11
HETATM   11  C12 UNL     1       1.365   1.061   0.121  1.00  0.00    -0.019 A 
HETATM   12  C13 UNL     1       2.524   1.765   0.188  1.00  0.00     0.012 A 
HETATM   13  C14 UNL     1       3.587   1.348   0.921  1.00  0.00     0.004 A 
HETATM   14  C15 UNL     1       3.488   0.182   1.612  1.00  0.00     0.037 A 
HETATM   15  C16 UNL     1       2.392  -0.630   1.640  1.00  0.00     0.070 A 
HETATM   16  C24 UNL     1       1.344  -0.108   0.849  1.00  0.00     0.049 A 
BRANCH  15  17
HETATM   17  O1  UNL     1       2.084  -1.801   2.239  1.00  0.00    -0.347 OA
BRANCH  17  18
HETATM   18  C17 UNL     1       2.854  -2.583   3.049  1.00  0.00     0.214 C 
BRANCH  18  19
HETATM   19  C18 UNL     1       4.089  -3.146   2.458  1.00  0.00    -0.034 A 
HETATM   20  C19 UNL     1       5.419  -2.794   2.462  1.00  0.00     0.009 A 
HETATM   21  C20 UNL     1       6.360  -3.528   1.779  1.00  0.00     0.001 A 
HETATM   22  C21 UNL     1       6.051  -4.650   1.054  1.00  0.00     0.000 A 
HETATM   23  C22 UNL     1       4.729  -5.037   1.026  1.00  0.00     0.001 A 
HETATM   24  C23 UNL     1       3.792  -4.296   1.712  1.00  0.00     0.009 A 
ENDBRANCH  18  19
ENDBRANCH  17  18
ENDBRANCH  15  17
ENDBRANCH   9  11
BRANCH   1  25
HETATM   25  N1  UNL     1       0.939   3.962  -0.774  1.00  0.00    -0.286 NA
HETATM   26  H1  UNL     1       1.437   4.696  -0.212  1.00  0.00     0.125 HD
HETATM   27  H2  UNL     1       1.366   4.645  -0.073  1.00  0.00     0.125 HD
ENDBRANCH   1  25
BRANCH   7  28
HETATM   28  C4  UNL     1      -3.184   0.582  -0.462  1.00  0.00     0.085 C 
HETATM   29  C5  UNL     1      -4.227   1.639  -0.637  1.00  0.00     0.034 C 
HETATM   30  C6  UNL     1      -5.257   0.553  -0.456  1.00  0.00    -0.037 A 
HETATM   31  C7  UNL     1      -6.260   0.511   0.581  1.00  0.00     0.010 A 
HETATM   32  C8  UNL     1      -6.618   0.599  -0.939  1.00  0.00     0.010 A 
HETATM   33  C9  UNL     1      -4.243  -0.503  -0.764  1.00  0.00     0.034 C 
ENDBRANCH   7  28
TORSDOF 6
