REMARK  9 active torsions:
REMARK  status: ('A' for Active; 'I' for Inactive)
REMARK    1  A    between atoms: C2_2  and  C3_3 
REMARK    2  A    between atoms: C3_3  and  O1_25 
REMARK    3  A    between atoms: C4_4  and  C5_5 
REMARK    4  A    between atoms: C5_5  and  C6_6 
REMARK    5  A    between atoms: N1_8  and  C8_9 
REMARK    6  A    between atoms: C10_11  and  C11_12 
REMARK    7  A    between atoms: C11_12  and  N2_13 
REMARK    8  A    between atoms: C18_22  and  N5_23 
REMARK    9  A    between atoms: O1_25  and  C20_26 
ROOT
HETATM    1  C6  UNL     1      -0.171   0.732  -1.416  1.00  0.00    -0.021 A 
HETATM    2  C7  UNL     1       0.912   0.901  -0.556  1.00  0.00     0.101 A 
HETATM    3  N1  UNL     1       1.840  -0.062  -0.741  1.00  0.00    -0.336 N 
HETATM    4  C16 UNL     1       1.403  -0.878  -1.712  1.00  0.00     0.146 A 
HETATM    5  N3  UNL     1       1.923  -1.979  -2.285  1.00  0.00    -0.223 NA
HETATM    6  C17 UNL     1       1.215  -2.588  -3.263  1.00  0.00     0.237 A 
HETATM    7  N4  UNL     1       0.001  -2.125  -3.684  1.00  0.00    -0.224 NA
HETATM    8  C18 UNL     1      -0.561  -1.011  -3.129  1.00  0.00     0.137 A 
HETATM    9  C19 UNL     1       0.166  -0.395  -2.131  1.00  0.00     0.063 A 
ENDROOT
BRANCH   1  10
HETATM   10  C5  UNL     1      -1.339   1.650  -1.424  1.00  0.00     0.070 C 
BRANCH  10  11
HETATM   11  C4  UNL     1      -2.516   1.095  -0.757  1.00  0.00     0.010 C 
HETATM   12  C3  UNL     1      -3.759   0.807  -1.011  1.00  0.00     0.050 C 
BRANCH  12  13
HETATM   13  C2  UNL     1      -4.617   0.919  -2.189  1.00  0.00     0.060 C 
HETATM   14  C1  UNL     1      -5.136  -0.444  -2.566  1.00  0.00     0.012 C 
ENDBRANCH  12  13
BRANCH  12  15
HETATM   15  O1  UNL     1      -4.564   0.267  -0.039  1.00  0.00    -0.315 OA
BRANCH  15  16
HETATM   16  C20 UNL     1      -4.790   0.929   1.147  1.00  0.00     0.081 A 
HETATM   17  C21 UNL     1      -4.315   2.145   1.581  1.00  0.00     0.038 A 
HETATM   18  C22 UNL     1      -4.657   2.647   2.817  1.00  0.00     0.003 A 
HETATM   19  C23 UNL     1      -5.491   1.939   3.657  1.00  0.00     0.001 A 
HETATM   20  C24 UNL     1      -5.978   0.717   3.238  1.00  0.00     0.009 A 
HETATM   21  C25 UNL     1      -5.633   0.204   1.986  1.00  0.00    -0.028 A 
HETATM   22  C26 UNL     1      -6.237  -1.111   1.693  1.00  0.00     0.051 C 
ENDBRANCH  15  16
ENDBRANCH  12  15
ENDBRANCH  10  11
ENDBRANCH   1  10
BRANCH   3  23
HETATM   23  C8  UNL     1       3.095  -0.147   0.021  1.00  0.00     0.092 C 
HETATM   24  C9  UNL     1       4.287  -0.554  -0.820  1.00  0.00     0.032 C 
HETATM   25  C10 UNL     1       4.590  -1.697   0.083  1.00  0.00     0.018 C 
HETATM   26  C15 UNL     1       3.284  -1.411   0.796  1.00  0.00     0.032 C 
BRANCH  25  27
HETATM   27  C11 UNL     1       5.814  -1.599   0.910  1.00  0.00     0.277 C 
BRANCH  27  28
HETATM   28  N2  UNL     1       5.952  -0.557   1.827  1.00  0.00     0.088 N 
HETATM   29  C12 UNL     1       6.167   0.790   1.437  1.00  0.00     0.274 C 
HETATM   30  C13 UNL     1       7.174   0.986   2.589  1.00  0.00     0.060 C 
HETATM   31  C14 UNL     1       7.224  -0.544   2.523  1.00  0.00     0.274 C 
ENDBRANCH  27  28
ENDBRANCH  25  27
ENDBRANCH   3  23
BRANCH   8  32
HETATM   32  N5  UNL     1      -1.822  -0.504  -3.544  1.00  0.00    -0.383 N 
HETATM   33  H25 UNL     1      -1.884   0.232  -4.289  1.00  0.00     0.157 HD
HETATM   34  H26 UNL     1      -2.351  -1.113  -2.882  1.00  0.00     0.157 HD
ENDBRANCH   8  32
TORSDOF 9
