REMARK  7 active torsions:
REMARK  status: ('A' for Active; 'I' for Inactive)
REMARK    1  A    between atoms: C7_7  and  O1_8 
REMARK    2  A    between atoms: O1_8  and  C8_9 
REMARK    3  A    between atoms: N1_14  and  C13_15 
REMARK    4  A    between atoms: C13_15  and  C14_16 
REMARK    5  A    between atoms: C14_16  and  C16_18 
REMARK    6  A    between atoms: C16_18  and  N2_19 
REMARK    7  A    between atoms: C25_30  and  N5_31 
ROOT
HETATM    1  C8  UNL     1       2.083   0.042   1.049  1.00  0.00     0.050 C 
HETATM    2  C9  UNL     1       2.216  -1.264   1.182  1.00  0.00     0.011 C 
HETATM    3  C10 UNL     1       1.569  -2.621   1.127  1.00  0.00     0.073 C 
HETATM    4  C11 UNL     1       0.307  -2.350   0.319  1.00  0.00     0.006 C 
HETATM    5  C12 UNL     1      -0.754  -1.538   0.556  1.00  0.00     0.103 C 
HETATM    6  N1  UNL     1      -1.048  -0.493  -0.447  1.00  0.00    -0.341 N 
HETATM    7  C20 UNL     1      -0.044   0.320  -1.124  1.00  0.00     0.127 C 
HETATM    8  C21 UNL     1       0.893   1.095  -1.680  1.00  0.00     0.024 C 
HETATM    9  C22 UNL     1       1.495   1.896  -0.539  1.00  0.00     0.037 C 
HETATM   10  C23 UNL     1       1.257   1.239   0.774  1.00  0.00     0.068 C 
HETATM   11  N3  UNL     1      -0.126  -0.358  -2.446  1.00  0.00    -0.225 NA
HETATM   12  C24 UNL     1       0.062  -1.639  -2.841  1.00  0.00     0.237 C 
HETATM   13  N4  UNL     1       0.206  -2.980  -2.210  1.00  0.00    -0.224 NA
HETATM   14  C25 UNL     1       0.511  -3.192  -0.922  1.00  0.00     0.130 C 
ENDROOT
BRANCH   1  15
HETATM   15  O1  UNL     1       3.337   0.680   1.294  1.00  0.00    -0.315 OA
BRANCH  15  16
HETATM   16  C7  UNL     1       4.447   0.431   0.504  1.00  0.00     0.081 A 
HETATM   17  C2  UNL     1       5.624   1.098   0.828  1.00  0.00    -0.028 A 
HETATM   18  C1  UNL     1       5.720   2.047   1.968  1.00  0.00     0.051 C 
HETATM   19  C3  UNL     1       6.741   0.836   0.021  1.00  0.00     0.009 A 
HETATM   20  C4  UNL     1       6.765  -0.016  -1.051  1.00  0.00     0.001 A 
HETATM   21  C5  UNL     1       5.590  -0.661  -1.347  1.00  0.00     0.003 A 
HETATM   22  C6  UNL     1       4.463  -0.446  -0.594  1.00  0.00     0.038 A 
ENDBRANCH  15  16
ENDBRANCH   1  15
BRANCH  14  23
HETATM   23  N5  UNL     1       1.168  -4.424  -0.559  1.00  0.00    -0.383 N 
HETATM   24  H32 UNL     1       1.991  -4.459  -1.233  1.00  0.00     0.157 HD
HETATM   25  H33 UNL     1       0.798  -5.026   0.207  1.00  0.00     0.157 HD
ENDBRANCH  14  23
BRANCH   6  26
HETATM   26  C13 UNL     1      -2.457  -0.404  -0.705  1.00  0.00     0.136 C 
BRANCH  26  27
HETATM   27  C14 UNL     1      -3.333   0.143   0.352  1.00  0.00     0.028 C 
HETATM   28  C15 UNL     1      -2.963   1.565   0.660  1.00  0.00     0.013 C 
BRANCH  27  29
HETATM   29  C16 UNL     1      -4.775   0.044  -0.151  1.00  0.00     0.278 C 
BRANCH  29  30
HETATM   30  N2  UNL     1      -5.731   0.555   0.807  1.00  0.00     0.088 N 
HETATM   31  C17 UNL     1      -7.089   0.318   0.292  1.00  0.00     0.274 C 
HETATM   32  C18 UNL     1      -7.459   1.700   0.762  1.00  0.00     0.060 C 
HETATM   33  C19 UNL     1      -5.987   1.981   0.529  1.00  0.00     0.274 C 
ENDBRANCH  29  30
ENDBRANCH  27  29
ENDBRANCH  26  27
ENDBRANCH   6  26
TORSDOF 7
