REMARK  7 active torsions:
REMARK  status: ('A' for Active; 'I' for Inactive)
REMARK    1  A    between atoms: C2_2  and  C3_3 
REMARK    2  A    between atoms: C3_3  and  C4_4 
REMARK    3  A    between atoms: C4_4  and  C5_5 
REMARK    4  A    between atoms: C7_7  and  N1_8 
REMARK    5  A    between atoms: C8_9  and  C9_10 
REMARK    6  A    between atoms: C15_16  and  O1_17 
REMARK    7  A    between atoms: C17_20  and  N2_21 
ROOT
HETATM    1  N1  UNL     1      -1.185   0.055  -0.174  1.00  0.00    -0.323 N 
HETATM    2  C8  UNL     1      -2.501  -0.133   0.160  1.00  0.00     0.082 A 
HETATM    3  C15 UNL     1      -3.062   1.062   0.595  1.00  0.00     0.129 A 
HETATM    4  C16 UNL     1      -2.022   1.957   0.502  1.00  0.00     0.087 A 
HETATM    5  C17 UNL     1      -2.139   3.274   0.837  1.00  0.00     0.119 A 
HETATM    6  N3  UNL     1      -1.051   4.050   0.700  1.00  0.00    -0.229 NA
HETATM    7  C18 UNL     1       0.107   3.499   0.241  1.00  0.00     0.237 A 
HETATM    8  N4  UNL     1       0.177   2.204  -0.074  1.00  0.00    -0.223 NA
HETATM    9  C19 UNL     1      -0.868   1.367   0.036  1.00  0.00     0.148 A 
ENDROOT
BRANCH   1  10
HETATM   10  C7  UNL     1      -0.107  -0.765  -0.660  1.00  0.00     0.092 C 
HETATM   11  C6  UNL     1       0.757  -0.205  -1.731  1.00  0.00     0.030 C 
HETATM   12  C5  UNL     1       1.969  -0.624  -0.924  1.00  0.00    -0.011 C 
HETATM   13  C20 UNL     1       1.092  -0.667   0.296  1.00  0.00     0.030 C 
BRANCH  12  14
HETATM   14  C4  UNL     1       3.106   0.351  -0.868  1.00  0.00     0.005 C 
BRANCH  14  15
HETATM   15  C3  UNL     1       4.182  -0.306  -0.006  1.00  0.00     0.000 C 
BRANCH  15  16
HETATM   16  C2  UNL     1       5.395   0.578   0.133  1.00  0.00    -0.005 C 
HETATM   17  C1  UNL     1       6.381  -0.188   1.007  1.00  0.00     0.005 C 
ENDBRANCH  15  16
ENDBRANCH  14  15
ENDBRANCH  12  14
ENDBRANCH   1  10
BRANCH   2  18
HETATM   18  C9  UNL     1      -3.056  -1.500   0.019  1.00  0.00    -0.006 A 
HETATM   19  C10 UNL     1      -3.739  -1.953   1.154  1.00  0.00     0.014 A 
HETATM   20  C11 UNL     1      -4.347  -3.184   1.242  1.00  0.00     0.001 A 
HETATM   21  C12 UNL     1      -4.281  -4.021   0.148  1.00  0.00     0.000 A 
HETATM   22  C13 UNL     1      -3.610  -3.575  -0.967  1.00  0.00     0.001 A 
HETATM   23  C14 UNL     1      -3.000  -2.344  -1.061  1.00  0.00     0.014 A 
ENDBRANCH   2  18
BRANCH   3  24
HETATM   24  O1  UNL     1      -4.363   0.904   0.933  1.00  0.00    -0.267 OA
HETATM   25 BR1  UNL     1      -5.493   2.196   1.554  1.00  0.00     0.106 Br
ENDBRANCH   3  24
BRANCH   5  26
HETATM   26  N2  UNL     1      -3.300   3.913   1.316  1.00  0.00    -0.286 NA
HETATM   27  H19 UNL     1      -3.603   4.693   0.696  1.00  0.00     0.125 HD
HETATM   28  H20 UNL     1      -3.644   4.704   0.727  1.00  0.00     0.125 HD
ENDBRANCH   5  26
TORSDOF 7
