REMARK  11 active torsions:
REMARK  status: ('A' for Active; 'I' for Inactive)
REMARK    1  A    between atoms: N1_5  and  C5_6 
REMARK    2  A    between atoms: C5_6  and  C6_7 
REMARK    3  A    between atoms: C6_7  and  C7_8 
REMARK    4  A    between atoms: C7_8  and  C8_9 
REMARK    5  A    between atoms: C8_9  and  N2_10 
REMARK    6  A    between atoms: C10_12  and  C11_13 
REMARK    7  A    between atoms: C11_13  and  C12_14 
REMARK    8  A    between atoms: C13_15  and  C14_16 
REMARK    9  A    between atoms: C14_16  and  C15_17 
REMARK   10  A    between atoms: C15_17  and  C16_18 
REMARK   11  A    between atoms: C25_28  and  N4_29 
ROOT
HETATM    1  N2  UNL     1      -0.881   0.155  -1.268  1.00  0.00    -0.361 N 
HETATM    2  C9  UNL     1       0.274  -0.046  -0.390  1.00  0.00     0.160 A 
HETATM    3  C10 UNL     1       1.168   1.046  -0.785  1.00  0.00    -0.043 A 
HETATM    4  C22 UNL     1       0.508   1.850  -1.829  1.00  0.00    -0.005 A 
HETATM    5  C23 UNL     1      -0.658   1.295  -2.064  1.00  0.00     0.132 A 
HETATM    6  N3  UNL     1      -1.401   1.951  -3.057  1.00  0.00    -0.245 NA
HETATM    7  C24 UNL     1      -0.940   2.987  -3.650  1.00  0.00     0.127 A 
HETATM    8  C25 UNL     1       0.345   3.655  -3.442  1.00  0.00     0.262 A 
HETATM    9  C26 UNL     1       1.187   3.022  -2.391  1.00  0.00     0.083 A 
ENDROOT
BRANCH   3  10
HETATM   10  C11 UNL     1       2.209   0.881  -0.035  1.00  0.00     0.051 C 
BRANCH  10  11
HETATM   11  C12 UNL     1       3.501   1.089   0.542  1.00  0.00    -0.021 C 
HETATM   12  C13 UNL     1       3.619   0.098   1.468  1.00  0.00    -0.030 C 
BRANCH  12  13
HETATM   13  C14 UNL     1       2.963  -1.074   2.099  1.00  0.00     0.031 C 
BRANCH  13  14
HETATM   14  C15 UNL     1       3.729  -2.362   1.905  1.00  0.00     0.042 C 
BRANCH  14  15
HETATM   15  C16 UNL     1       5.082  -2.199   2.487  1.00  0.00    -0.058 A 
HETATM   16  C17 UNL     1       5.236  -2.547   3.827  1.00  0.00     0.007 A 
HETATM   17  C18 UNL     1       6.445  -2.426   4.451  1.00  0.00     0.001 A 
HETATM   18  C19 UNL     1       7.555  -1.955   3.781  1.00  0.00     0.000 A 
HETATM   19  C20 UNL     1       7.451  -1.596   2.448  1.00  0.00     0.001 A 
HETATM   20  C21 UNL     1       6.210  -1.726   1.825  1.00  0.00     0.007 A 
ENDBRANCH  14  15
ENDBRANCH  13  14
ENDBRANCH  12  13
ENDBRANCH  10  11
ENDBRANCH   3  10
BRANCH   1  21
HETATM   21  C8  UNL     1      -1.937  -0.815  -1.231  1.00  0.00     0.125 C 
BRANCH  21  22
HETATM   22  C7  UNL     1      -3.218  -0.321  -1.887  1.00  0.00     0.022 C 
BRANCH  22  23
HETATM   23  C6  UNL     1      -3.833   0.808  -1.129  1.00  0.00     0.032 C 
BRANCH  23  24
HETATM   24  C5  UNL     1      -4.255   0.507   0.267  1.00  0.00     0.273 C 
BRANCH  24  25
HETATM   25  N1  UNL     1      -5.308  -0.329   0.588  1.00  0.00     0.092 N 
HETATM   26  C2  UNL     1      -5.647  -1.535  -0.115  1.00  0.00     0.220 C 
HETATM   27  C1  UNL     1      -4.995  -2.727   0.520  1.00  0.00     0.043 C 
HETATM   28  C3  UNL     1      -7.093  -1.304   0.470  1.00  0.00     0.065 C 
HETATM   29  C4  UNL     1      -6.686   0.166   0.399  1.00  0.00     0.275 C 
ENDBRANCH  24  25
ENDBRANCH  23  24
ENDBRANCH  22  23
ENDBRANCH  21  22
ENDBRANCH   1  21
BRANCH   8  30
HETATM   30  N4  UNL     1       1.133   3.724  -4.666  1.00  0.00     0.088 N 
HETATM   31  H33 UNL     1       1.684   2.862  -4.828  1.00  0.00     0.313 HD
HETATM   32  H34 UNL     1       1.796   4.519  -4.559  1.00  0.00     0.313 HD
ENDBRANCH   8  30
TORSDOF 11
