REMARK  8 active torsions:
REMARK  status: ('A' for Active; 'I' for Inactive)
REMARK    1  A    between atoms: C2_2  and  C3_3 
REMARK    2  A    between atoms: C3_3  and  C4_4 
REMARK    3  A    between atoms: C4_4  and  O1_23 
REMARK    4  A    between atoms: C5_5  and  C6_6 
REMARK    5  A    between atoms: N1_8  and  C8_9 
REMARK    6  A    between atoms: C10_11  and  C11_12 
REMARK    7  A    between atoms: O1_23  and  C19_24 
REMARK    8  A    between atoms: C19_24  and  C20_25 
ROOT
HETATM    1  C6  UNL     1      -0.351  -1.095   1.243  1.00  0.00    -0.023 C 
HETATM    2  C7  UNL     1       0.530  -0.090   1.111  1.00  0.00     0.096 C 
HETATM    3  N1  UNL     1       1.943   0.153   1.158  1.00  0.00    -0.367 N 
HETATM    4  C16 UNL     1       2.901  -0.471   2.048  1.00  0.00     0.274 C 
HETATM    5  N3  UNL     1       3.228  -1.816   1.602  1.00  0.00    -0.266 NA
HETATM    6  C17 UNL     1       2.575  -2.896   1.339  1.00  0.00     0.198 C 
HETATM    7  N4  UNL     1       1.150  -3.037   1.443  1.00  0.00    -0.381 N 
HETATM    8  C18 UNL     1      -0.189  -2.546   1.508  1.00  0.00     0.160 C 
HETATM    9  H25 UNL     1       0.956  -4.094   1.512  1.00  0.00     0.160 HD
ENDROOT
BRANCH   1  10
HETATM   10  C5  UNL     1      -1.692  -0.587   1.064  1.00  0.00     0.047 C 
HETATM   11  C4  UNL     1      -2.895  -1.101   1.089  1.00  0.00     0.069 C 
BRANCH  11  12
HETATM   12  C3  UNL     1      -3.729  -2.249   1.259  1.00  0.00     0.032 C 
BRANCH  12  13
HETATM   13  C2  UNL     1      -4.756  -3.034   1.349  1.00  0.00    -0.028 C 
HETATM   14  C1  UNL     1      -6.175  -2.562   1.176  1.00  0.00     0.036 C 
ENDBRANCH  12  13
ENDBRANCH  11  12
BRANCH  11  15
HETATM   15  O1  UNL     1      -4.089  -0.388   0.879  1.00  0.00    -0.347 OA
BRANCH  15  16
HETATM   16  C19 UNL     1      -4.404   0.025  -0.440  1.00  0.00     0.214 C 
BRANCH  16  17
HETATM   17  C20 UNL     1      -5.562   0.954  -0.431  1.00  0.00    -0.034 A 
HETATM   18  C21 UNL     1      -5.153   2.284  -0.293  1.00  0.00     0.009 A 
HETATM   19  C22 UNL     1      -6.072   3.306  -0.259  1.00  0.00     0.001 A 
HETATM   20  C23 UNL     1      -7.398   2.963  -0.367  1.00  0.00     0.000 A 
HETATM   21  C24 UNL     1      -7.864   1.652  -0.507  1.00  0.00     0.001 A 
HETATM   22  C25 UNL     1      -6.901   0.653  -0.536  1.00  0.00     0.009 A 
ENDBRANCH  16  17
ENDBRANCH  15  16
ENDBRANCH  11  15
ENDBRANCH   1  10
BRANCH   3  23
HETATM   23  C8  UNL     1       2.311   1.129   0.174  1.00  0.00     0.086 C 
HETATM   24  C9  UNL     1       3.733   1.552   0.062  1.00  0.00     0.031 C 
HETATM   25  C10 UNL     1       3.742   1.258  -1.445  1.00  0.00     0.007 C 
HETATM   26  C15 UNL     1       2.499   0.408  -1.176  1.00  0.00     0.031 C 
BRANCH  25  27
HETATM   27  C11 UNL     1       4.888   0.393  -1.895  1.00  0.00     0.121 C 
HETATM   28  N2  UNL     1       6.152   0.841  -1.692  1.00  0.00    -0.412 N 
HETATM   29  C12 UNL     1       6.852   1.894  -2.246  1.00  0.00     0.118 C 
HETATM   30  C14 UNL     1       7.084   0.566  -0.712  1.00  0.00     0.118 C 
HETATM   31  C13 UNL     1       7.862   1.811  -1.118  1.00  0.00     0.039 C 
ENDBRANCH  25  27
ENDBRANCH   3  23
TORSDOF 8
