REMARK  2 active torsions:
REMARK  status: ('A' for Active; 'I' for Inactive)
REMARK    1  A    between atoms: N1_4  and  C4_5 
REMARK    2  A    between atoms: C8_10  and  C9_11 
ROOT
HETATM    1  C4  UNL     1      -2.194  -0.842   0.776  1.00  0.00     0.269 C 
HETATM    2  C5  UNL     1      -1.994  -2.207   0.103  1.00  0.00     0.059 C 
HETATM    3  C6  UNL     1      -0.529  -2.207  -0.299  1.00  0.00     0.127 C 
HETATM    4  N2  UNL     1      -0.163  -0.796  -0.231  1.00  0.00    -0.365 N 
HETATM    5  C7  UNL     1       1.153  -0.260  -0.258  1.00  0.00     0.095 C 
HETATM    6  C8  UNL     1       1.711   0.925  -0.431  1.00  0.00    -0.037 C 
HETATM    7  C15 UNL     1       0.757   2.067  -0.678  1.00  0.00     0.086 C 
HETATM    8  C16 UNL     1      -0.193   2.159   0.434  1.00  0.00     0.090 C 
HETATM    9  N3  UNL     1      -1.077   1.249   0.603  1.00  0.00    -0.277 NA
HETATM   10  C17 UNL     1      -1.367   0.049  -0.125  1.00  0.00     0.240 C 
ENDROOT
BRANCH   6  11
HETATM   11  C9  UNL     1       3.129   1.154  -0.399  1.00  0.00     0.020 C 
HETATM   12  C10 UNL     1       4.280   0.574  -0.244  1.00  0.00    -0.036 A 
HETATM   13  C11 UNL     1       4.591  -0.824   0.008  1.00  0.00     0.011 A 
HETATM   14  C14 UNL     1       5.580   1.227  -0.290  1.00  0.00     0.011 A 
HETATM   15  C12 UNL     1       5.893  -1.019   0.106  1.00  0.00     0.001 A 
HETATM   16  C13 UNL     1       6.489   0.296  -0.087  1.00  0.00     0.001 A 
ENDBRANCH   6  11
BRANCH   1  17
HETATM   17  N1  UNL     1      -3.583  -0.570   0.805  1.00  0.00     0.105 N 
HETATM   18  C2  UNL     1      -4.271   0.259  -0.126  1.00  0.00     0.248 A 
HETATM   19  C1  UNL     1      -5.638  -0.267  -0.547  1.00  0.00     0.045 C 
HETATM   20  C3  UNL     1      -4.153   0.618   1.360  1.00  0.00     0.308 A 
ENDBRANCH   1  17
TORSDOF 2
