REMARK  5 active torsions:
REMARK  status: ('A' for Active; 'I' for Inactive)
REMARK    1  A    between atoms: N1_1  and  C1_2 
REMARK    2  A    between atoms: C4_8  and  C5_9 
REMARK    3  A    between atoms: N4_17  and  C12_18 
REMARK    4  A    between atoms: C14_20  and  C15_21 
REMARK    5  A    between atoms: C15_21  and  N5_22 
ROOT
HETATM    1  C1  UNL     1       2.834   0.875  -2.535  1.00  0.00     0.143 A 
HETATM    2  N2  UNL     1       2.375   1.115  -3.671  1.00  0.00    -0.223 NA
HETATM    3  C2  UNL     1       1.074   0.961  -4.214  1.00  0.00     0.245 A 
HETATM    4  N3  UNL     1       0.072   0.482  -3.488  1.00  0.00    -0.195 NA
HETATM    5  S1  UNL     1       0.473   0.059  -1.822  1.00  0.00     0.038 SA
HETATM    6  C3  UNL     1       2.172   0.319  -1.291  1.00  0.00     0.089 A 
HETATM    7  C4  UNL     1       2.193  -0.142   0.054  1.00  0.00     0.012 A 
HETATM    8  C11 UNL     1       1.074  -0.602   0.507  1.00  0.00     0.113 A 
HETATM    9  N4  UNL     1      -0.072  -0.630  -0.285  1.00  0.00    -0.314 N 
ENDROOT
BRANCH   9  10
HETATM   10  C12 UNL     1      -1.424  -1.036  -0.144  1.00  0.00     0.098 C 
HETATM   11  C13 UNL     1      -2.302  -0.862  -1.334  1.00  0.00     0.032 C 
HETATM   12  C14 UNL     1      -3.299   0.019  -0.557  1.00  0.00     0.018 C 
HETATM   13  C19 UNL     1      -2.308  -0.042   0.580  1.00  0.00     0.032 C 
BRANCH  12  14
HETATM   14  C15 UNL     1      -4.571  -0.729  -0.427  1.00  0.00     0.277 C 
BRANCH  14  15
HETATM   15  N5  UNL     1      -5.667  -0.166   0.213  1.00  0.00     0.088 N 
HETATM   16  C16 UNL     1      -5.751   0.105   1.591  1.00  0.00     0.274 C 
HETATM   17  C17 UNL     1      -5.994   1.579   1.217  1.00  0.00     0.060 C 
HETATM   18  C18 UNL     1      -6.230   1.081  -0.218  1.00  0.00     0.274 C 
ENDBRANCH  14  15
ENDBRANCH  12  14
ENDBRANCH   9  10
BRANCH   7  19
HETATM   19  C5  UNL     1       3.464  -0.116   0.715  1.00  0.00    -0.021 C 
HETATM   20  C6  UNL     1       3.383  -0.698   1.881  1.00  0.00     0.010 C 
HETATM   21  C7  UNL     1       4.319  -0.973   2.971  1.00  0.00    -0.001 C 
HETATM   22  C8  UNL     1       5.652  -0.802   2.989  1.00  0.00    -0.001 C 
HETATM   23  C9  UNL     1       6.338  -0.257   1.755  1.00  0.00     0.195 C 
HETATM   24  O1  UNL     1       5.562   0.844   1.415  1.00  0.00    -0.383 OA
HETATM   25  C10 UNL     1       4.690   0.553   0.320  1.00  0.00     0.207 C 
ENDBRANCH   7  19
BRANCH   1  26
HETATM   26  N1  UNL     1       4.173   1.150  -2.374  1.00  0.00    -0.383 N 
HETATM   27  H1  UNL     1       4.634   0.233  -2.632  1.00  0.00     0.157 HD
HETATM   28  H2  UNL     1       5.188   1.359  -2.251  1.00  0.00     0.157 HD
ENDBRANCH   1  26
TORSDOF 5
