REMARK  4 active torsions:
REMARK  status: ('A' for Active; 'I' for Inactive)
REMARK    1  A    between atoms: C6_7  and  N2_8 
REMARK    2  A    between atoms: C8_10  and  C9_11 
REMARK    3  A    between atoms: C13_15  and  O1_16 
REMARK    4  A    between atoms: C16_19  and  N3_20 
ROOT
HETATM    1  N2  UNL     1      -0.155  -0.114   0.951  1.00  0.00    -0.335 N 
HETATM    2  C7  UNL     1       0.884   0.633   0.599  1.00  0.00     0.106 A 
HETATM    3  C8  UNL     1       1.934  -0.184   0.159  1.00  0.00     0.007 A 
HETATM    4  C15 UNL     1       1.422  -1.446   0.285  1.00  0.00     0.062 A 
HETATM    5  C16 UNL     1       2.090  -2.610  -0.025  1.00  0.00     0.117 A 
HETATM    6  N4  UNL     1       1.431  -3.779   0.164  1.00  0.00    -0.229 NA
HETATM    7  C17 UNL     1       0.173  -3.779   0.638  1.00  0.00     0.237 A 
HETATM    8  N5  UNL     1      -0.438  -2.613   0.927  1.00  0.00    -0.223 NA
HETATM    9  C18 UNL     1       0.139  -1.413   0.770  1.00  0.00     0.145 A 
ENDROOT
BRANCH   1  10
HETATM   10  C6  UNL     1      -1.430   0.344   1.456  1.00  0.00     0.097 C 
HETATM   11  C5  UNL     1      -2.490  -0.721   1.561  1.00  0.00     0.031 C 
HETATM   12  C4  UNL     1      -3.475   0.394   1.191  1.00  0.00    -0.003 C 
HETATM   13  C3  UNL     1      -4.647  -0.058   0.389  1.00  0.00     0.035 C 
HETATM   14  C19 UNL     1      -2.340   0.984   0.399  1.00  0.00     0.041 C 
HETATM   15  C2  UNL     1      -4.315  -0.537  -0.984  1.00  0.00     0.272 C 
HETATM   16  N1  UNL     1      -3.351   0.296  -1.664  1.00  0.00     0.084 N 
HETATM   17  C1  UNL     1      -3.871   1.619  -1.933  1.00  0.00     0.309 C 
HETATM   18  C20 UNL     1      -2.113   0.342  -0.927  1.00  0.00     0.279 C 
ENDBRANCH   1  10
BRANCH   3  19
HETATM   19  C9  UNL     1       3.173   0.431  -0.298  1.00  0.00    -0.021 A 
HETATM   20  C10 UNL     1       3.862   0.247  -1.453  1.00  0.00     0.012 A 
HETATM   21  C11 UNL     1       5.040   0.915  -1.710  1.00  0.00     0.004 A 
HETATM   22  C12 UNL     1       5.578   1.805  -0.804  1.00  0.00     0.036 A 
HETATM   23  C13 UNL     1       4.925   2.024   0.368  1.00  0.00     0.066 A 
HETATM   24  C14 UNL     1       3.749   1.342   0.598  1.00  0.00     0.049 A 
BRANCH  23  25
HETATM   25  O1  UNL     1       5.435   2.912   1.304  1.00  0.00    -0.361 OA
HETATM   26  H16 UNL     1       5.016   3.811   1.505  1.00  0.00     0.217 HD
ENDBRANCH  23  25
ENDBRANCH   3  19
BRANCH   5  27
HETATM   27  N3  UNL     1       3.423  -2.647  -0.518  1.00  0.00    -0.286 NA
HETATM   28  H18 UNL     1       4.112  -2.427   0.227  1.00  0.00     0.125 HD
HETATM   29  H19 UNL     1       4.401  -2.498  -0.143  1.00  0.00     0.125 HD
ENDBRANCH   5  27
TORSDOF 4
