REMARK  2 active torsions:
REMARK  status: ('A' for Active; 'I' for Inactive)
REMARK    1  A    between atoms: O1_1  and  C1_2 
REMARK    2  A    between atoms: C3_4  and  C4_5 
ROOT
HETATM    1  C4  UNL     1       1.414  -0.425   0.337  1.00  0.00     0.059 C 
HETATM    2  C5  UNL     1       0.864  -1.628   0.354  1.00  0.00     0.114 C 
HETATM    3  N1  UNL     1      -0.422  -1.964   0.861  1.00  0.00    -0.392 N 
HETATM    4  C6  UNL     1      -1.454  -2.652   0.118  1.00  0.00     0.081 A 
HETATM    5  C7  UNL     1      -1.702  -2.085  -1.250  1.00  0.00     0.031 A 
HETATM    6  C8  UNL     1      -3.029  -1.530  -0.805  1.00  0.00     0.018 A 
HETATM    7  C9  UNL     1      -2.801  -2.129   0.553  1.00  0.00     0.031 A 
HETATM    8  C10 UNL     1      -2.987  -0.027  -0.831  1.00  0.00     0.280 C 
HETATM    9  N2  UNL     1      -3.568   0.578   0.349  1.00  0.00     0.113 N 
HETATM   10  C11 UNL     1      -4.275   1.809  -0.038  1.00  0.00     0.279 C 
HETATM   11  C12 UNL     1      -2.909   2.475  -0.107  1.00  0.00     0.089 C 
HETATM   12  C13 UNL     1      -2.589   1.471   0.980  1.00  0.00     0.346 C 
HETATM   13  N3  UNL     1      -1.270   0.919   0.980  1.00  0.00    -0.249 NA
HETATM   14  C14 UNL     1      -0.274   1.707   0.755  1.00  0.00     0.203 C 
HETATM   15  N4  UNL     1       0.693   0.692   0.869  1.00  0.00    -0.349 N 
HETATM   16  H4  UNL     1      -0.431  -1.603   1.860  1.00  0.00     0.159 HD
HETATM   17  H19 UNL     1       1.187   0.675   1.786  1.00  0.00     0.166 HD
ENDROOT
BRANCH   1  18
HETATM   18  C3  UNL     1       2.761  -0.211  -0.221  1.00  0.00     0.006 C 
HETATM   19  C2  UNL     1       3.251   1.150  -0.181  1.00  0.00     0.051 C 
HETATM   20  C1  UNL     1       4.534   1.501  -0.199  1.00  0.00     0.066 C 
HETATM   21  C18 UNL     1       5.748   0.679  -0.260  1.00  0.00     0.036 C 
HETATM   22  C17 UNL     1       5.759  -0.648  -0.438  1.00  0.00     0.004 C 
HETATM   23  C16 UNL     1       4.595  -1.533  -0.605  1.00  0.00     0.013 C 
HETATM   24  C15 UNL     1       3.322  -1.272  -0.671  1.00  0.00    -0.012 C 
BRANCH  20  25
HETATM   25  O1  UNL     1       4.787   2.877  -0.153  1.00  0.00    -0.361 OA
HETATM   26  H1  UNL     1       4.267   3.424   0.547  1.00  0.00     0.217 HD
ENDBRANCH  20  25
ENDBRANCH   1  18
TORSDOF 2
