REMARK  3 active torsions:
REMARK  status: ('A' for Active; 'I' for Inactive)
REMARK    1  A    between atoms: N1_1  and  C1_2 
REMARK    2  A    between atoms: C11_16  and  C12_17 
REMARK    3  A    between atoms: C16_21  and  O1_22 
ROOT
HETATM    1  C1  UNL     1      -0.461   3.297  -0.295  1.00  0.00     0.103 A 
HETATM    2  N2  UNL     1      -1.597   3.073   0.101  1.00  0.00    -0.229 NA
HETATM    3  C2  UNL     1      -2.854   3.518   0.412  1.00  0.00     0.230 A 
HETATM    4  N3  UNL     1      -3.187   2.288   0.833  1.00  0.00    -0.263 NA
HETATM    5  C3  UNL     1      -2.179   1.409   0.714  1.00  0.00     0.274 A 
HETATM    6  N4  UNL     1      -1.694   0.145   0.962  1.00  0.00    -0.365 N 
HETATM    7  C4  UNL     1      -2.427  -0.848   1.658  1.00  0.00     0.125 C 
HETATM    8  C5  UNL     1      -2.618  -2.027   0.767  1.00  0.00     0.037 C 
HETATM    9  C6  UNL     1      -1.295  -2.374   0.151  1.00  0.00     0.018 A 
HETATM   10  C7  UNL     1      -1.348  -2.500  -1.298  1.00  0.00     0.095 A 
HETATM   11  N5  UNL     1      -1.100  -3.724  -1.348  1.00  0.00    -0.304 NA
HETATM   12  C8  UNL     1      -1.006  -3.819   0.043  1.00  0.00     0.163 A 
HETATM   13  C9  UNL     1      -0.145  -1.512   0.646  1.00  0.00     0.074 C 
HETATM   14  C10 UNL     1      -0.323  -0.087   0.456  1.00  0.00     0.017 A 
HETATM   15  C11 UNL     1       0.457   0.876  -0.077  1.00  0.00    -0.018 A 
HETATM   16  C18 UNL     1       0.530   2.227  -0.417  1.00  0.00     0.119 A 
ENDROOT
BRANCH  15  17
HETATM   17  C12 UNL     1       1.767   0.247  -0.459  1.00  0.00    -0.025 A 
HETATM   18  C13 UNL     1       2.332   0.353  -1.699  1.00  0.00     0.012 A 
HETATM   19  C14 UNL     1       3.545  -0.178  -2.023  1.00  0.00     0.004 A 
HETATM   20  C15 UNL     1       4.272  -0.862  -1.092  1.00  0.00     0.036 A 
HETATM   21  C16 UNL     1       3.776  -1.010   0.163  1.00  0.00     0.066 A 
HETATM   22  C17 UNL     1       2.561  -0.465   0.450  1.00  0.00     0.048 A 
BRANCH  21  23
HETATM   23  O1  UNL     1       4.473  -1.694   1.142  1.00  0.00    -0.361 OA
HETATM   24  H18 UNL     1       4.261  -1.563   2.137  1.00  0.00     0.217 HD
ENDBRANCH  21  23
ENDBRANCH  15  17
BRANCH   1  25
HETATM   25  N1  UNL     1      -0.047   4.619  -0.668  1.00  0.00    -0.387 N 
HETATM   26  H1  UNL     1       0.469   5.507  -0.483  1.00  0.00     0.157 HD
HETATM   27  H2  UNL     1      -0.488   4.780  -1.612  1.00  0.00     0.157 HD
ENDBRANCH   1  25
TORSDOF 3
