REMARK  3 active torsions:
REMARK  status: ('A' for Active; 'I' for Inactive)
REMARK    1  A    between atoms: C2_2  and  O1_3 
REMARK    2  A    between atoms: C12_14  and  N2_15 
REMARK    3  A    between atoms: C19_24  and  N5_25 
ROOT
HETATM    1  C1  UNL     1      -3.080   2.674   0.686  1.00  0.00     0.057 C 
HETATM    2  C2  UNL     1      -2.411   1.403   1.139  1.00  0.00     0.115 C 
HETATM    3  C3  UNL     1      -3.206   0.870   2.256  1.00  0.00     0.017 C 
HETATM    4  C4  UNL     1      -4.130  -0.077   2.399  1.00  0.00    -0.001 C 
HETATM    5  C5  UNL     1      -4.620  -0.911   1.299  1.00  0.00     0.001 C 
HETATM    6  C6  UNL     1      -4.056  -1.143   0.103  1.00  0.00     0.017 C 
HETATM    7  C7  UNL     1      -2.786  -0.584  -0.358  1.00  0.00     0.035 C 
HETATM    8  C8  UNL     1      -2.102   0.467   0.067  1.00  0.00     0.058 C 
HETATM    9  N1  UNL     1      -0.878   0.781  -0.579  1.00  0.00    -0.379 N 
HETATM   10  C9  UNL     1       0.487   0.428  -0.794  1.00  0.00     0.050 C 
HETATM   11  C10 UNL     1       1.283   1.695  -1.031  1.00  0.00     0.035 C 
HETATM   12  C11 UNL     1       2.707   1.228  -0.844  1.00  0.00     0.038 C 
HETATM   13  C12 UNL     1       2.634  -0.107  -0.138  1.00  0.00     0.225 C 
HETATM   14  C16 UNL     1       1.214  -0.140   0.384  1.00  0.00     0.068 C 
HETATM   15  C17 UNL     1       0.685  -0.506  -1.962  1.00  0.00     0.181 C 
HETATM   16  N3  UNL     1       0.776  -1.894  -1.503  1.00  0.00    -0.280 NA
HETATM   17  C18 UNL     1      -0.257  -2.629  -1.587  1.00  0.00     0.229 C 
HETATM   18  N4  UNL     1      -1.502  -2.199  -2.097  1.00  0.00    -0.225 NA
HETATM   19  C19 UNL     1      -2.314  -1.419  -1.464  1.00  0.00     0.135 C 
HETATM   20  H9  UNL     1      -1.267   1.636  -1.059  1.00  0.00     0.160 HD
ENDROOT
BRANCH  13  21
HETATM   21  N2  UNL     1       3.632  -0.118   0.903  1.00  0.00     0.093 N 
HETATM   22  C13 UNL     1       4.939   0.071   0.263  1.00  0.00     0.274 C 
HETATM   23  C14 UNL     1       5.503  -0.815   1.349  1.00  0.00     0.060 C 
HETATM   24  C15 UNL     1       4.101  -1.426   1.297  1.00  0.00     0.274 C 
ENDBRANCH  13  21
BRANCH   2  25
HETATM   25  O1  UNL     1      -1.183   1.825   1.702  1.00  0.00    -0.380 OA
HETATM   26  H4  UNL     1      -0.956   1.292   2.507  1.00  0.00     0.211 HD
ENDBRANCH   2  25
BRANCH  19  27
HETATM   27  N5  UNL     1      -3.354  -1.351  -2.453  1.00  0.00    -0.383 N 
HETATM   28  H26 UNL     1      -3.764  -0.764  -3.230  1.00  0.00     0.157 HD
HETATM   29  H27 UNL     1      -4.081  -2.073  -2.614  1.00  0.00     0.157 HD
ENDBRANCH  19  27
TORSDOF 3
