REMARK  10 active torsions:
REMARK  status: ('A' for Active; 'I' for Inactive)
REMARK    1  A    between atoms: O1_2  and  C2_3 
REMARK    2  A    between atoms: C6_9  and  N3_10 
REMARK    3  A    between atoms: N3_10  and  C7_11 
REMARK    4  A    between atoms: C7_11  and  C8_12 
REMARK    5  A    between atoms: C7_11  and  C10_15 
REMARK    6  A    between atoms: C14_20  and  O2_21 
REMARK    7  A    between atoms: O2_21  and  C15_22 
REMARK    8  A    between atoms: C15_22  and  C16_23 
REMARK    9  A    between atoms: C16_23  and  C17_24 
REMARK   10  A    between atoms: C17_24  and  N4_25 
ROOT
HETATM    1  C2  UNL     1      -0.233   1.118  -0.972  1.00  0.00     0.103 A 
HETATM    2  C3  UNL     1       0.615   2.099  -1.500  1.00  0.00     0.072 A 
HETATM    3  C4  UNL     1       1.959   1.894  -1.275  1.00  0.00     0.075 A 
HETATM    4  N1  UNL     1       2.803   2.822  -1.751  1.00  0.00    -0.241 NA
HETATM    5  C5  UNL     1       4.152   2.755  -1.593  1.00  0.00     0.235 A 
HETATM    6  N2  UNL     1       4.616   1.700  -0.926  1.00  0.00    -0.224 NA
HETATM    7  C6  UNL     1       3.823   0.741  -0.426  1.00  0.00     0.138 A 
HETATM    8  C12 UNL     1       2.464   0.814  -0.586  1.00  0.00     0.041 A 
HETATM    9  C13 UNL     1       1.621  -0.146  -0.070  1.00  0.00     0.057 A 
HETATM   10  C14 UNL     1       0.250   0.009  -0.265  1.00  0.00     0.103 A 
ENDROOT
BRANCH  10  11
HETATM   11  O2  UNL     1      -0.619  -0.824   0.176  1.00  0.00    -0.348 OA
BRANCH  11  12
HETATM   12  C15 UNL     1      -1.505  -1.675   0.627  1.00  0.00     0.177 C 
BRANCH  12  13
HETATM   13  C16 UNL     1      -2.919  -1.115   0.360  1.00  0.00     0.046 C 
BRANCH  13  14
HETATM   14  C17 UNL     1      -3.998  -2.051   0.821  1.00  0.00     0.119 C 
BRANCH  14  15
HETATM   15  N4  UNL     1      -5.267  -1.429   0.606  1.00  0.00    -0.408 N 
HETATM   16  C18 UNL     1      -5.660  -1.197  -0.732  1.00  0.00     0.143 C 
HETATM   17  C19 UNL     1      -5.725   0.299  -1.048  1.00  0.00     0.187 C 
HETATM   18  O3  UNL     1      -6.699   0.813  -0.188  1.00  0.00    -0.388 OA
HETATM   19  C20 UNL     1      -6.187   0.839   1.072  1.00  0.00     0.187 C 
HETATM   20  C21 UNL     1      -5.611  -0.440   1.563  1.00  0.00     0.143 C 
ENDBRANCH  14  15
ENDBRANCH  13  14
ENDBRANCH  12  13
ENDBRANCH  11  12
ENDBRANCH  10  11
BRANCH   1  21
HETATM   21  O1  UNL     1      -1.574   1.252  -1.158  1.00  0.00    -0.353 OA
HETATM   22  C1  UNL     1      -2.283   2.234  -1.830  1.00  0.00     0.210 C 
ENDBRANCH   1  21
BRANCH   7  23
HETATM   23  N3  UNL     1       4.442  -0.354   0.235  1.00  0.00    -0.363 N 
HETATM   24  H6  UNL     1       4.038  -1.209   0.668  1.00  0.00     0.162 HD
BRANCH  23  25
HETATM   25  C7  UNL     1       5.891  -0.442   0.421  1.00  0.00     0.132 C 
BRANCH  25  26
HETATM   26  C8  UNL     1       6.315  -0.260   1.822  1.00  0.00     0.031 C 
HETATM   27  C9  UNL     1       6.996   0.772   2.303  1.00  0.00     0.186 C 
HETATM   28  F1  UNL     1       7.377   1.795   1.506  1.00  0.00    -0.220 F 
ENDBRANCH  25  26
BRANCH  25  29
HETATM   29  C10 UNL     1       6.396  -1.682  -0.190  1.00  0.00     0.014 C 
HETATM   30  C11 UNL     1       7.086  -2.658   0.387  1.00  0.00     0.083 C 
HETATM   31 CL1  UNL     1       7.664  -4.116  -0.389  1.00  0.00    -0.097 Cl
ENDBRANCH  25  29
ENDBRANCH  23  25
ENDBRANCH   7  23
TORSDOF 10
