REMARK  5 active torsions:
REMARK  status: ('A' for Active; 'I' for Inactive)
REMARK    1  A    between atoms: O1_2  and  C2_3 
REMARK    2  A    between atoms: C2_3  and  C4_5 
REMARK    3  A    between atoms: C10_14  and  N3_15 
REMARK    4  A    between atoms: N3_15  and  C11_16 
REMARK    5  A    between atoms: N4_17  and  C12_18 
ROOT
HETATM    1  C4  UNL     1      -3.569  -0.020  -0.162  1.00  0.00    -0.050 C 
HETATM    2  C5  UNL     1      -4.151   1.171  -0.331  1.00  0.00     0.005 C 
HETATM    3  C6  UNL     1      -3.885   2.563  -0.545  1.00  0.00     0.000 C 
HETATM    4  C7  UNL     1      -2.742   3.194  -0.659  1.00  0.00     0.000 C 
HETATM    5  O2  UNL     1      -1.486   3.753  -0.764  1.00  0.00     0.000 OA
HETATM    6  C8  UNL     1      -0.424   3.217  -1.458  1.00  0.00     0.137 A 
HETATM    7  N1  UNL     1      -0.126   3.803  -0.356  1.00  0.00    -0.253 N 
HETATM    8  C9  UNL     1       1.226   3.860   0.063  1.00  0.00     0.235 C 
HETATM    9  N2  UNL     1       1.915   2.802   0.417  1.00  0.00    -0.223 NA
HETATM   10  C10 UNL     1       1.317   1.512   0.395  1.00  0.00     0.144 C 
HETATM   11  C18 UNL     1       0.598   0.496   0.829  1.00  0.00     0.134 C 
HETATM   12  N5  UNL     1      -0.060  -0.749   0.953  1.00  0.00    -0.396 N 
HETATM   13  C19 UNL     1      -1.490  -0.623   1.072  1.00  0.00     0.123 C 
HETATM   14  C20 UNL     1      -2.098  -0.130  -0.212  1.00  0.00     0.056 C 
HETATM   15  H21 UNL     1       0.890  -1.164   0.891  1.00  0.00     0.159 HD
ENDROOT
BRANCH  10  16
HETATM   16  N3  UNL     1       1.631   0.815  -0.766  1.00  0.00    -0.334 N 
HETATM   17  H13 UNL     1       1.127   0.649  -1.694  1.00  0.00     0.168 HD
BRANCH  16  18
HETATM   18  C11 UNL     1       2.921   0.157  -0.759  1.00  0.00     0.209 C 
HETATM   19  N4  UNL     1       3.452  -0.151   0.391  1.00  0.00    -0.244 NA
BRANCH  19  20
HETATM   20  C12 UNL     1       4.719  -0.796   0.349  1.00  0.00     0.058 A 
HETATM   21  C13 UNL     1       5.221  -1.614  -0.642  1.00  0.00     0.031 A 
HETATM   22  C14 UNL     1       6.486  -2.158  -0.512  1.00  0.00     0.002 A 
HETATM   23  C15 UNL     1       7.276  -1.905   0.597  1.00  0.00     0.000 A 
HETATM   24  C16 UNL     1       6.776  -1.085   1.594  1.00  0.00     0.002 A 
HETATM   25  C17 UNL     1       5.509  -0.539   1.466  1.00  0.00     0.031 A 
ENDBRANCH  19  20
ENDBRANCH  16  18
ENDBRANCH  10  16
BRANCH   1  26
HETATM   26  C2  UNL     1      -4.215  -1.358   0.051  1.00  0.00     0.145 C 
HETATM   27  C3  UNL     1      -5.728  -1.177   0.211  1.00  0.00     0.044 C 
BRANCH  26  28
HETATM   28  O1  UNL     1      -4.007  -2.178  -1.045  1.00  0.00    -0.387 OA
HETATM   29  C1  UNL     1      -3.388  -3.347  -0.649  1.00  0.00     0.202 C 
ENDBRANCH  26  28
ENDBRANCH   1  26
TORSDOF 5
