REMARK  6 active torsions:
REMARK  status: ('A' for Active; 'I' for Inactive)
REMARK    1  A    between atoms: C1_2  and  C2_3 
REMARK    2  A    between atoms: C4_5  and  O1_6 
REMARK    3  A    between atoms: O1_6  and  C5_7 
REMARK    4  A    between atoms: C5_7  and  C6_8 
REMARK    5  A    between atoms: C6_8  and  C7_9 
REMARK    6  A    between atoms: C7_9  and  N1_10 
ROOT
HETATM    1  C2  UNL     1      -4.041   1.232  -0.423  1.00  0.00     0.090 C 
HETATM    2  C3  UNL     1      -2.634   0.976  -0.780  1.00  0.00     0.024 C 
HETATM    3  C4  UNL     1      -1.819  -0.093  -0.614  1.00  0.00     0.083 C 
HETATM    4  C12 UNL     1      -2.062  -1.302   0.181  1.00  0.00     0.037 C 
HETATM    5  B1  UNL     1      -2.825  -1.092   1.814  1.00  0.00     0.250 B 
HETATM    6  C13 UNL     1      -4.629  -0.216   1.539  1.00  0.00    -0.050 C 
HETATM    7  C14 UNL     1      -4.759   0.097   0.170  1.00  0.00     0.032 C 
HETATM    8  N2  UNL     1      -5.525  -0.725  -0.627  1.00  0.00    -0.247 NA
HETATM    9  C15 UNL     1      -4.850  -1.784  -1.211  1.00  0.00     0.235 C 
HETATM   10  N3  UNL     1      -3.918  -2.582  -1.745  1.00  0.00    -0.230 NA
HETATM   11  C16 UNL     1      -2.693  -2.822  -1.250  1.00  0.00     0.258 C 
HETATM   12  O3  UNL     1      -1.635  -2.349  -0.546  1.00  0.00    -0.318 OA
ENDROOT
BRANCH   3  13
HETATM   13  O1  UNL     1      -0.617  -0.018  -1.284  1.00  0.00    -0.350 OA
BRANCH  13  14
HETATM   14  C5  UNL     1       0.623   0.215  -0.601  1.00  0.00     0.177 C 
BRANCH  14  15
HETATM   15  C6  UNL     1       1.667   0.220  -1.648  1.00  0.00     0.057 C 
BRANCH  15  16
HETATM   16  C7  UNL     1       3.063   0.473  -1.184  1.00  0.00     0.274 C 
BRANCH  16  17
HETATM   17  N1  UNL     1       3.680  -0.416  -0.285  1.00  0.00     0.092 N 
HETATM   18  C8  UNL     1       5.110  -0.081  -0.107  1.00  0.00     0.298 C 
HETATM   19  C9  UNL     1       5.240   1.071   0.820  1.00  0.00     0.198 C 
HETATM   20  O2  UNL     1       4.854   0.707   2.129  1.00  0.00    -0.388 OA
HETATM   21  C10 UNL     1       4.170  -0.490   2.104  1.00  0.00     0.198 C 
HETATM   22  C11 UNL     1       3.090  -0.480   1.017  1.00  0.00     0.298 C 
ENDBRANCH  16  17
ENDBRANCH  15  16
ENDBRANCH  14  15
ENDBRANCH  13  14
ENDBRANCH   3  13
BRANCH   1  23
HETATM   23  C1  UNL     1      -4.061   2.374   0.563  1.00  0.00     0.237 C 
HETATM   24  F1  UNL     1      -5.347   2.681   0.954  1.00  0.00    -0.254 F 
ENDBRANCH   1  23
TORSDOF 6
