REMARK  4 active torsions:
REMARK  status: ('A' for Active; 'I' for Inactive)
REMARK    1  A    between atoms: N1_1  and  C1_2 
REMARK    2  A    between atoms: C10_13  and  O1_14 
REMARK    3  A    between atoms: C14_18  and  C15_19 
REMARK    4  A    between atoms: C15_19  and  N4_20 
ROOT
HETATM    1  C1  UNL     1      -3.626  -1.019   0.791  1.00  0.00     0.135 A 
HETATM    2  N2  UNL     1      -4.592  -1.959   0.804  1.00  0.00    -0.224 NA
HETATM    3  C2  UNL     1      -4.255  -3.257   0.527  1.00  0.00     0.235 A 
HETATM    4  N3  UNL     1      -3.020  -3.688   0.238  1.00  0.00    -0.245 NA
HETATM    5  C3  UNL     1      -1.989  -2.828   0.200  1.00  0.00     0.052 A 
HETATM    6  C4  UNL     1      -2.384  -1.508   0.489  1.00  0.00     0.047 A 
HETATM    7  C5  UNL     1      -1.432  -0.365   0.480  1.00  0.00     0.013 C 
HETATM    8  C6  UNL     1      -1.825   0.988   0.179  1.00  0.00    -0.020 A 
HETATM    9  C7  UNL     1      -1.673   2.195   0.828  1.00  0.00     0.012 A 
HETATM   10  C8  UNL     1      -2.063   3.390   0.265  1.00  0.00     0.004 A 
HETATM   11  C9  UNL     1      -2.626   3.390  -0.991  1.00  0.00     0.036 A 
HETATM   12  C10 UNL     1      -2.798   2.207  -1.678  1.00  0.00     0.066 A 
HETATM   13  C11 UNL     1      -2.404   0.986  -1.111  1.00  0.00     0.049 A 
HETATM   14  C12 UNL     1      -0.124  -0.576   0.755  1.00  0.00     0.018 C 
HETATM   15  C13 UNL     1       0.770   0.530   0.202  1.00  0.00     0.064 C 
HETATM   16  C14 UNL     1       1.851  -0.457  -0.339  1.00  0.00     0.021 C 
HETATM   17  C19 UNL     1       1.137  -1.700  -0.886  1.00  0.00     0.032 C 
HETATM   18  C20 UNL     1       0.560  -2.568   0.249  1.00  0.00     0.087 C 
HETATM   19  C21 UNL     1      -0.634  -3.328  -0.094  1.00  0.00     0.085 C 
HETATM   20  N5  UNL     1       0.551  -1.695   1.409  1.00  0.00    -0.387 N 
HETATM   21  H25 UNL     1       0.981  -2.010   2.351  1.00  0.00     0.159 HD
ENDROOT
BRANCH   1  22
HETATM   22  N1  UNL     1      -3.885   0.329   1.116  1.00  0.00    -0.383 N 
HETATM   23  H1  UNL     1      -3.385   0.338   2.059  1.00  0.00     0.157 HD
HETATM   24  H2  UNL     1      -4.370   1.165   0.750  1.00  0.00     0.157 HD
ENDBRANCH   1  22
BRANCH  12  25
HETATM   25  O1  UNL     1      -3.375   2.366  -2.925  1.00  0.00    -0.361 OA
HETATM   26  H7  UNL     1      -4.309   2.075  -3.176  1.00  0.00     0.217 HD
ENDBRANCH  12  25
BRANCH  16  27
HETATM   27  C15 UNL     1       2.766   0.180  -1.310  1.00  0.00     0.277 C 
BRANCH  27  28
HETATM   28  N4  UNL     1       3.416   1.286  -0.585  1.00  0.00     0.088 N 
HETATM   29  C16 UNL     1       4.279   0.730   0.429  1.00  0.00     0.274 C 
HETATM   30  C17 UNL     1       5.462   1.492  -0.101  1.00  0.00     0.060 C 
HETATM   31  C18 UNL     1       4.547   1.840  -1.246  1.00  0.00     0.274 C 
ENDBRANCH  27  28
ENDBRANCH  16  27
TORSDOF 4
