REMARK  3 active torsions:
REMARK  status: ('A' for Active; 'I' for Inactive)
REMARK    1  A    between atoms: O1_2  and  C2_3 
REMARK    2  A    between atoms: C6_9  and  N3_10 
REMARK    3  A    between atoms: N3_10  and  C7_11 
ROOT
HETATM    1  C2  UNL     1       2.511   2.293   1.166  1.00  0.00     0.164 C 
HETATM    2  C3  UNL     1       1.428   2.208   0.491  1.00  0.00     0.090 C 
HETATM    3  C4  UNL     1       0.207   2.135  -0.188  1.00  0.00     0.076 A 
HETATM    4  N1  UNL     1      -0.187   3.385  -0.454  1.00  0.00    -0.241 NA
HETATM    5  C5  UNL     1      -1.314   3.660  -1.123  1.00  0.00     0.236 A 
HETATM    6  N2  UNL     1      -2.096   2.674  -1.554  1.00  0.00    -0.224 NA
HETATM    7  C6  UNL     1      -1.732   1.403  -1.305  1.00  0.00     0.142 A 
HETATM    8  C13 UNL     1      -0.573   1.123  -0.617  1.00  0.00     0.041 A 
HETATM    9  C14 UNL     1      -0.263  -0.267  -0.415  1.00  0.00     0.045 C 
HETATM   10  C15 UNL     1       0.138  -1.496  -0.261  1.00  0.00     0.032 C 
HETATM   11  C16 UNL     1      -0.494  -2.818   0.109  1.00  0.00     0.224 C 
HETATM   12  O2  UNL     1      -0.350  -3.647  -0.968  1.00  0.00    -0.384 OA
HETATM   13  C17 UNL     1       0.914  -4.185  -1.025  1.00  0.00     0.187 C 
HETATM   14  C18 UNL     1       1.998  -3.126  -1.020  1.00  0.00     0.149 C 
HETATM   15  N4  UNL     1       1.533  -1.923  -0.388  1.00  0.00    -0.380 N 
HETATM   16  C19 UNL     1       2.389  -1.001   0.218  1.00  0.00     0.125 C 
HETATM   17  C20 UNL     1       3.786  -1.409   0.604  1.00  0.00     0.048 C 
HETATM   18  C21 UNL     1       4.295  -0.126   1.320  1.00  0.00     0.203 C 
HETATM   19  O3  UNL     1       4.192   0.956   0.451  1.00  0.00    -0.278 OA
HETATM   20  N5  UNL     1       3.915   2.123   1.085  1.00  0.00    -0.245 N 
HETATM   21  H24 UNL     1       4.442   2.923   1.524  1.00  0.00     0.196 HD
ENDROOT
BRANCH   7  22
HETATM   22  N3  UNL     1      -2.574   0.344  -1.764  1.00  0.00    -0.340 N 
HETATM   23  H6  UNL     1      -2.554  -0.240  -2.626  1.00  0.00     0.167 HD
BRANCH  22  24
HETATM   24  C7  UNL     1      -3.650   0.039  -0.854  1.00  0.00     0.035 A 
HETATM   25  C8  UNL     1      -3.784   0.742   0.352  1.00  0.00     0.029 A 
HETATM   26  C9  UNL     1      -4.805   0.489   1.268  1.00  0.00     0.004 A 
HETATM   27  C10 UNL     1      -5.688  -0.503   0.922  1.00  0.00     0.024 A 
HETATM   28  C11 UNL     1      -5.632  -1.234  -0.225  1.00  0.00     0.036 A 
HETATM   29 CL1  UNL     1      -6.799  -2.485  -0.592  1.00  0.00    -0.084 Cl
HETATM   30  C12 UNL     1      -4.602  -0.953  -1.114  1.00  0.00     0.053 A 
ENDBRANCH  22  24
ENDBRANCH   7  22
BRANCH   1  31
HETATM   31  O1  UNL     1       1.866   2.693   2.299  1.00  0.00    -0.340 OA
HETATM   32  C1  UNL     1       1.536   4.017   2.640  1.00  0.00     0.211 C 
ENDBRANCH   1  31
TORSDOF 3
