REMARK  6 active torsions:
REMARK  status: ('A' for Active; 'I' for Inactive)
REMARK    1  A    between atoms: N1_7  and  C7_8 
REMARK    2  A    between atoms: C7_8  and  C8_9 
REMARK    3  A    between atoms: C8_9  and  N2_10 
REMARK    4  A    between atoms: C13_16  and  N3_17 
REMARK    5  A    between atoms: C15_19  and  C16_20 
REMARK    6  A    between atoms: C17_22  and  N5_23 
ROOT
HETATM    1  N2  UNL     1       0.798  -0.184   0.610  1.00  0.00    -0.349 N 
HETATM    2  C9  UNL     1       0.856  -1.325   1.501  1.00  0.00     0.223 C 
HETATM    3  C10 UNL     1       0.228  -1.126   2.826  1.00  0.00     0.063 C 
HETATM    4  O1  UNL     1       2.329  -1.423   1.715  1.00  0.00    -0.330 OA
HETATM    5  C11 UNL     1       2.992  -0.543   0.765  1.00  0.00     0.059 C 
HETATM    6  C12 UNL     1       2.711  -1.177  -0.427  1.00  0.00     0.069 C 
HETATM    7  C13 UNL     1       1.654  -0.095  -0.479  1.00  0.00     0.249 C 
HETATM    8  C14 UNL     1       2.581   1.147  -0.553  1.00  0.00     0.085 C 
HETATM    9  C15 UNL     1       3.806   0.667   0.296  1.00  0.00     0.098 C 
ENDROOT
BRANCH   1  10
HETATM   10  C8  UNL     1      -0.437   0.498   0.609  1.00  0.00     0.142 C 
BRANCH  10  11
HETATM   11  C7  UNL     1      -1.493  -0.395  -0.007  1.00  0.00     0.142 C 
BRANCH  11  12
HETATM   12  N1  UNL     1      -2.807   0.219  -0.034  1.00  0.00    -0.383 N 
HETATM   13  C2  UNL     1      -3.504   0.635  -1.202  1.00  0.00    -0.003 C 
HETATM   14  C1  UNL     1      -2.817   0.783  -2.317  1.00  0.00     0.038 C 
HETATM   15  C3  UNL     1      -4.955   0.859  -1.036  1.00  0.00     0.056 C 
HETATM   16  C4  UNL     1      -5.618  -0.132  -0.106  1.00  0.00     0.007 C 
HETATM   17  C5  UNL     1      -4.844  -0.328   1.172  1.00  0.00     0.020 C 
HETATM   18  C6  UNL     1      -3.557   0.470   1.184  1.00  0.00     0.122 C 
ENDBRANCH  11  12
ENDBRANCH  10  11
ENDBRANCH   1  10
BRANCH   7  19
HETATM   19  N3  UNL     1       0.949  -0.231  -1.745  1.00  0.00     0.111 N 
HETATM   20  H20 UNL     1       1.474   0.258  -2.491  1.00  0.00     0.316 HD
HETATM   21  H21 UNL     1       0.964  -1.253  -1.978  1.00  0.00     0.316 HD
ENDBRANCH   7  19
BRANCH   9  22
HETATM   22  C16 UNL     1       4.964   0.335  -0.481  1.00  0.00     0.059 A 
HETATM   23  N4  UNL     1       5.581   0.427  -1.591  1.00  0.00    -0.267 NA
HETATM   24  C17 UNL     1       6.264  -0.317  -0.632  1.00  0.00     0.242 A 
BRANCH  24  25
HETATM   25  N5  UNL     1       7.363   0.325   0.100  1.00  0.00    -0.207 NA
HETATM   26 CL1  UNL     1       7.523   1.933  -0.543  1.00  0.00    -0.022 Cl
HETATM   27  H26 UNL     1       7.007   0.398   1.096  1.00  0.00     0.143 HD
ENDBRANCH  24  25
ENDBRANCH   9  22
TORSDOF 6
