REMARK  7 active torsions:
REMARK  status: ('A' for Active; 'I' for Inactive)
REMARK    1  A    between atoms: C4_5  and  N1_6 
REMARK    2  A    between atoms: N1_6  and  C5_7 
REMARK    3  A    between atoms: C10_14  and  O1_15 
REMARK    4  A    between atoms: O1_15  and  C11_16 
REMARK    5  A    between atoms: C11_16  and  C12_17 
REMARK    6  A    between atoms: C12_17  and  C13_18 
REMARK    7  A    between atoms: C13_18  and  N4_19 
ROOT
HETATM    1  C5  UNL     1       3.717  -0.475   0.082  1.00  0.00     0.142 A 
HETATM    2  N2  UNL     1       5.022  -0.688   0.035  1.00  0.00    -0.224 NA
HETATM    3  C6  UNL     1       5.554  -1.909   0.152  1.00  0.00     0.236 A 
HETATM    4  N3  UNL     1       4.743  -2.960   0.323  1.00  0.00    -0.241 NA
HETATM    5  C7  UNL     1       3.423  -2.855   0.384  1.00  0.00     0.074 A 
HETATM    6  C8  UNL     1       2.918  -1.580   0.259  1.00  0.00     0.041 A 
HETATM    7  C9  UNL     1       1.576  -1.025   0.256  1.00  0.00     0.052 C 
HETATM    8  C10 UNL     1       0.314  -1.500   0.234  1.00  0.00     0.071 C 
HETATM    9  C18 UNL     1      -0.271  -2.866   0.204  1.00  0.00     0.239 C 
HETATM   10  O3  UNL     1       0.463  -3.785   0.988  1.00  0.00    -0.357 OA
HETATM   11  C19 UNL     1       1.570  -4.622   0.836  1.00  0.00     0.137 C 
HETATM   12  C20 UNL     1       2.804  -4.159   0.578  1.00  0.00     0.057 C 
ENDROOT
BRANCH   1  13
HETATM   13  N1  UNL     1       3.264   0.864  -0.049  1.00  0.00    -0.340 N 
HETATM   14  H3  UNL     1       2.462   1.515  -0.123  1.00  0.00     0.167 HD
BRANCH  13  15
HETATM   15  C4  UNL     1       4.271   1.882  -0.119  1.00  0.00     0.035 A 
HETATM   16  C3  UNL     1       4.348   3.011  -0.937  1.00  0.00     0.032 A 
HETATM   17  C2  UNL     1       5.376   3.923  -0.889  1.00  0.00     0.046 A 
HETATM   18  C1  UNL     1       6.404   3.737   0.008  1.00  0.00     0.138 A 
HETATM   19  F1  UNL     1       7.366   4.687  -0.022  1.00  0.00    -0.204 F 
HETATM   20  C22 UNL     1       6.385   2.625   0.855  1.00  0.00     0.074 A 
HETATM   21  C21 UNL     1       5.328   1.715   0.785  1.00  0.00     0.056 A 
HETATM   22 CL1  UNL     1       7.763   2.548   1.923  1.00  0.00    -0.081 Cl
ENDBRANCH  13  15
ENDBRANCH   1  13
BRANCH   8  23
HETATM   23  O1  UNL     1      -0.685  -0.718   0.238  1.00  0.00    -0.353 OA
BRANCH  23  24
HETATM   24  C11 UNL     1      -1.688   0.118   0.318  1.00  0.00     0.177 C 
BRANCH  24  25
HETATM   25  C12 UNL     1      -2.739  -0.024  -0.799  1.00  0.00     0.057 C 
BRANCH  25  26
HETATM   26  C13 UNL     1      -3.871   0.943  -0.648  1.00  0.00     0.274 C 
BRANCH  26  27
HETATM   27  N4  UNL     1      -4.599   0.796   0.582  1.00  0.00     0.092 N 
HETATM   28  C14 UNL     1      -5.345  -0.440   0.662  1.00  0.00     0.298 C 
HETATM   29  C15 UNL     1      -6.283  -0.604  -0.518  1.00  0.00     0.198 C 
HETATM   30  O2  UNL     1      -7.041   0.549  -0.705  1.00  0.00    -0.388 OA
HETATM   31  C16 UNL     1      -6.958   1.435   0.350  1.00  0.00     0.198 C 
HETATM   32  C17 UNL     1      -5.555   1.884   0.671  1.00  0.00     0.298 C 
ENDBRANCH  26  27
ENDBRANCH  25  26
ENDBRANCH  24  25
ENDBRANCH  23  24
ENDBRANCH   8  23
TORSDOF 7
