REMARK  9 active torsions:
REMARK  status: ('A' for Active; 'I' for Inactive)
REMARK    1  A    between atoms: C2_2  and  C3_4 
REMARK    2  A    between atoms: C3_4  and  C4_5 
REMARK    3  A    between atoms: C4_5  and  N1_6 
REMARK    4  A    between atoms: N1_6  and  C5_7 
REMARK    5  A    between atoms: C8_10  and  O1_11 
REMARK    6  A    between atoms: O1_11  and  C9_12 
REMARK    7  A    between atoms: C9_12  and  C10_13 
REMARK    8  A    between atoms: C10_13  and  C11_14 
REMARK    9  A    between atoms: C11_14  and  N2_15 
ROOT
HETATM    1  C5  UNL     1      -3.988   0.402  -0.483  1.00  0.00     0.140 A 
HETATM    2  C6  UNL     1      -2.890   1.124  -0.222  1.00  0.00     0.024 A 
HETATM    3  C7  UNL     1      -1.731   0.278   0.014  1.00  0.00     0.048 A 
HETATM    4  C8  UNL     1      -0.582   0.925   0.283  1.00  0.00     0.050 A 
HETATM    5  C16 UNL     1      -0.397   2.402   0.356  1.00  0.00     0.092 A 
HETATM    6  C17 UNL     1      -1.668   3.117   0.093  1.00  0.00    -0.007 A 
HETATM    7  C18 UNL     1      -2.852   2.579  -0.179  1.00  0.00    -0.008 A 
HETATM    8  C19 UNL     1      -3.921   3.546  -0.392  1.00  0.00     0.130 A 
HETATM    9  N3  UNL     1      -5.164   3.317  -0.669  1.00  0.00    -0.253 NA
HETATM   10  C20 UNL     1      -5.800   2.046  -0.839  1.00  0.00     0.234 A 
HETATM   11  N4  UNL     1      -5.324   0.838  -0.764  1.00  0.00    -0.224 NA
ENDROOT
BRANCH   4  12
HETATM   12  O1  UNL     1       0.632   0.358   0.540  1.00  0.00    -0.355 OA
BRANCH  12  13
HETATM   13  C9  UNL     1       1.616  -0.120  -0.303  1.00  0.00     0.177 C 
BRANCH  13  14
HETATM   14  C10 UNL     1       2.829  -0.415   0.584  1.00  0.00     0.057 C 
BRANCH  14  15
HETATM   15  C11 UNL     1       3.933  -0.967  -0.238  1.00  0.00     0.274 C 
BRANCH  15  16
HETATM   16  N2  UNL     1       5.083  -1.229   0.619  1.00  0.00     0.092 N 
HETATM   17  C12 UNL     1       6.082  -2.034  -0.064  1.00  0.00     0.298 C 
HETATM   18  C13 UNL     1       7.303  -1.197  -0.314  1.00  0.00     0.198 C 
HETATM   19  O2  UNL     1       6.869  -0.083  -1.043  1.00  0.00    -0.388 OA
HETATM   20  C14 UNL     1       6.227   0.760  -0.145  1.00  0.00     0.198 C 
HETATM   21  C15 UNL     1       5.666   0.029   1.044  1.00  0.00     0.298 C 
ENDBRANCH  15  16
ENDBRANCH  14  15
ENDBRANCH  13  14
ENDBRANCH  12  13
ENDBRANCH   4  12
BRANCH   1  22
HETATM   22  N1  UNL     1      -3.821  -1.021  -0.485  1.00  0.00    -0.343 N 
HETATM   23  H5  UNL     1      -3.372  -1.601  -1.224  1.00  0.00     0.167 HD
BRANCH  22  24
HETATM   24  C4  UNL     1      -4.296  -1.789   0.588  1.00  0.00     0.147 C 
BRANCH  24  25
HETATM   25  C3  UNL     1      -5.608  -1.887   0.740  1.00  0.00    -0.092 C 
BRANCH  25  26
HETATM   26  C2  UNL     1      -6.933  -1.806   0.688  1.00  0.00     0.054 C 
HETATM   27  C1  UNL     1      -7.571  -2.857  -0.068  1.00  0.00     0.071 C 
HETATM   28 CL1  UNL     1      -7.604  -0.474   1.525  1.00  0.00    -0.080 Cl
ENDBRANCH  25  26
ENDBRANCH  24  25
ENDBRANCH  22  24
ENDBRANCH   1  22
TORSDOF 9
