REMARK  3 active torsions:
REMARK  status: ('A' for Active; 'I' for Inactive)
REMARK    1  A    between atoms: C2_3  and  N2_4 
REMARK    2  A    between atoms: N2_4  and  C3_5 
REMARK    3  A    between atoms: C3_5  and  C4_6 
ROOT
HETATM    1  C1  UNL     1      -1.626  -2.570  -0.038  1.00  0.00     0.145 A 
HETATM    2  N1  UNL     1      -0.481  -2.121   0.398  1.00  0.00    -0.242 NA
HETATM    3  C2  UNL     1      -0.108  -0.762   0.219  1.00  0.00     0.138 A 
HETATM    4  C10 UNL     1      -0.898   0.129  -0.390  1.00  0.00     0.138 A 
HETATM    5  N3  UNL     1      -2.156  -0.356  -0.854  1.00  0.00    -0.355 N 
HETATM    6  C11 UNL     1      -2.952   0.718  -1.439  1.00  0.00     0.134 C 
HETATM    7  C12 UNL     1      -3.980   1.332  -0.563  1.00  0.00     0.035 C 
HETATM    8  C13 UNL     1      -5.326   0.647  -0.581  1.00  0.00     0.012 C 
HETATM    9  C14 UNL     1      -4.547  -0.404  -0.202  1.00  0.00     0.047 C 
HETATM   10  C15 UNL     1      -4.039   0.631   0.803  1.00  0.00     0.074 C 
HETATM   11  O1  UNL     1      -3.897  -1.685  -0.070  1.00  0.00    -0.326 OA
HETATM   12  C16 UNL     1      -2.610  -1.771  -0.730  1.00  0.00     0.271 A 
ENDROOT
BRANCH   3  13
HETATM   13  N2  UNL     1       1.136  -0.220   0.668  1.00  0.00    -0.369 N 
HETATM   14  H2  UNL     1       1.083   0.395   1.533  1.00  0.00     0.161 HD
BRANCH  13  15
HETATM   15  C3  UNL     1       2.221  -0.650  -0.195  1.00  0.00     0.160 C 
BRANCH  15  16
HETATM   16  C4  UNL     1       3.464  -0.042   0.346  1.00  0.00    -0.041 A 
HETATM   17  C5  UNL     1       4.209  -0.719   1.287  1.00  0.00     0.009 A 
HETATM   18  C6  UNL     1       5.370  -0.138   1.784  1.00  0.00     0.001 A 
HETATM   19  C7  UNL     1       5.825   1.110   1.373  1.00  0.00     0.000 A 
HETATM   20  C8  UNL     1       5.065   1.792   0.418  1.00  0.00     0.001 A 
HETATM   21  C9  UNL     1       3.907   1.214  -0.078  1.00  0.00     0.009 A 
ENDBRANCH  15  16
ENDBRANCH  13  15
ENDBRANCH   3  13
TORSDOF 3
