REMARK  6 active torsions:
REMARK  status: ('A' for Active; 'I' for Inactive)
REMARK    1  A    between atoms: C10_12  and  O1_13 
REMARK    2  A    between atoms: C11_14  and  O2_15 
REMARK    3  A    between atoms: O2_15  and  C12_16 
REMARK    4  A    between atoms: C12_16  and  C13_17 
REMARK    5  A    between atoms: C13_17  and  C14_18 
REMARK    6  A    between atoms: C14_18  and  N3_19 
ROOT
HETATM    1  C1  UNL     1      -3.914   3.198   0.857  1.00  0.00     0.043 C 
HETATM    2  C2  UNL     1      -4.341   1.768   0.651  1.00  0.00    -0.080 C 
HETATM    3  C3  UNL     1      -3.681   0.662   0.313  1.00  0.00     0.014 C 
HETATM    4  C4  UNL     1      -4.584  -0.495   0.248  1.00  0.00     0.003 C 
HETATM    5  C5  UNL     1      -4.400  -1.611  -0.453  1.00  0.00     0.067 A 
HETATM    6  N1  UNL     1      -5.477  -2.537  -0.291  1.00  0.00    -0.244 NA
HETATM    7  C6  UNL     1      -5.481  -3.671  -0.900  1.00  0.00     0.232 A 
HETATM    8  N2  UNL     1      -4.395  -4.044  -1.766  1.00  0.00    -0.256 NA
HETATM    9  C7  UNL     1      -3.396  -3.210  -1.926  1.00  0.00     0.116 A 
HETATM   10  C8  UNL     1      -3.217  -1.856  -1.302  1.00  0.00     0.082 A 
HETATM   11  C9  UNL     1      -1.982  -1.994  -0.447  1.00  0.00     0.039 A 
HETATM   12  C10 UNL     1      -0.758  -1.457  -0.366  1.00  0.00     0.097 A 
HETATM   13  C11 UNL     1      -0.395  -0.425  -1.329  1.00  0.00     0.102 A 
HETATM   14  C19 UNL     1      -1.178   0.042  -2.293  1.00  0.00     0.045 A 
HETATM   15  P1  UNL     1      -2.906  -0.563  -2.571  1.00  0.00    -0.078 P 
HETATM   16  C20 UNL     1      -5.700  -0.074   1.143  1.00  0.00     0.209 C 
HETATM   17  F1  UNL     1      -5.337  -0.205   2.486  1.00  0.00    -0.244 F 
HETATM   18  C21 UNL     1      -5.785   1.406   0.841  1.00  0.00     0.076 C 
HETATM   19  H24 UNL     1      -3.096  -1.034  -3.928  1.00  0.00     0.063 HD
ENDROOT
BRANCH  12  20
HETATM   20  O1  UNL     1       0.134  -1.876   0.612  1.00  0.00    -0.358 OA
HETATM   21  H8  UNL     1       0.455  -2.810   0.738  1.00  0.00     0.217 HD
ENDBRANCH  12  20
BRANCH  13  22
HETATM   22  O2  UNL     1       0.853   0.183  -1.318  1.00  0.00    -0.348 OA
BRANCH  22  23
HETATM   23  C12 UNL     1       1.954  -0.265  -0.599  1.00  0.00     0.177 C 
BRANCH  23  24
HETATM   24  C13 UNL     1       3.209   0.549  -0.853  1.00  0.00     0.057 C 
BRANCH  24  25
HETATM   25  C14 UNL     1       4.322  -0.040  -0.017  1.00  0.00     0.274 C 
BRANCH  25  26
HETATM   26  N3  UNL     1       5.563   0.639  -0.182  1.00  0.00     0.092 N 
HETATM   27  C15 UNL     1       6.621   0.041   0.619  1.00  0.00     0.298 C 
HETATM   28  C16 UNL     1       6.470   0.315   2.081  1.00  0.00     0.198 C 
HETATM   29  O3  UNL     1       5.445   1.209   2.373  1.00  0.00    -0.388 OA
HETATM   30  C17 UNL     1       5.516   2.351   1.589  1.00  0.00     0.198 C 
HETATM   31  C18 UNL     1       5.553   2.040   0.101  1.00  0.00     0.298 C 
ENDBRANCH  25  26
ENDBRANCH  24  25
ENDBRANCH  23  24
ENDBRANCH  22  23
ENDBRANCH  13  22
TORSDOF 6
