REMARK  5 active torsions:
REMARK  status: ('A' for Active; 'I' for Inactive)
REMARK    1  A    between atoms: C2_2  and  C22_28 
REMARK    2  A    between atoms: C3_3  and  C4_4 
REMARK    3  A    between atoms: C4_4  and  N1_5 
REMARK    4  A    between atoms: N1_5  and  C5_6 
REMARK    5  A    between atoms: C16_21  and  N4_22 
ROOT
HETATM    1  C5  UNL     1       2.636   2.353  -0.507  1.00  0.00     0.232 C 
HETATM    2  N2  UNL     1       1.928   3.271   0.443  1.00  0.00    -0.275 NA
HETATM    3  C6  UNL     1       0.930   2.891   1.230  1.00  0.00     0.095 C 
HETATM    4  C7  UNL     1       0.214   1.761   0.839  1.00  0.00     0.055 C 
HETATM    5  C8  UNL     1      -0.655   0.742   1.361  1.00  0.00     0.019 C 
HETATM    6  C9  UNL     1      -1.558   0.519   0.422  1.00  0.00     0.078 C 
HETATM    7  O1  UNL     1      -1.874   1.095  -0.885  1.00  0.00    -0.264 OA
HETATM    8  C10 UNL     1      -0.777   0.479  -1.695  1.00  0.00     0.371 C 
HETATM    9  O2  UNL     1      -1.305   1.140  -2.395  1.00  0.00    -0.238 OA
HETATM   10  N3  UNL     1       0.289  -0.498  -1.360  1.00  0.00    -0.303 N 
HETATM   11  C11 UNL     1       1.295   0.400  -1.739  1.00  0.00     0.103 C 
HETATM   12  C12 UNL     1       1.804   1.293  -0.887  1.00  0.00    -0.020 C 
HETATM   13  C13 UNL     1       1.477   0.866   0.441  1.00  0.00     0.053 C 
HETATM   14  C14 UNL     1      -0.460  -1.544  -0.927  1.00  0.00     0.136 C 
HETATM   15  C15 UNL     1      -1.934  -1.484  -0.768  1.00  0.00     0.052 C 
HETATM   16  C16 UNL     1      -2.551  -0.585   0.379  1.00  0.00     0.138 C 
ENDROOT
BRANCH   1  17
HETATM   17  N1  UNL     1       3.843   2.003   0.135  1.00  0.00    -0.394 N 
HETATM   18  H7  UNL     1       3.884   2.113   1.144  1.00  0.00     0.155 HD
BRANCH  17  19
HETATM   19  C4  UNL     1       4.896   1.391  -0.550  1.00  0.00     0.144 C 
BRANCH  19  20
HETATM   20  C3  UNL     1       4.716   0.018  -1.002  1.00  0.00    -0.003 C 
HETATM   21  C2  UNL     1       5.499  -1.001  -0.586  1.00  0.00    -0.058 C 
HETATM   22  C1  UNL     1       6.666  -1.078   0.355  1.00  0.00     0.045 C 
BRANCH  21  23
HETATM   23  C22 UNL     1       5.321  -2.424  -1.058  1.00  0.00     0.256 C 
HETATM   24  F1  UNL     1       5.060  -3.213   0.035  1.00  0.00    -0.251 F 
ENDBRANCH  21  23
ENDBRANCH  19  20
ENDBRANCH  17  19
ENDBRANCH   1  17
BRANCH  16  25
HETATM   25  N4  UNL     1      -3.801  -0.169   0.102  1.00  0.00    -0.402 N 
HETATM   26  C17 UNL     1      -4.433   0.794   0.931  1.00  0.00     0.117 C 
HETATM   27  C18 UNL     1      -5.317   0.059   1.899  1.00  0.00     0.019 C 
HETATM   28  C19 UNL     1      -6.267  -0.848   1.226  1.00  0.00     0.003 C 
HETATM   29  C20 UNL     1      -6.009  -1.219  -0.187  1.00  0.00     0.019 C 
HETATM   30  C21 UNL     1      -4.708  -0.737  -0.775  1.00  0.00     0.117 C 
ENDBRANCH  16  25
TORSDOF 5
