REMARK  4 active torsions:
REMARK  status: ('A' for Active; 'I' for Inactive)
REMARK    1  A    between atoms: N4_19  and  C15_20 
REMARK    2  A    between atoms: C15_20  and  C16_21 
REMARK    3  A    between atoms: C16_21  and  C17_22 
REMARK    4  A    between atoms: C17_22  and  N5_23 
ROOT
HETATM    1  C1  UNL     1      -3.494   0.737   4.068  1.00  0.00     0.327 C 
HETATM    2  C2  UNL     1      -3.345   1.171   2.825  1.00  0.00     0.070 A 
HETATM    3  F1  UNL     1      -2.296   0.980   3.690  1.00  0.00    -0.456 F 
HETATM    4  C3  UNL     1      -4.088   1.524   1.601  1.00  0.00     0.018 A 
HETATM    5  C4  UNL     1      -4.318   1.945   0.375  1.00  0.00     0.014 A 
HETATM    6  C5  UNL     1      -5.502   1.535   0.974  1.00  0.00     0.044 A 
HETATM    7  C6  UNL     1      -6.743   1.324   1.028  1.00  0.00     0.088 C 
HETATM    8  N1  UNL     1      -6.683   0.816   2.347  1.00  0.00    -0.292 N 
HETATM    9  N2  UNL     1      -6.349  -0.566   2.277  1.00  0.00    -0.169 NA
HETATM   10  C7  UNL     1      -5.204  -1.056   2.097  1.00  0.00     0.250 C 
HETATM   11  N3  UNL     1      -3.905  -1.323   1.899  1.00  0.00    -0.261 NA
HETATM   12  C8  UNL     1      -2.770  -0.830   1.660  1.00  0.00     0.110 A 
HETATM   13  C9  UNL     1      -2.339  -2.208   1.710  1.00  0.00     0.051 A 
HETATM   14  C10 UNL     1      -1.029  -2.706   1.480  1.00  0.00     0.095 A 
HETATM   15  C11 UNL     1      -0.131  -1.706   1.180  1.00  0.00     0.070 A 
HETATM   16  C12 UNL     1      -0.535  -0.413   1.135  1.00  0.00     0.039 A 
HETATM   17  C13 UNL     1      -1.706   0.187   1.327  1.00  0.00    -0.033 A 
HETATM   18  C14 UNL     1      -2.763   0.906   1.275  1.00  0.00     0.091 A 
HETATM   19  N4  UNL     1       1.238  -1.772   0.859  1.00  0.00    -0.314 N 
HETATM   20  C23 UNL     1       1.764  -3.105   0.839  1.00  0.00     0.248 C 
HETATM   21  O1  UNL     1       2.979  -3.349   1.052  1.00  0.00    -0.271 OA
HETATM   22  C24 UNL     1       0.718  -4.155   0.538  1.00  0.00     0.279 C 
HETATM   23  O2  UNL     1      -0.356  -3.903   1.457  1.00  0.00    -0.340 OA
HETATM   24  H6  UNL     1      -6.704   0.680   3.369  1.00  0.00     0.188 HD
ENDROOT
BRANCH  19  25
HETATM   25  C15 UNL     1       2.129  -0.664   0.577  1.00  0.00     0.134 C 
BRANCH  25  26
HETATM   26  C16 UNL     1       2.145  -0.358  -0.912  1.00  0.00     0.050 C 
BRANCH  26  27
HETATM   27  C17 UNL     1       3.054   0.795  -1.250  1.00  0.00     0.274 C 
BRANCH  27  28
HETATM   28  N5  UNL     1       3.088   1.098  -2.663  1.00  0.00     0.088 N 
HETATM   29  C18 UNL     1       3.721   0.098  -3.476  1.00  0.00     0.272 C 
HETATM   30  C19 UNL     1       5.230   0.171  -3.404  1.00  0.00     0.030 C 
HETATM   31  C20 UNL     1       5.742   1.566  -3.648  1.00  0.00     0.003 C 
HETATM   32  C21 UNL     1       5.062   2.494  -2.669  1.00  0.00     0.030 C 
HETATM   33  C22 UNL     1       3.577   2.428  -2.930  1.00  0.00     0.272 C 
ENDBRANCH  27  28
ENDBRANCH  26  27
ENDBRANCH  25  26
ENDBRANCH  19  25
TORSDOF 4
