REMARK  3 active torsions:
REMARK  status: ('A' for Active; 'I' for Inactive)
REMARK    1  A    between atoms: C4_5  and  N1_6 
REMARK    2  A    between atoms: N1_6  and  C5_7 
REMARK    3  A    between atoms: C5_7  and  N2_8 
ROOT
HETATM    1  N2  UNL     1       2.594   0.657  -0.958  1.00  0.00    -0.274 N 
HETATM    2  C6  UNL     1       1.314   0.540  -0.703  1.00  0.00     0.098 A 
HETATM    3  C7  UNL     1       0.730   1.814  -0.292  1.00  0.00     0.077 C 
HETATM    4  C8  UNL     1      -0.151   1.958   0.858  1.00  0.00     0.034 C 
HETATM    5  C9  UNL     1      -1.451   1.271   0.874  1.00  0.00    -0.030 C 
HETATM    6  C10 UNL     1      -2.761   1.608   0.900  1.00  0.00    -0.031 C 
HETATM    7  C11 UNL     1      -3.708   2.712   0.924  1.00  0.00     0.028 C 
HETATM    8  C12 UNL     1      -4.666   2.628  -0.269  1.00  0.00     0.034 C 
HETATM    9  C13 UNL     1      -5.495   1.399  -0.110  1.00  0.00     0.270 C 
HETATM   10  N3  UNL     1      -4.769   0.209  -0.396  1.00  0.00     0.083 N 
HETATM   11  C14 UNL     1      -5.294  -0.951   0.244  1.00  0.00     0.271 C 
HETATM   12  C15 UNL     1      -4.819  -2.286  -0.208  1.00  0.00     0.060 C 
HETATM   13  C16 UNL     1      -3.387  -2.487  -0.417  1.00  0.00     0.271 C 
HETATM   14  N4  UNL     1      -2.397  -2.211   0.574  1.00  0.00     0.085 N 
HETATM   15  C17 UNL     1      -1.185  -2.960   0.150  1.00  0.00     0.296 C 
HETATM   16  C18 UNL     1       0.043  -2.750   0.876  1.00  0.00     0.204 C 
HETATM   17  O1  UNL     1       0.613  -1.447   0.785  1.00  0.00    -0.359 OA
HETATM   18  C19 UNL     1       2.028  -1.426   0.986  1.00  0.00     0.162 C 
HETATM   19  C20 UNL     1       1.978  -1.657  -0.325  1.00  0.00     0.085 C 
HETATM   20  N5  UNL     1       1.877  -0.695  -1.100  1.00  0.00    -0.140 NA
HETATM   21  H18 UNL     1      -4.611   0.013  -1.397  1.00  0.00     0.315 HD
HETATM   22  H25 UNL     1      -2.679  -2.530   1.490  1.00  0.00     0.315 HD
ENDROOT
BRANCH   1  23
HETATM   23  C5  UNL     1       3.405   1.800  -0.885  1.00  0.00     0.267 C 
BRANCH  23  24
HETATM   24  N1  UNL     1       4.768   1.649  -1.384  1.00  0.00    -0.372 N 
HETATM   25  H3  UNL     1       5.072   2.219  -2.209  1.00  0.00     0.161 HD
BRANCH  24  26
HETATM   26  C4  UNL     1       5.724   0.777  -0.811  1.00  0.00     0.031 A 
HETATM   27  C3  UNL     1       5.468  -0.050   0.279  1.00  0.00     0.032 A 
HETATM   28  C2  UNL     1       6.351  -0.904   0.895  1.00  0.00     0.046 A 
HETATM   29  C1  UNL     1       7.608  -0.899   0.336  1.00  0.00     0.138 A 
HETATM   30  F1  UNL     1       8.543  -1.715   0.905  1.00  0.00    -0.204 F 
HETATM   31  C22 UNL     1       7.974  -0.124  -0.739  1.00  0.00     0.074 A 
HETATM   32  C21 UNL     1       7.004   0.713  -1.299  1.00  0.00     0.056 A 
HETATM   33 CL1  UNL     1       9.587  -0.191  -1.384  1.00  0.00    -0.081 Cl
ENDBRANCH  24  26
ENDBRANCH  23  24
ENDBRANCH   1  23
TORSDOF 3
