REMARK  6 active torsions:
REMARK  status: ('A' for Active; 'I' for Inactive)
REMARK    1  A    between atoms: O1_2  and  C2_3 
REMARK    2  A    between atoms: C7_8  and  C8_9 
REMARK    3  A    between atoms: C8_9  and  N1_10 
REMARK    4  A    between atoms: N1_10  and  C9_11 
REMARK    5  A    between atoms: C9_11  and  C10_12 
REMARK    6  A    between atoms: N2_18  and  C15_19 
ROOT
HETATM    1  C10 UNL     1       0.162   1.152  -0.543  1.00  0.00    -0.048 A 
HETATM    2  C11 UNL     1       0.990   0.589   0.320  1.00  0.00     0.019 A 
HETATM    3  C12 UNL     1       2.303   0.136  -0.115  1.00  0.00    -0.006 A 
HETATM    4  C13 UNL     1       2.925  -0.385   0.927  1.00  0.00     0.157 C 
HETATM    5  O2  UNL     1       4.202  -0.929   0.922  1.00  0.00    -0.290 OA
HETATM    6  C14 UNL     1       5.288  -0.641   0.071  1.00  0.00     0.242 C 
HETATM    7  N2  UNL     1       6.535  -0.474   0.278  1.00  0.00    -0.236 NA
HETATM    8  N3  UNL     1       5.002  -0.493  -1.328  1.00  0.00    -0.350 N 
HETATM    9  C16 UNL     1       3.930  -0.051  -2.190  1.00  0.00     0.162 C 
HETATM   10  C17 UNL     1       2.694   0.308  -1.507  1.00  0.00    -0.032 A 
HETATM   11  C18 UNL     1       1.846   0.875  -2.349  1.00  0.00    -0.013 A 
HETATM   12  C19 UNL     1       0.506   1.354  -1.972  1.00  0.00     0.063 A 
HETATM   13  H17 UNL     1       5.757  -0.769  -2.022  1.00  0.00     0.163 HD
ENDROOT
BRANCH   1  14
HETATM   14  C9  UNL     1      -1.216   1.703  -0.393  1.00  0.00     0.304 C 
BRANCH  14  15
HETATM   15  N1  UNL     1      -2.164   1.008  -1.254  1.00  0.00     0.091 N 
HETATM   16  H10 UNL     1      -3.090   1.494  -1.054  1.00  0.00     0.316 HD
BRANCH  15  17
HETATM   17  C8  UNL     1      -2.364  -0.353  -0.805  1.00  0.00     0.311 C 
BRANCH  17  18
HETATM   18  C7  UNL     1      -2.956  -0.427   0.548  1.00  0.00     0.003 A 
HETATM   19  C2  UNL     1      -4.329  -0.148   0.544  1.00  0.00     0.076 A 
HETATM   20  C3  UNL     1      -5.037  -0.176   1.750  1.00  0.00     0.037 A 
HETATM   21  C4  UNL     1      -4.415  -0.472   2.956  1.00  0.00     0.003 A 
HETATM   22  C5  UNL     1      -3.056  -0.744   2.935  1.00  0.00     0.001 A 
HETATM   23  C6  UNL     1      -2.349  -0.720   1.751  1.00  0.00     0.012 A 
BRANCH  19  24
HETATM   24  O1  UNL     1      -5.051   0.160  -0.599  1.00  0.00    -0.355 OA
HETATM   25  C1  UNL     1      -6.426   0.434  -0.576  1.00  0.00     0.210 C 
ENDBRANCH  19  24
ENDBRANCH  17  18
ENDBRANCH  15  17
ENDBRANCH  14  15
ENDBRANCH   1  14
BRANCH   7  26
HETATM   26  C15 UNL     1       7.081  -0.574   1.616  1.00  0.00     0.267 C 
HETATM   27 CL1  UNL     1       8.854  -0.790   1.541  1.00  0.00    -0.107 Cl
ENDBRANCH   7  26
TORSDOF 6
