REMARK  3 active torsions:
REMARK  status: ('A' for Active; 'I' for Inactive)
REMARK    1  A    between atoms: N1_2  and  C2_3 
REMARK    2  A    between atoms: C2_3  and  N2_4 
REMARK    3  A    between atoms: C10_13  and  O1_14 
ROOT
HETATM    1  N2  UNL     1       2.642  -0.063  -0.068  1.00  0.00     0.144 N 
HETATM    2  C3  UNL     1       2.285  -1.177   0.802  1.00  0.00     0.314 C 
HETATM    3  C4  UNL     1       0.795  -1.272   0.913  1.00  0.00    -0.032 C 
HETATM    4  C5  UNL     1       0.049  -1.796  -0.036  1.00  0.00    -0.002 C 
HETATM    5  C6  UNL     1      -0.826  -2.954  -0.101  1.00  0.00     0.123 C 
HETATM    6  N3  UNL     1      -1.488  -3.059  -1.258  1.00  0.00    -0.295 NA
HETATM    7  C7  UNL     1      -0.811  -2.302  -2.393  1.00  0.00     0.206 C 
HETATM    8  C8  UNL     1      -0.318  -1.108  -1.661  1.00  0.00     0.041 C 
HETATM    9  C9  UNL     1       0.496  -0.637  -0.806  1.00  0.00     0.036 C 
HETATM   10  C10 UNL     1       1.399   0.448  -0.716  1.00  0.00     0.396 C 
HETATM   11  N4  UNL     1      -1.043   0.061  -1.912  1.00  0.00    -0.357 N 
HETATM   12  C11 UNL     1      -2.022   0.516  -0.992  1.00  0.00     0.048 A 
HETATM   13  C12 UNL     1      -3.149   0.894  -1.690  1.00  0.00     0.033 A 
HETATM   14  C13 UNL     1      -4.287   1.390  -1.084  1.00  0.00     0.046 A 
HETATM   15  C14 UNL     1      -4.375   1.545   0.289  1.00  0.00     0.139 A 
HETATM   16  F1  UNL     1      -5.432   2.018   0.983  1.00  0.00    -0.204 F 
HETATM   17  C15 UNL     1      -3.198   1.144   0.944  1.00  0.00     0.088 A 
HETATM   18 CL1  UNL     1      -3.219   1.339   2.713  1.00  0.00    -0.080 Cl
HETATM   19  C16 UNL     1      -2.050   0.644   0.360  1.00  0.00     0.061 A 
HETATM   20  C17 UNL     1      -1.022   0.314   1.329  1.00  0.00     0.167 C 
HETATM   21  O2  UNL     1      -0.680   1.434   1.857  1.00  0.00    -0.292 OA
HETATM   22  C18 UNL     1      -0.287  -0.889   1.860  1.00  0.00     0.120 C 
HETATM   23  H12 UNL     1      -0.773   0.501  -2.811  1.00  0.00     0.166 HD
ENDROOT
BRANCH   1  24
HETATM   24  C2  UNL     1       3.066   1.018   0.801  1.00  0.00     0.423 C 
BRANCH  24  25
HETATM   25  N1  UNL     1       4.183   0.679   1.608  1.00  0.00    -0.283 NA
HETATM   26  C1  UNL     1       5.020   1.595   1.961  1.00  0.00     0.144 C 
ENDBRANCH  24  25
ENDBRANCH   1  24
BRANCH  10  27
HETATM   27  O1  UNL     1       1.847   0.773  -2.030  1.00  0.00    -0.364 OA
HETATM   28  H11 UNL     1       1.760   1.741  -2.204  1.00  0.00     0.212 HD
ENDBRANCH  10  27
TORSDOF 3
