REMARK  4 active torsions:
REMARK  status: ('A' for Active; 'I' for Inactive)
REMARK    1  A    between atoms: N1_7  and  C7_8 
REMARK    2  A    between atoms: C7_8  and  C8_9 
REMARK    3  A    between atoms: C8_9  and  N2_10 
REMARK    4  A    between atoms: N5_24  and  C18_25 
ROOT
HETATM    1  N2  UNL     1      -0.583   0.919  -0.617  1.00  0.00    -0.301 N 
HETATM    2  C9  UNL     1       0.712   0.300  -0.494  1.00  0.00     0.110 A 
HETATM    3  C10 UNL     1       1.759   1.026  -0.113  1.00  0.00     0.016 A 
HETATM    4  C11 UNL     1       3.013   0.440   0.010  1.00  0.00     0.049 A 
HETATM    5  C12 UNL     1       4.054   1.246   0.408  1.00  0.00     0.088 A 
HETATM    6  C13 UNL     1       3.920   2.603   0.692  1.00  0.00     0.089 A 
HETATM    7  C14 UNL     1       2.676   3.185   0.571  1.00  0.00     0.072 A 
HETATM    8  C15 UNL     1       1.623   2.372   0.169  1.00  0.00     0.095 A 
HETATM    9  O1  UNL     1       0.398   2.999   0.062  1.00  0.00    -0.260 OA
HETATM   10  C16 UNL     1      -0.739   2.322  -0.327  1.00  0.00     0.372 A 
HETATM   11  O2  UNL     1      -1.861   2.885  -0.427  1.00  0.00    -0.238 OA
HETATM   12  N3  UNL     1       4.972   3.276   1.063  1.00  0.00    -0.238 NA
HETATM   13  C17 UNL     1       6.246   2.690   1.189  1.00  0.00     0.256 A 
HETATM   14  N4  UNL     1       6.445   1.445   0.944  1.00  0.00    -0.160 NA
HETATM   15  N5  UNL     1       5.349   0.676   0.542  1.00  0.00    -0.233 N 
ENDROOT
BRANCH   1  16
HETATM   16  C8  UNL     1      -1.779   0.205  -1.026  1.00  0.00     0.153 C 
BRANCH  16  17
HETATM   17  C7  UNL     1      -2.451  -0.339   0.170  1.00  0.00     0.137 C 
BRANCH  17  18
HETATM   18  N1  UNL     1      -3.648  -1.073  -0.041  1.00  0.00    -0.407 N 
HETATM   19  C2  UNL     1      -4.565  -0.596  -1.013  1.00  0.00     0.075 C 
HETATM   20  C1  UNL     1      -5.577  -1.694  -1.283  1.00  0.00     0.032 C 
HETATM   21  C3  UNL     1      -5.264   0.601  -0.427  1.00  0.00     0.024 C 
HETATM   22  C4  UNL     1      -5.998   0.240   0.816  1.00  0.00     0.004 C 
HETATM   23  C5  UNL     1      -5.371  -0.767   1.703  1.00  0.00     0.019 C 
HETATM   24  C6  UNL     1      -4.238  -1.566   1.164  1.00  0.00     0.117 C 
ENDBRANCH  17  18
ENDBRANCH  16  17
ENDBRANCH   1  16
BRANCH  15  25
HETATM   25  C18 UNL     1       5.646  -0.701   0.287  1.00  0.00     0.062 A 
HETATM   26  C19 UNL     1       5.822  -1.492   1.333  1.00  0.00     0.032 A 
HETATM   27  C20 UNL     1       6.112  -2.844   0.895  1.00  0.00     0.042 A 
HETATM   28  C21 UNL     1       6.104  -2.836  -0.448  1.00  0.00     0.118 A 
HETATM   29  F1  UNL     1       6.301  -3.765  -1.414  1.00  0.00    -0.209 F 
HETATM   30  C22 UNL     1       5.808  -1.476  -0.965  1.00  0.00     0.196 A 
HETATM   31 CL1  UNL     1       7.208  -0.814  -1.840  1.00  0.00    -0.111 Cl
ENDBRANCH  15  25
TORSDOF 4
