REMARK  5 active torsions:
REMARK  status: ('A' for Active; 'I' for Inactive)
REMARK    1  A    between atoms: C3_4  and  C4_5 
REMARK    2  A    between atoms: N2_11  and  C8_12 
REMARK    3  A    between atoms: C8_12  and  C9_13 
REMARK    4  A    between atoms: C9_13  and  C10_14 
REMARK    5  A    between atoms: C10_14  and  N3_15 
ROOT
HETATM    1  N1  UNL     1      -5.930  -2.993  -0.322  1.00  0.00    -0.192 NA
HETATM    2  C1  UNL     1      -4.765  -2.828  -0.254  1.00  0.00     0.088 C 
HETATM    3  C2  UNL     1      -3.358  -2.619  -0.184  1.00  0.00     0.096 C 
HETATM    4  C3  UNL     1      -2.676  -1.522   0.076  1.00  0.00     0.042 C 
ENDROOT
BRANCH   4   5
HETATM    5  C4  UNL     1      -3.105  -0.188   0.376  1.00  0.00     0.059 C 
HETATM    6  C5  UNL     1      -4.350   0.240   0.461  1.00  0.00     0.164 C 
HETATM    7  O1  UNL     1      -4.851   1.505   0.745  1.00  0.00    -0.352 OA
HETATM    8  C6  UNL     1      -3.972   2.628   0.613  1.00  0.00     0.277 C 
HETATM    9  C7  UNL     1      -2.595   2.154   0.890  1.00  0.00     0.248 C 
HETATM   10  O2  UNL     1      -1.778   2.982   1.409  1.00  0.00    -0.271 OA
HETATM   11  N2  UNL     1      -2.146   0.838   0.607  1.00  0.00    -0.314 N 
BRANCH  11  12
HETATM   12  C8  UNL     1      -0.691   0.642   0.558  1.00  0.00     0.134 C 
BRANCH  12  13
HETATM   13  C9  UNL     1      -0.154   0.815  -0.801  1.00  0.00     0.050 C 
BRANCH  13  14
HETATM   14  C10 UNL     1       1.287   0.677  -1.080  1.00  0.00     0.274 C 
BRANCH  14  15
HETATM   15  N3  UNL     1       1.923  -0.577  -0.788  1.00  0.00     0.088 N 
HETATM   16  C11 UNL     1       3.192  -0.636  -1.474  1.00  0.00     0.272 C 
HETATM   17  C12 UNL     1       4.180   0.309  -0.864  1.00  0.00     0.030 C 
HETATM   18  C13 UNL     1       4.508  -0.199   0.524  1.00  0.00     0.003 C 
HETATM   19  C14 UNL     1       3.488  -1.159   1.048  1.00  0.00     0.030 C 
HETATM   20  C15 UNL     1       2.078  -0.810   0.629  1.00  0.00     0.272 C 
ENDBRANCH  14  15
ENDBRANCH  13  14
ENDBRANCH  12  13
ENDBRANCH  11  12
ENDBRANCH   4   5
TORSDOF 5
