REMARK  8 active torsions:
REMARK  status: ('A' for Active; 'I' for Inactive)
REMARK    1  A    between atoms: C2_2  and  C3_3 
REMARK    2  A    between atoms: C2_2  and  N1_8 
REMARK    3  A    between atoms: C4_4  and  C5_5 
REMARK    4  A    between atoms: N1_8  and  C8_9 
REMARK    5  A    between atoms: N4_19  and  C16_20 
REMARK    6  A    between atoms: C16_20  and  C17_21 
REMARK    7  A    between atoms: C17_21  and  C18_22 
REMARK    8  A    between atoms: C18_22  and  N5_23 
ROOT
HETATM    1  C8  UNL     1       4.088   0.529  -0.404  1.00  0.00     0.141 A 
HETATM    2  N2  UNL     1       5.380   0.390  -0.682  1.00  0.00    -0.224 NA
HETATM    3  C9  UNL     1       5.874  -0.578  -1.464  1.00  0.00     0.236 A 
HETATM    4  N3  UNL     1       4.999  -1.442  -1.983  1.00  0.00    -0.241 NA
HETATM    5  C10 UNL     1       3.683  -1.349  -1.736  1.00  0.00     0.075 A 
HETATM    6  C11 UNL     1       2.804  -2.257  -2.277  1.00  0.00     0.071 A 
HETATM    7  C12 UNL     1       1.423  -2.217  -2.049  1.00  0.00     0.098 A 
HETATM    8  C13 UNL     1       0.915  -1.200  -1.228  1.00  0.00     0.071 A 
HETATM    9  C14 UNL     1       1.826  -0.315  -0.710  1.00  0.00     0.050 A 
HETATM   10  C15 UNL     1       3.181  -0.354  -0.934  1.00  0.00     0.041 A 
HETATM   11  N4  UNL     1      -0.499  -1.111  -0.933  1.00  0.00    -0.314 N 
HETATM   12  C24 UNL     1      -1.308  -2.120  -1.532  1.00  0.00     0.248 C 
HETATM   13  O1  UNL     1      -2.425  -2.355  -0.987  1.00  0.00    -0.271 OA
HETATM   14  C25 UNL     1      -0.838  -2.860  -2.758  1.00  0.00     0.279 C 
HETATM   15  O2  UNL     1       0.564  -3.157  -2.617  1.00  0.00    -0.340 OA
ENDROOT
BRANCH   1  16
HETATM   16  N1  UNL     1       3.566   1.542   0.428  1.00  0.00    -0.347 N 
HETATM   17  H10 UNL     1       2.598   1.766   0.650  1.00  0.00     0.167 HD
BRANCH  16  18
HETATM   18  C2  UNL     1       4.048   2.606   1.234  1.00  0.00    -0.007 C 
HETATM   19  C1  UNL     1       4.596   3.831   1.148  1.00  0.00     0.099 C 
BRANCH  18  20
HETATM   20  C3  UNL     1       3.992   2.490   2.715  1.00  0.00     0.037 C 
HETATM   21  C4  UNL     1       3.484   1.348   3.232  1.00  0.00    -0.021 C 
BRANCH  21  22
HETATM   22  C5  UNL     1       3.233   0.793   4.575  1.00  0.00    -0.008 C 
HETATM   23  C6  UNL     1       2.722  -0.361   4.963  1.00  0.00    -0.031 C 
HETATM   24  C7  UNL     1       2.261  -1.420   4.043  1.00  0.00     0.036 C 
ENDBRANCH  21  22
ENDBRANCH  18  20
ENDBRANCH  16  18
ENDBRANCH   1  16
BRANCH  11  25
HETATM   25  C16 UNL     1      -0.995  -0.052  -0.081  1.00  0.00     0.134 C 
BRANCH  25  26
HETATM   26  C17 UNL     1      -1.386   1.195  -0.834  1.00  0.00     0.050 C 
BRANCH  26  27
HETATM   27  C18 UNL     1      -2.486   0.971  -1.811  1.00  0.00     0.274 C 
BRANCH  27  28
HETATM   28  N5  UNL     1      -3.704   0.490  -1.266  1.00  0.00     0.088 N 
HETATM   29  C19 UNL     1      -4.751   0.294  -2.250  1.00  0.00     0.272 C 
HETATM   30  C20 UNL     1      -6.134   0.282  -1.653  1.00  0.00     0.030 C 
HETATM   31  C21 UNL     1      -6.175  -0.312  -0.273  1.00  0.00     0.003 C 
HETATM   32  C22 UNL     1      -5.090   0.176   0.621  1.00  0.00     0.030 C 
HETATM   33  C23 UNL     1      -4.234   1.197  -0.132  1.00  0.00     0.272 C 
ENDBRANCH  27  28
ENDBRANCH  26  27
ENDBRANCH  25  26
ENDBRANCH  11  25
TORSDOF 8
