REMARK  7 active torsions:
REMARK  status: ('A' for Active; 'I' for Inactive)
REMARK    1  A    between atoms: C4_4  and  C5_5 
REMARK    2  A    between atoms: C4_4  and  C8_8 
REMARK    3  A    between atoms: C5_5  and  C6_6 
REMARK    4  A    between atoms: N3_18  and  C16_19 
REMARK    5  A    between atoms: C16_19  and  C17_20 
REMARK    6  A    between atoms: C17_20  and  C18_21 
REMARK    7  A    between atoms: C18_21  and  N4_22 
ROOT
HETATM    1  C1  UNL     1      -0.626   1.053   3.733  1.00  0.00     0.017 C 
HETATM    2  C2  UNL     1      -1.435   1.564   3.018  1.00  0.00    -0.088 C 
HETATM    3  C3  UNL     1      -2.416   2.153   2.158  1.00  0.00     0.077 C 
HETATM    4  C4  UNL     1      -3.288   1.820   1.244  1.00  0.00     0.001 C 
ENDROOT
BRANCH   4   5
HETATM    5  C5  UNL     1      -3.853   3.153   0.933  1.00  0.00     0.010 C 
BRANCH   5   6
HETATM    6  C6  UNL     1      -4.637   3.970   0.307  1.00  0.00    -0.030 C 
HETATM    7  C7  UNL     1      -5.334   5.181  -0.159  1.00  0.00     0.036 C 
ENDBRANCH   5   6
ENDBRANCH   4   5
BRANCH   4   8
HETATM    8  C8  UNL     1      -3.899   0.882   0.322  1.00  0.00     0.081 A 
HETATM    9  N1  UNL     1      -5.134   1.014  -0.167  1.00  0.00    -0.240 NA
HETATM   10  C9  UNL     1      -5.790   0.257  -1.014  1.00  0.00     0.234 A 
HETATM   11  N2  UNL     1      -5.110  -0.798  -1.444  1.00  0.00    -0.241 NA
HETATM   12  C10 UNL     1      -3.868  -1.110  -1.083  1.00  0.00     0.073 A 
HETATM   13  C11 UNL     1      -3.295  -2.222  -1.651  1.00  0.00     0.071 A 
HETATM   14  C15 UNL     1      -3.289  -0.238  -0.191  1.00  0.00     0.025 A 
HETATM   15  C12 UNL     1      -1.993  -2.472  -1.274  1.00  0.00     0.098 A 
HETATM   16  C13 UNL     1      -1.315  -1.641  -0.374  1.00  0.00     0.071 A 
HETATM   17  O2  UNL     1      -1.391  -3.602  -1.844  1.00  0.00    -0.340 OA
HETATM   18  C14 UNL     1      -1.990  -0.554   0.133  1.00  0.00     0.049 A 
HETATM   19  N3  UNL     1       0.043  -1.994  -0.050  1.00  0.00    -0.314 N 
HETATM   20  C24 UNL     1       0.624  -3.148  -0.644  1.00  0.00     0.248 C 
HETATM   21  O1  UNL     1       1.621  -3.631  -0.076  1.00  0.00    -0.271 OA
HETATM   22  C25 UNL     1       0.028  -3.712  -1.884  1.00  0.00     0.279 C 
BRANCH  19  23
HETATM   23  C16 UNL     1       0.679  -1.083   0.863  1.00  0.00     0.134 C 
BRANCH  23  24
HETATM   24  C17 UNL     1       1.329   0.040   0.122  1.00  0.00     0.050 C 
BRANCH  24  25
HETATM   25  C18 UNL     1       2.384  -0.460  -0.805  1.00  0.00     0.274 C 
BRANCH  25  26
HETATM   26  N4  UNL     1       3.472  -1.154  -0.186  1.00  0.00     0.088 N 
HETATM   27  C19 UNL     1       4.413  -1.585  -1.202  1.00  0.00     0.272 C 
HETATM   28  C20 UNL     1       5.364  -0.485  -1.578  1.00  0.00     0.030 C 
HETATM   29  C21 UNL     1       6.285  -0.208  -0.430  1.00  0.00     0.003 C 
HETATM   30  C22 UNL     1       5.607  -0.564   0.866  1.00  0.00     0.030 C 
HETATM   31  C23 UNL     1       4.103  -0.314   0.801  1.00  0.00     0.272 C 
ENDBRANCH  25  26
ENDBRANCH  24  25
ENDBRANCH  23  24
ENDBRANCH  19  23
ENDBRANCH   4   8
TORSDOF 7
