REMARK  6 active torsions:
REMARK  status: ('A' for Active; 'I' for Inactive)
REMARK    1  A    between atoms: C6_6  and  N1_7 
REMARK    2  A    between atoms: N1_7  and  C7_8 
REMARK    3  A    between atoms: N4_18  and  C15_19 
REMARK    4  A    between atoms: C15_19  and  C16_20 
REMARK    5  A    between atoms: C16_20  and  C17_21 
REMARK    6  A    between atoms: C17_21  and  N5_22 
ROOT
HETATM    1  C7  UNL     1      -3.594   0.042   0.525  1.00  0.00     0.138 A 
HETATM    2  N2  UNL     1      -4.886  -0.269   0.327  1.00  0.00    -0.224 NA
HETATM    3  C8  UNL     1      -5.268  -1.554   0.354  1.00  0.00     0.235 A 
HETATM    4  N3  UNL     1      -4.404  -2.537   0.572  1.00  0.00    -0.241 NA
HETATM    5  C9  UNL     1      -3.077  -2.309   0.782  1.00  0.00     0.075 A 
HETATM    6  C10 UNL     1      -2.187  -3.335   1.007  1.00  0.00     0.071 A 
HETATM    7  C11 UNL     1      -0.859  -3.024   1.212  1.00  0.00     0.098 A 
HETATM    8  C12 UNL     1      -0.482  -1.698   1.181  1.00  0.00     0.071 A 
HETATM    9  C13 UNL     1      -1.375  -0.701   0.957  1.00  0.00     0.050 A 
HETATM   10  C14 UNL     1      -2.700  -0.983   0.751  1.00  0.00     0.041 A 
HETATM   11  N4  UNL     1       0.892  -1.400   1.393  1.00  0.00    -0.314 N 
HETATM   12  C23 UNL     1       1.753  -2.536   1.620  1.00  0.00     0.248 C 
HETATM   13  O1  UNL     1       2.885  -2.290   2.131  1.00  0.00    -0.271 OA
HETATM   14  C24 UNL     1       1.412  -3.941   1.303  1.00  0.00     0.279 C 
HETATM   15  O2  UNL     1       0.009  -4.082   1.436  1.00  0.00    -0.340 OA
ENDROOT
BRANCH  11  16
HETATM   16  C15 UNL     1       1.444  -0.109   1.394  1.00  0.00     0.134 C 
BRANCH  16  17
HETATM   17  C16 UNL     1       1.944   0.467   0.114  1.00  0.00     0.050 C 
BRANCH  17  18
HETATM   18  C17 UNL     1       3.050  -0.365  -0.502  1.00  0.00     0.274 C 
BRANCH  18  19
HETATM   19  N5  UNL     1       3.517   0.219  -1.745  1.00  0.00     0.088 N 
HETATM   20  C18 UNL     1       4.574  -0.566  -2.348  1.00  0.00     0.272 C 
HETATM   21  C19 UNL     1       5.915   0.111  -2.329  1.00  0.00     0.030 C 
HETATM   22  C20 UNL     1       6.230   0.806  -1.035  1.00  0.00     0.003 C 
HETATM   23  C21 UNL     1       5.109   1.739  -0.657  1.00  0.00     0.030 C 
HETATM   24  C22 UNL     1       3.937   1.577  -1.597  1.00  0.00     0.272 C 
ENDBRANCH  18  19
ENDBRANCH  17  18
ENDBRANCH  16  17
ENDBRANCH  11  16
BRANCH   1  25
HETATM   25  N1  UNL     1      -3.230   1.427   0.488  1.00  0.00    -0.362 N 
HETATM   26  H8  UNL     1      -2.286   1.825   0.619  1.00  0.00     0.162 HD
BRANCH  25  27
HETATM   27  C6  UNL     1      -4.263   2.390   0.243  1.00  0.00     0.135 A 
HETATM   28  C2  UNL     1      -4.963   2.214  -1.055  1.00  0.00    -0.058 A 
HETATM   29  C1  UNL     1      -4.391   2.279  -2.421  1.00  0.00     0.046 C 
HETATM   30  C3  UNL     1      -6.258   1.971  -0.879  1.00  0.00     0.005 A 
HETATM   31  C4  UNL     1      -6.564   1.959   0.550  1.00  0.00    -0.001 A 
HETATM   32  C5  UNL     1      -5.414   2.200   1.196  1.00  0.00     0.003 A 
ENDBRANCH  25  27
ENDBRANCH   1  25
TORSDOF 6
