REMARK  5 active torsions:
REMARK  status: ('A' for Active; 'I' for Inactive)
REMARK    1  A    between atoms: C14_16  and  N3_18 
REMARK    2  A    between atoms: N4_24  and  C19_25 
REMARK    3  A    between atoms: C19_25  and  C20_26 
REMARK    4  A    between atoms: C20_26  and  C21_27 
REMARK    5  A    between atoms: C21_27  and  N5_28 
ROOT
HETATM    1  C1  UNL     1      -0.464  -1.354   1.572  1.00  0.00     0.142 A 
HETATM    2  C2  UNL     1      -0.731  -0.103   0.990  1.00  0.00     0.248 A 
HETATM    3  C3  UNL     1      -1.816   0.666   1.543  1.00  0.00     0.185 A 
HETATM    4  C4  UNL     1      -0.954  -0.221   1.286  1.00  0.00     0.248 A 
HETATM    5  N1  UNL     1      -0.743   0.617   2.171  1.00  0.00    -0.316 N 
HETATM    6  C5  UNL     1      -0.527   1.487   3.088  1.00  0.00     0.208 A 
HETATM    7  N2  UNL     1      -1.684   2.203   2.997  1.00  0.00    -0.246 NA
HETATM    8  C6  UNL     1      -2.502   1.705   2.044  1.00  0.00     0.070 A 
HETATM    9  C7  UNL     1      -3.698   2.274   1.893  1.00  0.00     0.011 C 
HETATM   10  C8  UNL     1      -4.445   1.610   0.999  1.00  0.00    -0.005 A 
HETATM   11  C9  UNL     1      -5.091   0.847   0.162  1.00  0.00     0.073 A 
HETATM   12  C10 UNL     1      -5.695  -0.060  -0.682  1.00  0.00    -0.007 A 
HETATM   13  C11 UNL     1      -5.255  -1.091  -1.369  1.00  0.00     0.029 A 
HETATM   14  C12 UNL     1      -4.389  -2.013  -1.820  1.00  0.00    -0.019 A 
HETATM   15  C13 UNL     1      -3.146  -2.169  -1.506  1.00  0.00     0.030 A 
HETATM   16  C14 UNL     1      -2.879  -1.085  -0.523  1.00  0.00     0.123 A 
HETATM   17  C15 UNL     1      -4.191  -0.401  -0.428  1.00  0.00     0.060 A 
HETATM   18  N3  UNL     1      -1.856  -0.698   0.252  1.00  0.00     0.015 N 
HETATM   19  C16 UNL     1      -4.525   2.467  -0.289  1.00  0.00     0.161 A 
HETATM   20  O1  UNL     1      -3.328   2.655  -0.776  1.00  0.00    -0.383 OA
HETATM   21  C17 UNL     1      -2.120   2.860  -1.198  1.00  0.00     0.270 C 
HETATM   22  C18 UNL     1      -1.051   1.829  -0.752  1.00  0.00     0.245 C 
HETATM   23  O2  UNL     1      -0.044   1.854  -1.384  1.00  0.00    -0.271 OA
HETATM   24  N4  UNL     1      -0.214   0.770  -0.142  1.00  0.00    -0.314 N 
HETATM   25  H11 UNL     1      -1.209  -0.961  -0.442  1.00  0.00     0.292 HD
ENDROOT
BRANCH  24  26
HETATM   26  C19 UNL     1       1.178   0.317  -0.357  1.00  0.00     0.130 C 
BRANCH  26  27
HETATM   27  C20 UNL     1       1.466  -0.762  -1.243  1.00  0.00     0.039 C 
BRANCH  27  28
HETATM   28  C21 UNL     1       2.957  -1.073  -1.475  1.00  0.00     0.118 C 
BRANCH  28  29
HETATM   29  N5  UNL     1       3.775  -1.228  -0.338  1.00  0.00    -0.412 N 
HETATM   30  C22 UNL     1       4.107  -0.015   0.295  1.00  0.00     0.117 C 
HETATM   31  C23 UNL     1       5.581   0.365   0.125  1.00  0.00     0.019 C 
HETATM   32  C24 UNL     1       6.529  -0.686   0.568  1.00  0.00     0.003 C 
HETATM   33  C25 UNL     1       5.705  -1.963   0.817  1.00  0.00     0.019 C 
HETATM   34  C26 UNL     1       4.838  -2.167  -0.416  1.00  0.00     0.117 C 
ENDBRANCH  28  29
ENDBRANCH  27  28
ENDBRANCH  26  27
ENDBRANCH  24  26
TORSDOF 5
