REMARK  6 active torsions:
REMARK  status: ('A' for Active; 'I' for Inactive)
REMARK    1  A    between atoms: N1_2  and  C2_3 
REMARK    2  A    between atoms: C6_8  and  C7_9 
REMARK    3  A    between atoms: C7_9  and  C8_10 
REMARK    4  A    between atoms: C8_10  and  C9_11 
REMARK    5  A    between atoms: C11_13  and  C13_15 
REMARK    6  A    between atoms: C16_19  and  N4_20 
ROOT
HETATM    1  C9  UNL     1      -1.044   0.142   0.255  1.00  0.00     0.049 C 
HETATM    2  C10 UNL     1      -2.343  -0.574   0.137  1.00  0.00     0.012 C 
HETATM    3  C11 UNL     1      -2.721  -1.750   0.622  1.00  0.00    -0.061 C 
HETATM    4  C12 UNL     1      -4.059  -2.426   0.464  1.00  0.00     0.045 C 
HETATM    5  N3  UNL     1      -3.363   0.130  -0.610  1.00  0.00    -0.390 N 
HETATM    6  C15 UNL     1      -3.615   1.555  -0.421  1.00  0.00     0.164 C 
HETATM    7  C16 UNL     1      -2.425   2.235   0.222  1.00  0.00     0.202 C 
HETATM    8  C17 UNL     1      -2.289   3.662  -0.265  1.00  0.00     0.212 C 
HETATM    9  O1  UNL     1      -2.110   3.722  -1.644  1.00  0.00    -0.381 OA
HETATM   10  C18 UNL     1      -0.975   3.057  -2.048  1.00  0.00     0.246 C 
HETATM   11  C19 UNL     1      -1.178   1.599  -1.697  1.00  0.00     0.157 C 
HETATM   12  O2  UNL     1      -1.326   0.829  -2.629  1.00  0.00    -0.295 OA
HETATM   13  C20 UNL     1      -1.133   1.547  -0.209  1.00  0.00     0.109 C 
HETATM   14  H25 UNL     1      -3.973  -0.366  -1.329  1.00  0.00     0.159 HD
ENDROOT
BRANCH   1  15
HETATM   15  C8  UNL     1       0.102  -0.539  -0.435  1.00  0.00     0.014 C 
BRANCH  15  16
HETATM   16  C7  UNL     1       1.338   0.318  -0.228  1.00  0.00     0.038 C 
BRANCH  16  17
HETATM   17  C6  UNL     1       2.534  -0.342  -0.903  1.00  0.00     0.252 C 
HETATM   18  C2  UNL     1       3.761   0.489  -0.709  1.00  0.00     0.235 C 
HETATM   19  C3  UNL     1       4.431   0.085   0.580  1.00  0.00     0.038 C 
HETATM   20  C4  UNL     1       4.851  -1.347   0.479  1.00  0.00     0.032 C 
HETATM   21  C5  UNL     1       3.992  -2.188  -0.424  1.00  0.00     0.270 C 
HETATM   22  N2  UNL     1       2.619  -1.686  -0.422  1.00  0.00     0.090 N 
HETATM   23  H10 UNL     1       2.314  -1.776   0.591  1.00  0.00     0.316 HD
BRANCH  18  24
HETATM   24  N1  UNL     1       4.667   0.358  -1.828  1.00  0.00     0.021 NA
HETATM   25  C1  UNL     1       5.933   0.363  -1.605  1.00  0.00     0.708 C 
ENDBRANCH  18  24
ENDBRANCH  16  17
ENDBRANCH  15  16
ENDBRANCH   1  15
BRANCH   3  26
HETATM   26  C13 UNL     1      -1.936  -2.699   1.471  1.00  0.00     0.031 C 
HETATM   27  C14 UNL     1      -2.687  -2.948   2.791  1.00  0.00     0.010 C 
ENDBRANCH   3  26
BRANCH   7  28
HETATM   28  N4  UNL     1      -2.598   2.265   1.652  1.00  0.00     0.092 N 
HETATM   29  H28 UNL     1      -3.208   1.474   1.988  1.00  0.00     0.314 HD
HETATM   30  H29 UNL     1      -3.185   3.127   1.856  1.00  0.00     0.314 HD
ENDBRANCH   7  28
TORSDOF 6
