REMARK  2 active torsions:
REMARK  status: ('A' for Active; 'I' for Inactive)
REMARK    1  A    between atoms: C6_6  and  N1_7 
REMARK    2  A    between atoms: N1_7  and  C7_8 
ROOT
HETATM    1  C7  UNL     1       2.320  -0.401   1.779  1.00  0.00     0.141 A 
HETATM    2  N2  UNL     1       2.884   0.423   2.718  1.00  0.00    -0.224 NA
HETATM    3  C8  UNL     1       2.165   1.465   3.121  1.00  0.00     0.235 A 
HETATM    4  N3  UNL     1       0.966   1.550   2.536  1.00  0.00    -0.241 NA
HETATM    5  C9  UNL     1       0.444   0.735   1.631  1.00  0.00     0.069 A 
HETATM    6  C10 UNL     1       1.066  -0.343   1.135  1.00  0.00     0.036 A 
HETATM    7  C11 UNL     1       1.171  -1.387   0.306  1.00  0.00     0.010 C 
HETATM    8  C12 UNL     1       0.623  -2.239  -0.736  1.00  0.00     0.154 C 
HETATM    9  N4  UNL     1      -0.758  -1.692  -1.060  1.00  0.00    -0.349 N 
HETATM   10  C13 UNL     1      -2.057  -2.358  -1.316  1.00  0.00     0.127 C 
HETATM   11  C14 UNL     1      -3.186  -2.274  -0.464  1.00  0.00     0.039 C 
HETATM   12  C15 UNL     1      -3.623  -1.003   0.149  1.00  0.00     0.119 C 
HETATM   13  N5  UNL     1      -3.845   0.210  -0.570  1.00  0.00    -0.400 N 
HETATM   14  C16 UNL     1      -4.388   1.015  -1.637  1.00  0.00     0.118 C 
HETATM   15  C17 UNL     1      -4.493   2.468  -1.177  1.00  0.00     0.020 C 
HETATM   16  C18 UNL     1      -4.854   2.638   0.259  1.00  0.00     0.005 C 
HETATM   17  C19 UNL     1      -3.619   2.235   1.124  1.00  0.00     0.048 A 
HETATM   18  C20 UNL     1      -3.130   1.050   0.441  1.00  0.00     0.067 A 
HETATM   19  C21 UNL     1      -2.099   1.407   1.173  1.00  0.00     0.023 A 
HETATM   20  C22 UNL     1      -0.762   1.304   1.622  1.00  0.00     0.019 C 
HETATM   21  O1  UNL     1      -1.735   0.456   0.316  1.00  0.00     0.000 OA
HETATM   22  C23 UNL     1      -1.074   0.963  -0.933  1.00  0.00     0.112 C 
HETATM   23  C24 UNL     1      -0.467  -0.314  -1.485  1.00  0.00     0.220 C 
HETATM   24  O2  UNL     1       0.348  -0.524  -2.379  1.00  0.00    -0.273 OA
ENDROOT
BRANCH   1  25
HETATM   25  N1  UNL     1       3.373  -1.389   1.611  1.00  0.00    -0.340 N 
HETATM   26  H7  UNL     1       3.424  -2.219   2.272  1.00  0.00     0.167 HD
BRANCH  25  27
HETATM   27  C6  UNL     1       4.346  -1.256   0.562  1.00  0.00     0.034 A 
HETATM   28  C5  UNL     1       5.394  -2.120   0.336  1.00  0.00     0.029 A 
HETATM   29  C4  UNL     1       6.281  -1.915  -0.709  1.00  0.00     0.003 A 
HETATM   30  C3  UNL     1       6.112  -0.823  -1.543  1.00  0.00     0.007 A 
HETATM   31  C2  UNL     1       5.079   0.067  -1.354  1.00  0.00    -0.060 A 
HETATM   32  C1  UNL     1       4.879   1.247  -2.247  1.00  0.00     0.048 C 
HETATM   33  C25 UNL     1       4.215  -0.176  -0.296  1.00  0.00     0.036 A 
ENDBRANCH  25  27
ENDBRANCH   1  25
TORSDOF 2
