REMARK  5 active torsions:
REMARK  status: ('A' for Active; 'I' for Inactive)
REMARK    1  A    between atoms: C2_2  and  C3_3 
REMARK    2  A    between atoms: C3_3  and  C4_4 
REMARK    3  A    between atoms: C4_4  and  N1_5 
REMARK    4  A    between atoms: N1_5  and  C5_6 
REMARK    5  A    between atoms: C15_20  and  N4_21 
ROOT
HETATM    1  C5  UNL     1       2.344  -1.086  -0.110  1.00  0.00     0.071 A 
HETATM    2  C6  UNL     1       1.159  -0.964   0.646  1.00  0.00     0.089 A 
HETATM    3  C7  UNL     1       0.556  -2.107   1.160  1.00  0.00     0.100 A 
HETATM    4  C8  UNL     1       1.138  -3.310   0.910  1.00  0.00     0.071 A 
HETATM    5  C9  UNL     1       2.275  -3.351   0.175  1.00  0.00     0.074 A 
HETATM    6  N2  UNL     1       2.781  -4.576  -0.026  1.00  0.00    -0.241 NA
HETATM    7  C10 UNL     1       3.911  -4.737  -0.745  1.00  0.00     0.233 A 
HETATM    8  N3  UNL     1       4.560  -3.682  -1.280  1.00  0.00    -0.253 NA
HETATM    9  C11 UNL     1       4.103  -2.425  -1.114  1.00  0.00     0.134 A 
HETATM   10  C12 UNL     1       2.965  -2.315  -0.384  1.00  0.00     0.039 A 
HETATM   11  O1  UNL     1      -0.578  -1.737   1.857  1.00  0.00    -0.341 OA
HETATM   12  C13 UNL     1      -1.814  -1.618   1.122  1.00  0.00     0.256 C 
HETATM   13  C14 UNL     1      -1.551  -0.658  -0.008  1.00  0.00     0.184 C 
HETATM   14  O2  UNL     1      -0.862  -0.728  -1.009  1.00  0.00    -0.293 OA
HETATM   15  C15 UNL     1      -2.193   0.672   0.006  1.00  0.00     0.295 C 
HETATM   16  C20 UNL     1      -1.365   1.593   0.891  1.00  0.00     0.063 C 
HETATM   17  C21 UNL     1       0.057   1.620   0.489  1.00  0.00     0.122 C 
HETATM   18  N5  UNL     1       0.737   0.388   0.721  1.00  0.00    -0.386 N 
HETATM   19  H25 UNL     1       1.425   0.554   1.519  1.00  0.00     0.159 HD
ENDROOT
BRANCH   1  20
HETATM   20  N1  UNL     1       3.005   0.074  -0.621  1.00  0.00    -0.386 N 
HETATM   21  H6  UNL     1       2.483   0.144  -1.532  1.00  0.00     0.159 HD
BRANCH  20  22
HETATM   22  C4  UNL     1       4.005   1.056  -0.356  1.00  0.00     0.137 C 
BRANCH  22  23
HETATM   23  C3  UNL     1       3.813   1.902   0.816  1.00  0.00     0.086 C 
BRANCH  23  24
HETATM   24  C2  UNL     1       3.424   3.160   0.656  1.00  0.00    -0.174 C 
HETATM   25  C1  UNL     1       3.275   4.415   0.293  1.00  0.00     0.091 C 
ENDBRANCH  23  24
ENDBRANCH  22  23
ENDBRANCH  20  22
ENDBRANCH   1  20
BRANCH  15  26
HETATM   26  N4  UNL     1      -3.493   0.461   0.679  1.00  0.00     0.100 N 
HETATM   27  C16 UNL     1      -4.255  -0.490  -0.077  1.00  0.00     0.273 C 
HETATM   28  C17 UNL     1      -4.823   0.256  -1.268  1.00  0.00     0.032 C 
HETATM   29  C18 UNL     1      -4.731   1.707  -0.860  1.00  0.00     0.032 C 
HETATM   30  C19 UNL     1      -4.307   1.659   0.597  1.00  0.00     0.273 C 
ENDBRANCH  15  26
TORSDOF 5
