REMARK  0 active torsions:
REMARK  status: ('A' for Active; 'I' for Inactive)
ROOT
HETATM    1  O1  UNL     1      -0.713  -4.601  -1.192  1.00  0.00    -0.271 OA
HETATM    2  C1  UNL     1      -1.290  -3.658  -0.612  1.00  0.00     0.248 C 
HETATM    3  C2  UNL     1      -2.646  -3.688  -0.010  1.00  0.00     0.279 C 
HETATM    4  O2  UNL     1      -3.267  -2.433   0.094  1.00  0.00    -0.340 OA
HETATM    5  C3  UNL     1      -2.690  -1.198  -0.021  1.00  0.00     0.092 C 
HETATM    6  C4  UNL     1      -1.401  -1.349  -0.239  1.00  0.00     0.048 C 
HETATM    7  C5  UNL     1      -0.656  -0.073  -0.087  1.00  0.00     0.064 C 
HETATM    8  C6  UNL     1      -1.428   0.944   0.769  1.00  0.00     0.040 C 
HETATM    9  C7  UNL     1      -2.609   1.258  -0.070  1.00  0.00    -0.075 C 
HETATM   10  C8  UNL     1      -3.333   0.126   0.069  1.00  0.00     0.041 C 
HETATM   11  C9  UNL     1      -2.886   2.478  -0.880  1.00  0.00     0.053 C 
HETATM   12  C10 UNL     1      -1.645   3.051  -1.514  1.00  0.00     0.124 C 
HETATM   13  N1  UNL     1      -0.733   3.594  -0.550  1.00  0.00    -0.384 N 
HETATM   14  C11 UNL     1       0.599   4.067  -0.416  1.00  0.00     0.202 C 
HETATM   15  N2  UNL     1       1.786   3.685  -0.162  1.00  0.00    -0.257 NA
HETATM   16  C12 UNL     1       2.170   2.374   0.119  1.00  0.00     0.114 C 
HETATM   17  C13 UNL     1       2.494   1.544   1.117  1.00  0.00    -0.007 C 
HETATM   18  C14 UNL     1       2.898   0.114   1.291  1.00  0.00     0.028 C 
HETATM   19  C15 UNL     1       3.102  -0.504  -0.070  1.00  0.00     0.004 C 
HETATM   20  C16 UNL     1       3.145  -1.991   0.047  1.00  0.00     0.002 C 
HETATM   21  C17 UNL     1       1.737  -2.502   0.392  1.00  0.00     0.020 C 
HETATM   22  C18 UNL     1       0.865  -2.195  -0.789  1.00  0.00     0.132 C 
HETATM   23  N3  UNL     1      -0.522  -2.463  -0.549  1.00  0.00    -0.317 N 
HETATM   24  H12 UNL     1      -0.866   3.866   0.461  1.00  0.00     0.160 HD
ENDROOT
TORSDOF 0
