REMARK  6 active torsions:
REMARK  status: ('A' for Active; 'I' for Inactive)
REMARK    1  A    between atoms: C6_6  and  N1_7 
REMARK    2  A    between atoms: N1_7  and  C7_8 
REMARK    3  A    between atoms: C10_13  and  C11_14 
REMARK    4  A    between atoms: C11_14  and  O1_15 
REMARK    5  A    between atoms: O1_15  and  C12_16 
REMARK    6  A    between atoms: C12_16  and  C13_17 
REMARK       I    between atoms: C13_17  and  N4_19 
ROOT
HETATM    1  C7  UNL     1       3.237  -0.206  -0.365  1.00  0.00     0.111 A 
HETATM    2  N2  UNL     1       3.313   0.798   0.474  1.00  0.00    -0.228 NA
HETATM    3  C8  UNL     1       2.209   1.692   0.538  1.00  0.00     0.235 A 
HETATM    4  N3  UNL     1       1.124   1.584  -0.179  1.00  0.00    -0.246 NA
HETATM    5  C9  UNL     1       1.059   0.487  -1.085  1.00  0.00     0.041 A 
HETATM    6  C10 UNL     1      -0.068   0.405  -1.806  1.00  0.00     0.026 C 
HETATM    7  C20 UNL     1       2.115  -0.540  -1.282  1.00  0.00     0.137 A 
ENDROOT
BRANCH   6   8
HETATM    8  C11 UNL     1      -1.133   1.424  -1.620  1.00  0.00     0.197 C 
BRANCH   8   9
HETATM    9  O1  UNL     1      -2.340   0.854  -1.200  1.00  0.00    -0.378 OA
BRANCH   9  10
HETATM   10  C12 UNL     1      -2.088   0.229  -0.008  1.00  0.00     0.270 C 
BRANCH  10  11
HETATM   11  C13 UNL     1      -3.214  -0.444   0.627  1.00  0.00     0.243 C 
HETATM   12  O2  UNL     1      -2.883  -1.000   1.722  1.00  0.00    -0.271 OA
HETATM   13  N4  UNL     1      -4.589  -0.643   0.343  1.00  0.00    -0.346 N 
HETATM   14  C14 UNL     1      -5.141  -1.446   1.447  1.00  0.00     0.127 C 
HETATM   15  C18 UNL     1      -5.621  -0.354  -0.609  1.00  0.00     0.087 C 
HETATM   16  C15 UNL     1      -6.599  -1.641   1.079  1.00  0.00     0.026 C 
HETATM   17  C16 UNL     1      -6.873  -0.418   0.228  1.00  0.00     0.005 C 
HETATM   18  C17 UNL     1      -6.996   0.756   1.165  1.00  0.00     0.012 C 
HETATM   19  C19 UNL     1      -5.469   0.959  -1.324  1.00  0.00     0.033 C 
ENDBRANCH  10  11
ENDBRANCH   9  10
ENDBRANCH   8   9
ENDBRANCH   6   8
BRANCH   1  20
HETATM   20  N1  UNL     1       4.387  -1.071  -0.379  1.00  0.00    -0.344 N 
HETATM   21  H7  UNL     1       4.276  -2.109  -0.526  1.00  0.00     0.167 HD
BRANCH  20  22
HETATM   22  C6  UNL     1       5.715  -0.543  -0.193  1.00  0.00     0.033 A 
HETATM   23  C5  UNL     1       6.330  -0.180  -1.396  1.00  0.00     0.029 A 
HETATM   24  C4  UNL     1       7.604   0.344  -1.399  1.00  0.00     0.003 A 
HETATM   25  C3  UNL     1       8.261   0.505  -0.203  1.00  0.00     0.007 A 
HETATM   26  C2  UNL     1       7.653   0.145   0.999  1.00  0.00    -0.060 A 
HETATM   27  C1  UNL     1       8.357   0.317   2.297  1.00  0.00     0.048 C 
HETATM   28  C21 UNL     1       6.385  -0.376   0.999  1.00  0.00     0.036 A 
ENDBRANCH  20  22
ENDBRANCH   1  20
TORSDOF 6
