REMARK  6 active torsions:
REMARK  status: ('A' for Active; 'I' for Inactive)
REMARK    1  A    between atoms: O1_2  and  C2_3 
REMARK    2  A    between atoms: C2_3  and  C3_4 
REMARK    3  A    between atoms: C8_10  and  N2_11 
REMARK    4  A    between atoms: N2_11  and  C9_12 
REMARK    5  A    between atoms: C9_12  and  C10_13 
REMARK    6  A    between atoms: C10_13  and  C11_14 
ROOT
HETATM    1  C3  UNL     1       3.718   0.001   3.500  1.00  0.00    -0.013 C 
HETATM    2  C4  UNL     1       3.221   1.262   3.040  1.00  0.00     0.011 C 
HETATM    3  C5  UNL     1       2.146   1.651   2.366  1.00  0.00    -0.007 C 
HETATM    4  C6  UNL     1       1.292   0.477   2.061  1.00  0.00     0.147 C 
HETATM    5  N1  UNL     1       1.242   0.100   0.683  1.00  0.00    -0.380 N 
HETATM    6  C7  UNL     1       0.514  -1.152   0.726  1.00  0.00     0.128 A 
HETATM    7  C8  UNL     1      -0.566  -1.192  -0.117  1.00  0.00     0.155 A 
HETATM    8  N3  UNL     1      -1.350  -2.278  -0.197  1.00  0.00    -0.222 NA
HETATM    9  C17 UNL     1      -1.098  -3.367   0.551  1.00  0.00     0.238 A 
HETATM   10  N4  UNL     1      -0.038  -3.316   1.371  1.00  0.00    -0.215 NA
HETATM   11  C18 UNL     1       0.789  -2.279   1.511  1.00  0.00     0.201 A 
HETATM   12  O2  UNL     1       1.600  -2.829   2.433  1.00  0.00    -0.302 OA
HETATM   13  C19 UNL     1       2.694  -2.337   3.060  1.00  0.00     0.145 C 
HETATM   14  C20 UNL     1       3.529  -1.416   3.495  1.00  0.00     0.038 C 
HETATM   15  H9  UNL     1       1.572   0.469  -0.227  1.00  0.00     0.160 HD
ENDROOT
BRANCH   7  16
HETATM   16  N2  UNL     1      -0.845  -0.056  -0.922  1.00  0.00    -0.372 N 
HETATM   17  H10 UNL     1      -0.298   0.827  -0.938  1.00  0.00     0.161 HD
BRANCH  16  18
HETATM   18  C9  UNL     1      -1.994  -0.103  -1.814  1.00  0.00     0.126 C 
BRANCH  18  19
HETATM   19  C10 UNL     1      -2.144   1.142  -2.618  1.00  0.00     0.053 C 
BRANCH  19  20
HETATM   20  C11 UNL     1      -3.354   1.005  -3.505  1.00  0.00    -0.078 C 
HETATM   21  C12 UNL     1      -3.321   1.063  -4.851  1.00  0.00    -0.020 C 
HETATM   22  C13 UNL     1      -4.690   0.893  -5.451  1.00  0.00     0.054 C 
HETATM   23  C14 UNL     1      -5.355  -0.298  -4.866  1.00  0.00    -0.027 C 
HETATM   24  C15 UNL     1      -5.377  -0.377  -3.544  1.00  0.00    -0.026 C 
HETATM   25  C16 UNL     1      -4.702   0.793  -2.925  1.00  0.00     0.060 C 
ENDBRANCH  19  20
ENDBRANCH  18  19
ENDBRANCH  16  18
ENDBRANCH   7  16
BRANCH   1  26
HETATM   26  C2  UNL     1       4.867   0.223   4.170  1.00  0.00     0.145 C 
BRANCH  26  27
HETATM   27  O1  UNL     1       5.536   1.380   4.433  1.00  0.00    -0.367 OA
HETATM   28  C1  UNL     1       6.525   1.935   3.614  1.00  0.00     0.208 C 
ENDBRANCH  26  27
ENDBRANCH   1  26
TORSDOF 6
