REMARK  7 active torsions:
REMARK  status: ('A' for Active; 'I' for Inactive)
REMARK    1  A    between atoms: N1_9  and  C7_10 
REMARK    2  A    between atoms: C8_11  and  C9_12 
REMARK    3  A    between atoms: C10_13  and  C11_14 
REMARK    4  A    between atoms: N2_16  and  C12_17 
REMARK    5  A    between atoms: C12_17  and  C13_18 
REMARK    6  A    between atoms: C13_18  and  C14_19 
REMARK    7  A    between atoms: C14_19  and  N3_20 
ROOT
HETATM    1  O1  UNL     1      -0.692  -3.312   1.425  1.00  0.00    -0.271 OA
HETATM    2  C1  UNL     1       0.266  -2.696   0.879  1.00  0.00     0.248 C 
HETATM    3  C2  UNL     1       1.659  -3.163   0.807  1.00  0.00     0.280 C 
HETATM    4  O2  UNL     1       2.580  -2.082   0.807  1.00  0.00    -0.324 OA
HETATM    5  C3  UNL     1       2.284  -0.866   0.232  1.00  0.00     0.176 A 
HETATM    6  C4  UNL     1       0.997  -0.491  -0.051  1.00  0.00     0.090 A 
HETATM    7  C5  UNL     1       1.052   0.777  -0.618  1.00  0.00     0.052 A 
HETATM    8  C6  UNL     1       2.391   1.111  -0.651  1.00  0.00     0.101 A 
HETATM    9  N1  UNL     1       3.148   0.098  -0.127  1.00  0.00    -0.312 N 
HETATM   10  N2  UNL     1      -0.049  -1.423   0.278  1.00  0.00    -0.312 N 
ENDROOT
BRANCH  10  11
HETATM   11  C12 UNL     1      -1.446  -0.996  -0.032  1.00  0.00     0.134 C 
BRANCH  11  12
HETATM   12  C13 UNL     1      -2.032  -0.272   1.121  1.00  0.00     0.050 C 
BRANCH  12  13
HETATM   13  C14 UNL     1      -3.434   0.203   1.017  1.00  0.00     0.274 C 
BRANCH  13  14
HETATM   14  N3  UNL     1      -3.815   1.130   0.031  1.00  0.00     0.088 N 
HETATM   15  C15 UNL     1      -3.877   0.758  -1.328  1.00  0.00     0.272 C 
HETATM   16  C16 UNL     1      -4.670  -0.526  -1.548  1.00  0.00     0.030 C 
HETATM   17  C17 UNL     1      -6.001  -0.285  -0.852  1.00  0.00     0.003 C 
HETATM   18  C18 UNL     1      -6.212   1.139  -0.471  1.00  0.00     0.030 C 
HETATM   19  C19 UNL     1      -5.110   1.758   0.348  1.00  0.00     0.272 C 
ENDBRANCH  13  14
ENDBRANCH  12  13
ENDBRANCH  11  12
ENDBRANCH  10  11
BRANCH   9  20
HETATM   20  C7  UNL     1       4.558   0.267  -0.079  1.00  0.00     0.095 C 
HETATM   21  C8  UNL     1       5.230   1.351  -0.512  1.00  0.00    -0.003 C 
BRANCH  21  22
HETATM   22  C9  UNL     1       6.645   1.026  -0.238  1.00  0.00     0.023 C 
HETATM   23  C10 UNL     1       7.879   1.451  -0.322  1.00  0.00     0.009 C 
BRANCH  23  24
HETATM   24  C11 UNL     1       8.827   0.467   0.212  1.00  0.00     0.090 C 
HETATM   25 BR1  UNL     1       7.886  -1.111   0.838  1.00  0.00    -0.096 Br
ENDBRANCH  23  24
ENDBRANCH  21  22
ENDBRANCH   9  20
TORSDOF 7
