REMARK  6 active torsions:
REMARK  status: ('A' for Active; 'I' for Inactive)
REMARK    1  A    between atoms: C7_11  and  C8_12 
REMARK    2  A    between atoms: C8_12  and  C9_13 
REMARK    3  A    between atoms: N3_23  and  C18_24 
REMARK    4  A    between atoms: C18_24  and  C19_25 
REMARK    5  A    between atoms: C19_25  and  C20_26 
REMARK    6  A    between atoms: C20_26  and  N4_27 
ROOT
HETATM    1  O1  UNL     1      -1.272  -3.783  -2.614  1.00  0.00    -0.271 OA
HETATM    2  C1  UNL     1      -0.519  -3.537  -1.637  1.00  0.00     0.248 A 
HETATM    3  C2  UNL     1      -0.219  -4.789  -0.898  1.00  0.00     0.279 A 
HETATM    4  O2  UNL     1       0.587  -4.569   0.229  1.00  0.00    -0.340 OA
HETATM    5  C3  UNL     1       1.090  -3.323   0.600  1.00  0.00     0.098 A 
HETATM    6  C4  UNL     1       1.891  -3.242   1.717  1.00  0.00     0.071 A 
HETATM    7  C5  UNL     1       2.389  -2.013   2.083  1.00  0.00     0.073 A 
HETATM    8  N1  UNL     1       3.173  -1.883   3.181  1.00  0.00    -0.241 NA
HETATM    9  C6  UNL     1       3.627  -0.661   3.502  1.00  0.00     0.234 A 
HETATM   10  N2  UNL     1       3.344   0.440   2.791  1.00  0.00    -0.245 NA
HETATM   11  C7  UNL     1       2.559   0.354   1.678  1.00  0.00     0.052 A 
HETATM   12  C15 UNL     1       2.091  -0.893   1.345  1.00  0.00     0.020 A 
HETATM   13  C16 UNL     1       1.291  -0.976   0.232  1.00  0.00     0.048 A 
HETATM   14  C17 UNL     1       0.790  -2.202  -0.137  1.00  0.00     0.071 A 
HETATM   15  N3  UNL     1      -0.030  -2.222  -1.300  1.00  0.00    -0.314 N 
ENDROOT
BRANCH  15  16
HETATM   16  C18 UNL     1      -0.427  -1.162  -2.154  1.00  0.00     0.134 C 
BRANCH  16  17
HETATM   17  C19 UNL     1      -1.693  -0.452  -1.836  1.00  0.00     0.040 C 
BRANCH  17  18
HETATM   18  C20 UNL     1      -1.774   0.231  -0.514  1.00  0.00     0.118 C 
BRANCH  18  19
HETATM   19  N4  UNL     1      -3.059   0.832  -0.382  1.00  0.00    -0.412 N 
HETATM   20  C21 UNL     1      -3.352   1.930  -1.232  1.00  0.00     0.117 C 
HETATM   21  C22 UNL     1      -4.646   2.626  -0.877  1.00  0.00     0.019 C 
HETATM   22  C23 UNL     1      -5.236   2.186   0.423  1.00  0.00     0.003 C 
HETATM   23  C24 UNL     1      -5.319   0.701   0.556  1.00  0.00     0.019 C 
HETATM   24  C25 UNL     1      -4.131  -0.017  -0.017  1.00  0.00     0.117 C 
ENDBRANCH  18  19
ENDBRANCH  17  18
ENDBRANCH  16  17
ENDBRANCH  15  16
BRANCH  11  25
HETATM   25  C8  UNL     1       2.355   1.641   0.970  1.00  0.00     0.099 C 
BRANCH  25  26
HETATM   26  C9  UNL     1       3.248   1.805  -0.197  1.00  0.00    -0.051 A 
HETATM   27  C10 UNL     1       3.124   1.630  -1.539  1.00  0.00     0.007 A 
HETATM   28  C11 UNL     1       4.105   1.831  -2.479  1.00  0.00     0.002 A 
HETATM   29  C12 UNL     1       5.340   2.257  -1.976  1.00  0.00     0.024 A 
HETATM   30  C13 UNL     1       5.558   2.461  -0.638  1.00  0.00     0.034 A 
HETATM   31 CL1  UNL     1       7.144   2.989  -0.193  1.00  0.00    -0.084 Cl
HETATM   32  C14 UNL     1       4.505   2.232   0.246  1.00  0.00     0.031 A 
ENDBRANCH  25  26
ENDBRANCH  11  25
TORSDOF 6
