REMARK  3 active torsions:
REMARK  status: ('A' for Active; 'I' for Inactive)
REMARK    1  A    between atoms: N1_8  and  C8_9 
REMARK    2  A    between atoms: C8_9  and  C9_10 
REMARK    3  A    between atoms: C9_10  and  N2_11 
ROOT
HETATM    1  C1  UNL     1       0.010  -3.321   2.580  1.00  0.00     0.048 C 
HETATM    2  C2  UNL     1       0.562  -2.348   1.580  1.00  0.00    -0.058 A 
HETATM    3  C3  UNL     1       1.728  -2.660   0.914  1.00  0.00     0.036 A 
HETATM    4  C4  UNL     1       2.318  -1.836  -0.019  1.00  0.00     0.036 A 
HETATM    5  C5  UNL     1       1.479  -0.746  -0.071  1.00  0.00     0.070 A 
HETATM    6  C6  UNL     1       0.322  -0.305   0.516  1.00  0.00     0.175 A 
HETATM    7  C7  UNL     1      -0.167  -1.192   1.414  1.00  0.00     0.047 A 
HETATM    8  N1  UNL     1      -0.117   1.058   0.179  1.00  0.00     0.126 N 
HETATM    9  C16 UNL     1       0.429   2.413  -0.014  1.00  0.00     0.382 A 
HETATM   10  O1  UNL     1       1.248   1.689   0.405  1.00  0.00    -0.141 OA
HETATM   11  C17 UNL     1       1.615   3.306   0.077  1.00  0.00     0.249 C 
HETATM   12  O2  UNL     1       2.704   3.038   0.835  1.00  0.00    -0.382 OA
HETATM   13  C18 UNL     1       3.246   1.856   0.951  1.00  0.00     0.197 C 
HETATM   14  C19 UNL     1       4.584   1.547   1.515  1.00  0.00     0.026 C 
HETATM   15  C20 UNL     1       5.375   0.880   0.620  1.00  0.00     0.041 C 
HETATM   16  C21 UNL     1       5.212   0.401  -0.802  1.00  0.00     0.137 C 
HETATM   17  C22 UNL     1       4.604  -0.976  -0.593  1.00  0.00     0.111 C 
HETATM   18  N3  UNL     1       5.431  -1.727   0.022  1.00  0.00    -0.228 NA
HETATM   19  C23 UNL     1       6.501  -1.158   0.838  1.00  0.00     0.235 C 
HETATM   20  N4  UNL     1       6.637   0.203   0.963  1.00  0.00    -0.246 NA
HETATM   21  N5  UNL     1       3.514  -1.930  -0.742  1.00  0.00    -0.344 N 
HETATM   22  H31 UNL     1       3.355  -2.773  -1.289  1.00  0.00     0.167 HD
ENDROOT
BRANCH   8  23
HETATM   23  C8  UNL     1      -1.529   0.942  -0.066  1.00  0.00     0.315 C 
BRANCH  23  24
HETATM   24  C9  UNL     1      -1.785   0.585  -1.538  1.00  0.00     0.304 C 
BRANCH  24  25
HETATM   25  N2  UNL     1      -3.154   0.450  -1.865  1.00  0.00     0.094 N 
HETATM   26  C10 UNL     1      -3.907   1.676  -1.823  1.00  0.00     0.273 C 
HETATM   27  C11 UNL     1      -5.330   1.338  -2.226  1.00  0.00     0.030 C 
HETATM   28  C12 UNL     1      -5.958   0.715  -0.978  1.00  0.00     0.004 C 
HETATM   29  C13 UNL     1      -4.936  -0.097  -0.247  1.00  0.00     0.035 C 
HETATM   30  C14 UNL     1      -3.896  -0.594  -1.259  1.00  0.00     0.219 C 
HETATM   31  C15 UNL     1      -3.124  -1.692  -0.618  1.00  0.00     0.043 C 
ENDBRANCH  24  25
ENDBRANCH  23  24
ENDBRANCH   8  23
TORSDOF 3
