REMARK  7 active torsions:
REMARK  status: ('A' for Active; 'I' for Inactive)
REMARK    1  A    between atoms: N2_10  and  O2_11 
REMARK    2  A    between atoms: O2_11  and  C8_12 
REMARK    3  A    between atoms: C8_12  and  C9_13 
REMARK    4  A    between atoms: C9_13  and  C10_14 
REMARK    5  A    between atoms: C10_14  and  N3_15 
REMARK    6  A    between atoms: C17_22  and  C18_23 
REMARK    7  A    between atoms: C18_23  and  C19_24 
ROOT
HETATM    1  C1  UNL     1      -4.495  -1.322   3.024  1.00  0.00     0.150 C 
HETATM    2  N1  UNL     1      -3.333  -1.498   2.272  1.00  0.00    -0.373 N 
HETATM    3  C2  UNL     1      -2.770  -0.874   1.405  1.00  0.00     0.042 A 
HETATM    4  C3  UNL     1      -2.176  -2.157   1.868  1.00  0.00     0.165 A 
HETATM    5  C4  UNL     1      -1.083  -2.696   1.308  1.00  0.00     0.181 C 
HETATM    6  O1  UNL     1      -0.224  -2.407   0.304  1.00  0.00    -0.381 OA
HETATM    7  C5  UNL     1      -0.588  -2.780  -1.058  1.00  0.00     0.170 C 
HETATM    8  C6  UNL     1       0.614  -2.297  -1.851  1.00  0.00     0.048 C 
HETATM    9  C7  UNL     1       0.645  -0.822  -1.893  1.00  0.00     0.157 C 
HETATM   10  N2  UNL     1       0.296  -0.158  -0.649  1.00  0.00    -0.269 N 
HETATM   11  C16 UNL     1      -1.011  -0.065  -0.166  1.00  0.00     0.127 C 
HETATM   12  C17 UNL     1      -2.190  -0.078   0.364  1.00  0.00    -0.004 C 
ENDROOT
BRANCH  12  13
HETATM   13  C18 UNL     1      -3.476   0.552   0.148  1.00  0.00     0.105 C 
BRANCH  13  14
HETATM   14  C19 UNL     1      -4.549   1.201  -0.190  1.00  0.00     0.086 C 
HETATM   15  N4  UNL     1      -5.619   0.880   0.730  1.00  0.00    -0.355 N 
HETATM   16  C20 UNL     1      -7.011   0.498   0.624  1.00  0.00     0.089 C 
HETATM   17  H30 UNL     1      -5.314   0.953   1.751  1.00  0.00     0.166 HD
HETATM   18  C21 UNL     1      -7.914   0.479  -0.375  1.00  0.00     0.017 C 
HETATM   19  C22 UNL     1      -7.760   0.872  -1.793  1.00  0.00    -0.001 C 
HETATM   20  C23 UNL     1      -6.920   1.739  -2.385  1.00  0.00    -0.007 C 
HETATM   21  C24 UNL     1      -5.824   2.688  -2.143  1.00  0.00     0.148 C 
HETATM   22  N5  UNL     1      -4.769   2.107  -1.301  1.00  0.00    -0.376 N 
HETATM   23  H37 UNL     1      -3.765   2.405  -1.524  1.00  0.00     0.161 HD
ENDBRANCH  13  14
ENDBRANCH  12  13
BRANCH  10  24
HETATM   24  O2  UNL     1       1.038   0.451   0.312  1.00  0.00    -0.279 OA
BRANCH  24  25
HETATM   25  C8  UNL     1       2.320   0.776  -0.061  1.00  0.00     0.203 C 
BRANCH  25  26
HETATM   26  C9  UNL     1       3.170   1.138   1.158  1.00  0.00     0.048 C 
BRANCH  26  27
HETATM   27  C10 UNL     1       4.571   1.503   0.817  1.00  0.00     0.119 C 
BRANCH  27  28
HETATM   28  N3  UNL     1       5.327   0.503   0.143  1.00  0.00    -0.412 N 
HETATM   29  C11 UNL     1       5.649  -0.673   0.876  1.00  0.00     0.117 C 
HETATM   30  C12 UNL     1       7.133  -0.968   0.669  1.00  0.00     0.019 C 
HETATM   31  C13 UNL     1       7.991   0.249   0.999  1.00  0.00     0.003 C 
HETATM   32  C14 UNL     1       7.528   1.435   0.151  1.00  0.00     0.019 C 
HETATM   33  C15 UNL     1       6.348   1.006  -0.722  1.00  0.00     0.117 C 
ENDBRANCH  27  28
ENDBRANCH  26  27
ENDBRANCH  25  26
ENDBRANCH  24  25
ENDBRANCH  10  24
TORSDOF 7
