REMARK  6 active torsions:
REMARK  status: ('A' for Active; 'I' for Inactive)
REMARK    1  A    between atoms: N1_2  and  C2_3 
REMARK    2  A    between atoms: C2_3  and  C18_23 
REMARK    3  A    between atoms: N2_12  and  C9_13 
REMARK    4  A    between atoms: C9_13  and  C10_14 
REMARK    5  A    between atoms: C10_14  and  C11_15 
REMARK    6  A    between atoms: C11_15  and  N3_16 
ROOT
HETATM    1  C2  UNL     1       2.994   0.473  -0.543  1.00  0.00     0.037 C 
HETATM    2  C3  UNL     1       2.880  -0.807  -0.797  1.00  0.00    -0.021 C 
HETATM    3  C4  UNL     1       3.653  -1.217  -2.012  1.00  0.00     0.069 C 
HETATM    4  C5  UNL     1       3.519  -2.711  -1.926  1.00  0.00     0.012 C 
HETATM    5  C6  UNL     1       2.723  -3.119  -0.960  1.00  0.00     0.070 C 
HETATM    6  O1  UNL     1       2.235  -4.299  -0.417  1.00  0.00    -0.344 OA
HETATM    7  C7  UNL     1       0.864  -4.468  -0.111  1.00  0.00     0.278 C 
HETATM    8  C8  UNL     1       0.154  -3.271  -0.686  1.00  0.00     0.244 C 
HETATM    9  O2  UNL     1      -0.918  -3.419  -1.331  1.00  0.00    -0.271 OA
HETATM   10  N2  UNL     1       0.740  -1.968  -0.472  1.00  0.00    -0.336 N 
HETATM   11  C17 UNL     1       2.171  -1.930  -0.213  1.00  0.00     0.175 C 
ENDROOT
BRANCH   1  12
HETATM   12  N1  UNL     1       3.709   1.492  -1.216  1.00  0.00    -0.396 NA
HETATM   13  C1  UNL     1       4.674   1.363  -2.019  1.00  0.00     0.315 C 
ENDBRANCH   1  12
BRANCH   1  14
HETATM   14  C18 UNL     1       2.468   1.282   0.577  1.00  0.00    -0.009 A 
HETATM   15  C19 UNL     1       1.802   2.481   0.629  1.00  0.00     0.014 A 
HETATM   16  C20 UNL     1       1.419   3.087   1.801  1.00  0.00     0.002 A 
HETATM   17  C21 UNL     1       1.704   2.487   3.012  1.00  0.00     0.019 A 
HETATM   18  C22 UNL     1       2.384   1.263   2.988  1.00  0.00     0.011 A 
HETATM   19 BR1  UNL     1       2.689   0.590   4.762  1.00  0.00    -0.051 Br
HETATM   20  C23 UNL     1       2.764   0.661   1.799  1.00  0.00     0.032 A 
ENDBRANCH   1  14
BRANCH  10  21
HETATM   21  C9  UNL     1      -0.129  -0.812  -0.528  1.00  0.00     0.129 C 
BRANCH  21  22
HETATM   22  C10 UNL     1      -0.706  -0.480   0.833  1.00  0.00     0.039 C 
BRANCH  22  23
HETATM   23  C11 UNL     1      -1.602   0.712   0.842  1.00  0.00     0.118 C 
BRANCH  23  24
HETATM   24  N3  UNL     1      -2.744   0.597   0.016  1.00  0.00    -0.412 N 
HETATM   25  C12 UNL     1      -3.728  -0.330   0.413  1.00  0.00     0.117 C 
HETATM   26  C13 UNL     1      -5.000   0.280   0.963  1.00  0.00     0.019 C 
HETATM   27  C14 UNL     1      -5.509   1.414   0.083  1.00  0.00     0.003 C 
HETATM   28  C15 UNL     1      -4.381   2.444   0.114  1.00  0.00     0.019 C 
HETATM   29  C16 UNL     1      -3.209   1.813  -0.571  1.00  0.00     0.117 C 
ENDBRANCH  23  24
ENDBRANCH  22  23
ENDBRANCH  21  22
ENDBRANCH  10  21
TORSDOF 6
