REMARK  3 active torsions:
REMARK  status: ('A' for Active; 'I' for Inactive)
REMARK    1  A    between atoms: N1_5  and  C5_6 
REMARK    2  A    between atoms: C5_6  and  C6_7 
REMARK    3  A    between atoms: C6_7  and  N2_8 
ROOT
HETATM    1  N2  UNL     1       0.558   0.847  -0.248  1.00  0.00    -0.377 N 
HETATM    2  C7  UNL     1       1.049   2.102  -0.910  1.00  0.00     0.121 C 
HETATM    3  C8  UNL     1       0.944   2.870   0.132  1.00  0.00     0.049 A 
HETATM    4  C9  UNL     1      -0.447   3.339   0.013  1.00  0.00     0.050 A 
HETATM    5  N3  UNL     1      -1.403   3.153  -0.851  1.00  0.00    -0.186 NA
HETATM    6  N4  UNL     1      -2.664   3.669  -0.810  1.00  0.00    -0.296 N 
HETATM    7  C10 UNL     1      -3.755   2.973  -0.222  1.00  0.00     0.263 C 
HETATM    8  N5  UNL     1      -4.309   1.830  -0.812  1.00  0.00    -0.372 N 
HETATM    9  C11 UNL     1      -4.147   0.488  -1.235  1.00  0.00     0.037 A 
HETATM   10  C12 UNL     1      -5.169   0.036  -2.083  1.00  0.00     0.030 A 
HETATM   11  C13 UNL     1      -5.142  -1.260  -2.556  1.00  0.00     0.004 A 
HETATM   12  C14 UNL     1      -4.131  -2.101  -2.204  1.00  0.00     0.024 A 
HETATM   13  C15 UNL     1      -3.118  -1.708  -1.386  1.00  0.00     0.043 A 
HETATM   14 CL1  UNL     1      -1.703  -2.555  -0.790  1.00  0.00    -0.084 Cl
HETATM   15  C16 UNL     1      -3.134  -0.410  -0.905  1.00  0.00    -0.000 A 
HETATM   16  C17 UNL     1      -2.173   0.200  -0.055  1.00  0.00     0.194 C 
HETATM   17  C18 UNL     1      -0.905   0.627   0.159  1.00  0.00     0.116 C 
HETATM   18  O1  UNL     1      -1.068   1.131   1.429  1.00  0.00    -0.366 OA
HETATM   19  C19 UNL     1      -0.845   1.967   2.505  1.00  0.00     0.171 C 
HETATM   20  C20 UNL     1       0.199   3.015   2.450  1.00  0.00     0.038 C 
HETATM   21  C21 UNL     1       0.326   3.782   1.137  1.00  0.00     0.056 A 
HETATM   22  H14 UNL     1      -2.602   4.613  -1.277  1.00  0.00     0.184 HD
HETATM   23  H17 UNL     1      -5.296   2.220  -1.001  1.00  0.00     0.161 HD
ENDROOT
BRANCH   1  24
HETATM   24  C6  UNL     1       1.453  -0.253   0.065  1.00  0.00     0.150 C 
BRANCH  24  25
HETATM   25  C5  UNL     1       1.933  -0.887  -1.192  1.00  0.00     0.291 C 
BRANCH  25  26
HETATM   26  N1  UNL     1       2.827  -1.993  -1.038  1.00  0.00     0.090 N 
HETATM   27  C4  UNL     1       2.292  -3.181  -0.480  1.00  0.00     0.273 C 
HETATM   28  C3  UNL     1       3.374  -3.758   0.426  1.00  0.00     0.036 C 
HETATM   29  C2  UNL     1       4.604  -2.977   0.060  1.00  0.00     0.011 C 
HETATM   30  C1  UNL     1       5.426  -2.838   1.327  1.00  0.00     0.011 C 
HETATM   31  C22 UNL     1       4.057  -1.652  -0.373  1.00  0.00     0.276 C 
ENDBRANCH  25  26
ENDBRANCH  24  25
ENDBRANCH   1  24
TORSDOF 3
