REMARK  7 active torsions:
REMARK  status: ('A' for Active; 'I' for Inactive)
REMARK    1  A    between atoms: O1_2  and  C2_3 
REMARK    2  A    between atoms: C5_6  and  O2_7 
REMARK    3  A    between atoms: C6_8  and  C7_9 
REMARK    4  A    between atoms: C7_9  and  C8_10 
REMARK    5  A    between atoms: C11_15  and  N3_16 
REMARK    6  A    between atoms: N3_16  and  C12_17 
REMARK    7  A    between atoms: C12_17  and  C13_18 
ROOT
HETATM    1  C8  UNL     1      -0.062  -0.904   1.858  1.00  0.00     0.009 A 
HETATM    2  C9  UNL     1      -0.034  -2.072   2.582  1.00  0.00     0.129 A 
HETATM    3  N1  UNL     1       1.142  -2.671   2.754  1.00  0.00    -0.253 NA
HETATM    4  C10 UNL     1       2.297  -2.183   2.251  1.00  0.00     0.234 A 
HETATM    5  N2  UNL     1       2.228  -1.044   1.553  1.00  0.00    -0.224 NA
HETATM    6  C11 UNL     1       1.094  -0.371   1.327  1.00  0.00     0.132 A 
ENDROOT
BRANCH   1   7
HETATM    7  C7  UNL     1      -1.334  -0.214   1.652  1.00  0.00     0.085 C 
BRANCH   7   8
HETATM    8  C6  UNL     1      -1.931  -0.374   0.306  1.00  0.00    -0.018 A 
HETATM    9  C5  UNL     1      -1.494  -1.065  -0.795  1.00  0.00     0.072 A 
HETATM   10  C4  UNL     1      -2.229  -1.070  -1.960  1.00  0.00     0.040 A 
HETATM   11  C3  UNL     1      -3.423  -0.407  -2.114  1.00  0.00     0.039 A 
HETATM   12  C2  UNL     1      -3.849   0.282  -0.997  1.00  0.00     0.068 A 
HETATM   13  C18 UNL     1      -3.141   0.314   0.193  1.00  0.00     0.047 A 
BRANCH   9  14
HETATM   14  O2  UNL     1      -0.295  -1.719  -0.612  1.00  0.00    -0.360 OA
HETATM   15  H6  UNL     1       0.125  -2.392  -1.212  1.00  0.00     0.217 HD
ENDBRANCH   9  14
BRANCH  12  16
HETATM   16  O1  UNL     1      -5.071   0.978  -1.108  1.00  0.00    -0.356 OA
HETATM   17  C1  UNL     1      -5.598   1.712  -0.033  1.00  0.00     0.210 C 
ENDBRANCH  12  16
ENDBRANCH   7   8
ENDBRANCH   1   7
BRANCH   6  18
HETATM   18  N3  UNL     1       1.177   0.832   0.582  1.00  0.00    -0.373 N 
HETATM   19  H11 UNL     1       0.211   1.270   0.500  1.00  0.00     0.161 HD
BRANCH  18  20
HETATM   20  C12 UNL     1       2.271   1.523  -0.045  1.00  0.00     0.133 C 
BRANCH  20  21
HETATM   21  C13 UNL     1       2.848   0.881  -1.259  1.00  0.00     0.048 A 
HETATM   22  C14 UNL     1       3.411  -0.450  -1.117  1.00  0.00    -0.017 A 
HETATM   23  C15 UNL     1       4.718  -0.363  -1.444  1.00  0.00    -0.004 A 
HETATM   24  C16 UNL     1       5.059   1.026  -1.812  1.00  0.00    -0.004 A 
HETATM   25  C17 UNL     1       3.970   1.771  -1.709  1.00  0.00    -0.017 A 
ENDBRANCH  20  21
ENDBRANCH  18  20
ENDBRANCH   6  18
TORSDOF 7
