REMARK  0 active torsions:
REMARK  status: ('A' for Active; 'I' for Inactive)
ROOT
HETATM    1  C1  UNL     1       2.795   3.466   1.211  1.00  0.00     0.066 C 
HETATM    2  C2  UNL     1       1.643   3.188   0.329  1.00  0.00     0.014 C 
HETATM    3  N1  UNL     1       0.450   3.310   0.750  1.00  0.00    -0.241 NA
HETATM    4  C3  UNL     1      -0.783   3.106   0.115  1.00  0.00     0.140 C 
HETATM    5  N2  UNL     1      -1.912   3.664   0.463  1.00  0.00    -0.273 NA
HETATM    6  C4  UNL     1      -2.896   2.637   0.839  1.00  0.00     0.162 C 
HETATM    7  C5  UNL     1      -2.504   1.554  -0.155  1.00  0.00    -0.000 C 
HETATM    8  C6  UNL     1      -3.706   1.206  -0.967  1.00  0.00     0.019 C 
HETATM    9  C7  UNL     1      -1.826   0.458   0.570  1.00  0.00     0.048 C 
HETATM   10  C8  UNL     1      -2.277  -0.939   0.295  1.00  0.00     0.223 C 
HETATM   11  C9  UNL     1      -3.270  -1.318   1.371  1.00  0.00     0.036 C 
HETATM   12  C10 UNL     1      -3.792  -2.691   1.188  1.00  0.00     0.004 C 
HETATM   13  C11 UNL     1      -2.630  -3.654   1.179  1.00  0.00     0.030 C 
HETATM   14  C12 UNL     1      -1.600  -3.230   0.134  1.00  0.00     0.273 C 
HETATM   15  N3  UNL     1      -1.179  -1.884   0.401  1.00  0.00     0.093 N 
HETATM   16  C13 UNL     1       0.011  -1.458  -0.245  1.00  0.00     0.274 C 
HETATM   17  C14 UNL     1       0.917  -2.546  -0.756  1.00  0.00     0.050 C 
HETATM   18  C15 UNL     1       2.138  -1.990  -1.476  1.00  0.00     0.134 C 
HETATM   19  N4  UNL     1       2.942  -1.114  -0.641  1.00  0.00    -0.318 N 
HETATM   20  C16 UNL     1       3.473  -1.455   0.657  1.00  0.00     0.247 C 
HETATM   21  O1  UNL     1       2.861  -2.350   1.289  1.00  0.00    -0.271 OA
HETATM   22  C17 UNL     1       4.658  -0.555   0.811  1.00  0.00     0.271 C 
HETATM   23  O2  UNL     1       5.385  -0.478  -0.357  1.00  0.00    -0.376 OA
HETATM   24  C18 UNL     1       4.631  -0.035  -1.431  1.00  0.00     0.225 C 
HETATM   25  C19 UNL     1       3.280   0.293  -1.034  1.00  0.00     0.035 C 
HETATM   26  C20 UNL     1       2.554   1.372  -0.966  1.00  0.00     0.006 C 
HETATM   27  C21 UNL     1       2.036   2.770  -1.038  1.00  0.00     0.083 C 
HETATM   28  C22 UNL     1      -1.525   2.395  -0.994  1.00  0.00     0.163 C 
HETATM   29 CL1  UNL     1      -2.389   3.529  -2.019  1.00  0.00    -0.116 Cl
ENDROOT
TORSDOF 0
