REMARK  6 active torsions:
REMARK  status: ('A' for Active; 'I' for Inactive)
REMARK    1  A    between atoms: C7_11  and  N3_12 
REMARK    2  A    between atoms: N3_12  and  C8_13 
REMARK    3  A    between atoms: N4_21  and  C16_22 
REMARK    4  A    between atoms: C16_22  and  C17_23 
REMARK    5  A    between atoms: C17_23  and  C18_24 
REMARK    6  A    between atoms: C18_24  and  N5_25 
ROOT
HETATM    1  O1  UNL     1      -1.911  -4.026  -2.227  1.00  0.00    -0.271 OA
HETATM    2  C1  UNL     1      -1.040  -3.738  -1.361  1.00  0.00     0.248 C 
HETATM    3  C2  UNL     1      -0.899  -4.889  -0.415  1.00  0.00     0.279 C 
HETATM    4  O2  UNL     1       0.262  -4.740   0.383  1.00  0.00    -0.340 OA
HETATM    5  C3  UNL     1       0.996  -3.584   0.480  1.00  0.00     0.098 A 
HETATM    6  C4  UNL     1       2.045  -3.426   1.383  1.00  0.00     0.071 A 
HETATM    7  C5  UNL     1       2.769  -2.253   1.458  1.00  0.00     0.075 A 
HETATM    8  N1  UNL     1       3.771  -2.130   2.334  1.00  0.00    -0.241 NA
HETATM    9  C6  UNL     1       4.519  -0.994   2.451  1.00  0.00     0.236 A 
HETATM   10  N2  UNL     1       4.251   0.078   1.647  1.00  0.00    -0.224 NA
HETATM   11  C7  UNL     1       3.240  -0.046   0.764  1.00  0.00     0.142 A 
HETATM   12  C13 UNL     1       2.484  -1.189   0.644  1.00  0.00     0.041 A 
HETATM   13  C14 UNL     1       1.455  -1.310  -0.258  1.00  0.00     0.050 A 
HETATM   14  C15 UNL     1       0.740  -2.486  -0.322  1.00  0.00     0.071 A 
HETATM   15  N4  UNL     1      -0.298  -2.499  -1.292  1.00  0.00    -0.314 N 
ENDROOT
BRANCH  15  16
HETATM   16  C16 UNL     1      -0.724  -1.501  -2.208  1.00  0.00     0.134 C 
BRANCH  16  17
HETATM   17  C17 UNL     1      -1.811  -0.578  -1.740  1.00  0.00     0.040 C 
BRANCH  17  18
HETATM   18  C18 UNL     1      -1.525   0.219  -0.522  1.00  0.00     0.118 C 
BRANCH  18  19
HETATM   19  N5  UNL     1      -2.646   1.046  -0.202  1.00  0.00    -0.412 N 
HETATM   20  C19 UNL     1      -3.820   0.397   0.259  1.00  0.00     0.117 C 
HETATM   21  C20 UNL     1      -5.000   1.298  -0.131  1.00  0.00     0.019 C 
HETATM   22  C21 UNL     1      -4.758   2.708   0.324  1.00  0.00     0.003 C 
HETATM   23  C22 UNL     1      -3.545   2.787   1.235  1.00  0.00     0.019 C 
HETATM   24  C23 UNL     1      -2.320   2.246   0.525  1.00  0.00     0.117 C 
ENDBRANCH  18  19
ENDBRANCH  17  18
ENDBRANCH  16  17
ENDBRANCH  15  16
BRANCH  11  25
HETATM   25  N3  UNL     1       2.992   1.088  -0.056  1.00  0.00    -0.339 N 
HETATM   26  H5  UNL     1       2.285   1.251  -0.792  1.00  0.00     0.167 HD
BRANCH  25  27
HETATM   27  C8  UNL     1       3.801   2.252   0.082  1.00  0.00     0.044 C 
HETATM   28  C9  UNL     1       4.290   3.057  -0.849  1.00  0.00     0.003 C 
HETATM   29  C10 UNL     1       5.463   3.584  -0.537  1.00  0.00     0.014 C 
HETATM   30  C11 UNL     1       5.330   3.696   0.932  1.00  0.00     0.003 C 
HETATM   31  C12 UNL     1       4.322   2.889   1.310  1.00  0.00     0.030 C 
ENDBRANCH  25  27
ENDBRANCH  11  25
TORSDOF 6
