REMARK  6 active torsions:
REMARK  status: ('A' for Active; 'I' for Inactive)
REMARK    1  A    between atoms: N1_1  and  C1_2 
REMARK    2  A    between atoms: N2_7  and  C6_8 
REMARK    3  A    between atoms: C6_8  and  C7_9 
REMARK    4  A    between atoms: C7_9  and  C8_10 
REMARK    5  A    between atoms: C8_10  and  N3_11 
REMARK    6  A    between atoms: C15_20  and  C16_21 
ROOT
HETATM    1  N3  UNL     1       0.205  -2.537   1.063  1.00  0.00    -0.317 N 
HETATM    2  C9  UNL     1      -0.003  -3.205   2.308  1.00  0.00     0.248 C 
HETATM    3  O1  UNL     1      -1.027  -3.931   2.372  1.00  0.00    -0.271 OA
HETATM    4  C10 UNL     1       0.996  -2.966   3.352  1.00  0.00     0.272 C 
HETATM    5  O2  UNL     1       1.462  -1.687   3.496  1.00  0.00    -0.364 OA
HETATM    6  C11 UNL     1       1.093  -0.787   2.549  1.00  0.00     0.224 A 
HETATM    7  C12 UNL     1       1.078  -1.386   1.165  1.00  0.00     0.050 A 
HETATM    8  C13 UNL     1       1.865  -0.740   0.321  1.00  0.00     0.044 A 
HETATM    9  C14 UNL     1       2.505   0.373   1.044  1.00  0.00     0.023 A 
HETATM   10  C15 UNL     1       3.397   1.326   0.597  1.00  0.00     0.081 A 
HETATM   11  N4  UNL     1       3.822   2.255   1.505  1.00  0.00    -0.240 NA
HETATM   12  C22 UNL     1       3.359   2.204   2.786  1.00  0.00     0.234 A 
HETATM   13  N5  UNL     1       2.482   1.266   3.221  1.00  0.00    -0.242 NA
HETATM   14  C23 UNL     1       2.037   0.333   2.363  1.00  0.00     0.083 A 
ENDROOT
BRANCH   1  15
HETATM   15  C8  UNL     1      -0.341  -2.886  -0.201  1.00  0.00     0.134 C 
BRANCH  15  16
HETATM   16  C7  UNL     1      -1.653  -2.273  -0.554  1.00  0.00     0.050 C 
BRANCH  16  17
HETATM   17  C6  UNL     1      -1.629  -0.774  -0.586  1.00  0.00     0.277 C 
BRANCH  17  18
HETATM   18  N2  UNL     1      -2.936  -0.186  -0.931  1.00  0.00     0.121 N 
HETATM   19  C1  UNL     1      -2.709   1.248  -0.988  1.00  0.00     0.451 C 
HETATM   20  C2  UNL     1      -3.922   2.044  -1.318  1.00  0.00     0.068 C 
HETATM   21  C3  UNL     1      -5.082   1.719  -0.434  1.00  0.00     0.006 C 
HETATM   22  C4  UNL     1      -5.193   0.239  -0.262  1.00  0.00     0.030 C 
HETATM   23  C5  UNL     1      -3.898  -0.417   0.130  1.00  0.00     0.275 C 
BRANCH  19  24
HETATM   24  N1  UNL     1      -2.115   1.738   0.242  1.00  0.00     0.112 N 
HETATM   25  H1  UNL     1      -1.637   2.640  -0.000  1.00  0.00     0.315 HD
HETATM   26  H2  UNL     1      -2.831   1.982   0.966  1.00  0.00     0.315 HD
ENDBRANCH  19  24
ENDBRANCH  17  18
ENDBRANCH  16  17
ENDBRANCH  15  16
ENDBRANCH   1  15
BRANCH  10  27
HETATM   27  C16 UNL     1       3.878   1.365  -0.782  1.00  0.00    -0.005 A 
HETATM   28  C17 UNL     1       3.949   2.493  -1.581  1.00  0.00     0.014 A 
HETATM   29  C18 UNL     1       4.432   2.414  -2.878  1.00  0.00     0.003 A 
HETATM   30  C19 UNL     1       4.859   1.217  -3.422  1.00  0.00     0.024 A 
HETATM   31  C20 UNL     1       4.790   0.087  -2.628  1.00  0.00     0.035 A 
HETATM   32 CL1  UNL     1       5.346  -1.410  -3.369  1.00  0.00    -0.084 Cl
HETATM   33  C21 UNL     1       4.306   0.177  -1.333  1.00  0.00     0.037 A 
ENDBRANCH  10  27
TORSDOF 6
