REMARK  3 active torsions:
REMARK  status: ('A' for Active; 'I' for Inactive)
REMARK    1  A    between atoms: C5_5  and  C6_6 
REMARK    2  A    between atoms: C6_6  and  N1_7 
REMARK    3  A    between atoms: N1_7  and  C7_8 
ROOT
HETATM    1  C7  UNL     1       0.277  -0.875  -1.190  1.00  0.00     0.156 A 
HETATM    2  N2  UNL     1       0.758  -1.908  -1.952  1.00  0.00    -0.222 NA
HETATM    3  C8  UNL     1      -0.108  -2.470  -2.811  1.00  0.00     0.238 A 
HETATM    4  N3  UNL     1      -1.373  -2.027  -2.903  1.00  0.00    -0.215 NA
HETATM    5  C9  UNL     1      -1.858  -1.022  -2.168  1.00  0.00     0.201 A 
HETATM    6  C10 UNL     1      -1.040  -0.385  -1.255  1.00  0.00     0.132 A 
HETATM    7  N4  UNL     1      -1.232   0.663  -0.323  1.00  0.00    -0.359 N 
HETATM    8  C11 UNL     1      -1.773   0.932   0.993  1.00  0.00     0.088 C 
HETATM    9  C12 UNL     1      -2.847   0.815   1.727  1.00  0.00     0.017 C 
HETATM   10  C13 UNL     1      -4.196   0.358   1.757  1.00  0.00     0.001 C 
HETATM   11  C14 UNL     1      -5.170  -0.215   1.082  1.00  0.00     0.002 C 
HETATM   12  C15 UNL     1      -4.902  -0.618  -0.336  1.00  0.00     0.025 C 
HETATM   13  C16 UNL     1      -4.098  -0.726  -1.444  1.00  0.00     0.144 C 
HETATM   14  O1  UNL     1      -3.187  -0.763  -2.457  1.00  0.00    -0.302 OA
HETATM   15  H9  UNL     1      -0.782   1.416  -0.888  1.00  0.00     0.165 HD
ENDROOT
BRANCH   1  16
HETATM   16  N1  UNL     1       1.220  -0.242  -0.297  1.00  0.00    -0.370 N 
HETATM   17  H7  UNL     1       1.005   0.570   0.315  1.00  0.00     0.161 HD
BRANCH  16  18
HETATM   18  C6  UNL     1       2.571  -0.742  -0.221  1.00  0.00     0.152 C 
BRANCH  18  19
HETATM   19  C5  UNL     1       3.383   0.063   0.760  1.00  0.00     0.149 C 
HETATM   20  C4  UNL     1       3.466   1.493   0.389  1.00  0.00     0.002 C 
HETATM   21  C3  UNL     1       4.617   2.165   0.333  1.00  0.00     0.001 C 
HETATM   22  C2  UNL     1       5.812   1.395   0.666  1.00  0.00     0.033 C 
HETATM   23  C1  UNL     1       5.696   0.107   0.487  1.00  0.00     0.080 C 
HETATM   24  N5  UNL     1       4.702  -0.563   0.840  1.00  0.00    -0.277 NA
ENDBRANCH  18  19
ENDBRANCH  16  18
ENDBRANCH   1  16
TORSDOF 3
