REMARK  7 active torsions:
REMARK  status: ('A' for Active; 'I' for Inactive)
REMARK    1  A    between atoms: C4_6  and  N2_7 
REMARK    2  A    between atoms: N2_7  and  C5_8 
REMARK    3  A    between atoms: C11_15  and  C12_16 
REMARK    4  A    between atoms: N3_23  and  C17_24 
REMARK    5  A    between atoms: C17_24  and  C18_25 
REMARK    6  A    between atoms: C18_25  and  C19_26 
REMARK    7  A    between atoms: C19_26  and  N4_27 
ROOT
HETATM    1  C12 UNL     1      -1.420  -0.690  -1.669  1.00  0.00     0.043 C 
HETATM    2  C13 UNL     1      -0.255  -0.099  -1.608  1.00  0.00     0.039 C 
HETATM    3  C14 UNL     1      -0.147   1.353  -1.313  1.00  0.00     0.225 C 
HETATM    4  O1  UNL     1       1.170   1.755  -1.384  1.00  0.00    -0.376 OA
HETATM    5  C15 UNL     1       1.885   1.318  -2.461  1.00  0.00     0.271 C 
HETATM    6  C16 UNL     1       2.113  -0.156  -2.426  1.00  0.00     0.247 C 
HETATM    7  O2  UNL     1       3.118  -0.785  -2.845  1.00  0.00    -0.271 OA
HETATM    8  N3  UNL     1       0.981  -0.842  -1.818  1.00  0.00    -0.318 N 
ENDROOT
BRANCH   1   9
HETATM    9  C11 UNL     1      -2.851  -0.734  -1.601  1.00  0.00     0.023 A 
HETATM   10  C2  UNL     1      -3.688  -1.904  -1.840  1.00  0.00    -0.022 A 
HETATM   11  C1  UNL     1      -3.154  -3.076  -2.123  1.00  0.00     0.050 C 
HETATM   12  S1  UNL     1      -5.466  -1.995  -1.804  1.00  0.00    -0.184 SA
HETATM   13  C3  UNL     1      -6.000  -0.344  -1.399  1.00  0.00     0.312 A 
HETATM   14  N1  UNL     1      -5.016   0.469  -1.244  1.00  0.00    -0.253 NA
HETATM   15  C4  UNL     1      -3.650   0.267  -1.339  1.00  0.00     0.135 A 
BRANCH  15  16
HETATM   16  N2  UNL     1      -3.193   1.602  -1.027  1.00  0.00    -0.340 N 
HETATM   17  H4  UNL     1      -2.854   2.378  -1.630  1.00  0.00     0.167 HD
BRANCH  16  18
HETATM   18  C5  UNL     1      -3.225   1.950   0.372  1.00  0.00     0.036 A 
HETATM   19  C6  UNL     1      -3.679   1.004   1.282  1.00  0.00     0.029 A 
HETATM   20  C7  UNL     1      -3.729   1.290   2.648  1.00  0.00     0.005 A 
HETATM   21  C8  UNL     1      -3.323   2.521   3.083  1.00  0.00     0.042 A 
HETATM   22  C9  UNL     1      -2.865   3.489   2.214  1.00  0.00     0.118 A 
HETATM   23  F1  UNL     1      -2.474   4.687   2.675  1.00  0.00    -0.206 F 
HETATM   24  C10 UNL     1      -2.836   3.156   0.883  1.00  0.00     0.071 A 
ENDBRANCH  16  18
ENDBRANCH  15  16
ENDBRANCH   1   9
BRANCH   8  25
HETATM   25  C17 UNL     1       1.104  -2.209  -1.444  1.00  0.00     0.134 C 
BRANCH  25  26
HETATM   26  C18 UNL     1       1.546  -2.425  -0.022  1.00  0.00     0.050 C 
BRANCH  26  27
HETATM   27  C19 UNL     1       2.865  -1.842   0.340  1.00  0.00     0.274 C 
BRANCH  27  28
HETATM   28  N4  UNL     1       2.972  -0.419   0.250  1.00  0.00     0.088 N 
HETATM   29  C20 UNL     1       2.180   0.263   1.258  1.00  0.00     0.272 C 
HETATM   30  C21 UNL     1       2.546  -0.243   2.614  1.00  0.00     0.030 C 
HETATM   31  C22 UNL     1       4.009  -0.036   2.849  1.00  0.00     0.003 C 
HETATM   32  C23 UNL     1       4.707   0.601   1.674  1.00  0.00     0.030 C 
HETATM   33  C24 UNL     1       4.351  -0.044   0.367  1.00  0.00     0.272 C 
ENDBRANCH  27  28
ENDBRANCH  26  27
ENDBRANCH  25  26
ENDBRANCH   8  25
TORSDOF 7
