REMARK  2 active torsions:
REMARK  status: ('A' for Active; 'I' for Inactive)
REMARK    1  A    between atoms: N1_1  and  C1_2 
REMARK    2  A    between atoms: C6_8  and  C7_9 
ROOT
HETATM    1  C7  UNL     1      -1.393  -1.032  -0.651  1.00  0.00    -0.023 C 
HETATM    2  C8  UNL     1      -0.640   0.079  -0.916  1.00  0.00    -0.043 C 
HETATM    3  C9  UNL     1       0.400  -0.380  -1.921  1.00  0.00     0.096 C 
HETATM    4  C10 UNL     1       0.926  -1.721  -1.546  1.00  0.00     0.040 C 
HETATM    5  C11 UNL     1       2.165  -1.931  -1.084  1.00  0.00     0.087 C 
HETATM    6  C12 UNL     1       3.292  -0.986  -0.828  1.00  0.00     0.192 C 
HETATM    7  N2  UNL     1       3.520  -0.646   0.544  1.00  0.00    -0.344 N 
HETATM    8  C13 UNL     1       3.493   0.645   1.192  1.00  0.00     0.128 C 
HETATM    9  C14 UNL     1       2.436   1.617   0.802  1.00  0.00     0.039 C 
HETATM   10  C15 UNL     1       1.034   1.278   0.956  1.00  0.00     0.119 C 
HETATM   11  N3  UNL     1      -0.112   1.926   0.729  1.00  0.00    -0.404 N 
HETATM   12  C16 UNL     1      -0.212   3.333   0.893  1.00  0.00     0.117 C 
HETATM   13  C17 UNL     1       0.145   4.133  -0.330  1.00  0.00     0.019 C 
HETATM   14  C18 UNL     1      -0.104   3.358  -1.601  1.00  0.00     0.004 C 
HETATM   15  C19 UNL     1      -1.232   2.383  -1.400  1.00  0.00     0.029 C 
HETATM   16  C20 UNL     1      -0.942   1.379  -0.294  1.00  0.00     0.109 C 
HETATM   17  C21 UNL     1       3.711  -1.964   1.120  1.00  0.00     0.244 C 
HETATM   18  O1  UNL     1       4.123  -1.967   2.340  1.00  0.00    -0.271 OA
HETATM   19  C22 UNL     1       3.482  -3.302   0.465  1.00  0.00     0.278 C 
HETATM   20  O2  UNL     1       2.652  -3.192  -0.718  1.00  0.00    -0.343 OA
HETATM   21  N4  UNL     1       0.019  -2.806  -1.623  1.00  0.00    -0.387 N 
HETATM   22  C23 UNL     1      -1.360  -2.296  -1.465  1.00  0.00     0.159 C 
HETATM   23  H27 UNL     1       0.427  -3.757  -1.761  1.00  0.00     0.159 HD
ENDROOT
BRANCH   1  24
HETATM   24  C6  UNL     1      -2.318  -1.022   0.515  1.00  0.00     0.001 A 
HETATM   25  C1  UNL     1      -3.582  -1.538   0.192  1.00  0.00     0.075 A 
HETATM   26  C2  UNL     1      -4.597  -1.637   1.124  1.00  0.00     0.143 A 
HETATM   27  F1  UNL     1      -5.830  -2.122   0.872  1.00  0.00    -0.204 F 
HETATM   28  C3  UNL     1      -4.372  -1.213   2.433  1.00  0.00     0.045 A 
HETATM   29  C4  UNL     1      -3.128  -0.706   2.752  1.00  0.00     0.004 A 
HETATM   30  C5  UNL     1      -2.135  -0.619   1.807  1.00  0.00     0.014 A 
BRANCH  25  31
HETATM   31  N1  UNL     1      -3.993  -2.015  -1.103  1.00  0.00    -0.396 N 
HETATM   32  H1  UNL     1      -4.218  -3.054  -1.084  1.00  0.00     0.156 HD
HETATM   33  H2  UNL     1      -3.978  -1.225  -1.774  1.00  0.00     0.156 HD
ENDBRANCH  25  31
ENDBRANCH   1  24
TORSDOF 2
