REMARK  8 active torsions:
REMARK  status: ('A' for Active; 'I' for Inactive)
REMARK    1  A    between atoms: C2_2  and  C3_4 
REMARK    2  A    between atoms: C4_5  and  C5_6 
REMARK    3  A    between atoms: C5_6  and  C6_7 
REMARK    4  A    between atoms: C6_7  and  N1_8 
REMARK    5  A    between atoms: N4_23  and  C17_24 
REMARK    6  A    between atoms: C17_24  and  C18_25 
REMARK    7  A    between atoms: C18_25  and  C19_26 
REMARK    8  A    between atoms: C19_26  and  N5_27 
ROOT
HETATM    1  N1  UNL     1       4.599  -1.353   0.151  1.00  0.00    -0.351 N 
HETATM    2  C7  UNL     1       3.438  -1.570  -0.507  1.00  0.00     0.128 C 
HETATM    3  C8  UNL     1       2.224  -1.625  -0.812  1.00  0.00     0.052 C 
HETATM    4  C9  UNL     1       0.898  -1.734  -1.269  1.00  0.00     0.034 C 
HETATM    5  C10 UNL     1       0.203  -1.361  -0.209  1.00  0.00     0.063 C 
HETATM    6  C11 UNL     1       1.050  -1.028   0.990  1.00  0.00     0.317 C 
HETATM    7  O1  UNL     1       1.508  -2.303   1.428  1.00  0.00    -0.308 OA
HETATM    8  C12 UNL     1       2.747  -2.757   1.590  1.00  0.00     0.427 C 
HETATM    9  N2  UNL     1       3.845  -3.274   1.222  1.00  0.00    -0.362 NA
HETATM   10  C13 UNL     1       4.208  -3.746  -0.138  1.00  0.00     0.200 C 
HETATM   11  N3  UNL     1       3.998  -2.822  -1.117  1.00  0.00    -0.227 NA
HETATM   12  O2  UNL     1       0.233  -0.473   1.992  1.00  0.00    -0.353 OA
HETATM   13  C14 UNL     1      -0.818  -1.349   2.281  1.00  0.00     0.196 C 
HETATM   14  C15 UNL     1      -1.837  -1.466   1.190  1.00  0.00     0.104 C 
HETATM   15  C16 UNL     1      -2.476  -2.832   1.211  1.00  0.00     0.034 C 
HETATM   16  N4  UNL     1      -1.193  -1.179  -0.069  1.00  0.00    -0.374 N 
HETATM   17  H7  UNL     1       5.305  -1.803   0.736  1.00  0.00     0.166 HD
ENDROOT
BRANCH   1  18
HETATM   18  C6  UNL     1       5.430  -0.267   0.355  1.00  0.00     0.090 C 
BRANCH  18  19
HETATM   19  C5  UNL     1       5.486   0.971   0.866  1.00  0.00     0.017 C 
BRANCH  19  20
HETATM   20  C4  UNL     1       5.961   2.301   1.289  1.00  0.00     0.004 C 
HETATM   21  C3  UNL     1       5.342   3.338   1.904  1.00  0.00     0.037 C 
BRANCH  21  22
HETATM   22  C2  UNL     1       4.006   3.491   2.351  1.00  0.00     0.094 C 
HETATM   23  C1  UNL     1       4.174   4.738   2.823  1.00  0.00     0.077 C 
HETATM   24  F1  UNL     1       3.163   2.440   2.110  1.00  0.00    -0.211 F 
ENDBRANCH  21  22
ENDBRANCH  19  20
ENDBRANCH  18  19
ENDBRANCH   1  18
BRANCH  16  25
HETATM   25  C17 UNL     1      -1.834  -0.659  -1.271  1.00  0.00     0.125 C 
BRANCH  25  26
HETATM   26  C18 UNL     1      -2.169   0.776  -0.922  1.00  0.00     0.050 C 
BRANCH  26  27
HETATM   27  C19 UNL     1      -2.894   1.544  -1.965  1.00  0.00     0.274 C 
BRANCH  27  28
HETATM   28  N5  UNL     1      -4.187   0.957  -2.302  1.00  0.00     0.088 N 
HETATM   29  C20 UNL     1      -5.112   1.038  -1.218  1.00  0.00     0.272 C 
HETATM   30  C21 UNL     1      -6.398   1.641  -1.730  1.00  0.00     0.032 C 
HETATM   31  C22 UNL     1      -6.232   1.474  -3.256  1.00  0.00     0.032 C 
HETATM   32  C23 UNL     1      -4.746   1.765  -3.340  1.00  0.00     0.272 C 
ENDBRANCH  27  28
ENDBRANCH  26  27
ENDBRANCH  25  26
ENDBRANCH  16  25
TORSDOF 8
