REMARK  0 active torsions:
REMARK  status: ('A' for Active; 'I' for Inactive)
ROOT
HETATM    1  O1  UNL     1      -0.603   0.730  -1.765  1.00  0.00    -0.272 OA
HETATM    2  C1  UNL     1      -1.521   0.112  -1.252  1.00  0.00     0.231 C 
HETATM    3  C2  UNL     1      -2.515  -1.052  -1.499  1.00  0.00     0.183 C 
HETATM    4  C3  UNL     1      -1.992  -2.050  -0.538  1.00  0.00    -0.159 C 
HETATM    5  C4  UNL     1      -1.570  -2.814   0.218  1.00  0.00     0.061 A 
HETATM    6  C5  UNL     1      -1.046  -3.714   1.134  1.00  0.00     0.043 A 
HETATM    7  C6  UNL     1      -0.580  -2.575   1.649  1.00  0.00     0.138 A 
HETATM    8  N1  UNL     1      -0.426  -1.183   1.663  1.00  0.00    -0.267 NA
HETATM    9  C7  UNL     1       0.452  -0.536   0.988  1.00  0.00     0.135 A 
HETATM   10  N2  UNL     1       1.262  -1.415   0.210  1.00  0.00    -0.215 NA
HETATM   11  C8  UNL     1       2.238  -0.987  -0.518  1.00  0.00     0.137 A 
HETATM   12  N3  UNL     1       3.041  -1.874  -1.290  1.00  0.00    -0.370 N 
HETATM   13  C9  UNL     1       4.161  -1.450  -2.114  1.00  0.00     0.150 A 
HETATM   14  C10 UNL     1       4.346   0.023  -2.074  1.00  0.00     0.017 A 
HETATM   15  C11 UNL     1       3.682   0.957  -1.421  1.00  0.00     0.045 A 
HETATM   16 CL1  UNL     1       4.041   2.668  -1.489  1.00  0.00    -0.084 Cl
HETATM   17  C12 UNL     1       2.584   0.425  -0.612  1.00  0.00     0.028 A 
HETATM   18  C13 UNL     1       1.827   1.235   0.100  1.00  0.00     0.006 A 
HETATM   19  C14 UNL     1       0.677   0.927   0.981  1.00  0.00     0.133 A 
HETATM   20  C15 UNL     1      -0.486   1.758   0.477  1.00  0.00     0.339 C 
HETATM   21  N4  UNL     1      -0.917   2.587   1.551  1.00  0.00     0.107 N 
HETATM   22  C16 UNL     1      -2.316   2.897   1.370  1.00  0.00     0.274 C 
HETATM   23  C17 UNL     1      -3.032   1.588   1.756  1.00  0.00     0.050 C 
HETATM   24  C18 UNL     1      -2.791   0.627   0.609  1.00  0.00     0.130 C 
HETATM   25  N5  UNL     1      -1.531   0.849  -0.035  1.00  0.00    -0.320 N 
HETATM   26  H5  UNL     1       2.858  -2.895  -1.301  1.00  0.00     0.161 HD
HETATM   27  H12 UNL     1      -0.731   2.199   2.500  1.00  0.00     0.318 HD
ENDROOT
TORSDOF 0
