REMARK  5 active torsions:
REMARK  status: ('A' for Active; 'I' for Inactive)
REMARK    1  A    between atoms: C7_11  and  C8_12 
REMARK    2  A    between atoms: N3_22  and  C17_23 
REMARK    3  A    between atoms: C17_23  and  C18_24 
REMARK    4  A    between atoms: C18_24  and  C19_25 
REMARK    5  A    between atoms: C19_25  and  N4_26 
ROOT
HETATM    1  O1  UNL     1       1.315  -3.751   0.465  1.00  0.00    -0.271 OA
HETATM    2  C1  UNL     1       0.707  -2.877   1.168  1.00  0.00     0.248 C 
HETATM    3  C2  UNL     1       1.107  -2.998   2.593  1.00  0.00     0.279 C 
HETATM    4  O2  UNL     1       0.292  -2.160   3.387  1.00  0.00    -0.340 OA
HETATM    5  C3  UNL     1      -0.598  -1.270   2.839  1.00  0.00     0.098 A 
HETATM    6  C4  UNL     1      -1.247  -0.462   3.753  1.00  0.00     0.071 A 
HETATM    7  C5  UNL     1      -2.173   0.483   3.340  1.00  0.00     0.073 A 
HETATM    8  N1  UNL     1      -2.827   1.274   4.203  1.00  0.00    -0.241 NA
HETATM    9  C6  UNL     1      -3.717   2.154   3.698  1.00  0.00     0.234 A 
HETATM   10  N2  UNL     1      -3.975   2.273   2.384  1.00  0.00    -0.240 NA
HETATM   11  C7  UNL     1      -3.337   1.492   1.469  1.00  0.00     0.081 A 
HETATM   12  C14 UNL     1      -2.433   0.599   1.996  1.00  0.00     0.025 A 
HETATM   13  C15 UNL     1      -1.797  -0.197   1.067  1.00  0.00     0.049 A 
HETATM   14  C16 UNL     1      -0.880  -1.131   1.496  1.00  0.00     0.071 A 
HETATM   15  N3  UNL     1      -0.205  -1.969   0.566  1.00  0.00    -0.314 N 
ENDROOT
BRANCH  15  16
HETATM   16  C17 UNL     1      -0.418  -1.901  -0.844  1.00  0.00     0.134 C 
BRANCH  16  17
HETATM   17  C18 UNL     1       0.486  -0.933  -1.527  1.00  0.00     0.050 C 
BRANCH  17  18
HETATM   18  C19 UNL     1       1.910  -1.312  -1.315  1.00  0.00     0.274 C 
BRANCH  18  19
HETATM   19  N4  UNL     1       2.809  -0.360  -1.996  1.00  0.00     0.088 N 
HETATM   20  C20 UNL     1       2.774   0.904  -1.399  1.00  0.00     0.272 C 
HETATM   21  C21 UNL     1       4.058   1.571  -1.052  1.00  0.00     0.030 C 
HETATM   22  C22 UNL     1       5.305   0.883  -1.516  1.00  0.00     0.003 C 
HETATM   23  C23 UNL     1       5.114  -0.607  -1.191  1.00  0.00     0.030 C 
HETATM   24  C24 UNL     1       4.039  -1.033  -2.176  1.00  0.00     0.272 C 
ENDBRANCH  18  19
ENDBRANCH  17  18
ENDBRANCH  16  17
ENDBRANCH  15  16
BRANCH  11  25
HETATM   25  C8  UNL     1      -3.712   1.719   0.084  1.00  0.00    -0.004 A 
HETATM   26  C9  UNL     1      -2.964   1.933  -1.028  1.00  0.00     0.014 A 
HETATM   27  C10 UNL     1      -3.537   2.104  -2.274  1.00  0.00     0.004 A 
HETATM   28  C11 UNL     1      -4.903   2.066  -2.455  1.00  0.00     0.042 A 
HETATM   29  C12 UNL     1      -5.700   1.851  -1.350  1.00  0.00     0.117 A 
HETATM   30  F1  UNL     1      -7.043   1.811  -1.511  1.00  0.00    -0.206 F 
HETATM   31  C13 UNL     1      -5.099   1.684  -0.120  1.00  0.00     0.056 A 
ENDBRANCH  11  25
TORSDOF 5
