REMARK  3 active torsions:
REMARK  status: ('A' for Active; 'I' for Inactive)
REMARK    1  A    between atoms: O1_2  and  C1_3 
REMARK    2  A    between atoms: C7_12  and  N3_13 
REMARK    3  A    between atoms: N3_13  and  C8_14 
ROOT
HETATM    1  C1  UNL     1      -2.134  -0.580   1.122  1.00  0.00     0.104 C 
HETATM    2  C2  UNL     1      -2.439  -0.877  -0.130  1.00  0.00     0.011 C 
HETATM    3  C3  UNL     1      -3.727  -0.563  -0.741  1.00  0.00     0.036 C 
HETATM    4  C4  UNL     1      -4.104   0.511  -1.450  1.00  0.00     0.144 C 
HETATM    5  O2  UNL     1      -3.007   1.363  -1.536  1.00  0.00    -0.316 OA
HETATM    6  C5  UNL     1      -3.119   2.738  -1.414  1.00  0.00     0.258 C 
HETATM    7  N1  UNL     1      -1.872   2.481  -1.675  1.00  0.00    -0.230 NA
HETATM    8  C6  UNL     1      -1.365   1.166  -1.870  1.00  0.00     0.233 C 
HETATM    9  N2  UNL     1      -0.891   1.229  -0.680  1.00  0.00    -0.222 NA
HETATM   10  C7  UNL     1      -0.149   0.205  -0.006  1.00  0.00     0.337 C 
HETATM   11  C13 UNL     1      -0.766  -0.049   1.359  1.00  0.00     0.159 C 
HETATM   12  N5  UNL     1      -0.090  -0.966  -0.824  1.00  0.00     0.153 N 
HETATM   13  C14 UNL     1      -0.304  -2.288  -0.274  1.00  0.00     0.320 A 
HETATM   14  C15 UNL     1      -1.441  -1.558  -0.958  1.00  0.00     0.292 A 
ENDROOT
BRANCH  10  15
HETATM   15  N3  UNL     1       1.196   0.703   0.169  1.00  0.00    -0.339 N 
HETATM   16  H5  UNL     1       1.617   1.616  -0.140  1.00  0.00     0.163 HD
BRANCH  15  17
HETATM   17  C8  UNL     1       2.300   0.074   0.813  1.00  0.00     0.022 C 
HETATM   18  C9  UNL     1       2.619   0.195   2.095  1.00  0.00     0.015 C 
HETATM   19  C10 UNL     1       3.787   0.804   2.243  1.00  0.00     0.097 C 
HETATM   20  N4  UNL     1       4.606   0.991   1.070  1.00  0.00    -0.398 N 
HETATM   21  C11 UNL     1       4.550   0.003  -0.002  1.00  0.00     0.125 C 
HETATM   22  H7  UNL     1       5.235   1.818   0.974  1.00  0.00     0.158 HD
HETATM   23  C12 UNL     1       3.276  -0.829   0.125  1.00  0.00     0.077 C 
ENDBRANCH  15  17
ENDBRANCH  10  15
BRANCH   1  24
HETATM   24  O1  UNL     1      -3.113  -0.794   2.077  1.00  0.00    -0.159 OA
HETATM   25  F1  UNL     1      -3.934  -1.871   2.065  1.00  0.00    -0.042 F 
ENDBRANCH   1  24
TORSDOF 3
