REMARK  6 active torsions:
REMARK  status: ('A' for Active; 'I' for Inactive)
REMARK    1  A    between atoms: C3_3  and  C4_4 
REMARK    2  A    between atoms: C4_4  and  C5_5 
REMARK    3  A    between atoms: N4_18  and  C14_19 
REMARK    4  A    between atoms: C14_19  and  C15_20 
REMARK    5  A    between atoms: C15_20  and  C16_21 
REMARK    6  A    between atoms: C19_24  and  O1_25 
ROOT
HETATM    1  C1  UNL     1      -2.012  -3.857  -0.734  1.00  0.00     0.078 C 
HETATM    2  C2  UNL     1      -0.649  -3.580  -0.291  1.00  0.00     0.070 C 
HETATM    3  C3  UNL     1      -0.130  -2.452   0.163  1.00  0.00     0.068 C 
HETATM    4  N4  UNL     1       1.258  -2.348   0.565  1.00  0.00    -0.314 N 
HETATM    5  C20 UNL     1       2.095  -3.493   0.468  1.00  0.00     0.248 C 
HETATM    6  O2  UNL     1       3.046  -3.602   1.277  1.00  0.00    -0.271 OA
HETATM    7  C21 UNL     1       1.639  -4.388  -0.651  1.00  0.00     0.278 C 
HETATM    8  O3  UNL     1       0.257  -4.629  -0.341  1.00  0.00    -0.344 OA
ENDROOT
BRANCH   3   9
HETATM    9  C4  UNL     1      -1.014  -1.329   0.237  1.00  0.00     0.061 C 
BRANCH   9  10
HETATM   10  C5  UNL     1      -1.941  -0.387   0.248  1.00  0.00     0.063 C 
HETATM   11  N1  UNL     1      -2.166   1.008   0.575  1.00  0.00    -0.244 NA
HETATM   12  C6  UNL     1      -1.505   1.988   0.139  1.00  0.00     0.232 C 
HETATM   13  N2  UNL     1      -1.859   3.326   0.562  1.00  0.00    -0.254 NA
HETATM   14  C7  UNL     1      -3.133   3.663   0.568  1.00  0.00     0.126 C 
HETATM   15  C8  UNL     1      -3.867   2.451   0.098  1.00  0.00    -0.021 C 
HETATM   16  C9  UNL     1      -4.622   2.017   1.134  1.00  0.00     0.029 C 
HETATM   17  C13 UNL     1      -3.806   1.813  -1.222  1.00  0.00     0.119 C 
HETATM   18  C10 UNL     1      -4.864   0.583   1.429  1.00  0.00     0.112 C 
HETATM   19  N3  UNL     1      -4.305  -0.487   0.944  1.00  0.00    -0.290 NA
HETATM   20  C11 UNL     1      -3.380  -0.499  -0.176  1.00  0.00     0.161 C 
HETATM   21  C12 UNL     1      -3.727   0.368  -1.325  1.00  0.00     0.058 C 
HETATM   22 CL1  UNL     1      -5.246   2.396  -2.147  1.00  0.00    -0.120 Cl
ENDBRANCH   9  10
ENDBRANCH   3   9
BRANCH   4  23
HETATM   23  C14 UNL     1       1.815  -1.103   1.069  1.00  0.00     0.134 C 
BRANCH  23  24
HETATM   24  C15 UNL     1       2.380  -0.218  -0.003  1.00  0.00     0.056 C 
BRANCH  24  25
HETATM   25  C16 UNL     1       2.951   1.070   0.550  1.00  0.00     0.225 C 
HETATM   26  C17 UNL     1       3.478   1.845  -0.654  1.00  0.00     0.040 C 
HETATM   27  C18 UNL     1       4.559   2.689  -0.031  1.00  0.00     0.066 C 
HETATM   28  C19 UNL     1       5.136   1.749   0.999  1.00  0.00     0.354 C 
HETATM   29  N5  UNL     1       4.064   0.890   1.427  1.00  0.00     0.116 N 
HETATM   30  H24 UNL     1       3.859   1.018   2.433  1.00  0.00     0.319 HD
BRANCH  28  31
HETATM   31  O1  UNL     1       5.568   2.503   2.068  1.00  0.00    -0.368 OA
HETATM   32  H23 UNL     1       6.392   2.120   2.433  1.00  0.00     0.212 HD
ENDBRANCH  28  31
ENDBRANCH  24  25
ENDBRANCH  23  24
ENDBRANCH   4  23
TORSDOF 6
