REMARK  2 active torsions:
REMARK  status: ('A' for Active; 'I' for Inactive)
REMARK    1  A    between atoms: C5_5  and  N1_6 
REMARK    2  A    between atoms: N1_6  and  C6_7 
ROOT
HETATM    1  C6  UNL     1       1.830  -0.355   0.493  1.00  0.00     0.138 A 
HETATM    2  N2  UNL     1       2.802  -1.127   1.062  1.00  0.00    -0.242 NA
HETATM    3  C7  UNL     1       2.340  -2.098   1.879  1.00  0.00     0.120 A 
HETATM    4  C8  UNL     1       0.970  -2.216   2.044  1.00  0.00     0.031 A 
HETATM    5  C9  UNL     1      -0.070  -1.439   1.463  1.00  0.00    -0.018 A 
HETATM    6  C10 UNL     1       0.454  -0.472   0.669  1.00  0.00     0.018 A 
HETATM    7  C11 UNL     1      -0.031   0.666   0.116  1.00  0.00     0.016 C 
HETATM    8  C12 UNL     1      -1.164   1.544  -0.230  1.00  0.00     0.126 C 
HETATM    9  C13 UNL     1      -2.100   1.128   0.907  1.00  0.00     0.197 C 
HETATM   10  O1  UNL     1      -3.244   1.729   1.232  1.00  0.00    -0.383 OA
HETATM   11  C14 UNL     1      -3.638   0.665   2.183  1.00  0.00     0.227 C 
HETATM   12  C15 UNL     1      -3.421  -0.610   1.389  1.00  0.00     0.071 C 
HETATM   13  C16 UNL     1      -2.430  -1.485   1.470  1.00  0.00     0.095 C 
HETATM   14  C17 UNL     1      -1.159  -2.071   1.966  1.00  0.00     0.051 C 
HETATM   15  O2  UNL     1      -2.499  -2.608   0.595  1.00  0.00    -0.340 OA
HETATM   16  C18 UNL     1      -3.645  -3.084  -0.113  1.00  0.00     0.279 C 
HETATM   17  C19 UNL     1      -4.428  -1.921  -0.682  1.00  0.00     0.248 C 
HETATM   18  O3  UNL     1      -4.972  -2.070  -1.777  1.00  0.00    -0.271 OA
HETATM   19  N3  UNL     1      -4.274  -0.946   0.306  1.00  0.00    -0.315 N 
HETATM   20  C20 UNL     1      -4.970   0.223  -0.313  1.00  0.00     0.133 C 
HETATM   21  C21 UNL     1      -4.302   0.546  -1.611  1.00  0.00     0.040 C 
HETATM   22  C22 UNL     1      -2.840   0.556  -1.815  1.00  0.00     0.118 C 
HETATM   23  N4  UNL     1      -1.947   1.491  -1.349  1.00  0.00    -0.407 N 
HETATM   24  C23 UNL     1      -2.055   2.812  -1.964  1.00  0.00     0.144 C 
ENDROOT
BRANCH   1  25
HETATM   25  N1  UNL     1       2.505   0.598  -0.360  1.00  0.00    -0.340 N 
HETATM   26  H6  UNL     1       2.320   1.405  -1.011  1.00  0.00     0.167 HD
BRANCH  25  27
HETATM   27  C5  UNL     1       3.916   0.558  -0.489  1.00  0.00     0.035 A 
HETATM   28  C4  UNL     1       4.607  -0.642  -0.695  1.00  0.00     0.030 A 
HETATM   29  C3  UNL     1       5.971  -0.767  -0.799  1.00  0.00     0.011 A 
HETATM   30  C2  UNL     1       6.747   0.358  -0.697  1.00  0.00    -0.040 A 
HETATM   31  C1  UNL     1       8.225   0.279  -0.803  1.00  0.00     0.050 C 
HETATM   32  C25 UNL     1       6.164   1.570  -0.497  1.00  0.00     0.042 A 
HETATM   33  C24 UNL     1       4.791   1.620  -0.403  1.00  0.00     0.053 A 
HETATM   34 CL1  UNL     1       7.119   3.029  -0.361  1.00  0.00    -0.084 Cl
ENDBRANCH  25  27
ENDBRANCH   1  25
TORSDOF 2
