REMARK  3 active torsions:
REMARK  status: ('A' for Active; 'I' for Inactive)
REMARK    1  A    between atoms: C3_3  and  C4_4 
REMARK    2  A    between atoms: C5_5  and  C6_6 
REMARK    3  A    between atoms: N1_7  and  C7_8 
ROOT
HETATM    1  C7  UNL     1       0.246  -1.165   0.378  1.00  0.00     0.158 C 
HETATM    2  N2  UNL     1       0.498  -1.685   1.557  1.00  0.00    -0.222 NA
HETATM    3  C8  UNL     1      -0.548  -1.877   2.479  1.00  0.00     0.230 C 
HETATM    4  N3  UNL     1      -1.768  -1.589   2.326  1.00  0.00    -0.271 NA
HETATM    5  C9  UNL     1      -2.309  -0.958   1.076  1.00  0.00     0.169 C 
HETATM    6  C10 UNL     1      -2.668   0.415   1.532  1.00  0.00     0.200 C 
HETATM    7  O1  UNL     1      -3.297   1.354   0.916  1.00  0.00    -0.387 OA
HETATM    8  C11 UNL     1      -4.487   1.553   0.432  1.00  0.00     0.189 C 
HETATM    9  C12 UNL     1      -5.045   0.845  -0.762  1.00  0.00     0.172 C 
HETATM   10  N4  UNL     1      -4.332   1.114  -1.954  1.00  0.00    -0.300 N 
HETATM   11  O2  UNL     1      -3.050   0.835  -2.044  1.00  0.00    -0.281 OA
HETATM   12  C13 UNL     1      -2.766  -0.430  -1.546  1.00  0.00     0.229 C 
HETATM   13  C14 UNL     1      -1.348  -0.655  -1.205  1.00  0.00     0.015 C 
HETATM   14  C15 UNL     1      -1.190  -0.933   0.085  1.00  0.00     0.015 C 
HETATM   15  H17 UNL     1      -4.820   0.891  -2.827  1.00  0.00     0.187 HD
ENDROOT
BRANCH   1  16
HETATM   16  N1  UNL     1       1.292  -0.957  -0.550  1.00  0.00    -0.241 NA
HETATM   17  C6  UNL     1       2.454  -0.572  -0.196  1.00  0.00     0.119 C 
BRANCH  17  18
HETATM   18  C5  UNL     1       3.119  -0.234   1.057  1.00  0.00     0.019 C 
HETATM   19  C4  UNL     1       4.381   0.144   1.084  1.00  0.00     0.001 C 
BRANCH  19  20
HETATM   20  C3  UNL     1       5.134   0.232  -0.141  1.00  0.00    -0.004 C 
HETATM   21  C2  UNL     1       6.415   0.612  -0.156  1.00  0.00    -0.031 C 
HETATM   22  C1  UNL     1       7.205   0.707  -1.415  1.00  0.00     0.036 C 
ENDBRANCH  19  20
ENDBRANCH  17  18
ENDBRANCH   1  16
TORSDOF 3
