REMARK  6 active torsions:
REMARK  status: ('A' for Active; 'I' for Inactive)
REMARK    1  A    between atoms: C4_4  and  N1_5 
REMARK    2  A    between atoms: C9_11  and  N3_12 
REMARK    3  A    between atoms: N4_19  and  C14_20 
REMARK    4  A    between atoms: C14_20  and  C15_21 
REMARK    5  A    between atoms: C15_21  and  C16_22 
REMARK    6  A    between atoms: C16_22  and  N5_23 
ROOT
HETATM    1  N1  UNL     1      -3.652   0.100  -0.233  1.00  0.00    -0.303 N 
HETATM    2  N2  UNL     1      -4.406  -1.042  -0.661  1.00  0.00    -0.236 NA
HETATM    3  C5  UNL     1      -3.558  -1.810  -1.543  1.00  0.00     0.122 C 
HETATM    4  C6  UNL     1      -2.448  -2.604  -0.888  1.00  0.00     0.065 C 
HETATM    5  C7  UNL     1      -2.412  -1.976   0.561  1.00  0.00     0.073 C 
HETATM    6  C8  UNL     1      -2.399  -0.545  -0.001  1.00  0.00     0.048 C 
HETATM    7  C9  UNL     1      -1.219   0.007  -0.354  1.00  0.00     0.059 C 
HETATM    8  C10 UNL     1      -0.458  -0.978  -1.150  1.00  0.00     0.090 C 
HETATM    9  C11 UNL     1      -1.069  -2.167  -1.353  1.00  0.00     0.081 C 
HETATM   10  O1  UNL     1      -0.321  -3.086  -2.080  1.00  0.00    -0.343 OA
HETATM   11  C12 UNL     1       1.084  -3.008  -2.249  1.00  0.00     0.278 C 
HETATM   12  C13 UNL     1       1.515  -1.569  -2.386  1.00  0.00     0.248 C 
HETATM   13  O2  UNL     1       2.460  -1.243  -3.145  1.00  0.00    -0.271 OA
HETATM   14  N4  UNL     1       0.795  -0.578  -1.606  1.00  0.00    -0.312 N 
HETATM   15  H6  UNL     1      -4.869  -1.534   0.089  1.00  0.00     0.146 HD
ENDROOT
BRANCH  14  16
HETATM   16  C14 UNL     1       1.369   0.669  -1.384  1.00  0.00     0.134 C 
BRANCH  16  17
HETATM   17  C15 UNL     1       2.238   0.820  -0.118  1.00  0.00     0.040 C 
BRANCH  17  18
HETATM   18  C16 UNL     1       3.393  -0.135  -0.153  1.00  0.00     0.118 C 
BRANCH  18  19
HETATM   19  N5  UNL     1       4.260  -0.091   0.947  1.00  0.00    -0.408 N 
HETATM   20  C17 UNL     1       5.072   1.085   1.098  1.00  0.00     0.143 C 
HETATM   21  C18 UNL     1       6.282   0.996   0.190  1.00  0.00     0.187 C 
HETATM   22  O3  UNL     1       6.521  -0.322  -0.192  1.00  0.00    -0.388 OA
HETATM   23  C19 UNL     1       6.419  -1.119   0.920  1.00  0.00     0.187 C 
HETATM   24  C20 UNL     1       4.955  -1.307   1.259  1.00  0.00     0.143 C 
ENDBRANCH  18  19
ENDBRANCH  17  18
ENDBRANCH  16  17
ENDBRANCH  14  16
BRANCH   7  25
HETATM   25  N3  UNL     1      -0.913   1.264  -0.011  1.00  0.00    -0.299 NA
HETATM   26  H12 UNL     1      -0.779   2.001   0.656  1.00  0.00     0.124 HD
HETATM   27  H13 UNL     1      -0.773   2.031   0.676  1.00  0.00     0.124 HD
ENDBRANCH   7  25
BRANCH   1  28
HETATM   28  C4  UNL     1      -3.476   1.517   0.072  1.00  0.00     0.150 A 
HETATM   29  C3  UNL     1      -4.883   1.987  -0.282  1.00  0.00     0.012 A 
HETATM   30  C2  UNL     1      -5.472   2.462   0.776  1.00  0.00    -0.042 A 
HETATM   31  C1  UNL     1      -6.870   3.008   0.766  1.00  0.00     0.049 C 
HETATM   32  C22 UNL     1      -4.624   2.400   1.946  1.00  0.00     0.038 A 
HETATM   33  C21 UNL     1      -3.520   1.856   1.467  1.00  0.00     0.028 A 
HETATM   34 CL1  UNL     1      -4.935   2.902   3.591  1.00  0.00    -0.084 Cl
ENDBRANCH   1  28
TORSDOF 6
