REMARK  6 active torsions:
REMARK  status: ('A' for Active; 'I' for Inactive)
REMARK    1  A    between atoms: C5_5  and  N1_6 
REMARK    2  A    between atoms: N1_6  and  C6_7 
REMARK    3  A    between atoms: N4_17  and  C14_18 
REMARK    4  A    between atoms: C14_18  and  C15_19 
REMARK    5  A    between atoms: C15_19  and  C16_20 
REMARK    6  A    between atoms: C16_20  and  N5_21 
ROOT
HETATM    1  C6  UNL     1       2.851  -1.403  -0.119  1.00  0.00     0.142 A 
HETATM    2  N2  UNL     1       4.087  -1.886  -0.280  1.00  0.00    -0.224 NA
HETATM    3  C7  UNL     1       4.305  -3.174  -0.560  1.00  0.00     0.236 A 
HETATM    4  N3  UNL     1       3.273  -4.019  -0.686  1.00  0.00    -0.241 NA
HETATM    5  C8  UNL     1       1.989  -3.589  -0.533  1.00  0.00     0.075 A 
HETATM    6  C9  UNL     1       1.003  -4.536  -0.681  1.00  0.00     0.071 A 
HETATM    7  C10 UNL     1      -0.311  -4.149  -0.532  1.00  0.00     0.098 A 
HETATM    8  C11 UNL     1      -0.557  -2.828  -0.244  1.00  0.00     0.071 A 
HETATM    9  C12 UNL     1       0.464  -1.915  -0.105  1.00  0.00     0.050 A 
HETATM   10  C13 UNL     1       1.792  -2.249  -0.244  1.00  0.00     0.041 A 
HETATM   11  N4  UNL     1      -1.927  -2.478  -0.098  1.00  0.00    -0.314 N 
HETATM   12  C20 UNL     1      -2.886  -3.515  -0.264  1.00  0.00     0.248 C 
HETATM   13  O2  UNL     1      -4.069  -3.186  -0.532  1.00  0.00    -0.271 OA
HETATM   14  C21 UNL     1      -2.553  -4.960  -0.134  1.00  0.00     0.279 C 
HETATM   15  O3  UNL     1      -1.265  -5.143  -0.691  1.00  0.00    -0.340 OA
ENDROOT
BRANCH   1  16
HETATM   16  N1  UNL     1       2.603  -0.042   0.182  1.00  0.00    -0.340 N 
HETATM   17  H6  UNL     1       1.647   0.358   0.258  1.00  0.00     0.167 HD
BRANCH  16  18
HETATM   18  C5  UNL     1       3.555   0.979   0.425  1.00  0.00     0.035 A 
HETATM   19  C4  UNL     1       4.880   0.735   0.710  1.00  0.00     0.030 A 
HETATM   20  C3  UNL     1       5.829   1.698   0.938  1.00  0.00     0.011 A 
HETATM   21  C2  UNL     1       5.472   3.029   0.887  1.00  0.00    -0.040 A 
HETATM   22  C1  UNL     1       6.446   4.118   1.124  1.00  0.00     0.050 C 
HETATM   23  C23 UNL     1       4.164   3.338   0.608  1.00  0.00     0.042 A 
HETATM   24  C22 UNL     1       3.279   2.325   0.393  1.00  0.00     0.053 A 
HETATM   25 CL1  UNL     1       3.675   5.003   0.537  1.00  0.00    -0.084 Cl
ENDBRANCH  16  18
ENDBRANCH   1  16
BRANCH  11  26
HETATM   26  C14 UNL     1      -2.322  -1.070   0.216  1.00  0.00     0.134 C 
BRANCH  26  27
HETATM   27  C15 UNL     1      -2.526  -0.304  -1.031  1.00  0.00     0.050 C 
BRANCH  27  28
HETATM   28  C16 UNL     1      -2.905   1.113  -0.818  1.00  0.00     0.276 C 
BRANCH  28  29
HETATM   29  N5  UNL     1      -4.116   1.403  -0.136  1.00  0.00     0.109 N 
HETATM   30  C17 UNL     1      -4.361   2.863  -0.304  1.00  0.00     0.303 C 
HETATM   31  C18 UNL     1      -5.737   3.108   0.276  1.00  0.00     0.231 C 
HETATM   32  O1  UNL     1      -5.703   2.867   1.652  1.00  0.00    -0.282 OA
HETATM   33  N6  UNL     1      -4.548   2.349   2.052  1.00  0.00    -0.274 N 
HETATM   34  C19 UNL     1      -4.123   1.172   1.295  1.00  0.00     0.418 C 
HETATM   35  H20 UNL     1      -3.779   2.987   2.254  1.00  0.00     0.189 HD
ENDBRANCH  28  29
ENDBRANCH  27  28
ENDBRANCH  26  27
ENDBRANCH  11  26
TORSDOF 6
