REMARK  8 active torsions:
REMARK  status: ('A' for Active; 'I' for Inactive)
REMARK    1  A    between atoms: C5_5  and  N1_6 
REMARK    2  A    between atoms: N1_6  and  C6_7 
REMARK    3  A    between atoms: C7_8  and  C9_11 
REMARK    4  A    between atoms: C9_11  and  C10_12 
REMARK    5  A    between atoms: N3_19  and  C16_20 
REMARK    6  A    between atoms: C16_20  and  C17_21 
REMARK    7  A    between atoms: C17_21  and  C18_22 
REMARK    8  A    between atoms: C18_22  and  N4_23 
ROOT
HETATM    1  C6  UNL     1      -3.398   2.335  -1.241  1.00  0.00     0.100 A 
HETATM    2  C7  UNL     1      -4.169   2.885  -0.075  1.00  0.00     0.022 A 
HETATM    3  N2  UNL     1      -2.796   2.688   0.001  1.00  0.00     0.000 N 
HETATM    4  C8  UNL     1      -1.986   3.067   1.195  1.00  0.00     0.047 A 
HETATM    5  C9  UNL     1      -3.031   2.963   0.552  1.00  0.00     0.025 A 
HETATM    6  C10 UNL     1      -2.068   2.348  -0.504  1.00  0.00     0.019 A 
HETATM    7  C11 UNL     1      -0.897   1.939  -1.003  1.00  0.00     0.018 A 
HETATM    8  C12 UNL     1       0.160   2.147  -0.121  1.00  0.00     0.058 A 
HETATM    9  C13 UNL     1      -0.653   2.698   0.849  1.00  0.00     0.084 A 
HETATM   10  O1  UNL     1       0.178   3.034   1.909  1.00  0.00    -0.351 OA
HETATM   11  C14 UNL     1       1.417   3.634   1.419  1.00  0.00     0.195 C 
HETATM   12  C15 UNL     1       2.262   2.499   0.817  1.00  0.00     0.149 C 
HETATM   13  N3  UNL     1       1.493   1.891  -0.303  1.00  0.00    -0.377 N 
ENDROOT
BRANCH   1  14
HETATM   14  N1  UNL     1      -3.824   1.065  -1.690  1.00  0.00    -0.384 N 
HETATM   15  H6  UNL     1      -4.160   1.131  -2.706  1.00  0.00     0.160 HD
BRANCH  14  16
HETATM   16  C5  UNL     1      -3.972  -0.274  -1.265  1.00  0.00     0.029 A 
HETATM   17  C4  UNL     1      -4.467  -1.293  -2.090  1.00  0.00     0.030 A 
HETATM   18  C3  UNL     1      -4.593  -2.575  -1.625  1.00  0.00     0.011 A 
HETATM   19  C2  UNL     1      -4.243  -2.921  -0.334  1.00  0.00    -0.040 A 
HETATM   20  C1  UNL     1      -4.385  -4.301   0.184  1.00  0.00     0.050 C 
HETATM   21  C24 UNL     1      -3.772  -1.872   0.399  1.00  0.00     0.042 A 
HETATM   22  C23 UNL     1      -3.597  -0.553   0.059  1.00  0.00     0.053 A 
HETATM   23 CL1  UNL     1      -3.329  -2.330   2.059  1.00  0.00    -0.084 Cl
ENDBRANCH  14  16
ENDBRANCH   1  14
BRANCH  13  24
HETATM   24  C16 UNL     1       1.762   1.173  -1.482  1.00  0.00     0.125 C 
BRANCH  24  25
HETATM   25  C17 UNL     1       2.324  -0.240  -1.254  1.00  0.00     0.050 C 
BRANCH  25  26
HETATM   26  C18 UNL     1       3.623  -0.267  -0.538  1.00  0.00     0.274 C 
BRANCH  26  27
HETATM   27  N4  UNL     1       4.156  -1.596  -0.341  1.00  0.00     0.092 N 
HETATM   28  C19 UNL     1       5.426  -1.477   0.340  1.00  0.00     0.298 C 
HETATM   29  C20 UNL     1       5.397  -1.909   1.778  1.00  0.00     0.198 C 
HETATM   30  O2  UNL     1       4.226  -1.633   2.432  1.00  0.00    -0.388 OA
HETATM   31  C21 UNL     1       3.085  -2.096   1.832  1.00  0.00     0.198 C 
HETATM   32  C22 UNL     1       3.318  -2.496   0.374  1.00  0.00     0.298 C 
ENDBRANCH  26  27
ENDBRANCH  25  26
ENDBRANCH  24  25
ENDBRANCH  13  24
TORSDOF 8
