REMARK  4 active torsions:
REMARK  status: ('A' for Active; 'I' for Inactive)
REMARK    1  A    between atoms: O1_2  and  C2_3 
REMARK    2  A    between atoms: C12_15  and  N3_16 
REMARK    3  A    between atoms: C15_20  and  C16_21 
REMARK    4  A    between atoms: C16_21  and  O2_22 
ROOT
HETATM    1  C2  UNL     1       3.870  -0.613   0.177  1.00  0.00     0.068 A 
HETATM    2  C3  UNL     1       3.858   0.316  -0.838  1.00  0.00     0.037 A 
HETATM    3  C4  UNL     1       2.726   1.091  -0.966  1.00  0.00     0.011 A 
HETATM    4  C5  UNL     1       1.619   0.994  -0.152  1.00  0.00    -0.039 A 
HETATM    5  C6  UNL     1       1.660   0.039   0.872  1.00  0.00    -0.020 A 
HETATM    6  C7  UNL     1       2.790  -0.765   1.034  1.00  0.00     0.046 A 
HETATM    7  C8  UNL     1       0.541  -0.204   1.855  1.00  0.00     0.317 C 
HETATM    8  N1  UNL     1      -0.565   0.568   1.400  1.00  0.00     0.148 N 
HETATM    9  C9  UNL     1      -0.262   1.905   1.012  1.00  0.00     0.292 C 
HETATM   10  C10 UNL     1       0.424   1.878  -0.359  1.00  0.00     0.088 C 
HETATM   11  C11 UNL     1      -0.574   1.282  -1.285  1.00  0.00     0.099 C 
HETATM   12  N2  UNL     1      -0.710   0.068  -0.928  1.00  0.00    -0.243 NA
HETATM   13  C12 UNL     1      -1.218  -0.231   0.356  1.00  0.00     0.569 C 
ENDROOT
BRANCH  13  14
HETATM   14  N3  UNL     1      -2.600  -0.083   0.570  1.00  0.00     0.083 N 
HETATM   15  C13 UNL     1      -3.068  -0.499   0.002  1.00  0.00     0.094 A 
HETATM   16  P1  UNL     1      -3.623  -0.968  -0.639  1.00  0.00     0.128 P 
HETATM   17  C14 UNL     1      -4.982  -2.048  -2.110  1.00  0.00     0.064 A 
HETATM   18  H14 UNL     1      -3.872  -1.189  -0.940  1.00  0.00     0.115 HD
HETATM   19  C15 UNL     1      -5.071  -0.976  -0.625  1.00  0.00     0.095 A 
HETATM   20  C16 UNL     1      -4.115  -0.216   0.407  1.00  0.00     0.350 A 
BRANCH  20  21
HETATM   21  O2  UNL     1      -4.603   1.099   0.212  1.00  0.00    -0.367 OA
HETATM   22  H18 UNL     1      -5.399   1.163   0.804  1.00  0.00     0.212 HD
ENDBRANCH  20  21
ENDBRANCH  13  14
BRANCH   1  23
HETATM   23  O1  UNL     1       4.949  -1.447   0.405  1.00  0.00    -0.356 OA
HETATM   24  C1  UNL     1       6.120  -1.434  -0.359  1.00  0.00     0.210 C 
ENDBRANCH   1  23
TORSDOF 4
