REMARK  8 active torsions:
REMARK  status: ('A' for Active; 'I' for Inactive)
REMARK    1  A    between atoms: C2_2  and  C3_3 
REMARK    2  A    between atoms: C3_3  and  C4_4 
REMARK    3  A    between atoms: C3_3  and  C22_29 
REMARK    4  A    between atoms: C4_4  and  C5_5 
REMARK    5  A    between atoms: C6_6  and  C7_7 
REMARK    6  A    between atoms: N3_17  and  C13_18 
REMARK    7  A    between atoms: C13_18  and  C14_19 
REMARK    8  A    between atoms: C14_19  and  N4_20 
ROOT
HETATM    1  C7  UNL     1       1.667   0.528   0.941  1.00  0.00     0.070 A 
HETATM    2  N1  UNL     1       2.939   0.525   1.316  1.00  0.00    -0.241 NA
HETATM    3  C8  UNL     1       3.380   0.612   2.566  1.00  0.00     0.234 A 
HETATM    4  N2  UNL     1       2.480   0.714   3.560  1.00  0.00    -0.241 NA
HETATM    5  C9  UNL     1       1.168   0.725   3.264  1.00  0.00     0.073 A 
HETATM    6  C10 UNL     1       0.259   0.833   4.291  1.00  0.00     0.072 A 
HETATM    7  C11 UNL     1      -1.107   0.856   4.100  1.00  0.00     0.110 A 
HETATM    8  O1  UNL     1      -2.181   0.946   4.850  1.00  0.00    -0.259 OA
HETATM    9  C12 UNL     1      -3.257   0.915   4.066  1.00  0.00     0.373 A 
HETATM   10  O2  UNL     1      -4.461   0.980   4.458  1.00  0.00    -0.237 OA
HETATM   11  N3  UNL     1      -2.853   0.801   2.778  1.00  0.00    -0.289 N 
HETATM   12  C19 UNL     1      -1.509   0.763   2.778  1.00  0.00     0.074 A 
HETATM   13  C20 UNL     1      -0.586   0.656   1.769  1.00  0.00     0.049 A 
HETATM   14  C21 UNL     1       0.769   0.634   1.972  1.00  0.00     0.024 A 
ENDROOT
BRANCH   1  15
HETATM   15  C6  UNL     1       1.233   0.435  -0.441  1.00  0.00     0.029 C 
HETATM   16  C5  UNL     1       1.780   0.371  -1.636  1.00  0.00    -0.018 C 
BRANCH  16  17
HETATM   17  C4  UNL     1       3.251   0.398  -1.669  1.00  0.00     0.026 C 
BRANCH  17  18
HETATM   18  C3  UNL     1       4.527   0.389  -2.154  1.00  0.00    -0.025 C 
BRANCH  18  19
HETATM   19  C2  UNL     1       5.134   0.303  -3.515  1.00  0.00     0.006 C 
HETATM   20  C1  UNL     1       5.987  -0.873  -3.786  1.00  0.00     0.006 C 
ENDBRANCH  18  19
BRANCH  18  21
HETATM   21  C22 UNL     1       5.544   0.606  -1.110  1.00  0.00     0.006 C 
HETATM   22  C23 UNL     1       6.519  -0.481  -0.858  1.00  0.00     0.006 C 
ENDBRANCH  18  21
ENDBRANCH  17  18
ENDBRANCH  16  17
ENDBRANCH   1  15
BRANCH  11  23
HETATM   23  C13 UNL     1      -3.751   0.738   1.659  1.00  0.00     0.154 C 
BRANCH  23  24
HETATM   24  C14 UNL     1      -4.131  -0.706   1.339  1.00  0.00     0.137 C 
BRANCH  24  25
HETATM   25  N4  UNL     1      -5.029  -0.747   0.234  1.00  0.00    -0.407 N 
HETATM   26  C15 UNL     1      -5.457  -2.046  -0.182  1.00  0.00     0.143 C 
HETATM   27  C16 UNL     1      -6.193  -2.044  -1.495  1.00  0.00     0.187 C 
HETATM   28  O3  UNL     1      -6.588  -0.749  -1.847  1.00  0.00    -0.388 OA
HETATM   29  C17 UNL     1      -5.415  -0.039  -2.089  1.00  0.00     0.187 C 
HETATM   30  C18 UNL     1      -4.708   0.169  -0.784  1.00  0.00     0.143 C 
ENDBRANCH  24  25
ENDBRANCH  23  24
ENDBRANCH  11  23
TORSDOF 8
