REMARK  3 active torsions:
REMARK  status: ('A' for Active; 'I' for Inactive)
REMARK    1  A    between atoms: N1_7  and  C6_8 
REMARK    2  A    between atoms: C6_8  and  C7_9 
REMARK    3  A    between atoms: C7_9  and  N2_10 
ROOT
HETATM    1  N2  UNL     1      -1.586  -1.058  -0.099  1.00  0.00    -0.312 N 
HETATM    2  C8  UNL     1      -2.080  -2.255  -0.704  1.00  0.00     0.248 C 
HETATM    3  O2  UNL     1      -1.253  -2.958  -1.338  1.00  0.00    -0.271 OA
HETATM    4  C9  UNL     1      -3.529  -2.539  -0.515  1.00  0.00     0.279 C 
HETATM    5  O3  UNL     1      -4.235  -1.364  -0.893  1.00  0.00    -0.340 OA
HETATM    6  C10 UNL     1      -3.863  -0.170  -0.324  1.00  0.00     0.098 A 
HETATM    7  C11 UNL     1      -4.781   0.844  -0.156  1.00  0.00     0.075 A 
HETATM    8  C12 UNL     1      -4.452   2.061   0.409  1.00  0.00     0.112 A 
HETATM    9  C13 UNL     1      -3.127   2.230   0.813  1.00  0.00     0.112 A 
HETATM   10  C14 UNL     1      -2.211   1.218   0.646  1.00  0.00     0.068 A 
HETATM   11  C15 UNL     1      -2.543   0.005   0.081  1.00  0.00     0.073 A 
HETATM   12  N3  UNL     1      -3.449   3.562   1.259  1.00  0.00    -0.147 NA
HETATM   13  N4  UNL     1      -4.653   3.398   0.888  1.00  0.00    -0.147 NA
ENDROOT
BRANCH   1  14
HETATM   14  C7  UNL     1      -0.211  -0.878   0.310  1.00  0.00     0.151 C 
BRANCH  14  15
HETATM   15  C6  UNL     1       0.617  -0.279  -0.787  1.00  0.00     0.137 C 
BRANCH  15  16
HETATM   16  N1  UNL     1       1.969  -0.059  -0.557  1.00  0.00    -0.403 N 
HETATM   17  C2  UNL     1       2.563  -0.148   0.697  1.00  0.00     0.099 C 
HETATM   18  C1  UNL     1       3.473  -1.336   0.898  1.00  0.00     0.034 C 
HETATM   19  C3  UNL     1       3.305   1.161   0.954  1.00  0.00     0.192 C 
HETATM   20  O1  UNL     1       4.225   1.487   0.014  1.00  0.00    -0.388 OA
HETATM   21  C4  UNL     1       3.997   1.133  -1.279  1.00  0.00     0.187 C 
HETATM   22  C5  UNL     1       2.650   0.587  -1.610  1.00  0.00     0.143 C 
ENDBRANCH  15  16
ENDBRANCH  14  15
ENDBRANCH   1  14
TORSDOF 3
