REMARK  2 active torsions:
REMARK  status: ('A' for Active; 'I' for Inactive)
REMARK    1  A    between atoms: C9_14  and  N3_15 
REMARK    2  A    between atoms: C10_16  and  N4_17 
ROOT
HETATM    1  C1  UNL     1      -4.881   0.366   1.391  1.00  0.00     0.022 C 
HETATM    2  C2  UNL     1      -4.163   0.753   0.365  1.00  0.00    -0.029 C 
HETATM    3  C3  UNL     1      -4.343   0.010  -0.922  1.00  0.00     0.206 C 
HETATM    4  O1  UNL     1      -3.157  -0.530  -1.273  1.00  0.00    -0.385 OA
HETATM    5  C4  UNL     1      -3.029  -1.249  -2.426  1.00  0.00     0.198 C 
HETATM    6  C5  UNL     1      -1.520  -1.643  -2.430  1.00  0.00     0.295 C 
HETATM    7  N1  UNL     1      -1.345  -2.417  -1.256  1.00  0.00     0.087 N 
HETATM    8  C6  UNL     1       0.066  -2.674  -0.891  1.00  0.00     0.290 C 
HETATM    9  C7  UNL     1       0.650  -1.421  -0.414  1.00  0.00     0.164 C 
HETATM   10  N2  UNL     1       1.953  -1.252   0.051  1.00  0.00    -0.292 N 
HETATM   11  C8  UNL     1       2.886  -2.281  -0.141  1.00  0.00     0.374 A 
HETATM   12  O2  UNL     1       2.558  -3.329  -0.737  1.00  0.00    -0.237 OA
HETATM   13  O3  UNL     1       4.179  -2.207   0.296  1.00  0.00    -0.242 OA
HETATM   14  C9  UNL     1       4.604  -1.080   0.958  1.00  0.00     0.177 A 
HETATM   15  C11 UNL     1       3.741  -0.107   1.146  1.00  0.00     0.088 A 
HETATM   16  C12 UNL     1       2.323  -0.046   0.732  1.00  0.00     0.041 A 
HETATM   17  C13 UNL     1       1.639   1.030   1.008  1.00  0.00     0.022 C 
HETATM   18  C14 UNL     1       0.540   1.967   1.081  1.00  0.00     0.151 C 
HETATM   19  N5  UNL     1      -0.699   1.549   0.391  1.00  0.00    -0.366 N 
HETATM   20  C15 UNL     1      -1.946   2.277   0.520  1.00  0.00     0.154 A 
HETATM   21  O4  UNL     1      -1.880   3.550   0.687  1.00  0.00    -0.305 OA
HETATM   22  C16 UNL     1      -3.060   4.135   0.797  1.00  0.00     0.145 A 
HETATM   23  C17 UNL     1      -3.951   3.081   0.682  1.00  0.00     0.041 A 
HETATM   24  C18 UNL     1      -3.240   1.884   0.504  1.00  0.00     0.024 A 
HETATM   25  H9  UNL     1      -1.720  -3.393  -1.451  1.00  0.00     0.316 HD
HETATM   26  H21 UNL     1      -1.094   0.850  -0.255  1.00  0.00     0.161 HD
ENDROOT
BRANCH  14  27
HETATM   27  N3  UNL     1       5.963  -1.026   1.409  1.00  0.00    -0.220 NA
HETATM   28  C10 UNL     1       6.698  -0.091   0.896  1.00  0.00     0.203 C 
BRANCH  28  29
HETATM   29  N4  UNL     1       8.079   0.107   1.236  1.00  0.00    -0.394 N 
HETATM   30  H15 UNL     1       8.735  -0.432   0.640  1.00  0.00     0.156 HD
HETATM   31  H16 UNL     1       8.576   0.685   1.963  1.00  0.00     0.156 HD
ENDBRANCH  28  29
ENDBRANCH  14  27
TORSDOF 2
