REMARK  6 active torsions:
REMARK  status: ('A' for Active; 'I' for Inactive)
REMARK    1  A    between atoms: C7_11  and  N3_12 
REMARK    2  A    between atoms: N3_12  and  C8_13 
REMARK    3  A    between atoms: N4_22  and  C17_23 
REMARK    4  A    between atoms: C17_23  and  C18_24 
REMARK    5  A    between atoms: C18_24  and  C19_25 
REMARK    6  A    between atoms: C19_25  and  N5_26 
ROOT
HETATM    1  O1  UNL     1      -2.363   4.416   0.623  1.00  0.00    -0.271 OA
HETATM    2  C1  UNL     1      -1.370   4.027  -0.055  1.00  0.00     0.248 A 
HETATM    3  C2  UNL     1      -0.804   5.060  -0.978  1.00  0.00     0.279 A 
HETATM    4  O2  UNL     1       0.287   4.581  -1.712  1.00  0.00    -0.340 OA
HETATM    5  C3  UNL     1       0.774   3.291  -1.575  1.00  0.00     0.098 A 
HETATM    6  C4  UNL     1       1.855   3.036  -2.394  1.00  0.00     0.071 A 
HETATM    7  C5  UNL     1       2.438   1.763  -2.346  1.00  0.00     0.075 A 
HETATM    8  N1  UNL     1       3.496   1.446  -3.128  1.00  0.00    -0.241 NA
HETATM    9  C6  UNL     1       4.008   0.191  -3.038  1.00  0.00     0.236 A 
HETATM   10  N2  UNL     1       3.473  -0.713  -2.191  1.00  0.00    -0.224 NA
HETATM   11  C7  UNL     1       2.423  -0.426  -1.404  1.00  0.00     0.142 A 
HETATM   12  C14 UNL     1       1.886   0.843  -1.477  1.00  0.00     0.041 A 
HETATM   13  C15 UNL     1       0.806   1.066  -0.647  1.00  0.00     0.050 A 
HETATM   14  C16 UNL     1       0.258   2.338  -0.723  1.00  0.00     0.071 A 
HETATM   15  N4  UNL     1      -0.860   2.699   0.080  1.00  0.00    -0.314 N 
ENDROOT
BRANCH  11  16
HETATM   16  N3  UNL     1       2.004  -1.516  -0.592  1.00  0.00    -0.340 N 
HETATM   17  H5  UNL     1       1.049  -1.862  -0.730  1.00  0.00     0.167 HD
BRANCH  16  18
HETATM   18  C8  UNL     1       2.854  -2.130   0.390  1.00  0.00     0.033 A 
HETATM   19  C9  UNL     1       2.424  -3.154   1.182  1.00  0.00     0.029 A 
HETATM   20  C10 UNL     1       3.301  -3.716   2.105  1.00  0.00     0.002 A 
HETATM   21  C11 UNL     1       4.594  -3.260   2.235  1.00  0.00     0.000 A 
HETATM   22  C12 UNL     1       5.075  -2.216   1.447  1.00  0.00     0.002 A 
HETATM   23  C13 UNL     1       4.151  -1.692   0.540  1.00  0.00     0.029 A 
ENDBRANCH  16  18
ENDBRANCH  11  16
BRANCH  15  24
HETATM   24  C17 UNL     1      -1.455   1.763   0.992  1.00  0.00     0.134 C 
BRANCH  24  25
HETATM   25  C18 UNL     1      -2.553   0.972   0.306  1.00  0.00     0.050 C 
BRANCH  25  26
HETATM   26  C19 UNL     1      -3.173  -0.007   1.282  1.00  0.00     0.277 C 
BRANCH  26  27
HETATM   27  N5  UNL     1      -4.214  -0.761   0.636  1.00  0.00     0.113 N 
HETATM   28  C20 UNL     1      -3.643  -1.646  -0.359  1.00  0.00     0.301 C 
HETATM   29  C21 UNL     1      -4.047  -3.012   0.141  1.00  0.00     0.200 C 
HETATM   30  O3  UNL     1      -5.221  -2.768   0.828  1.00  0.00    -0.361 OA
HETATM   31  C22 UNL     1      -4.905  -1.612   1.571  1.00  0.00     0.440 C 
ENDBRANCH  26  27
ENDBRANCH  25  26
ENDBRANCH  24  25
ENDBRANCH  15  24
TORSDOF 6
