REMARK  0 active torsions:
REMARK  status: ('A' for Active; 'I' for Inactive)
ROOT
HETATM    1  C1  UNL     1       4.795  -0.071   2.626  1.00  0.00     0.148 C 
HETATM    2  N1  UNL     1       3.453  -0.047   2.105  1.00  0.00    -0.392 N 
HETATM    3  C2  UNL     1       2.854   1.026   1.356  1.00  0.00     0.082 C 
HETATM    4  C3  UNL     1       1.835   1.757   0.912  1.00  0.00     0.009 C 
HETATM    5  C4  UNL     1       1.918   2.933   0.013  1.00  0.00     0.150 C 
HETATM    6  N2  UNL     1       1.220   2.823  -1.229  1.00  0.00    -0.370 N 
HETATM    7  C5  UNL     1      -0.077   2.837  -1.877  1.00  0.00     0.137 A 
HETATM    8  N3  UNL     1      -0.049   3.899  -2.695  1.00  0.00    -0.224 NA
HETATM    9  C6  UNL     1      -1.045   4.311  -3.495  1.00  0.00     0.235 A 
HETATM   10  N4  UNL     1      -2.181   3.593  -3.478  1.00  0.00    -0.241 NA
HETATM   11  C7  UNL     1      -2.214   2.511  -2.646  1.00  0.00     0.075 A 
HETATM   12  C8  UNL     1      -3.410   1.815  -2.666  1.00  0.00     0.071 A 
HETATM   13  C9  UNL     1      -3.677   0.698  -1.911  1.00  0.00     0.098 A 
HETATM   14  C10 UNL     1      -2.661   0.264  -1.083  1.00  0.00     0.071 A 
HETATM   15  C11 UNL     1      -1.476   0.957  -1.068  1.00  0.00     0.050 A 
HETATM   16  C12 UNL     1      -1.194   2.067  -1.810  1.00  0.00     0.041 A 
HETATM   17  N5  UNL     1      -2.947  -0.900  -0.287  1.00  0.00    -0.314 N 
HETATM   18  C13 UNL     1      -1.853  -1.267   0.532  1.00  0.00     0.132 C 
HETATM   19  C14 UNL     1      -1.073  -2.490   0.085  1.00  0.00     0.022 C 
HETATM   20  C15 UNL     1       0.181  -2.420   1.024  1.00  0.00     0.028 C 
HETATM   21  C16 UNL     1       1.133  -3.511   0.779  1.00  0.00     0.167 C 
HETATM   22  O1  UNL     1       2.233  -3.519   1.550  1.00  0.00    -0.390 OA
HETATM   23  C17 UNL     1       2.988  -2.392   1.535  1.00  0.00     0.187 C 
HETATM   24  C18 UNL     1       2.551  -1.205   2.315  1.00  0.00     0.148 C 
HETATM   25  C19 UNL     1      -4.187  -1.534  -0.368  1.00  0.00     0.248 C 
HETATM   26  O2  UNL     1      -4.270  -2.684   0.139  1.00  0.00    -0.271 OA
HETATM   27  C20 UNL     1      -5.329  -0.872  -1.017  1.00  0.00     0.279 C 
HETATM   28  O3  UNL     1      -4.908   0.064  -1.996  1.00  0.00    -0.340 OA
HETATM   29  H8  UNL     1       1.975   2.630  -1.972  1.00  0.00     0.161 HD
ENDROOT
TORSDOF 0
