REMARK  7 active torsions:
REMARK  status: ('A' for Active; 'I' for Inactive)
REMARK    1  A    between atoms: C4_4  and  N1_5 
REMARK    2  A    between atoms: N1_5  and  C5_6 
REMARK    3  A    between atoms: N4_16  and  O1_17 
REMARK    4  A    between atoms: O1_17  and  C13_18 
REMARK    5  A    between atoms: C13_18  and  C14_19 
REMARK    6  A    between atoms: C14_19  and  C15_20 
REMARK    7  A    between atoms: C15_20  and  N5_21 
ROOT
HETATM    1  C5  UNL     1       4.262  -0.709   0.337  1.00  0.00     0.142 A 
HETATM    2  N2  UNL     1       5.464  -1.195   0.629  1.00  0.00    -0.224 NA
HETATM    3  C6  UNL     1       5.769  -2.456   0.922  1.00  0.00     0.236 A 
HETATM    4  N3  UNL     1       4.752  -3.327   0.922  1.00  0.00    -0.241 NA
HETATM    5  C7  UNL     1       3.482  -2.946   0.639  1.00  0.00     0.075 A 
HETATM    6  C8  UNL     1       2.510  -3.921   0.666  1.00  0.00     0.071 A 
HETATM    7  C9  UNL     1       1.219  -3.600   0.391  1.00  0.00     0.099 A 
HETATM    8  C10 UNL     1       0.908  -2.281   0.085  1.00  0.00     0.091 A 
HETATM    9  C11 UNL     1       1.919  -1.359   0.074  1.00  0.00     0.052 A 
HETATM   10  C12 UNL     1       3.243  -1.622   0.344  1.00  0.00     0.041 A 
HETATM   11  N4  UNL     1      -0.456  -1.955  -0.205  1.00  0.00    -0.254 N 
HETATM   12  C20 UNL     1      -1.285  -3.035  -0.761  1.00  0.00     0.183 C 
HETATM   13  C21 UNL     1      -1.052  -4.357  -0.120  1.00  0.00     0.198 C 
HETATM   14  O3  UNL     1       0.222  -4.563   0.411  1.00  0.00    -0.347 OA
ENDROOT
BRANCH  11  15
HETATM   15  O1  UNL     1      -0.834  -0.667   0.071  1.00  0.00    -0.278 OA
BRANCH  15  16
HETATM   16  C13 UNL     1      -1.995  -0.279  -0.533  1.00  0.00     0.203 C 
BRANCH  16  17
HETATM   17  C14 UNL     1      -2.387   1.148  -0.249  1.00  0.00     0.059 C 
BRANCH  17  18
HETATM   18  C15 UNL     1      -3.677   1.484  -0.955  1.00  0.00     0.275 C 
BRANCH  18  19
HETATM   19  N5  UNL     1      -4.794   0.678  -0.582  1.00  0.00     0.092 N 
HETATM   20  C16 UNL     1      -6.029   0.993  -1.258  1.00  0.00     0.298 C 
HETATM   21  C17 UNL     1      -6.606   2.237  -0.622  1.00  0.00     0.198 C 
HETATM   22  O2  UNL     1      -6.961   1.894   0.684  1.00  0.00    -0.388 OA
HETATM   23  C18 UNL     1      -5.852   1.559   1.454  1.00  0.00     0.198 C 
HETATM   24  C19 UNL     1      -5.005   0.493   0.812  1.00  0.00     0.298 C 
ENDBRANCH  18  19
ENDBRANCH  17  18
ENDBRANCH  16  17
ENDBRANCH  15  16
ENDBRANCH  11  15
BRANCH   1  25
HETATM   25  N1  UNL     1       3.956   0.637   0.027  1.00  0.00    -0.340 N 
HETATM   26  H4  UNL     1       3.007   0.945  -0.185  1.00  0.00     0.167 HD
BRANCH  25  27
HETATM   27  C4  UNL     1       4.818   1.760  -0.054  1.00  0.00     0.033 A 
HETATM   28  C3  UNL     1       4.414   3.072  -0.329  1.00  0.00     0.029 A 
HETATM   29  C2  UNL     1       5.283   4.128  -0.399  1.00  0.00     0.002 A 
HETATM   30  C1  UNL     1       6.631   3.954  -0.198  1.00  0.00     0.000 A 
HETATM   31  C23 UNL     1       7.065   2.683   0.073  1.00  0.00     0.002 A 
HETATM   32  C22 UNL     1       6.166   1.640   0.137  1.00  0.00     0.029 A 
ENDBRANCH  25  27
ENDBRANCH   1  25
TORSDOF 7
