REMARK  5 active torsions:
REMARK  status: ('A' for Active; 'I' for Inactive)
REMARK    1  A    between atoms: N1_5  and  C4_6 
REMARK    2  A    between atoms: N1_5  and  C24_31 
REMARK    3  A    between atoms: C4_6  and  C5_7 
REMARK    4  A    between atoms: C14_20  and  N5_21 
REMARK    5  A    between atoms: N5_21  and  C15_22 
ROOT
HETATM    1  C5  UNL     1      -1.871   0.565  -0.583  1.00  0.00     0.084 C 
HETATM    2  C6  UNL     1      -1.237   1.515   0.371  1.00  0.00     0.280 C 
HETATM    3  N2  UNL     1      -0.872   0.391   1.206  1.00  0.00     0.098 N 
HETATM    4  C7  UNL     1      -0.942  -0.446   0.060  1.00  0.00     0.196 C 
HETATM    5  C8  UNL     1      -1.466  -1.836   0.236  1.00  0.00     0.074 C 
HETATM    6  C9  UNL     1      -1.696  -2.502  -1.079  1.00  0.00     0.178 C 
HETATM    7  O1  UNL     1      -1.043  -1.801  -2.152  1.00  0.00    -0.350 OA
HETATM    8  C10 UNL     1       0.241  -1.259  -1.941  1.00  0.00     0.080 A 
HETATM    9  C11 UNL     1       1.347  -1.379  -2.759  1.00  0.00     0.070 A 
HETATM   10  C12 UNL     1       2.541  -0.788  -2.408  1.00  0.00     0.074 A 
HETATM   11  N3  UNL     1       3.585  -0.929  -3.226  1.00  0.00    -0.241 NA
HETATM   12  C13 UNL     1       4.768  -0.352  -2.893  1.00  0.00     0.236 A 
HETATM   13  N4  UNL     1       4.880   0.351  -1.752  1.00  0.00    -0.224 NA
HETATM   14  C14 UNL     1       3.831   0.513  -0.894  1.00  0.00     0.142 A 
HETATM   15  C21 UNL     1       2.630  -0.073  -1.232  1.00  0.00     0.039 A 
HETATM   16  C22 UNL     1       1.523   0.043  -0.423  1.00  0.00     0.030 A 
HETATM   17  C23 UNL     1       0.320  -0.532  -0.744  1.00  0.00     0.015 A 
HETATM   18  H10 UNL     1      -0.004   0.443   1.740  1.00  0.00     0.317 HD
ENDROOT
BRANCH   1  19
HETATM   19  C4  UNL     1      -3.295   0.230  -0.458  1.00  0.00     0.262 C 
BRANCH  19  20
HETATM   20  N1  UNL     1      -4.267   1.266  -0.551  1.00  0.00    -0.006 N 
HETATM   21  C3  UNL     1      -5.495   0.702  -1.197  1.00  0.00     0.312 A 
HETATM   22  C2  UNL     1      -6.791   0.144   0.027  1.00  0.00     0.124 A 
HETATM   23  S1  UNL     1      -5.855   0.711   0.576  1.00  0.00    -0.018 SA
HETATM   24  C1  UNL     1      -5.341   1.020   0.854  1.00  0.00    -0.076 A 
HETATM   25  C24 UNL     1      -4.511   1.512   1.269  1.00  0.00     0.381 A 
ENDBRANCH  19  20
ENDBRANCH   1  19
BRANCH  14  26
HETATM   26  N5  UNL     1       3.987   1.264   0.305  1.00  0.00    -0.340 N 
HETATM   27  H17 UNL     1       3.759   2.259   0.145  1.00  0.00     0.167 HD
BRANCH  26  28
HETATM   28  C15 UNL     1       4.395   0.809   1.590  1.00  0.00     0.033 A 
HETATM   29  C16 UNL     1       4.490   1.678   2.666  1.00  0.00     0.029 A 
HETATM   30  C17 UNL     1       4.891   1.169   3.882  1.00  0.00     0.002 A 
HETATM   31  C18 UNL     1       5.205  -0.158   4.092  1.00  0.00     0.000 A 
HETATM   32  C19 UNL     1       5.116  -1.038   3.031  1.00  0.00     0.002 A 
HETATM   33  C20 UNL     1       4.710  -0.512   1.811  1.00  0.00     0.029 A 
ENDBRANCH  26  28
ENDBRANCH  14  26
TORSDOF 5
