REMARK  5 active torsions:
REMARK  status: ('A' for Active; 'I' for Inactive)
REMARK    1  A    between atoms: C1_2  and  C2_4 
REMARK    2  A    between atoms: C2_4  and  O2_5 
REMARK    3  A    between atoms: O2_5  and  C3_6 
REMARK    4  A    between atoms: C7_10  and  N1_11 
REMARK    5  A    between atoms: N1_11  and  C8_12 
ROOT
HETATM    1  C3  UNL     1       2.289  -0.057   0.353  1.00  0.00     0.197 A 
HETATM    2  C4  UNL     1       1.612   0.909   1.253  1.00  0.00     0.012 A 
HETATM    3  C5  UNL     1       0.322   0.570   1.410  1.00  0.00     0.016 A 
HETATM    4  C6  UNL     1       0.006  -0.642   0.646  1.00  0.00     0.037 A 
HETATM    5  C7  UNL     1      -1.048  -1.484   0.367  1.00  0.00     0.141 A 
HETATM    6  N2  UNL     1      -0.922  -2.557  -0.432  1.00  0.00    -0.224 NA
HETATM    7  C13 UNL     1       0.243  -2.889  -1.020  1.00  0.00     0.235 A 
HETATM    8  N3  UNL     1       1.291  -2.074  -0.759  1.00  0.00    -0.242 NA
HETATM    9  C14 UNL     1       1.203  -1.010   0.022  1.00  0.00     0.082 A 
ENDROOT
BRANCH   5  10
HETATM   10  N1  UNL     1      -2.255  -1.047   1.025  1.00  0.00    -0.344 N 
HETATM   11  H6  UNL     1      -2.738  -1.328   1.928  1.00  0.00     0.167 HD
BRANCH  10  12
HETATM   12  C8  UNL     1      -3.004  -0.024   0.376  1.00  0.00     0.014 A 
HETATM   13  C9  UNL     1      -3.250  -0.147  -0.926  1.00  0.00     0.025 A 
HETATM   14  C10 UNL     1      -4.011   0.947  -1.471  1.00  0.00    -0.002 A 
HETATM   15  C11 UNL     1      -4.233   1.772  -0.441  1.00  0.00    -0.021 A 
HETATM   16  C12 UNL     1      -3.631   1.259   0.827  1.00  0.00     0.084 A 
ENDBRANCH  10  12
ENDBRANCH   5  10
BRANCH   1  17
HETATM   17  O2  UNL     1       3.374  -0.601   0.992  1.00  0.00    -0.368 OA
BRANCH  17  18
HETATM   18  C2  UNL     1       4.555  -0.420   0.267  1.00  0.00     0.260 C 
BRANCH  18  19
HETATM   19  C1  UNL     1       4.881   1.002   0.015  1.00  0.00     0.218 C 
HETATM   20  O1  UNL     1       5.900   1.078  -0.641  1.00  0.00    -0.283 OA
HETATM   21 BR1  UNL     1       4.637   2.874   0.114  1.00  0.00    -0.007 Br
ENDBRANCH  18  19
ENDBRANCH  17  18
ENDBRANCH   1  17
TORSDOF 5
