REMARK  12 active torsions:
REMARK  status: ('A' for Active; 'I' for Inactive)
REMARK    1  A    between atoms: C2_2  and  C3_3 
REMARK    2  A    between atoms: C3_3  and  C4_4 
REMARK    3  A    between atoms: C3_3  and  C12_16 
REMARK    4  A    between atoms: C4_4  and  N1_5 
REMARK    5  A    between atoms: N1_5  and  C5_6 
REMARK    6  A    between atoms: N1_5  and  C6_8 
REMARK    7  A    between atoms: C6_8  and  C7_9 
REMARK    8  A    between atoms: C7_9  and  N2_10 
REMARK    9  A    between atoms: C14_20  and  N5_21 
REMARK   10  A    between atoms: N5_21  and  C15_22 
REMARK   11  A    between atoms: C21_28  and  C22_29 
REMARK   12  A    between atoms: C22_29  and  O3_30 
ROOT
HETATM    1  C12 UNL     1      -1.108   0.170  -0.624  1.00  0.00     0.053 A 
HETATM    2  N3  UNL     1      -0.906   1.483  -0.929  1.00  0.00    -0.245 NA
HETATM    3  C13 UNL     1      -1.609   2.514  -0.503  1.00  0.00     0.235 A 
HETATM    4  N4  UNL     1      -2.641   2.304   0.319  1.00  0.00    -0.224 NA
HETATM    5  C14 UNL     1      -2.953   1.045   0.701  1.00  0.00     0.139 A 
HETATM    6  C21 UNL     1      -2.179  -0.010   0.221  1.00  0.00     0.036 A 
ENDROOT
BRANCH   1   7
HETATM    7  C3  UNL     1      -0.189  -0.856  -1.130  1.00  0.00     0.056 C 
BRANCH   7   8
HETATM    8  C2  UNL     1      -0.760  -1.872  -2.052  1.00  0.00     0.008 C 
HETATM    9  C1  UNL     1       0.289  -2.478  -2.970  1.00  0.00     0.006 C 
ENDBRANCH   7   8
BRANCH   7  10
HETATM   10  C4  UNL     1       0.871  -1.332  -0.182  1.00  0.00     0.136 C 
BRANCH  10  11
HETATM   11  N1  UNL     1       1.360  -0.280   0.690  1.00  0.00    -0.357 N 
BRANCH  11  12
HETATM   12  C5  UNL     1       0.729  -0.099   1.946  1.00  0.00     0.350 C 
HETATM   13  O1  UNL     1      -0.166  -0.494   2.718  1.00  0.00    -0.284 OA
ENDBRANCH  11  12
BRANCH  11  14
HETATM   14  C6  UNL     1       2.445   0.626   0.386  1.00  0.00     0.144 C 
BRANCH  14  15
HETATM   15  C7  UNL     1       3.725   0.016   0.876  1.00  0.00     0.136 C 
BRANCH  15  16
HETATM   16  N2  UNL     1       4.885   0.778   0.656  1.00  0.00    -0.407 N 
HETATM   17  C8  UNL     1       5.360   0.981  -0.652  1.00  0.00     0.143 C 
HETATM   18  C9  UNL     1       6.736   0.432  -0.923  1.00  0.00     0.187 C 
HETATM   19  O2  UNL     1       7.379  -0.082   0.179  1.00  0.00    -0.388 OA
HETATM   20  C10 UNL     1       7.263   0.774   1.245  1.00  0.00     0.187 C 
HETATM   21  C11 UNL     1       5.825   0.826   1.718  1.00  0.00     0.143 C 
ENDBRANCH  15  16
ENDBRANCH  14  15
ENDBRANCH  11  14
ENDBRANCH  10  11
ENDBRANCH   7  10
ENDBRANCH   1   7
BRANCH   6  22
HETATM   22  C22 UNL     1      -2.611  -1.340   0.616  1.00  0.00     0.208 C 
BRANCH  22  23
HETATM   23  O3  UNL     1      -3.415  -1.844  -0.444  1.00  0.00    -0.396 OA
HETATM   24  H31 UNL     1      -3.458  -2.836  -0.429  1.00  0.00     0.209 HD
ENDBRANCH  22  23
ENDBRANCH   6  22
BRANCH   5  25
HETATM   25  N5  UNL     1      -4.054   0.881   1.576  1.00  0.00    -0.340 N 
HETATM   26  H23 UNL     1      -3.804   0.865   2.595  1.00  0.00     0.167 HD
BRANCH  25  27
HETATM   27  C15 UNL     1      -5.396   0.750   1.162  1.00  0.00     0.033 A 
HETATM   28  C16 UNL     1      -5.750   0.801  -0.167  1.00  0.00     0.029 A 
HETATM   29  C17 UNL     1      -7.064   0.678  -0.628  1.00  0.00     0.002 A 
HETATM   30  C18 UNL     1      -7.986   0.500   0.373  1.00  0.00     0.000 A 
HETATM   31  C19 UNL     1      -7.705   0.438   1.718  1.00  0.00     0.002 A 
HETATM   32  C20 UNL     1      -6.386   0.567   2.102  1.00  0.00     0.029 A 
ENDBRANCH  25  27
ENDBRANCH   5  25
TORSDOF 12
