REMARK  0 active torsions:
REMARK  status: ('A' for Active; 'I' for Inactive)
ROOT
HETATM    1  C1  UNL     1      -0.429   1.842  -3.099  1.00  0.00     0.232 C 
HETATM    2  N1  UNL     1       0.431   2.662  -2.533  1.00  0.00    -0.253 NA
HETATM    3  C2  UNL     1       1.052   2.685  -1.250  1.00  0.00     0.130 C 
HETATM    4  C3  UNL     1       0.566   2.188  -0.102  1.00  0.00     0.016 C 
HETATM    5  C4  UNL     1       1.636   1.779   0.902  1.00  0.00     0.210 C 
HETATM    6  O1  UNL     1       1.815   0.434   0.627  1.00  0.00    -0.385 OA
HETATM    7  C5  UNL     1       2.519  -0.357   1.430  1.00  0.00     0.198 C 
HETATM    8  C6  UNL     1       2.578  -1.813   0.966  1.00  0.00     0.295 C 
HETATM    9  N2  UNL     1       1.209  -2.295   0.725  1.00  0.00     0.087 N 
HETATM   10  C7  UNL     1       0.736  -1.878  -0.554  1.00  0.00     0.289 C 
HETATM   11  C8  UNL     1      -0.719  -1.885  -0.835  1.00  0.00     0.147 C 
HETATM   12  N3  UNL     1      -1.495  -0.857  -0.266  1.00  0.00    -0.403 N 
HETATM   13  C9  UNL     1      -1.962  -0.928   1.049  1.00  0.00     0.144 C 
HETATM   14  C10 UNL     1      -1.161  -0.196   2.097  1.00  0.00     0.195 C 
HETATM   15  O2  UNL     1      -0.919   1.122   1.669  1.00  0.00    -0.349 OA
HETATM   16  C11 UNL     1      -0.836   1.861   0.433  1.00  0.00     0.080 C 
HETATM   17  C12 UNL     1      -2.058   2.206  -0.167  1.00  0.00     0.066 C 
HETATM   18  C13 UNL     1      -2.092   1.179  -1.294  1.00  0.00     0.056 C 
HETATM   19  N4  UNL     1      -1.735   1.390  -2.577  1.00  0.00    -0.245 NA
HETATM   20  C14 UNL     1      -2.465  -0.297  -1.235  1.00  0.00     0.176 C 
HETATM   21  H9  UNL     1       1.263  -3.337   0.748  1.00  0.00     0.316 HD
ENDROOT
TORSDOF 0
