REMARK  4 active torsions:
REMARK  status: ('A' for Active; 'I' for Inactive)
REMARK    1  A    between atoms: C3_4  and  O2_5 
REMARK    2  A    between atoms: O2_5  and  O3_6 
REMARK    3  A    between atoms: N4_22  and  C16_23 
REMARK    4  A    between atoms: C16_23  and  C17_24 
ROOT
HETATM    1  C17 UNL     1       4.179  -0.921  -1.008  1.00  0.00     0.143 C 
HETATM    2  C18 UNL     1       5.626  -1.092  -1.141  1.00  0.00     0.060 C 
HETATM    3  N5  UNL     1       6.770  -1.245  -1.256  1.00  0.00    -0.197 NA
ENDROOT
BRANCH   1   4
HETATM    4  C16 UNL     1       3.942  -0.130   0.275  1.00  0.00     0.139 C 
BRANCH   4   5
HETATM    5  N4  UNL     1       2.552   0.103   0.515  1.00  0.00    -0.363 N 
HETATM    6  C2  UNL     1       1.349  -0.611   0.857  1.00  0.00     0.222 C 
HETATM    7  C1  UNL     1       0.727  -0.071   2.142  1.00  0.00     0.063 C 
HETATM    8  O1  UNL     1       0.488  -0.605  -0.205  1.00  0.00    -0.330 OA
HETATM    9  C3  UNL     1       0.125  -1.852  -0.690  1.00  0.00     0.333 C 
HETATM   10  C4  UNL     1      -1.355  -1.989  -0.579  1.00  0.00     0.001 A 
HETATM   11  C5  UNL     1      -2.014  -3.104  -1.049  1.00  0.00     0.012 A 
HETATM   12  C9  UNL     1      -2.101  -0.969   0.007  1.00  0.00     0.041 A 
HETATM   13  C6  UNL     1      -3.397  -3.240  -0.957  1.00  0.00     0.003 A 
HETATM   14  C7  UNL     1      -4.098  -2.195  -0.365  1.00  0.00     0.029 A 
HETATM   15  C8  UNL     1      -3.473  -1.064   0.118  1.00  0.00     0.029 A 
HETATM   16  N1  UNL     1      -4.172   0.031   0.728  1.00  0.00    -0.375 N 
HETATM   17  C10 UNL     1      -4.166   1.367   0.109  1.00  0.00     0.229 C 
HETATM   18  H11 UNL     1      -4.565  -0.471   1.575  1.00  0.00     0.161 HD
HETATM   19  N2  UNL     1      -2.812   1.862  -0.023  1.00  0.00    -0.406 NA
HETATM   20  C11 UNL     1      -2.407   3.048   0.157  1.00  0.00     0.437 C 
HETATM   21  N3  UNL     1      -1.022   3.250  -0.042  1.00  0.00    -0.274 NA
HETATM   22  C12 UNL     1      -0.309   4.160   0.557  1.00  0.00     0.090 C 
HETATM   23  C13 UNL     1       1.064   3.975   0.025  1.00  0.00     0.075 C 
HETATM   24  C14 UNL     1       1.509   2.567   0.135  1.00  0.00    -0.005 C 
HETATM   25  C15 UNL     1       2.120   1.442   0.404  1.00  0.00     0.084 C 
BRANCH   9  26
HETATM   26  O2  UNL     1       0.466  -2.042  -2.029  1.00  0.00    -0.205 OA
BRANCH  26  27
HETATM   27  O3  UNL     1       1.188  -3.118  -2.141  1.00  0.00    -0.248 OA
HETATM   28  H6  UNL     1       1.206  -3.696  -1.350  1.00  0.00     0.253 HD
ENDBRANCH  26  27
ENDBRANCH   9  26
ENDBRANCH   4   5
ENDBRANCH   1   4
TORSDOF 4
