REMARK  3 active torsions:
REMARK  status: ('A' for Active; 'I' for Inactive)
REMARK    1  A    between atoms: C7_10  and  N3_11 
REMARK    2  A    between atoms: N3_11  and  C8_12 
REMARK    3  A    between atoms: C8_12  and  C9_13 
ROOT
HETATM    1  C1  UNL     1      -6.385  -0.615   1.046  1.00  0.00     0.048 C 
HETATM    2  C2  UNL     1      -5.171  -0.090   0.370  1.00  0.00    -0.063 A 
HETATM    3  C3  UNL     1      -4.666   1.132   0.322  1.00  0.00     0.016 A 
HETATM    4  C4  UNL     1      -3.419   1.214  -0.479  1.00  0.00     0.185 A 
HETATM    5  O1  UNL     1      -2.382   1.660   0.373  1.00  0.00    -0.319 OA
HETATM    6  C5  UNL     1      -1.016   1.587   0.123  1.00  0.00     0.197 A 
HETATM    7  N1  UNL     1      -0.317   2.628   0.658  1.00  0.00    -0.216 NA
HETATM    8  C6  UNL     1       1.036   2.677   0.484  1.00  0.00     0.238 A 
HETATM    9  N2  UNL     1       1.671   1.717  -0.204  1.00  0.00    -0.222 NA
HETATM   10  C7  UNL     1       1.060   0.663  -0.760  1.00  0.00     0.156 A 
HETATM   11  C15 UNL     1      -0.300   0.620  -0.580  1.00  0.00     0.128 A 
HETATM   12  N4  UNL     1      -0.842  -0.533  -1.187  1.00  0.00    -0.379 N 
HETATM   13  C16 UNL     1      -2.148  -0.771  -1.775  1.00  0.00     0.157 C 
HETATM   14  C17 UNL     1      -3.231  -0.188  -0.928  1.00  0.00    -0.029 A 
HETATM   15  C18 UNL     1      -4.261  -0.883  -0.413  1.00  0.00     0.014 A 
HETATM   16  H15 UNL     1      -0.146  -1.330  -1.181  1.00  0.00     0.160 HD
ENDROOT
BRANCH  10  17
HETATM   17  N3  UNL     1       1.843  -0.273  -1.488  1.00  0.00    -0.369 N 
HETATM   18  H7  UNL     1       1.517  -1.117  -2.006  1.00  0.00     0.161 HD
BRANCH  17  19
HETATM   19  C8  UNL     1       3.280  -0.179  -1.632  1.00  0.00     0.160 C 
BRANCH  19  20
HETATM   20  C9  UNL     1       4.026  -0.309  -0.363  1.00  0.00    -0.041 A 
HETATM   21  C10 UNL     1       4.538   0.591   0.543  1.00  0.00     0.009 A 
HETATM   22  C11 UNL     1       5.188   0.158   1.673  1.00  0.00     0.001 A 
HETATM   23  C12 UNL     1       5.362  -1.176   1.963  1.00  0.00     0.000 A 
HETATM   24  C13 UNL     1       4.861  -2.104   1.074  1.00  0.00     0.001 A 
HETATM   25  C14 UNL     1       4.198  -1.667  -0.079  1.00  0.00     0.009 A 
ENDBRANCH  19  20
ENDBRANCH  17  19
ENDBRANCH  10  17
TORSDOF 3
