REMARK  6 active torsions:
REMARK  status: ('A' for Active; 'I' for Inactive)
REMARK    1  A    between atoms: C7_11  and  N3_12 
REMARK    2  A    between atoms: N3_12  and  C8_13 
REMARK    3  A    between atoms: N4_21  and  C16_22 
REMARK    4  A    between atoms: C16_22  and  C17_23 
REMARK    5  A    between atoms: C17_23  and  C18_24 
REMARK    6  A    between atoms: C18_24  and  N5_25 
ROOT
HETATM    1  O1  UNL     1       1.984  -3.464  -0.282  1.00  0.00    -0.271 OA
HETATM    2  C1  UNL     1       0.747  -3.326   0.012  1.00  0.00     0.248 C 
HETATM    3  C2  UNL     1      -0.203  -4.390  -0.434  1.00  0.00     0.279 C 
HETATM    4  O2  UNL     1      -1.466  -3.833  -0.737  1.00  0.00    -0.340 OA
HETATM    5  C3  UNL     1      -1.963  -2.752  -0.033  1.00  0.00     0.098 C 
HETATM    6  C4  UNL     1      -3.293  -2.500  -0.026  1.00  0.00     0.071 C 
HETATM    7  C5  UNL     1      -3.635  -1.342   0.785  1.00  0.00     0.093 A 
HETATM    8  N1  UNL     1      -4.657  -1.082   1.569  1.00  0.00    -0.242 NA
HETATM    9  C6  UNL     1      -4.440   0.239   2.123  1.00  0.00     0.230 A 
HETATM   10  N2  UNL     1      -3.337   0.742   1.687  1.00  0.00    -0.240 NA
HETATM   11  C7  UNL     1      -2.740  -0.194   0.813  1.00  0.00     0.193 A 
HETATM   12  C14 UNL     1      -1.335  -0.634   1.193  1.00  0.00     0.067 C 
HETATM   13  C15 UNL     1      -1.083  -1.867   0.722  1.00  0.00     0.071 C 
HETATM   14  N4  UNL     1       0.339  -2.150   0.757  1.00  0.00    -0.314 N 
ENDROOT
BRANCH  14  15
HETATM   15  C16 UNL     1       1.337  -1.387   1.446  1.00  0.00     0.134 C 
BRANCH  15  16
HETATM   16  C17 UNL     1       1.940  -0.297   0.617  1.00  0.00     0.050 C 
BRANCH  16  17
HETATM   17  C18 UNL     1       2.982   0.470   1.405  1.00  0.00     0.274 C 
BRANCH  17  18
HETATM   18  N5  UNL     1       3.484   1.482   0.499  1.00  0.00     0.092 N 
HETATM   19  C19 UNL     1       4.246   0.959  -0.596  1.00  0.00     0.298 C 
HETATM   20  C20 UNL     1       5.621   1.605  -0.685  1.00  0.00     0.198 C 
HETATM   21  O3  UNL     1       6.247   1.603   0.556  1.00  0.00    -0.388 OA
HETATM   22  C21 UNL     1       5.509   2.195   1.549  1.00  0.00     0.198 C 
HETATM   23  C22 UNL     1       4.107   2.569   1.176  1.00  0.00     0.298 C 
ENDBRANCH  17  18
ENDBRANCH  16  17
ENDBRANCH  15  16
ENDBRANCH  14  15
BRANCH  11  24
HETATM   24  N3  UNL     1      -2.541   0.368  -0.535  1.00  0.00    -0.354 N 
HETATM   25  H5  UNL     1      -1.523   0.419  -0.864  1.00  0.00     0.163 HD
BRANCH  24  26
HETATM   26  C8  UNL     1      -3.427   0.873  -1.522  1.00  0.00     0.030 A 
HETATM   27  C9  UNL     1      -4.796   0.936  -1.420  1.00  0.00     0.029 A 
HETATM   28  C10 UNL     1      -5.672   1.427  -2.358  1.00  0.00     0.002 A 
HETATM   29  C11 UNL     1      -5.130   1.909  -3.529  1.00  0.00     0.000 A 
HETATM   30  C12 UNL     1      -3.766   1.873  -3.691  1.00  0.00     0.002 A 
HETATM   31  C13 UNL     1      -2.943   1.368  -2.712  1.00  0.00     0.029 A 
ENDBRANCH  24  26
ENDBRANCH  11  24
TORSDOF 6
