REMARK  7 active torsions:
REMARK  status: ('A' for Active; 'I' for Inactive)
REMARK    1  A    between atoms: N1_7  and  C5_8 
REMARK    2  A    between atoms: C5_8  and  C6_9 
REMARK    3  A    between atoms: C6_9  and  C7_10 
REMARK    4  A    between atoms: C7_10  and  N2_11 
REMARK    5  A    between atoms: N2_11  and  C8_12 
REMARK    6  A    between atoms: C15_21  and  N3_22 
REMARK    7  A    between atoms: N3_22  and  C16_23 
ROOT
HETATM    1  C1  UNL     1      -1.326   3.543   1.609  1.00  0.00     0.053 C 
HETATM    2  C2  UNL     1      -0.802   3.256   0.411  1.00  0.00     0.089 C 
HETATM    3  O1  UNL     1       0.054   3.086  -0.700  1.00  0.00    -0.341 OA
HETATM    4  C3  UNL     1       1.327   2.574  -0.114  1.00  0.00     0.278 C 
HETATM    5  C4  UNL     1       0.730   1.254   0.362  1.00  0.00     0.247 C 
HETATM    6  O2  UNL     1      -0.005   1.506  -0.554  1.00  0.00    -0.271 OA
HETATM    7  N1  UNL     1       0.204   0.055   0.808  1.00  0.00    -0.326 N 
HETATM    8  C12 UNL     1      -0.943  -0.644   0.340  1.00  0.00     0.095 C 
HETATM    9  C13 UNL     1      -1.815   0.238   0.132  1.00  0.00     0.035 C 
HETATM   10  C14 UNL     1      -2.629   1.448  -0.020  1.00  0.00     0.043 A 
HETATM   11  C15 UNL     1      -3.930   1.159  -0.370  1.00  0.00     0.142 A 
HETATM   12  N4  UNL     1      -4.868   2.023  -0.759  1.00  0.00    -0.224 NA
HETATM   13  C22 UNL     1      -4.369   3.309  -0.770  1.00  0.00     0.236 A 
HETATM   14  N5  UNL     1      -3.141   3.666  -0.447  1.00  0.00    -0.238 NA
HETATM   15  C23 UNL     1      -2.184   2.742  -0.045  1.00  0.00     0.104 A 
ENDROOT
BRANCH   7  16
HETATM   16  C5  UNL     1       1.176  -0.191   1.836  1.00  0.00     0.133 C 
BRANCH  16  17
HETATM   17  C6  UNL     1       2.605  -0.030   1.695  1.00  0.00     0.039 C 
BRANCH  17  18
HETATM   18  C7  UNL     1       3.259  -0.805   0.571  1.00  0.00     0.116 C 
BRANCH  18  19
HETATM   19  N2  UNL     1       4.674  -0.755   0.707  1.00  0.00    -0.415 N 
HETATM   20  H11 UNL     1       5.006   0.113   1.146  1.00  0.00     0.153 HD
BRANCH  19  21
HETATM   21  C8  UNL     1       5.476  -1.269  -0.314  1.00  0.00     0.089 C 
HETATM   22  C9  UNL     1       5.828  -0.237  -1.308  1.00  0.00    -0.054 C 
HETATM   23  B1  UNL     1       7.641   0.107  -1.806  1.00  0.00     0.349 B 
HETATM   24  O3  UNL     1       8.597  -1.095  -0.793  1.00  0.00    -0.453 OA
HETATM   25  C10 UNL     1       7.867  -1.210   0.433  1.00  0.00     0.144 C 
HETATM   26  C11 UNL     1       6.640  -2.084   0.191  1.00  0.00     0.052 C 
ENDBRANCH  19  21
ENDBRANCH  18  19
ENDBRANCH  17  18
ENDBRANCH  16  17
ENDBRANCH   7  16
BRANCH  11  27
HETATM   27  N3  UNL     1      -4.394  -0.150  -0.177  1.00  0.00    -0.340 N 
HETATM   28  H20 UNL     1      -3.884  -0.729   0.564  1.00  0.00     0.167 HD
BRANCH  27  29
HETATM   29  C16 UNL     1      -5.341  -1.109  -0.427  1.00  0.00     0.033 A 
HETATM   30  C17 UNL     1      -6.661  -0.855  -0.408  1.00  0.00     0.029 A 
HETATM   31  C18 UNL     1      -7.803  -1.489  -0.595  1.00  0.00     0.002 A 
HETATM   32  C19 UNL     1      -7.441  -2.795  -0.896  1.00  0.00     0.000 A 
HETATM   33  C20 UNL     1      -6.157  -3.354  -0.997  1.00  0.00     0.002 A 
HETATM   34  C21 UNL     1      -5.095  -2.477  -0.755  1.00  0.00     0.029 A 
ENDBRANCH  27  29
ENDBRANCH  11  27
TORSDOF 7
