REMARK  4 active torsions:
REMARK  status: ('A' for Active; 'I' for Inactive)
REMARK    1  A    between atoms: N4_22  and  C17_23 
REMARK    2  A    between atoms: C17_23  and  C18_24 
REMARK    3  A    between atoms: C18_24  and  C19_25 
REMARK    4  A    between atoms: C19_25  and  N5_26 
ROOT
HETATM    1  C1  UNL     1      -5.921  -1.562  -1.675  1.00  0.00     0.000 A 
HETATM    2  C2  UNL     1      -5.394  -0.358  -1.586  1.00  0.00     0.012 A 
HETATM    3  C3  UNL     1      -4.024  -0.100  -1.183  1.00  0.00    -0.002 A 
HETATM    4  C4  UNL     1      -3.759   1.199  -1.375  1.00  0.00     0.007 C 
HETATM    5  C5  UNL     1      -2.722   2.242  -1.271  1.00  0.00     0.149 C 
HETATM    6  N1  UNL     1      -3.062   3.233  -0.310  1.00  0.00    -0.371 N 
HETATM    7  C6  UNL     1      -3.007   2.325   0.811  1.00  0.00     0.136 A 
HETATM    8  N2  UNL     1      -4.024   2.610   1.616  1.00  0.00    -0.224 NA
HETATM    9  C7  UNL     1      -4.290   1.981   2.770  1.00  0.00     0.234 A 
HETATM   10  N3  UNL     1      -3.457   0.968   3.155  1.00  0.00    -0.253 NA
HETATM   11  C8  UNL     1      -2.429   0.739   2.262  1.00  0.00     0.133 A 
HETATM   12  C9  UNL     1      -2.070   1.347   1.026  1.00  0.00     0.029 A 
HETATM   13  C10 UNL     1      -0.875   0.536   0.698  1.00  0.00     0.049 C 
HETATM   14  C11 UNL     1      -0.811  -0.684   0.081  1.00  0.00     0.068 C 
HETATM   15  C12 UNL     1      -1.945  -1.419  -0.394  1.00  0.00     0.129 C 
HETATM   16  C13 UNL     1      -3.143  -1.184  -0.850  1.00  0.00     0.114 A 
HETATM   17  O1  UNL     1      -3.778  -2.396  -1.019  1.00  0.00    -0.344 OA
HETATM   18  C14 UNL     1      -5.073  -2.701  -1.348  1.00  0.00     0.203 A 
HETATM   19  O2  UNL     1      -1.220  -2.556  -0.216  1.00  0.00    -0.344 OA
HETATM   20  C15 UNL     1      -0.068  -3.011  -0.865  1.00  0.00     0.195 C 
HETATM   21  C16 UNL     1       1.058  -2.060  -0.527  1.00  0.00     0.149 C 
HETATM   22  N4  UNL     1       0.479  -1.132   0.480  1.00  0.00    -0.376 N 
HETATM   23  H6  UNL     1      -3.291   4.243  -0.228  1.00  0.00     0.161 HD
ENDROOT
BRANCH  22  24
HETATM   24  C17 UNL     1       1.192  -0.800   1.667  1.00  0.00     0.124 C 
BRANCH  24  25
HETATM   25  C18 UNL     1       2.413   0.027   1.547  1.00  0.00     0.039 C 
BRANCH  25  26
HETATM   26  C19 UNL     1       3.541  -0.545   0.736  1.00  0.00     0.118 C 
BRANCH  26  27
HETATM   27  N5  UNL     1       4.646   0.387   0.734  1.00  0.00    -0.408 N 
HETATM   28  C20 UNL     1       4.335   1.549  -0.016  1.00  0.00     0.143 C 
HETATM   29  C21 UNL     1       5.166   1.749  -1.265  1.00  0.00     0.187 C 
HETATM   30  O3  UNL     1       5.751   0.546  -1.676  1.00  0.00    -0.388 OA
HETATM   31  C22 UNL     1       6.636   0.104  -0.714  1.00  0.00     0.187 C 
HETATM   32  C23 UNL     1       5.935  -0.164   0.585  1.00  0.00     0.143 C 
ENDBRANCH  26  27
ENDBRANCH  25  26
ENDBRANCH  24  25
ENDBRANCH  22  24
TORSDOF 4
