REMARK  4 active torsions:
REMARK  status: ('A' for Active; 'I' for Inactive)
REMARK    1  A    between atoms: N4_21  and  C17_22 
REMARK    2  A    between atoms: C17_22  and  C18_23 
REMARK    3  A    between atoms: C18_23  and  C19_24 
REMARK    4  A    between atoms: C19_24  and  N5_25 
ROOT
HETATM    1  O1  UNL     1      -0.048   2.188  -1.867  1.00  0.00    -0.188 OA
HETATM    2  C1  UNL     1       0.887   1.306  -1.477  1.00  0.00     0.155 A 
HETATM    3  C2  UNL     1       1.986   1.156  -2.339  1.00  0.00     0.017 A 
HETATM    4  C3  UNL     1       3.048   1.011  -2.993  1.00  0.00     0.015 C 
HETATM    5  C4  UNL     1       4.326   0.850  -2.254  1.00  0.00     0.001 C 
HETATM    6  C5  UNL     1       5.112   0.728  -1.213  1.00  0.00    -0.000 C 
HETATM    7  C6  UNL     1       5.144   0.652   0.275  1.00  0.00    -0.002 C 
HETATM    8  C7  UNL     1       4.498   0.667   1.482  1.00  0.00    -0.008 C 
HETATM    9  C8  UNL     1       3.227   0.789   2.239  1.00  0.00     0.144 C 
HETATM   10  N1  UNL     1       2.732  -0.451   2.879  1.00  0.00    -0.389 N 
HETATM   11  C9  UNL     1       2.593  -1.484   1.729  1.00  0.00     0.165 A 
HETATM   12  N2  UNL     1       3.646  -2.147   2.337  1.00  0.00    -0.247 NA
HETATM   13  C10 UNL     1       4.534  -2.756   1.469  1.00  0.00     0.225 A 
HETATM   14  N3  UNL     1       3.846  -2.331   0.352  1.00  0.00    -0.266 NA
HETATM   15  C11 UNL     1       2.744  -1.619   0.526  1.00  0.00     0.122 A 
HETATM   16  C12 UNL     1       2.220  -0.590  -0.325  1.00  0.00     0.052 A 
HETATM   17  C13 UNL     1       1.163   0.244  -0.298  1.00  0.00     0.007 A 
HETATM   18  C14 UNL     1       0.218   0.273   0.682  1.00  0.00     0.010 A 
HETATM   19  C15 UNL     1       0.636  -0.663   1.563  1.00  0.00    -0.024 A 
HETATM   20  C16 UNL     1       1.671  -0.926   0.756  1.00  0.00     0.056 A 
HETATM   21  N4  UNL     1       0.022   1.140  -0.379  1.00  0.00     0.000 N 
HETATM   22  O3  UNL     1       1.037   1.120  -1.359  1.00  0.00     0.000 OA
HETATM   23  H8  UNL     1       2.553  -0.479   3.915  1.00  0.00     0.156 HD
ENDROOT
BRANCH  21  24
HETATM   24  C17 UNL     1      -1.158   1.835   0.038  1.00  0.00     0.002 C 
BRANCH  24  25
HETATM   25  C18 UNL     1      -2.468   1.380  -0.463  1.00  0.00     0.019 C 
BRANCH  25  26
HETATM   26  C19 UNL     1      -2.852  -0.058  -0.161  1.00  0.00     0.117 C 
BRANCH  26  27
HETATM   27  N5  UNL     1      -4.118  -0.343  -0.683  1.00  0.00    -0.408 N 
HETATM   28  C20 UNL     1      -4.554  -1.687  -0.528  1.00  0.00     0.143 C 
HETATM   29  C21 UNL     1      -5.700  -1.985  -1.534  1.00  0.00     0.187 C 
HETATM   30  O2  UNL     1      -6.758  -1.144  -1.316  1.00  0.00    -0.388 OA
HETATM   31  C22 UNL     1      -6.539  -0.136  -0.420  1.00  0.00     0.187 C 
HETATM   32  C23 UNL     1      -5.180   0.567  -0.626  1.00  0.00     0.143 C 
ENDBRANCH  26  27
ENDBRANCH  25  26
ENDBRANCH  24  25
ENDBRANCH  21  24
TORSDOF 4
