REMARK  7 active torsions:
REMARK  status: ('A' for Active; 'I' for Inactive)
REMARK    1  A    between atoms: C8_11  and  N3_12 
REMARK    2  A    between atoms: N4_22  and  C18_23 
REMARK    3  A    between atoms: C18_23  and  C19_24 
REMARK    4  A    between atoms: C19_24  and  N5_25 
REMARK    5  A    between atoms: N5_25  and  C20_26 
REMARK    6  A    between atoms: C20_26  and  C21_27 
REMARK    7  A    between atoms: C21_27  and  O2_28 
ROOT
HETATM    1  C1  UNL     1       2.177  -2.375  -2.439  1.00  0.00     0.034 C 
HETATM    2  C2  UNL     1       1.852  -2.121  -1.043  1.00  0.00     0.099 C 
HETATM    3  C3  UNL     1       1.206  -3.243  -0.274  1.00  0.00     0.192 C 
HETATM    4  O1  UNL     1      -0.126  -3.310  -0.382  1.00  0.00    -0.385 OA
HETATM    5  C4  UNL     1      -0.598  -3.557  -1.649  1.00  0.00     0.197 C 
HETATM    6  C5  UNL     1      -2.096  -3.490  -1.451  1.00  0.00     0.032 C 
HETATM    7  C6  UNL     1      -2.683  -2.372  -0.998  1.00  0.00     0.070 A 
HETATM    8  N1  UNL     1      -3.992  -2.642  -0.921  1.00  0.00    -0.241 NA
HETATM    9  C7  UNL     1      -4.964  -1.868  -0.479  1.00  0.00     0.236 A 
HETATM   10  N2  UNL     1      -4.602  -0.650  -0.044  1.00  0.00    -0.223 NA
HETATM   11  C8  UNL     1      -3.268  -0.338  -0.109  1.00  0.00     0.144 A 
HETATM   12  C15 UNL     1      -2.230  -1.160  -0.588  1.00  0.00     0.036 A 
HETATM   13  C16 UNL     1      -1.167  -0.329  -0.633  1.00  0.00     0.010 C 
HETATM   14  C17 UNL     1       0.147  -0.404  -1.254  1.00  0.00     0.145 C 
HETATM   15  N4  UNL     1       1.261  -0.910  -0.623  1.00  0.00    -0.402 N 
ENDROOT
BRANCH  15  16
HETATM   16  C18 UNL     1       1.832  -0.212   0.460  1.00  0.00     0.147 C 
BRANCH  16  17
HETATM   17  C19 UNL     1       2.474   1.106   0.058  1.00  0.00     0.289 C 
BRANCH  17  18
HETATM   18  N5  UNL     1       3.016   1.710   1.254  1.00  0.00     0.087 N 
HETATM   19  H26 UNL     1       3.735   1.048   1.649  1.00  0.00     0.316 HD
BRANCH  18  20
HETATM   20  C20 UNL     1       3.659   2.974   1.032  1.00  0.00     0.299 C 
BRANCH  20  21
HETATM   21  C21 UNL     1       4.934   2.818   0.228  1.00  0.00     0.245 C 
BRANCH  21  22
HETATM   22  O2  UNL     1       5.853   2.008   0.854  1.00  0.00    -0.197 OA
HETATM   23  F1  UNL     1       6.970   1.874   0.143  1.00  0.00    -0.048 F 
ENDBRANCH  21  22
ENDBRANCH  20  21
ENDBRANCH  18  20
ENDBRANCH  17  18
ENDBRANCH  16  17
ENDBRANCH  15  16
BRANCH  11  24
HETATM   24  N3  UNL     1      -3.221   0.975   0.505  1.00  0.00    -0.333 N 
HETATM   25  C9  UNL     1      -3.406   1.962  -0.526  1.00  0.00     0.093 A 
HETATM   26  C10 UNL     1      -3.350   3.261  -0.225  1.00  0.00     0.017 A 
HETATM   27  C11 UNL     1      -3.111   3.716   1.136  1.00  0.00    -0.001 A 
HETATM   28  C12 UNL     1      -2.961   2.764   2.044  1.00  0.00    -0.002 A 
HETATM   29  C13 UNL     1      -3.002   1.287   1.904  1.00  0.00     0.109 A 
HETATM   30  C14 UNL     1      -1.810   0.656   2.533  1.00  0.00     0.037 C 
ENDBRANCH  11  24
TORSDOF 7
