REMARK  6 active torsions:
REMARK  status: ('A' for Active; 'I' for Inactive)
REMARK    1  A    between atoms: C2_2  and  N1_3 
REMARK    2  A    between atoms: C8_9  and  C9_10 
REMARK    3  A    between atoms: C9_10  and  N2_11 
REMARK    4  A    between atoms: C13_16  and  N3_17 
REMARK    5  A    between atoms: C17_23  and  N5_24 
REMARK    6  A    between atoms: N5_24  and  C18_25 
ROOT
HETATM    1  N1  UNL     1       0.316   1.423  -1.793  1.00  0.00    -0.348 N 
HETATM    2  C3  UNL     1       0.554   2.235  -0.555  1.00  0.00     0.168 C 
HETATM    3  C4  UNL     1       0.890   1.201   0.519  1.00  0.00     0.006 C 
HETATM    4  C5  UNL     1      -0.057   0.777   1.442  1.00  0.00     0.021 C 
HETATM    5  C6  UNL     1      -0.300  -0.586   0.948  1.00  0.00    -0.041 C 
HETATM    6  C7  UNL     1      -1.341  -0.828   0.168  1.00  0.00    -0.011 C 
HETATM    7  C8  UNL     1      -2.528  -0.196  -0.492  1.00  0.00     0.046 C 
HETATM    8  C14 UNL     1      -2.208  -0.089  -2.011  1.00  0.00     0.113 C 
HETATM    9  C15 UNL     1      -0.880   0.703  -1.904  1.00  0.00     0.220 C 
HETATM   10  O2  UNL     1      -1.371   0.924  -0.854  1.00  0.00    -0.273 OA
HETATM   11  C16 UNL     1       0.839  -1.228   1.607  1.00  0.00     0.189 C 
HETATM   12  N4  UNL     1       2.012  -0.323   1.577  1.00  0.00    -0.268 NA
HETATM   13  C17 UNL     1       2.157   0.510   0.631  1.00  0.00     0.131 C 
ENDROOT
BRANCH   7  14
HETATM   14  C9  UNL     1      -3.725  -1.138  -0.340  1.00  0.00     0.284 C 
BRANCH  14  15
HETATM   15  N2  UNL     1      -4.085  -1.357   1.074  1.00  0.00     0.126 N 
HETATM   16  C10 UNL     1      -4.937  -2.541   1.056  1.00  0.00     0.301 C 
HETATM   17  C11 UNL     1      -6.355  -2.263   1.400  1.00  0.00     0.198 C 
HETATM   18  O1  UNL     1      -6.325  -1.697   2.699  1.00  0.00    -0.385 OA
HETATM   19  C12 UNL     1      -5.920  -0.399   2.490  1.00  0.00     0.235 C 
HETATM   20  C13 UNL     1      -4.891  -0.192   1.431  1.00  0.00     0.474 C 
BRANCH  20  21
HETATM   21  N3  UNL     1      -4.041   0.888   1.905  1.00  0.00     0.114 N 
HETATM   22  H20 UNL     1      -4.399   1.753   1.411  1.00  0.00     0.315 HD
HETATM   23  H21 UNL     1      -4.129   1.020   2.939  1.00  0.00     0.315 HD
ENDBRANCH  20  21
ENDBRANCH  14  15
ENDBRANCH   7  14
BRANCH   1  24
HETATM   24  C2  UNL     1       0.876   1.108  -3.066  1.00  0.00     0.121 C 
HETATM   25  C1  UNL     1       0.440   2.066  -4.162  1.00  0.00     0.026 C 
ENDBRANCH   1  24
BRANCH  13  26
HETATM   26  N5  UNL     1       3.230   0.854  -0.198  1.00  0.00    -0.341 N 
HETATM   27  H26 UNL     1       3.025   1.409  -1.048  1.00  0.00     0.167 HD
BRANCH  26  28
HETATM   28  C18 UNL     1       4.525   0.443   0.177  1.00  0.00     0.033 A 
HETATM   29  C19 UNL     1       5.488   0.794  -0.748  1.00  0.00     0.030 A 
HETATM   30  C20 UNL     1       6.814   0.482  -0.525  1.00  0.00     0.009 A 
HETATM   31  C21 UNL     1       7.281  -0.173   0.582  1.00  0.00    -0.062 A 
HETATM   32  C22 UNL     1       8.726  -0.435   0.721  1.00  0.00     0.048 C 
HETATM   33  C23 UNL     1       6.314  -0.523   1.505  1.00  0.00     0.009 A 
HETATM   34  C24 UNL     1       4.997  -0.211   1.278  1.00  0.00     0.030 A 
ENDBRANCH  26  28
ENDBRANCH  13  26
TORSDOF 6
