REMARK  6 active torsions:
REMARK  status: ('A' for Active; 'I' for Inactive)
REMARK    1  A    between atoms: O1_2  and  C2_3 
REMARK    2  A    between atoms: N1_9  and  C6_10 
REMARK    3  A    between atoms: C6_10  and  N2_11 
REMARK    4  A    between atoms: C12_18  and  C13_19 
REMARK    5  A    between atoms: C16_24  and  N5_25 
REMARK    6  A    between atoms: N5_25  and  C17_26 
ROOT
HETATM    1  C2  UNL     1      -0.584  -3.373  -0.547  1.00  0.00     0.173 C 
HETATM    2  C3  UNL     1      -1.338  -2.317  -0.756  1.00  0.00     0.118 C 
HETATM    3  O2  UNL     1      -2.562  -2.548  -1.407  1.00  0.00    -0.338 OA
HETATM    4  C4  UNL     1      -3.610  -1.591  -1.311  1.00  0.00     0.279 C 
HETATM    5  C5  UNL     1      -3.040  -0.207  -1.291  1.00  0.00     0.250 C 
HETATM    6  O3  UNL     1      -3.646   0.723  -1.883  1.00  0.00    -0.271 OA
HETATM    7  N1  UNL     1      -1.827   0.121  -0.626  1.00  0.00    -0.286 N 
HETATM    8  C11 UNL     1      -0.938  -0.979  -0.347  1.00  0.00     0.075 C 
HETATM    9  C12 UNL     1       0.169  -0.694   0.296  1.00  0.00     0.049 C 
ENDROOT
BRANCH   7  10
HETATM   10  C6  UNL     1      -1.591   1.509  -0.287  1.00  0.00     0.405 C 
BRANCH  10  11
HETATM   11  N2  UNL     1      -2.067   1.894   1.008  1.00  0.00     0.110 N 
HETATM   12  C7  UNL     1      -1.752   3.294   1.186  1.00  0.00     0.300 C 
HETATM   13  C8  UNL     1      -2.951   4.184   0.984  1.00  0.00     0.198 C 
HETATM   14  O4  UNL     1      -3.812   3.578   0.061  1.00  0.00    -0.388 OA
HETATM   15  C9  UNL     1      -4.425   2.509   0.713  1.00  0.00     0.198 C 
HETATM   16  C10 UNL     1      -3.414   1.564   1.309  1.00  0.00     0.300 C 
ENDBRANCH  10  11
ENDBRANCH   7  10
BRANCH   9  17
HETATM   17  C13 UNL     1       1.352  -1.309   0.857  1.00  0.00     0.030 A 
HETATM   18  C14 UNL     1       1.163  -2.352   1.737  1.00  0.00     0.133 A 
HETATM   19  N3  UNL     1       2.193  -3.013   2.284  1.00  0.00    -0.253 NA
HETATM   20  C15 UNL     1       3.457  -2.660   1.976  1.00  0.00     0.234 A 
HETATM   21  N4  UNL     1       3.658  -1.651   1.126  1.00  0.00    -0.224 NA
HETATM   22  C16 UNL     1       2.668  -0.948   0.543  1.00  0.00     0.141 A 
BRANCH  22  23
HETATM   23  N5  UNL     1       2.856   0.124  -0.358  1.00  0.00    -0.340 N 
HETATM   24  H20 UNL     1       1.985   0.600  -0.742  1.00  0.00     0.167 HD
BRANCH  23  25
HETATM   25  C17 UNL     1       4.055   0.697  -0.858  1.00  0.00     0.033 A 
HETATM   26  C18 UNL     1       4.048   1.787  -1.736  1.00  0.00     0.029 A 
HETATM   27  C19 UNL     1       5.215   2.333  -2.214  1.00  0.00     0.002 A 
HETATM   28  C20 UNL     1       6.442   1.837  -1.856  1.00  0.00     0.000 A 
HETATM   29  C21 UNL     1       6.494   0.764  -0.993  1.00  0.00     0.002 A 
HETATM   30  C22 UNL     1       5.310   0.233  -0.526  1.00  0.00     0.029 A 
ENDBRANCH  23  25
ENDBRANCH  22  23
ENDBRANCH   9  17
BRANCH   1  31
HETATM   31  O1  UNL     1      -1.006  -4.604  -0.953  1.00  0.00    -0.365 OA
HETATM   32  C1  UNL     1      -2.098  -5.234  -0.279  1.00  0.00     0.209 C 
ENDBRANCH   1  31
TORSDOF 6
