REMARK  4 active torsions:
REMARK  status: ('A' for Active; 'I' for Inactive)
REMARK    1  A    between atoms: C5_5  and  N1_6 
REMARK    2  A    between atoms: N1_6  and  C6_7 
REMARK    3  A    between atoms: N4_18  and  C15_19 
REMARK    4  A    between atoms: C15_19  and  N5_20 
ROOT
HETATM    1  C6  UNL     1       1.585  -0.529  -0.596  1.00  0.00     0.142 A 
HETATM    2  N2  UNL     1       2.751  -0.994  -1.059  1.00  0.00    -0.223 NA
HETATM    3  C7  UNL     1       2.775  -2.233  -1.632  1.00  0.00     0.236 A 
HETATM    4  N3  UNL     1       1.637  -2.923  -1.704  1.00  0.00    -0.241 NA
HETATM    5  C8  UNL     1       0.461  -2.483  -1.251  1.00  0.00     0.075 A 
HETATM    6  C9  UNL     1      -0.623  -3.330  -1.350  1.00  0.00     0.071 A 
HETATM    7  C10 UNL     1      -1.820  -2.884  -0.830  1.00  0.00     0.099 A 
HETATM    8  C11 UNL     1      -1.858  -1.631  -0.255  1.00  0.00     0.079 A 
HETATM    9  C12 UNL     1      -0.788  -0.765  -0.155  1.00  0.00    -0.016 A 
HETATM   10  C13 UNL     1      -0.899   0.607   0.275  1.00  0.00     0.052 C 
HETATM   11  C14 UNL     1       0.407  -1.232  -0.670  1.00  0.00     0.047 A 
HETATM   12  N4  UNL     1      -2.994  -1.157   0.451  1.00  0.00    -0.298 N 
HETATM   13  C18 UNL     1      -4.057  -2.168   0.456  1.00  0.00     0.249 C 
HETATM   14  O2  UNL     1      -5.156  -2.037   1.056  1.00  0.00    -0.271 OA
HETATM   15  C19 UNL     1      -4.094  -3.504  -0.199  1.00  0.00     0.279 C 
HETATM   16  O3  UNL     1      -2.911  -3.752  -0.932  1.00  0.00    -0.340 OA
ENDROOT
BRANCH   1  17
HETATM   17  N1  UNL     1       1.628   0.724   0.115  1.00  0.00    -0.340 N 
HETATM   18  H6  UNL     1       1.475   1.603   0.635  1.00  0.00     0.167 HD
BRANCH  17  19
HETATM   19  C5  UNL     1       2.987   1.205   0.221  1.00  0.00     0.033 A 
HETATM   20  C4  UNL     1       3.521   1.347  -1.074  1.00  0.00     0.030 A 
HETATM   21  C3  UNL     1       4.836   1.764  -1.336  1.00  0.00     0.009 A 
HETATM   22  C2  UNL     1       5.587   2.031  -0.216  1.00  0.00    -0.062 A 
HETATM   23  C1  UNL     1       6.993   2.481  -0.359  1.00  0.00     0.048 C 
HETATM   24  C21 UNL     1       5.157   1.923   1.084  1.00  0.00     0.009 A 
HETATM   25  C20 UNL     1       3.856   1.509   1.280  1.00  0.00     0.030 A 
ENDBRANCH  17  19
ENDBRANCH   1  17
BRANCH  12  26
HETATM   26  C15 UNL     1      -3.347  -0.044   1.215  1.00  0.00     0.253 C 
BRANCH  26  27
HETATM   27  N5  UNL     1      -4.080   0.890   0.382  1.00  0.00    -0.177 NA
HETATM   28  C16 UNL     1      -4.501   2.107   1.073  1.00  0.00     0.150 C 
HETATM   29  C17 UNL     1      -5.862   1.443   1.189  1.00  0.00     0.210 C 
HETATM   30  O1  UNL     1      -5.373   0.666   0.137  1.00  0.00    -0.301 OA
ENDBRANCH  26  27
ENDBRANCH  12  26
TORSDOF 4
