REMARK  2 active torsions:
REMARK  status: ('A' for Active; 'I' for Inactive)
REMARK    1  A    between atoms: C5_5  and  C6_6 
REMARK    2  A    between atoms: C16_21  and  N4_22 
ROOT
HETATM    1  C6  UNL     1       1.407  -0.247   1.191  1.00  0.00     0.058 C 
HETATM    2  N1  UNL     1       1.698   0.124   2.388  1.00  0.00    -0.245 NA
HETATM    3  C7  UNL     1       1.084  -0.280   3.586  1.00  0.00     0.233 C 
HETATM    4  N2  UNL     1       0.120  -1.135   3.557  1.00  0.00    -0.246 NA
HETATM    5  C8  UNL     1      -0.272  -1.643   2.283  1.00  0.00     0.050 C 
HETATM    6  C9  UNL     1      -1.147  -2.664   2.256  1.00  0.00     0.066 C 
HETATM    7  C10 UNL     1      -1.596  -3.236   0.991  1.00  0.00     0.086 C 
HETATM    8  C11 UNL     1      -2.904  -3.041   0.709  1.00  0.00     0.120 C 
HETATM    9  N3  UNL     1      -3.312  -1.933  -0.134  1.00  0.00    -0.396 N 
HETATM   10  C12 UNL     1      -2.866  -1.063  -1.237  1.00  0.00     0.133 C 
HETATM   11  C13 UNL     1      -1.332  -0.911  -1.092  1.00  0.00     0.110 C 
HETATM   12  C14 UNL     1      -0.694  -2.209  -1.523  1.00  0.00     0.158 C 
HETATM   13  O1  UNL     1      -0.241  -2.213  -2.678  1.00  0.00    -0.295 OA
HETATM   14  C15 UNL     1      -0.299  -3.627  -1.222  1.00  0.00     0.254 C 
HETATM   15  O2  UNL     1      -0.721  -3.943   0.124  1.00  0.00    -0.343 OA
HETATM   16  C16 UNL     1      -0.929  -0.432   0.247  1.00  0.00     0.251 C 
HETATM   17  C21 UNL     1       0.230  -1.113   0.933  1.00  0.00     0.125 C 
HETATM   18  H9  UNL     1      -4.283  -1.644   0.144  1.00  0.00     0.158 HD
ENDROOT
BRANCH   1  19
HETATM   19  C5  UNL     1       2.285   0.375   0.216  1.00  0.00    -0.011 A 
HETATM   20  C4  UNL     1       3.256   1.304   0.569  1.00  0.00     0.014 A 
HETATM   21  C3  UNL     1       4.148   1.893  -0.298  1.00  0.00     0.007 A 
HETATM   22  C2  UNL     1       4.084   1.543  -1.621  1.00  0.00    -0.062 A 
HETATM   23  C1  UNL     1       5.040   2.170  -2.568  1.00  0.00     0.048 C 
HETATM   24  C23 UNL     1       3.163   0.634  -2.079  1.00  0.00     0.007 A 
HETATM   25  C22 UNL     1       2.318   0.104  -1.135  1.00  0.00     0.014 A 
ENDBRANCH   1  19
BRANCH  16  26
HETATM   26  N4  UNL     1      -1.052   0.957   0.549  1.00  0.00     0.099 N 
HETATM   27  C17 UNL     1      -2.324   1.297   1.164  1.00  0.00     0.299 C 
HETATM   28  C18 UNL     1      -2.918   2.506   0.511  1.00  0.00     0.198 C 
HETATM   29  O3  UNL     1      -2.071   3.578   0.390  1.00  0.00    -0.388 OA
HETATM   30  C19 UNL     1      -0.754   3.250   0.092  1.00  0.00     0.198 C 
HETATM   31  C20 UNL     1      -0.831   1.854  -0.552  1.00  0.00     0.299 C 
ENDBRANCH  16  26
TORSDOF 2
