REMARK  8 active torsions:
REMARK  status: ('A' for Active; 'I' for Inactive)
REMARK    1  A    between atoms: C2_3  and  C3_4 
REMARK    2  A    between atoms: C3_4  and  O1_5 
REMARK    3  A    between atoms: O1_5  and  C4_6 
REMARK    4  A    between atoms: C4_6  and  C5_7 
REMARK    5  A    between atoms: C5_7  and  N2_8 
REMARK    6  A    between atoms: C6_9  and  C7_10 
REMARK    7  A    between atoms: C7_10  and  C8_11 
REMARK    8  A    between atoms: C8_11  and  N3_12 
ROOT
HETATM    1  N2  UNL     1      -0.065  -1.270   1.449  1.00  0.00    -0.419 N 
HETATM    2  C6  UNL     1      -1.222  -1.278   0.731  1.00  0.00     0.115 C 
HETATM    3  H8  UNL     1      -0.058  -0.697   2.325  1.00  0.00     0.153 HD
ENDROOT
BRANCH   1   4
HETATM    4  C5  UNL     1       1.196  -1.681   1.088  1.00  0.00     0.140 C 
BRANCH   4   5
HETATM    5  C4  UNL     1       1.839  -0.745   0.094  1.00  0.00     0.187 C 
BRANCH   5   6
HETATM    6  O1  UNL     1       1.900   0.514   0.723  1.00  0.00    -0.384 OA
BRANCH   6   7
HETATM    7  C3  UNL     1       2.557   1.475  -0.045  1.00  0.00     0.226 C 
BRANCH   7   8
HETATM    8  C2  UNL     1       3.936   1.010  -0.255  1.00  0.00     0.053 A 
HETATM    9  N1  UNL     1       4.646   0.788   0.965  1.00  0.00    -0.268 NA
HETATM   10  C1  UNL     1       5.854   0.361   0.937  1.00  0.00     0.090 A 
HETATM   11  C15 UNL     1       6.755   0.016  -0.185  1.00  0.00     0.051 A 
HETATM   12  C14 UNL     1       6.066   0.225  -1.488  1.00  0.00     0.034 A 
HETATM   13  C13 UNL     1       4.693   0.717  -1.284  1.00  0.00     0.003 A 
ENDBRANCH   7   8
ENDBRANCH   6   7
ENDBRANCH   5   6
ENDBRANCH   4   5
ENDBRANCH   1   4
BRANCH   2  14
HETATM   14  C7  UNL     1      -1.494  -0.444  -0.450  1.00  0.00     0.049 C 
BRANCH  14  15
HETATM   15  C8  UNL     1      -2.942  -0.673  -0.953  1.00  0.00     0.274 C 
BRANCH  15  16
HETATM   16  N3  UNL     1      -3.885  -0.298   0.075  1.00  0.00     0.092 N 
HETATM   17  C9  UNL     1      -5.215  -0.710  -0.403  1.00  0.00     0.298 C 
HETATM   18  C10 UNL     1      -6.279   0.177   0.211  1.00  0.00     0.198 C 
HETATM   19  O2  UNL     1      -6.230   1.466  -0.322  1.00  0.00    -0.388 OA
HETATM   20  C11 UNL     1      -4.942   1.758  -0.781  1.00  0.00     0.198 C 
HETATM   21  C12 UNL     1      -3.994   1.145   0.217  1.00  0.00     0.298 C 
ENDBRANCH  15  16
ENDBRANCH  14  15
ENDBRANCH   2  14
TORSDOF 8
