REMARK  5 active torsions:
REMARK  status: ('A' for Active; 'I' for Inactive)
REMARK    1  A    between atoms: C5_5  and  N1_6 
REMARK    2  A    between atoms: N1_6  and  C6_7 
REMARK    3  A    between atoms: C13_18  and  C14_19 
REMARK    4  A    between atoms: C14_19  and  C15_20 
REMARK    5  A    between atoms: C15_20  and  N4_21 
ROOT
HETATM    1  C6  UNL     1       2.813  -0.804  -0.099  1.00  0.00     0.117 A 
HETATM    2  N2  UNL     1       3.460  -1.290  -1.103  1.00  0.00    -0.228 NA
HETATM    3  C7  UNL     1       3.081  -2.423  -1.852  1.00  0.00     0.235 A 
HETATM    4  N3  UNL     1       1.995  -3.075  -1.558  1.00  0.00    -0.246 NA
HETATM    5  C8  UNL     1       1.236  -2.600  -0.485  1.00  0.00     0.049 A 
HETATM    6  C9  UNL     1       0.079  -3.097  -0.074  1.00  0.00     0.064 C 
HETATM    7  C10 UNL     1      -0.644  -2.505   1.088  1.00  0.00     0.386 C 
HETATM    8  O1  UNL     1      -1.801  -3.169   1.383  1.00  0.00    -0.347 OA
HETATM    9  C11 UNL     1      -2.831  -2.897   0.495  1.00  0.00     0.251 C 
HETATM   10  C12 UNL     1      -3.140  -1.432   0.699  1.00  0.00     0.183 C 
HETATM   11  O2  UNL     1      -4.234  -1.359   1.225  1.00  0.00    -0.293 OA
HETATM   12  C13 UNL     1      -1.971  -0.733   0.168  1.00  0.00     0.299 C 
HETATM   13  N5  UNL     1      -0.778  -1.102   0.917  1.00  0.00     0.134 N 
HETATM   14  C20 UNL     1       0.411  -0.510   0.358  1.00  0.00     0.296 C 
HETATM   15  C21 UNL     1       1.591  -1.428   0.394  1.00  0.00     0.135 A 
ENDROOT
BRANCH   1  16
HETATM   16  N1  UNL     1       3.380   0.346   0.502  1.00  0.00    -0.344 N 
HETATM   17  H6  UNL     1       2.672   0.902   1.050  1.00  0.00     0.167 HD
BRANCH  16  18
HETATM   18  C5  UNL     1       4.715   0.809   0.458  1.00  0.00     0.033 A 
HETATM   19  C4  UNL     1       5.797   0.230  -0.156  1.00  0.00     0.030 A 
HETATM   20  C3  UNL     1       7.069   0.756  -0.157  1.00  0.00     0.009 A 
HETATM   21  C2  UNL     1       7.316   1.940   0.488  1.00  0.00    -0.062 A 
HETATM   22  C1  UNL     1       8.670   2.543   0.513  1.00  0.00     0.048 C 
HETATM   23  C23 UNL     1       6.253   2.553   1.118  1.00  0.00     0.009 A 
HETATM   24  C22 UNL     1       5.012   1.996   1.094  1.00  0.00     0.030 A 
ENDBRANCH  16  18
ENDBRANCH   1  16
BRANCH  12  25
HETATM   25  C14 UNL     1      -2.174   0.747   0.145  1.00  0.00     0.063 C 
BRANCH  25  26
HETATM   26  C15 UNL     1      -3.276   1.274  -0.662  1.00  0.00     0.119 C 
BRANCH  26  27
HETATM   27  N4  UNL     1      -4.608   1.000  -0.396  1.00  0.00    -0.408 N 
HETATM   28  C16 UNL     1      -5.206   1.587   0.759  1.00  0.00     0.143 C 
HETATM   29  C17 UNL     1      -6.699   1.365   0.656  1.00  0.00     0.187 C 
HETATM   30  O3  UNL     1      -7.051   0.141   0.138  1.00  0.00    -0.388 OA
HETATM   31  C18 UNL     1      -6.602  -0.078  -1.144  1.00  0.00     0.187 C 
HETATM   32  C19 UNL     1      -5.493   0.879  -1.517  1.00  0.00     0.143 C 
ENDBRANCH  26  27
ENDBRANCH  25  26
ENDBRANCH  12  25
TORSDOF 5
