REMARK  2 active torsions:
REMARK  status: ('A' for Active; 'I' for Inactive)
REMARK    1  A    between atoms: O1_2  and  C2_3 
REMARK    2  A    between atoms: C10_12  and  C11_13 
ROOT
HETATM    1  C2  UNL     1      -3.882  -0.185   0.650  1.00  0.00     0.069 A 
HETATM    2  C3  UNL     1      -3.932   1.142   1.027  1.00  0.00     0.039 A 
HETATM    3  C4  UNL     1      -2.753   1.854   1.101  1.00  0.00     0.040 A 
HETATM    4  C5  UNL     1      -1.551   1.247   0.803  1.00  0.00     0.086 A 
HETATM    5  C6  UNL     1      -1.448  -0.088   0.419  1.00  0.00    -0.004 A 
HETATM    6  C7  UNL     1      -2.666  -0.779   0.355  1.00  0.00     0.048 A 
HETATM    7  C8  UNL     1      -0.433  -1.057   0.039  1.00  0.00     0.161 C 
HETATM    8  N1  UNL     1       0.925  -0.626   0.264  1.00  0.00    -0.380 N 
HETATM    9  C9  UNL     1       1.526   0.656   0.104  1.00  0.00     0.109 A 
HETATM   10  C10 UNL     1       2.752   0.589  -0.379  1.00  0.00     0.070 A 
HETATM   11  N2  UNL     1       3.352   1.864  -0.526  1.00  0.00    -0.369 N 
HETATM   12  C15 UNL     1       2.767   3.154  -0.295  1.00  0.00     0.273 A 
HETATM   13  N3  UNL     1       1.420   3.084   0.231  1.00  0.00    -0.245 NA
HETATM   14  C16 UNL     1       0.837   1.922   0.418  1.00  0.00     0.196 A 
HETATM   15  O2  UNL     1      -0.460   2.120   0.932  1.00  0.00    -0.290 OA
HETATM   16  H9  UNL     1       1.723  -1.243   0.621  1.00  0.00     0.160 HD
HETATM   17  H13 UNL     1       4.351   1.952  -0.842  1.00  0.00     0.161 HD
ENDROOT
BRANCH  10  18
HETATM   18  C11 UNL     1       3.394  -0.644  -0.711  1.00  0.00    -0.007 A 
HETATM   19  C12 UNL     1       4.642  -0.769  -1.193  1.00  0.00     0.014 A 
HETATM   20  C13 UNL     1       4.584  -2.212  -1.282  1.00  0.00     0.002 A 
HETATM   21  C14 UNL     1       3.368  -2.088  -0.816  1.00  0.00     0.014 A 
ENDBRANCH  10  18
BRANCH   1  22
HETATM   22  O1  UNL     1      -5.079  -0.871   0.586  1.00  0.00    -0.356 OA
HETATM   23  C1  UNL     1      -5.276  -2.201   0.234  1.00  0.00     0.210 C 
ENDBRANCH   1  22
TORSDOF 2
