REMARK  6 active torsions:
REMARK  status: ('A' for Active; 'I' for Inactive)
REMARK    1  A    between atoms: C5_5  and  N1_6 
REMARK    2  A    between atoms: N1_6  and  C6_7 
REMARK    3  A    between atoms: N4_17  and  C14_18 
REMARK    4  A    between atoms: C14_18  and  C15_19 
REMARK    5  A    between atoms: C15_19  and  C16_20 
REMARK    6  A    between atoms: C16_20  and  C17_21 
ROOT
HETATM    1  C6  UNL     1      -2.037   0.581  -1.875  1.00  0.00     0.142 A 
HETATM    2  N2  UNL     1      -2.796   0.508  -2.969  1.00  0.00    -0.224 NA
HETATM    3  C7  UNL     1      -2.521   1.018  -4.170  1.00  0.00     0.236 A 
HETATM    4  N3  UNL     1      -1.358   1.688  -4.337  1.00  0.00    -0.241 NA
HETATM    5  C8  UNL     1      -0.511   1.819  -3.282  1.00  0.00     0.075 A 
HETATM    6  C9  UNL     1       0.645   2.510  -3.533  1.00  0.00     0.071 A 
HETATM    7  C10 UNL     1       1.560   2.690  -2.517  1.00  0.00     0.098 A 
HETATM    8  C11 UNL     1       1.264   2.159  -1.286  1.00  0.00     0.071 A 
HETATM    9  C12 UNL     1       0.089   1.478  -1.100  1.00  0.00     0.050 A 
HETATM   10  C13 UNL     1      -0.865   1.264  -2.072  1.00  0.00     0.041 A 
HETATM   11  N4  UNL     1       2.212   2.341  -0.215  1.00  0.00    -0.314 N 
HETATM   12  C21 UNL     1       3.424   3.073  -0.497  1.00  0.00     0.248 C 
HETATM   13  O2  UNL     1       4.360   2.992   0.342  1.00  0.00    -0.271 OA
HETATM   14  C22 UNL     1       3.546   3.884  -1.734  1.00  0.00     0.279 C 
HETATM   15  O3  UNL     1       2.718   3.381  -2.765  1.00  0.00    -0.340 OA
ENDROOT
BRANCH   1  16
HETATM   16  N1  UNL     1      -2.319   0.050  -0.616  1.00  0.00    -0.340 N 
HETATM   17  H6  UNL     1      -1.686   0.158   0.176  1.00  0.00     0.167 HD
BRANCH  16  18
HETATM   18  C5  UNL     1      -3.456  -0.691  -0.212  1.00  0.00     0.033 A 
HETATM   19  C4  UNL     1      -4.445  -1.058  -1.085  1.00  0.00     0.030 A 
HETATM   20  C3  UNL     1      -5.567  -1.777  -0.723  1.00  0.00     0.009 A 
HETATM   21  C2  UNL     1      -5.760  -2.176   0.573  1.00  0.00    -0.062 A 
HETATM   22  C1  UNL     1      -6.922  -2.942   1.046  1.00  0.00     0.048 C 
HETATM   23  C24 UNL     1      -4.796  -1.833   1.488  1.00  0.00     0.009 A 
HETATM   24  C23 UNL     1      -3.700  -1.117   1.073  1.00  0.00     0.030 A 
ENDBRANCH  16  18
ENDBRANCH   1  16
BRANCH  11  25
HETATM   25  C14 UNL     1       1.960   1.813   1.088  1.00  0.00     0.132 C 
BRANCH  25  26
HETATM   26  C15 UNL     1       2.514   0.415   1.191  1.00  0.00     0.021 C 
BRANCH  26  27
HETATM   27  C16 UNL     1       2.294  -0.221   2.532  1.00  0.00     0.008 C 
BRANCH  27  28
HETATM   28  C17 UNL     1       2.864  -1.624   2.599  1.00  0.00     0.011 C 
HETATM   29  C18 UNL     1       4.349  -1.545   2.337  1.00  0.00     0.033 C 
HETATM   30  C19 UNL     1       4.508  -2.131   0.964  1.00  0.00     0.168 C 
HETATM   31  O1  UNL     1       3.250  -2.306   0.426  1.00  0.00    -0.391 OA
HETATM   32  C20 UNL     1       2.372  -2.508   1.469  1.00  0.00     0.172 C 
ENDBRANCH  27  28
ENDBRANCH  26  27
ENDBRANCH  25  26
ENDBRANCH  11  25
TORSDOF 6
