REMARK  11 active torsions:
REMARK  status: ('A' for Active; 'I' for Inactive)
REMARK    1  A    between atoms: C3_3  and  N1_4 
REMARK    2  A    between atoms: N1_4  and  C4_5 
REMARK    3  A    between atoms: C12_15  and  C13_16 
REMARK    4  A    between atoms: C13_16  and  C14_17 
REMARK    5  A    between atoms: C14_17  and  O1_18 
REMARK    6  A    between atoms: O1_18  and  C15_19 
REMARK    7  A    between atoms: C15_19  and  C16_20 
REMARK       I    between atoms: C16_20  and  N4_22 
REMARK    8  A    between atoms: N4_22  and  C17_23 
REMARK    9  A    between atoms: C17_23  and  C18_24 
REMARK   10  A    between atoms: C18_24  and  C19_25 
REMARK   11  A    between atoms: C19_25  and  N5_26 
ROOT
HETATM    1  C13 UNL     1      -1.825  -1.117   1.438  1.00  0.00     0.031 C 
ENDROOT
BRANCH   1   2
HETATM    2  C12 UNL     1      -2.405  -1.463   0.321  1.00  0.00     0.066 A 
HETATM    3  C2  UNL     1      -2.989  -0.523  -0.492  1.00  0.00     0.017 A 
HETATM    4  C1  UNL     1      -2.922   0.707  -0.078  1.00  0.00     0.049 C 
HETATM    5  C3  UNL     1      -3.619  -0.804  -1.683  1.00  0.00     0.138 A 
HETATM    6  N2  UNL     1      -3.649  -2.104  -2.052  1.00  0.00    -0.224 NA
HETATM    7  C11 UNL     1      -3.079  -3.036  -1.262  1.00  0.00     0.235 A 
HETATM    8  N3  UNL     1      -2.468  -2.738  -0.102  1.00  0.00    -0.242 NA
BRANCH   5   9
HETATM    9  N1  UNL     1      -4.173   0.304  -2.410  1.00  0.00    -0.340 N 
HETATM   10  H3  UNL     1      -3.513   0.723  -3.129  1.00  0.00     0.167 HD
BRANCH   9  11
HETATM   11  C4  UNL     1      -5.455   0.838  -2.244  1.00  0.00     0.033 A 
HETATM   12  C5  UNL     1      -5.885   1.906  -3.006  1.00  0.00     0.030 A 
HETATM   13  C6  UNL     1      -7.145   2.438  -2.841  1.00  0.00     0.009 A 
HETATM   14  C7  UNL     1      -8.009   1.902  -1.898  1.00  0.00    -0.062 A 
HETATM   15  C8  UNL     1      -9.389   2.361  -1.603  1.00  0.00     0.048 C 
HETATM   16  C9  UNL     1      -7.537   0.831  -1.155  1.00  0.00     0.009 A 
HETATM   17  C10 UNL     1      -6.282   0.271  -1.291  1.00  0.00     0.030 A 
ENDBRANCH   9  11
ENDBRANCH   5   9
ENDBRANCH   1   2
BRANCH   1  18
HETATM   18  C14 UNL     1      -1.147  -1.973   2.439  1.00  0.00     0.198 C 
BRANCH  18  19
HETATM   19  O1  UNL     1       0.176  -2.146   1.969  1.00  0.00    -0.378 OA
BRANCH  19  20
HETATM   20  C15 UNL     1       0.731  -0.862   1.861  1.00  0.00     0.270 C 
BRANCH  20  21
HETATM   21  C16 UNL     1       2.124  -0.893   1.389  1.00  0.00     0.241 C 
HETATM   22  O2  UNL     1       2.518   0.289   1.326  1.00  0.00    -0.271 OA
HETATM   23  N4  UNL     1       3.011  -1.923   1.029  1.00  0.00    -0.359 N 
HETATM   24  H17 UNL     1       2.367  -2.770   1.187  1.00  0.00     0.162 HD
BRANCH  23  25
HETATM   25  C17 UNL     1       4.319  -2.250   0.579  1.00  0.00     0.124 C 
BRANCH  25  26
HETATM   26  C18 UNL     1       5.430  -1.911   1.492  1.00  0.00     0.050 C 
BRANCH  26  27
HETATM   27  C19 UNL     1       5.581  -0.471   1.813  1.00  0.00     0.274 C 
BRANCH  27  28
HETATM   28  N5  UNL     1       5.784   0.364   0.654  1.00  0.00     0.092 N 
HETATM   29  C20 UNL     1       7.047   0.113   0.050  1.00  0.00     0.298 C 
HETATM   30  C21 UNL     1       7.658   1.308  -0.594  1.00  0.00     0.198 C 
HETATM   31  O3  UNL     1       7.746   2.297   0.409  1.00  0.00    -0.388 OA
HETATM   32  C22 UNL     1       6.447   2.755   0.573  1.00  0.00     0.198 C 
HETATM   33  C23 UNL     1       5.457   1.709   0.963  1.00  0.00     0.298 C 
ENDBRANCH  27  28
ENDBRANCH  26  27
ENDBRANCH  25  26
ENDBRANCH  23  25
ENDBRANCH  20  21
ENDBRANCH  19  20
ENDBRANCH  18  19
ENDBRANCH   1  18
TORSDOF 11
