REMARK  7 active torsions:
REMARK  status: ('A' for Active; 'I' for Inactive)
REMARK    1  A    between atoms: C4_4  and  N1_5 
REMARK    2  A    between atoms: N1_5  and  C5_6 
REMARK    3  A    between atoms: C5_6  and  C6_7 
REMARK    4  A    between atoms: N2_10  and  C9_11 
REMARK    5  A    between atoms: C9_11  and  C10_12 
REMARK    6  A    between atoms: C10_12  and  C11_13 
REMARK    7  A    between atoms: C11_13  and  N3_14 
ROOT
HETATM    1  C6  UNL     1       2.203  -0.912   0.381  1.00  0.00     0.038 A 
HETATM    2  C7  UNL     1       1.453  -1.693  -0.278  1.00  0.00     0.023 A 
HETATM    3  C8  UNL     1       0.631  -1.669  -1.457  1.00  0.00     0.317 C 
HETATM    4  N2  UNL     1      -0.798  -1.282  -1.163  1.00  0.00     0.109 N 
HETATM    5  C16 UNL     1      -1.064  -1.805   0.208  1.00  0.00     0.392 C 
HETATM    6  N4  UNL     1      -1.267  -3.191   0.216  1.00  0.00    -0.377 N 
HETATM    7  C17 UNL     1      -1.340  -3.927   1.408  1.00  0.00     0.287 C 
HETATM    8  O2  UNL     1      -0.140  -4.692   1.719  1.00  0.00    -0.369 OA
HETATM    9  C18 UNL     1       0.086  -5.395   0.471  1.00  0.00     0.199 C 
HETATM   10  C19 UNL     1       0.675  -4.295  -0.414  1.00  0.00     0.031 C 
HETATM   11  C20 UNL     1       1.001  -3.014  -0.083  1.00  0.00     0.066 A 
HETATM   12  N5  UNL     1       1.573  -3.444   1.177  1.00  0.00    -0.244 NA
HETATM   13  C21 UNL     1       2.347  -2.700   1.912  1.00  0.00     0.208 A 
HETATM   14  N6  UNL     1       2.742  -1.383   1.602  1.00  0.00    -0.352 N 
HETATM   15  H25 UNL     1      -1.879  -3.562  -0.539  1.00  0.00     0.157 HD
HETATM   16  H32 UNL     1       3.360  -0.783   2.177  1.00  0.00     0.166 HD
ENDROOT
BRANCH   1  17
HETATM   17  C5  UNL     1       2.419   0.452  -0.050  1.00  0.00     0.179 C 
BRANCH  17  18
HETATM   18  N1  UNL     1       3.878   0.580  -0.262  1.00  0.00    -0.364 N 
HETATM   19  H4  UNL     1       4.588  -0.184  -0.119  1.00  0.00     0.162 HD
BRANCH  18  20
HETATM   20  C4  UNL     1       4.569   1.730  -0.686  1.00  0.00     0.155 C 
HETATM   21  C3  UNL     1       4.667   2.381   0.461  1.00  0.00     0.036 C 
HETATM   22  C2  UNL     1       5.693   3.157   0.687  1.00  0.00    -0.045 C 
HETATM   23  C1  UNL     1       6.254   3.367   2.043  1.00  0.00     0.049 C 
HETATM   24  C23 UNL     1       6.313   3.846  -0.435  1.00  0.00     0.032 C 
HETATM   25  C22 UNL     1       6.007   3.415  -1.648  1.00  0.00     0.145 C 
HETATM   26  O3  UNL     1       5.131   2.351  -1.810  1.00  0.00    -0.305 OA
ENDBRANCH  18  20
ENDBRANCH  17  18
ENDBRANCH   1  17
BRANCH   4  27
HETATM   27  C9  UNL     1      -0.824   0.184  -1.029  1.00  0.00     0.276 C 
BRANCH  27  28
HETATM   28  C10 UNL     1      -2.158   0.811  -1.265  1.00  0.00     0.060 C 
BRANCH  28  29
HETATM   29  C11 UNL     1      -3.319   0.461  -0.450  1.00  0.00     0.274 C 
BRANCH  29  30
HETATM   30  N3  UNL     1      -4.542   1.172  -0.784  1.00  0.00     0.092 N 
HETATM   31  C12 UNL     1      -5.607   0.777   0.076  1.00  0.00     0.298 C 
HETATM   32  C13 UNL     1      -6.140   1.961   0.895  1.00  0.00     0.198 C 
HETATM   33  O1  UNL     1      -6.617   2.865  -0.025  1.00  0.00    -0.388 OA
HETATM   34  C14 UNL     1      -5.766   3.217  -1.030  1.00  0.00     0.198 C 
HETATM   35  C15 UNL     1      -4.421   2.552  -1.033  1.00  0.00     0.298 C 
ENDBRANCH  29  30
ENDBRANCH  28  29
ENDBRANCH  27  28
ENDBRANCH   4  27
TORSDOF 7
