REMARK  0 active torsions:
REMARK  status: ('A' for Active; 'I' for Inactive)
ROOT
HETATM    1  O1  UNL     1       0.450  -2.507  -2.198  1.00  0.00    -0.293 OA
HETATM    2  C1  UNL     1      -0.213  -1.736  -1.481  1.00  0.00     0.179 C 
HETATM    3  C2  UNL     1      -1.108  -0.850  -2.366  1.00  0.00     0.249 C 
HETATM    4  O2  UNL     1      -1.649   0.040  -1.698  1.00  0.00    -0.377 OA
HETATM    5  C3  UNL     1      -2.196   0.941  -1.021  1.00  0.00     0.232 C 
HETATM    6  C4  UNL     1      -1.333   1.335   0.153  1.00  0.00     0.066 C 
HETATM    7  C5  UNL     1      -1.547   1.242   1.434  1.00  0.00     0.008 C 
HETATM    8  C6  UNL     1      -2.841   0.636   1.838  1.00  0.00     0.035 C 
HETATM    9  C7  UNL     1      -2.530  -0.741   2.463  1.00  0.00     0.050 C 
HETATM   10  C8  UNL     1      -1.713  -1.573   1.473  1.00  0.00     0.085 C 
HETATM   11  N1  UNL     1      -0.642  -1.282   0.881  1.00  0.00    -0.288 NA
HETATM   12  C9  UNL     1       0.155  -2.017  -0.042  1.00  0.00     0.211 C 
HETATM   13  C10 UNL     1       1.575  -1.525   0.180  1.00  0.00    -0.026 A 
HETATM   14  C11 UNL     1       2.779  -1.898   0.728  1.00  0.00     0.011 A 
HETATM   15  C12 UNL     1       3.796  -0.979   0.739  1.00  0.00     0.020 A 
HETATM   16  C13 UNL     1       3.696   0.296   0.238  1.00  0.00     0.017 A 
HETATM   17 BR1  UNL     1       5.131   1.512   0.287  1.00  0.00    -0.051 Br
HETATM   18  C14 UNL     1       2.547   0.776  -0.332  1.00  0.00    -0.038 A 
HETATM   19  C15 UNL     1       1.621  -0.228  -0.284  1.00  0.00     0.018 A 
HETATM   20  C16 UNL     1       2.180   2.106  -0.867  1.00  0.00     0.066 C 
HETATM   21  C17 UNL     1       0.654   2.182  -1.068  1.00  0.00     0.180 C 
HETATM   22  O3  UNL     1      -0.060   1.912   0.096  1.00  0.00    -0.353 OA
ENDROOT
TORSDOF 0
