REMARK  4 active torsions:
REMARK  status: ('A' for Active; 'I' for Inactive)
REMARK    1  A    between atoms: N1_1  and  C1_2 
REMARK    2  A    between atoms: C1_2  and  C2_3 
REMARK    3  A    between atoms: C2_3  and  C3_4 
REMARK    4  A    between atoms: C4_5  and  C5_6 
ROOT
HETATM    1  C5  UNL     1       1.960   0.043  -0.627  1.00  0.00    -0.053 C 
HETATM    2  C6  UNL     1       1.238   0.475   0.407  1.00  0.00    -0.019 C 
HETATM    3  C7  UNL     1       0.159   0.911   1.270  1.00  0.00     0.029 C 
HETATM    4  C8  UNL     1      -0.197  -0.062   2.334  1.00  0.00     0.023 C 
HETATM    5  C9  UNL     1      -1.059  -1.124   1.646  1.00  0.00     0.123 C 
HETATM    6  N2  UNL     1      -2.256  -0.406   1.106  1.00  0.00    -0.383 N 
HETATM    7  C10 UNL     1      -2.968   0.419   2.050  1.00  0.00     0.148 C 
HETATM    8  C11 UNL     1      -4.320   0.864   1.626  1.00  0.00     0.187 C 
HETATM    9  O1  UNL     1      -4.501   0.891   0.246  1.00  0.00    -0.384 OA
HETATM   10  C12 UNL     1      -4.198  -0.382  -0.291  1.00  0.00     0.220 C 
HETATM   11  C13 UNL     1      -2.732  -0.478  -0.257  1.00  0.00     0.017 C 
HETATM   12  C14 UNL     1      -2.362  -0.607  -1.503  1.00  0.00     0.070 C 
HETATM   13  C15 UNL     1      -1.578  -0.764  -2.696  1.00  0.00     0.003 C 
HETATM   14  C16 UNL     1      -0.442  -0.890  -3.381  1.00  0.00     0.004 C 
HETATM   15 BR1  UNL     1      -0.981  -1.081  -5.228  1.00  0.00    -0.052 Br
HETATM   16  C17 UNL     1       0.947  -0.745  -3.025  1.00  0.00     0.002 C 
HETATM   17  C18 UNL     1       1.102  -0.323  -1.741  1.00  0.00     0.054 C 
ENDROOT
BRANCH   1  18
HETATM   18  C4  UNL     1       3.423  -0.107  -0.426  1.00  0.00     0.008 C 
HETATM   19  C3  UNL     1       4.074   0.149   0.677  1.00  0.00     0.010 C 
BRANCH  19  20
HETATM   20  C2  UNL     1       5.534  -0.021   0.815  1.00  0.00     0.076 C 
BRANCH  20  21
HETATM   21  C1  UNL     1       6.426   0.786   0.274  1.00  0.00    -0.025 C 
BRANCH  21  22
HETATM   22  N1  UNL     1       7.068   1.821  -0.152  1.00  0.00    -0.258 NA
HETATM   23  H1  UNL     1       7.111   2.646   0.517  1.00  0.00     0.197 HD
ENDBRANCH  21  22
ENDBRANCH  20  21
ENDBRANCH  19  20
ENDBRANCH   1  18
TORSDOF 4
