REMARK  2 active torsions:
REMARK  status: ('A' for Active; 'I' for Inactive)
REMARK    1  A    between atoms: C7_10  and  N2_11 
REMARK    2  A    between atoms: N2_11  and  C8_12 
ROOT
HETATM    1  O1  UNL     1      -2.737   1.877   2.014  1.00  0.00    -0.294 OA
HETATM    2  C1  UNL     1      -2.779   1.556   0.829  1.00  0.00     0.165 C 
HETATM    3  C2  UNL     1      -3.980   1.870  -0.033  1.00  0.00     0.254 C 
HETATM    4  O2  UNL     1      -3.965   0.883  -1.058  1.00  0.00    -0.347 OA
HETATM    5  C3  UNL     1      -2.981  -0.057  -0.800  1.00  0.00     0.059 C 
HETATM    6  C4  UNL     1      -2.665  -1.382  -0.914  1.00  0.00     0.017 C 
HETATM    7  C5  UNL     1      -2.004  -2.203   0.166  1.00  0.00     0.055 C 
HETATM    8  C6  UNL     1      -0.538  -2.446  -0.163  1.00  0.00     0.101 C 
HETATM    9  N1  UNL     1       0.529  -1.675  -0.142  1.00  0.00    -0.246 NA
HETATM   10  C7  UNL     1       0.272  -0.302   0.213  1.00  0.00     0.131 C 
HETATM   11  C14 UNL     1      -1.012  -0.159   0.440  1.00  0.00    -0.015 C 
HETATM   12  C15 UNL     1      -1.836  -1.128   1.305  1.00  0.00     0.053 C 
HETATM   13  C16 UNL     1      -1.936   0.878  -0.153  1.00  0.00     0.147 C 
ENDROOT
BRANCH  10  14
HETATM   14  N2  UNL     1       1.037   0.877   0.334  1.00  0.00    -0.341 N 
HETATM   15  H6  UNL     1       0.727   1.809   0.659  1.00  0.00     0.167 HD
BRANCH  14  16
HETATM   16  C8  UNL     1       2.380   0.648  -0.070  1.00  0.00     0.033 A 
HETATM   17  C9  UNL     1       3.124  -0.164   0.773  1.00  0.00     0.031 A 
HETATM   18  C10 UNL     1       4.453  -0.382   0.409  1.00  0.00     0.021 A 
HETATM   19  C11 UNL     1       5.046   0.165  -0.728  1.00  0.00     0.011 A 
HETATM   20 BR1  UNL     1       6.877  -0.209  -1.125  1.00  0.00    -0.051 Br
HETATM   21  C12 UNL     1       4.252   0.970  -1.535  1.00  0.00     0.021 A 
HETATM   22  C13 UNL     1       2.918   1.213  -1.208  1.00  0.00     0.031 A 
ENDBRANCH  14  16
ENDBRANCH  10  14
TORSDOF 2
