REMARK  5 active torsions:
REMARK  status: ('A' for Active; 'I' for Inactive)
REMARK    1  A    between atoms: C2_4  and  C3_5 
REMARK    2  A    between atoms: C3_5  and  C4_6 
REMARK    3  A    between atoms: C4_6  and  N2_7 
REMARK    4  A    between atoms: C12_16  and  N3_17 
REMARK    5  A    between atoms: N3_17  and  C13_18 
ROOT
HETATM    1  O1  UNL     1       0.884  -3.125  -1.747  1.00  0.00    -0.267 OA
HETATM    2  C1  UNL     1       0.739  -2.171  -0.969  1.00  0.00     0.261 C 
HETATM    3  N1  UNL     1       1.000  -0.815  -0.561  1.00  0.00    -0.351 N 
HETATM    4  C2  UNL     1       0.443  -0.254   0.646  1.00  0.00     0.099 C 
HETATM    5  C9  UNL     1      -0.492  -1.239   1.297  1.00  0.00     0.028 A 
HETATM    6  C10 UNL     1      -1.050  -0.555   2.335  1.00  0.00     0.023 A 
HETATM    7  C11 UNL     1      -1.911  -0.914   1.115  1.00  0.00     0.038 A 
HETATM    8  C12 UNL     1      -2.229  -0.649  -0.179  1.00  0.00     0.115 C 
HETATM    9  N4  UNL     1      -2.798  -1.752  -0.927  1.00  0.00    -0.235 NA
HETATM   10  C19 UNL     1      -2.379  -3.003  -0.735  1.00  0.00     0.186 C 
HETATM   11  N5  UNL     1      -1.328  -3.222   0.261  1.00  0.00    -0.224 NA
HETATM   12  C20 UNL     1      -0.138  -2.795  -0.049  1.00  0.00     0.087 A 
HETATM   13  C21 UNL     1      -0.952  -2.726   1.178  1.00  0.00     0.082 A 
HETATM   14  C22 UNL     1      -1.785  -2.945   2.223  1.00  0.00     0.024 C 
HETATM   15  C23 UNL     1      -2.796  -1.948   1.804  1.00  0.00     0.026 C 
HETATM   16  H1  UNL     1       1.614  -0.521  -1.338  1.00  0.00     0.163 HD
ENDROOT
BRANCH   8  17
HETATM   17  N3  UNL     1      -2.142   0.041  -1.390  1.00  0.00    -0.344 N 
HETATM   18  H16 UNL     1      -1.331  -0.011  -2.056  1.00  0.00     0.167 HD
BRANCH  17  19
HETATM   19  C13 UNL     1      -3.252   0.893  -1.715  1.00  0.00     0.033 A 
HETATM   20  C14 UNL     1      -3.244   1.611  -2.881  1.00  0.00     0.031 A 
HETATM   21  C15 UNL     1      -4.284   2.451  -3.233  1.00  0.00     0.026 A 
HETATM   22  C16 UNL     1      -5.348   2.548  -2.366  1.00  0.00     0.034 A 
HETATM   23 CL1  UNL     1      -6.637   3.626  -2.858  1.00  0.00    -0.084 Cl
HETATM   24  C17 UNL     1      -5.419   1.855  -1.184  1.00  0.00     0.026 A 
HETATM   25  C18 UNL     1      -4.340   1.024  -0.882  1.00  0.00     0.031 A 
ENDBRANCH  17  19
ENDBRANCH   8  17
BRANCH   4  26
HETATM   26  C3  UNL     1       1.586   0.053   1.613  1.00  0.00     0.056 C 
BRANCH  26  27
HETATM   27  C4  UNL     1       2.474   1.034   0.912  1.00  0.00     0.274 C 
BRANCH  27  28
HETATM   28  N2  UNL     1       3.624   1.461   1.639  1.00  0.00     0.092 N 
HETATM   29  C5  UNL     1       4.382   2.381   0.807  1.00  0.00     0.298 C 
HETATM   30  C6  UNL     1       5.221   1.665  -0.210  1.00  0.00     0.198 C 
HETATM   31  O2  UNL     1       4.963   0.329  -0.355  1.00  0.00    -0.388 OA
HETATM   32  C7  UNL     1       4.960  -0.405   0.810  1.00  0.00     0.198 C 
HETATM   33  C8  UNL     1       4.511   0.379   2.004  1.00  0.00     0.298 C 
ENDBRANCH  27  28
ENDBRANCH  26  27
ENDBRANCH   4  26
TORSDOF 5
