REMARK  4 active torsions:
REMARK  status: ('A' for Active; 'I' for Inactive)
REMARK    1  A    between atoms: N1_7  and  C5_8 
REMARK    2  A    between atoms: C5_8  and  C6_9 
REMARK    3  A    between atoms: C6_9  and  C7_10 
REMARK    4  A    between atoms: C7_10  and  S1_11 
ROOT
HETATM    1  S1  UNL     1      -0.741  -0.324  -0.381  1.00  0.00    -0.212 SA
HETATM    2  C8  UNL     1      -1.811  -1.570   0.401  1.00  0.00     0.232 C 
HETATM    3  N2  UNL     1      -2.929  -1.847   0.720  1.00  0.00    -0.338 NA
HETATM    4  N3  UNL     1      -4.108  -2.223   1.098  1.00  0.00    -0.269 N 
HETATM    5  C9  UNL     1      -4.747  -1.231   0.142  1.00  0.00     0.181 C 
HETATM    6  C10 UNL     1      -4.042   0.013   0.433  1.00  0.00    -0.005 C 
HETATM    7  C11 UNL     1      -3.239   0.056  -0.556  1.00  0.00    -0.003 C 
HETATM    8  C12 UNL     1      -3.094  -0.821  -1.646  1.00  0.00    -0.004 C 
HETATM    9  C13 UNL     1      -2.163  -0.775  -2.544  1.00  0.00    -0.018 C 
HETATM   10  C14 UNL     1      -1.696   0.336  -1.741  1.00  0.00     0.085 C 
HETATM   11  H13 UNL     1       0.545  -1.206  -1.020  1.00  0.00     0.088 HD
HETATM   12  H15 UNL     1      -4.023  -2.984   1.834  1.00  0.00     0.195 HD
ENDROOT
BRANCH   1  13
HETATM   13  C7  UNL     1      -0.112   0.930   0.732  1.00  0.00     0.060 C 
BRANCH  13  14
HETATM   14  C6  UNL     1       0.697   0.325   1.826  1.00  0.00     0.029 C 
BRANCH  14  15
HETATM   15  C5  UNL     1       1.871  -0.413   1.286  1.00  0.00     0.126 C 
BRANCH  15  16
HETATM   16  N1  UNL     1       2.784   0.395   0.507  1.00  0.00    -0.348 N 
HETATM   17  C1  UNL     1       3.843   1.036   1.237  1.00  0.00     0.243 C 
HETATM   18  O1  UNL     1       3.932   0.866   2.504  1.00  0.00    -0.271 OA
HETATM   19  C2  UNL     1       4.942   1.927   0.779  1.00  0.00     0.270 C 
HETATM   20  O2  UNL     1       4.916   2.042  -0.606  1.00  0.00    -0.380 OA
HETATM   21  C3  UNL     1       4.416   0.897  -1.175  1.00  0.00     0.188 C 
HETATM   22  C4  UNL     1       2.916   0.737  -0.885  1.00  0.00     0.152 C 
ENDBRANCH  15  16
ENDBRANCH  14  15
ENDBRANCH  13  14
ENDBRANCH   1  13
TORSDOF 4
