REMARK  4 active torsions:
REMARK  status: ('A' for Active; 'I' for Inactive)
REMARK    1  A    between atoms: O1_2  and  C2_3 
REMARK    2  A    between atoms: C7_11  and  N3_12 
REMARK    3  A    between atoms: N3_12  and  C8_13 
REMARK    4  A    between atoms: C8_13  and  C9_14 
ROOT
HETATM    1  C2  UNL     1       5.372   0.356   0.436  1.00  0.00     0.083 C 
HETATM    2  C3  UNL     1       4.833  -0.711  -0.132  1.00  0.00     0.048 C 
HETATM    3  C4  UNL     1       3.639  -0.459  -0.643  1.00  0.00     0.100 C 
HETATM    4  O2  UNL     1       2.982  -0.979  -1.751  1.00  0.00    -0.288 OA
HETATM    5  C5  UNL     1       1.604  -1.079  -1.890  1.00  0.00     0.202 A 
HETATM    6  N1  UNL     1       1.289  -1.750  -3.014  1.00  0.00    -0.215 NA
HETATM    7  C6  UNL     1      -0.032  -1.939  -3.306  1.00  0.00     0.238 A 
HETATM    8  N2  UNL     1      -0.994  -1.471  -2.497  1.00  0.00    -0.222 NA
HETATM    9  C7  UNL     1      -0.758  -0.797  -1.367  1.00  0.00     0.156 A 
HETATM   10  C15 UNL     1       0.572  -0.604  -1.069  1.00  0.00     0.128 A 
HETATM   11  N4  UNL     1       0.732   0.110   0.149  1.00  0.00    -0.379 N 
HETATM   12  C16 UNL     1       1.754   1.064   0.557  1.00  0.00     0.161 C 
HETATM   13  C17 UNL     1       3.130   0.554   0.274  1.00  0.00    -0.003 C 
HETATM   14  C18 UNL     1       4.167   1.055   0.933  1.00  0.00     0.049 C 
HETATM   15  H13 UNL     1      -0.058  -0.150   0.814  1.00  0.00     0.160 HD
ENDROOT
BRANCH   9  16
HETATM   16  N3  UNL     1      -1.827  -0.319  -0.564  1.00  0.00    -0.369 N 
HETATM   17  H5  UNL     1      -1.882   0.216   0.301  1.00  0.00     0.161 HD
BRANCH  16  18
HETATM   18  C8  UNL     1      -3.162  -0.615  -1.023  1.00  0.00     0.160 C 
BRANCH  18  19
HETATM   19  C9  UNL     1      -4.249  -0.117  -0.188  1.00  0.00    -0.041 A 
HETATM   20  C10 UNL     1      -4.705   1.151  -0.497  1.00  0.00     0.009 A 
HETATM   21  C11 UNL     1      -5.730   1.746   0.213  1.00  0.00     0.001 A 
HETATM   22  C12 UNL     1      -6.338   1.072   1.274  1.00  0.00     0.000 A 
HETATM   23  C13 UNL     1      -5.869  -0.196   1.570  1.00  0.00     0.001 A 
HETATM   24  C14 UNL     1      -4.843  -0.791   0.859  1.00  0.00     0.009 A 
ENDBRANCH  18  19
ENDBRANCH  16  18
ENDBRANCH   9  16
BRANCH   1  25
HETATM   25  O1  UNL     1       6.685   0.811   0.591  1.00  0.00    -0.355 OA
HETATM   26  C1  UNL     1       7.708   0.087   1.210  1.00  0.00     0.210 C 
ENDBRANCH   1  25
TORSDOF 4
