REMARK  0 active torsions:
REMARK  status: ('A' for Active; 'I' for Inactive)
ROOT
HETATM    1  C1  UNL     1      -2.690  -4.008   0.067  1.00  0.00     0.063 C 
HETATM    2  C2  UNL     1      -2.282  -2.592   0.246  1.00  0.00     0.225 C 
HETATM    3  O1  UNL     1      -3.023  -1.727  -0.671  1.00  0.00    -0.326 OA
HETATM    4  C3  UNL     1      -2.651  -0.416  -0.669  1.00  0.00     0.080 A 
HETATM    5  C4  UNL     1      -3.439   0.625  -0.660  1.00  0.00     0.072 A 
HETATM    6  C5  UNL     1      -2.429   1.756  -0.786  1.00  0.00     0.258 A 
HETATM    7  C6  UNL     1      -1.497   2.864  -0.905  1.00  0.00     0.093 A 
HETATM    8  C7  UNL     1      -1.006   1.318  -0.793  1.00  0.00     0.096 A 
HETATM    9  C8  UNL     1      -1.192  -0.118  -0.684  1.00  0.00     0.002 A 
HETATM   10  C9  UNL     1      -0.510  -1.187  -0.699  1.00  0.00     0.098 C 
HETATM   11  N1  UNL     1      -0.905  -2.340  -0.069  1.00  0.00    -0.362 N 
HETATM   12  C10 UNL     1       0.306  -3.082   0.059  1.00  0.00     0.154 C 
HETATM   13  C11 UNL     1       1.545  -2.385   0.474  1.00  0.00     0.289 C 
HETATM   14  N2  UNL     1       1.645  -2.072   1.892  1.00  0.00     0.087 N 
HETATM   15  C12 UNL     1       2.718  -1.092   2.195  1.00  0.00     0.304 C 
HETATM   16  C13 UNL     1       2.196   0.203   1.742  1.00  0.00     0.180 A 
HETATM   17  O2  UNL     1       2.361   1.339   2.530  1.00  0.00    -0.372 OA
HETATM   18  C14 UNL     1       3.159   1.301   1.378  1.00  0.00     0.171 A 
HETATM   19  C15 UNL     1       2.674   1.909   0.134  1.00  0.00     0.120 A 
HETATM   20  C16 UNL     1       2.138   2.502  -0.864  1.00  0.00     0.038 A 
HETATM   21 CL1  UNL     1       1.696   2.448   0.926  1.00  0.00    -0.203 Cl
HETATM   22  C17 UNL     1       1.612   3.254  -2.170  1.00  0.00     0.041 A 
HETATM   23  C18 UNL     1       2.065   2.754  -1.324  1.00  0.00     0.041 A 
HETATM   24  C19 UNL     1       0.725   2.803  -1.164  1.00  0.00     0.030 A 
HETATM   25  P1  UNL     1      -0.725   2.854  -0.995  1.00  0.00     0.122 P 
HETATM   26  N3  UNL     1      -3.389   3.024  -0.686  1.00  0.00     0.064 N 
HETATM   27  C20 UNL     1      -3.040   4.192  -0.723  1.00  0.00     0.370 A 
HETATM   28  N4  UNL     1      -3.299   2.839  -0.696  1.00  0.00    -0.054 NA
HETATM   29  H12 UNL     1       0.765  -1.818   2.343  1.00  0.00     0.316 HD
ENDROOT
TORSDOF 0
