REMARK  3 active torsions:
REMARK  status: ('A' for Active; 'I' for Inactive)
REMARK    1  A    between atoms: C4_4  and  O1_5 
REMARK    2  A    between atoms: C6_7  and  N1_8 
REMARK    3  A    between atoms: N4_19  and  C13_20 
ROOT
HETATM    1  N1  UNL     1      -1.560  -0.990   0.156  1.00  0.00    -0.307 N 
HETATM    2  C7  UNL     1      -2.676  -1.871   0.089  1.00  0.00     0.249 C 
HETATM    3  O2  UNL     1      -3.810  -1.517  -0.330  1.00  0.00    -0.271 OA
HETATM    4  C8  UNL     1      -2.551  -3.288   0.523  1.00  0.00     0.279 C 
HETATM    5  O3  UNL     1      -1.249  -3.779   0.263  1.00  0.00    -0.340 OA
HETATM    6  C9  UNL     1      -0.152  -2.962   0.330  1.00  0.00     0.099 A 
HETATM    7  C10 UNL     1       1.040  -3.566   0.447  1.00  0.00     0.073 A 
HETATM    8  C11 UNL     1       2.180  -2.650   0.514  1.00  0.00     0.090 A 
HETATM    9  N2  UNL     1       3.389  -3.095   0.628  1.00  0.00    -0.238 NA
HETATM   10  C12 UNL     1       4.479  -2.155   0.690  1.00  0.00     0.255 A 
HETATM   11  N3  UNL     1       4.374  -0.857   0.644  1.00  0.00    -0.164 NA
HETATM   12  N4  UNL     1       3.085  -0.280   0.520  1.00  0.00    -0.254 N 
HETATM   13  C18 UNL     1       1.979  -1.205   0.456  1.00  0.00     0.096 A 
HETATM   14  C19 UNL     1       0.801  -0.704   0.343  1.00  0.00     0.040 A 
HETATM   15  C20 UNL     1      -0.235  -1.498   0.281  1.00  0.00     0.085 A 
ENDROOT
BRANCH   1  16
HETATM   16  C6  UNL     1      -1.781   0.426   0.096  1.00  0.00     0.100 C 
HETATM   17  C2  UNL     1      -2.452   0.810  -1.205  1.00  0.00    -0.027 C 
HETATM   18  C1  UNL     1      -2.653   0.156  -2.368  1.00  0.00     0.044 C 
HETATM   19  C3  UNL     1      -2.936   2.209  -1.017  1.00  0.00     0.039 C 
HETATM   20  C4  UNL     1      -3.109   2.320   0.492  1.00  0.00     0.120 C 
HETATM   21  C5  UNL     1      -2.784   0.956   1.067  1.00  0.00     0.057 C 
BRANCH  20  22
HETATM   22  O1  UNL     1      -2.153   3.238   0.951  1.00  0.00    -0.395 OA
HETATM   23  H6  UNL     1      -2.649   3.971   1.385  1.00  0.00     0.210 HD
ENDBRANCH  20  22
ENDBRANCH   1  16
BRANCH  12  24
HETATM   24  C13 UNL     1       2.854   1.132   0.460  1.00  0.00     0.158 A 
HETATM   25  C14 UNL     1       4.166   1.843   0.548  1.00  0.00     0.006 A 
HETATM   26  C15 UNL     1       4.311   2.520  -0.571  1.00  0.00     0.022 A 
HETATM   27  C16 UNL     1       3.173   2.329  -1.446  1.00  0.00     0.032 A 
HETATM   28 CL1  UNL     1       2.822   2.970  -3.034  1.00  0.00    -0.085 Cl
HETATM   29  C17 UNL     1       2.300   1.514  -0.861  1.00  0.00     0.028 A 
ENDBRANCH  12  24
TORSDOF 3
