REMARK  1 active torsions:
REMARK  status: ('A' for Active; 'I' for Inactive)
REMARK    1  A    between atoms: C4_5  and  N2_6 
ROOT
HETATM    1  C1  UNL     1       0.568   2.968   1.353  1.00  0.00     0.177 C 
HETATM    2  N1  UNL     1      -0.797   2.524   1.554  1.00  0.00    -0.302 NA
HETATM    3  C2  UNL     1      -1.042   1.273   1.153  1.00  0.00     0.020 C 
HETATM    4  C3  UNL     1      -0.418   0.060   0.533  1.00  0.00     0.094 C 
HETATM    5  C4  UNL     1       0.774  -0.328   0.004  1.00  0.00    -0.003 C 
HETATM    6  C9  UNL     1       0.798  -1.774  -0.321  1.00  0.00     0.072 C 
HETATM    7  C10 UNL     1      -0.370  -2.542   0.295  1.00  0.00     0.128 C 
HETATM    8  N3  UNL     1      -1.657  -2.056  -0.095  1.00  0.00    -0.359 N 
HETATM    9  C11 UNL     1      -2.551  -1.831  -1.177  1.00  0.00     0.241 C 
HETATM   10  O2  UNL     1      -1.530  -2.358  -1.693  1.00  0.00    -0.271 OA
HETATM   11  C12 UNL     1      -3.921  -1.213  -1.036  1.00  0.00     0.277 C 
HETATM   12  O3  UNL     1      -4.017  -0.926   0.380  1.00  0.00    -0.353 OA
HETATM   13  C13 UNL     1      -4.983   0.073   0.627  1.00  0.00     0.147 C 
HETATM   14  C14 UNL     1      -4.491   1.175   0.081  1.00  0.00    -0.006 C 
HETATM   15  C15 UNL     1      -3.183   1.191  -0.043  1.00  0.00    -0.007 C 
HETATM   16  C16 UNL     1      -2.531   1.035   1.273  1.00  0.00     0.083 C 
HETATM   17  H17 UNL     1      -2.189  -1.742   0.773  1.00  0.00     0.162 HD
ENDROOT
BRANCH   5  18
HETATM   18  N2  UNL     1       2.160   0.021  -0.347  1.00  0.00    -0.383 N 
HETATM   19  C5  UNL     1       2.521   0.393  -1.701  1.00  0.00     0.148 C 
HETATM   20  C6  UNL     1       3.879   1.089  -1.566  1.00  0.00     0.187 C 
HETATM   21  O1  UNL     1       4.837   0.284  -1.003  1.00  0.00    -0.388 OA
HETATM   22  C7  UNL     1       4.423  -0.521   0.025  1.00  0.00     0.187 C 
HETATM   23  C8  UNL     1       3.154  -0.010   0.676  1.00  0.00     0.148 C 
ENDBRANCH   5  18
TORSDOF 1
