REMARK  3 active torsions:
REMARK  status: ('A' for Active; 'I' for Inactive)
REMARK    1  A    between atoms: N1_2  and  C2_3 
REMARK    2  A    between atoms: C2_3  and  N2_4 
REMARK    3  A    between atoms: N2_4  and  C4_6 
ROOT
HETATM    1  C4  UNL     1       0.092  -0.125   0.310  1.00  0.00     0.184 C 
HETATM    2  C5  UNL     1       0.089   0.631  -0.918  1.00  0.00     0.042 C 
HETATM    3  C6  UNL     1       0.326   1.312  -2.023  1.00  0.00     0.028 C 
HETATM    4  C7  UNL     1      -0.744   1.840  -2.882  1.00  0.00     0.070 A 
HETATM    5  C8  UNL     1      -1.923   1.587  -2.212  1.00  0.00     0.159 A 
HETATM    6  C9  UNL     1      -3.143   1.347  -1.559  1.00  0.00     0.115 A 
HETATM    7  N3  UNL     1      -3.658   1.932  -2.588  1.00  0.00    -0.235 NA
HETATM    8  C10 UNL     1      -3.017   2.453  -3.686  1.00  0.00     0.182 A 
HETATM    9  N4  UNL     1      -1.825   2.199  -3.393  1.00  0.00    -0.250 NA
HETATM   10  N5  UNL     1      -3.533   0.739  -0.307  1.00  0.00    -0.378 NA
HETATM   11  C11 UNL     1      -3.179  -0.533  -0.066  1.00  0.00     0.263 C 
HETATM   12  C12 UNL     1      -2.439  -1.549  -0.812  1.00  0.00     0.105 C 
HETATM   13  C13 UNL     1      -1.350  -2.166   0.011  1.00  0.00     0.273 C 
HETATM   14  F1  UNL     1      -0.920  -3.261  -0.832  1.00  0.00    -0.227 F 
HETATM   15  N6  UNL     1      -0.181  -1.484   0.315  1.00  0.00    -0.367 N 
HETATM   16  C14 UNL     1       0.589  -2.287   1.246  1.00  0.00     0.148 C 
ENDROOT
BRANCH   1  17
HETATM   17  N2  UNL     1       1.267   0.084   1.165  1.00  0.00    -0.381 N 
HETATM   18  C3  UNL     1       1.095   0.993   2.222  1.00  0.00     0.146 C 
BRANCH  17  19
HETATM   19  C2  UNL     1       2.506  -0.059   0.545  1.00  0.00     0.236 C 
BRANCH  19  20
HETATM   20  N1  UNL     1       3.617  -0.567   1.260  1.00  0.00    -0.410 N 
HETATM   21  C1  UNL     1       4.118   0.213   2.311  1.00  0.00     0.141 C 
HETATM   22  H4  UNL     1       3.703  -1.584   1.294  1.00  0.00     0.154 HD
ENDBRANCH  19  20
ENDBRANCH  17  19
ENDBRANCH   1  17
TORSDOF 3
