REMARK  6 active torsions:
REMARK  status: ('A' for Active; 'I' for Inactive)
REMARK    1  A    between atoms: C6_10  and  N3_11 
REMARK    2  A    between atoms: N3_11  and  C7_12 
REMARK    3  A    between atoms: N4_22  and  C16_23 
REMARK    4  A    between atoms: C16_23  and  C17_24 
REMARK    5  A    between atoms: C17_24  and  C18_25 
REMARK    6  A    between atoms: C18_25  and  N5_26 
ROOT
HETATM    1  O1  UNL     1       0.339   0.750   2.122  1.00  0.00    -0.271 OA
HETATM    2  C1  UNL     1      -0.017  -0.195   1.413  1.00  0.00     0.247 C 
HETATM    3  C2  UNL     1       0.072  -1.661   1.563  1.00  0.00     0.277 C 
HETATM    4  O2  UNL     1       1.237  -1.831   2.414  1.00  0.00    -0.351 OA
HETATM    5  C3  UNL     1       1.967  -2.984   2.382  1.00  0.00     0.169 C 
HETATM    6  C4  UNL     1       2.480  -3.402   1.265  1.00  0.00     0.110 C 
HETATM    7  N1  UNL     1       2.605  -2.633   0.266  1.00  0.00    -0.238 NA
HETATM    8  C5  UNL     1       2.850  -1.257   0.479  1.00  0.00     0.236 C 
HETATM    9  N2  UNL     1       3.219  -0.130   0.833  1.00  0.00    -0.225 NA
HETATM   10  C6  UNL     1       2.846   1.146   0.397  1.00  0.00     0.129 C 
HETATM   11  C13 UNL     1       2.035   2.160   0.051  1.00  0.00     0.052 C 
HETATM   12  C14 UNL     1       0.638   2.475  -0.061  1.00  0.00     0.021 C 
HETATM   13  C15 UNL     1      -0.593   2.063   0.054  1.00  0.00     0.094 C 
HETATM   14  N4  UNL     1      -0.499   0.712   0.457  1.00  0.00    -0.326 N 
ENDROOT
BRANCH  10  15
HETATM   15  N3  UNL     1       4.236   1.418   0.299  1.00  0.00    -0.341 N 
HETATM   16  H5  UNL     1       4.507   2.194   0.914  1.00  0.00     0.167 HD
BRANCH  15  17
HETATM   17  C7  UNL     1       5.430   1.028  -0.359  1.00  0.00     0.033 A 
HETATM   18  C8  UNL     1       5.796   1.649  -1.546  1.00  0.00     0.032 A 
HETATM   19  C9  UNL     1       6.976   1.233  -2.161  1.00  0.00     0.044 A 
HETATM   20  C10 UNL     1       7.692   0.248  -1.561  1.00  0.00     0.116 A 
HETATM   21  F1  UNL     1       8.829  -0.130  -2.185  1.00  0.00    -0.206 F 
HETATM   22  C11 UNL     1       7.379  -0.396  -0.396  1.00  0.00     0.044 A 
HETATM   23  C12 UNL     1       6.201   0.016   0.223  1.00  0.00     0.032 A 
ENDBRANCH  15  17
ENDBRANCH  10  15
BRANCH  14  24
HETATM   24  C16 UNL     1      -1.053  -0.187  -0.481  1.00  0.00     0.133 C 
BRANCH  24  25
HETATM   25  C17 UNL     1      -2.465  -0.645  -0.257  1.00  0.00     0.040 C 
BRANCH  25  26
HETATM   26  C18 UNL     1      -3.493   0.445  -0.214  1.00  0.00     0.118 C 
BRANCH  26  27
HETATM   27  N5  UNL     1      -4.834  -0.043  -0.024  1.00  0.00    -0.408 N 
HETATM   28  C19 UNL     1      -5.388  -0.776  -1.108  1.00  0.00     0.143 C 
HETATM   29  C20 UNL     1      -6.664  -1.490  -0.767  1.00  0.00     0.187 C 
HETATM   30  O3  UNL     1      -7.382  -0.862   0.232  1.00  0.00    -0.388 OA
HETATM   31  C21 UNL     1      -7.145   0.494   0.333  1.00  0.00     0.187 C 
HETATM   32  C22 UNL     1      -5.711   0.772   0.729  1.00  0.00     0.143 C 
ENDBRANCH  26  27
ENDBRANCH  25  26
ENDBRANCH  24  25
ENDBRANCH  14  24
TORSDOF 6
