REMARK  3 active torsions:
REMARK  status: ('A' for Active; 'I' for Inactive)
REMARK    1  A    between atoms: C3_3  and  C4_4 
REMARK    2  A    between atoms: N1_7  and  C7_8 
REMARK    3  A    between atoms: C13_17  and  O1_18 
ROOT
HETATM    1  C7  UNL     1      -0.962  -1.808  -0.322  1.00  0.00     0.163 A 
HETATM    2  N2  UNL     1      -1.032  -2.803  -1.210  1.00  0.00    -0.222 NA
HETATM    3  C8  UNL     1       0.040  -3.106  -1.999  1.00  0.00     0.238 A 
HETATM    4  N3  UNL     1       1.257  -2.474  -1.993  1.00  0.00    -0.215 NA
HETATM    5  C9  UNL     1       1.415  -1.466  -1.137  1.00  0.00     0.202 A 
HETATM    6  C10 UNL     1       0.240  -1.221  -0.352  1.00  0.00     0.133 A 
HETATM    7  N4  UNL     1       0.194  -0.148   0.670  1.00  0.00    -0.353 N 
HETATM    8  C11 UNL     1       1.301   0.733   0.918  1.00  0.00     0.018 C 
HETATM    9  C12 UNL     1       1.796   0.961   2.164  1.00  0.00     0.063 C 
HETATM   10  C13 UNL     1       3.321   0.914   1.958  1.00  0.00     0.083 C 
HETATM   11  C15 UNL     1       3.883   0.441   0.800  1.00  0.00     0.043 C 
HETATM   12  C16 UNL     1       3.078   0.137  -0.166  1.00  0.00     0.075 C 
HETATM   13  C17 UNL     1       2.150   1.382  -0.216  1.00  0.00     0.123 C 
HETATM   14  O2  UNL     1       2.706  -0.797  -1.129  1.00  0.00    -0.293 OA
HETATM   15  H10 UNL     1      -0.535   0.123   1.335  1.00  0.00     0.166 HD
ENDROOT
BRANCH   1  16
HETATM   16  N1  UNL     1      -1.959  -1.416   0.605  1.00  0.00    -0.326 N 
HETATM   17  C4  UNL     1      -3.082  -0.548   0.346  1.00  0.00     0.034 A 
HETATM   18  C5  UNL     1      -3.419  -0.703   1.616  1.00  0.00     0.023 A 
HETATM   19  C6  UNL     1      -2.298  -1.616   1.994  1.00  0.00     0.160 A 
BRANCH  17  20
HETATM   20  C3  UNL     1      -3.653   0.202  -0.770  1.00  0.00     0.025 C 
HETATM   21  C2  UNL     1      -3.077   0.163  -1.958  1.00  0.00    -0.029 C 
HETATM   22  C1  UNL     1      -3.679   0.941  -3.093  1.00  0.00     0.036 C 
ENDBRANCH  17  20
ENDBRANCH   1  16
BRANCH  10  23
HETATM   23  O1  UNL     1       3.807   1.405   3.101  1.00  0.00    -0.355 OA
HETATM   24  C14 UNL     1       4.774   2.447   3.038  1.00  0.00     0.210 C 
ENDBRANCH  10  23
TORSDOF 3
