REMARK  3 active torsions:
REMARK  status: ('A' for Active; 'I' for Inactive)
REMARK    1  A    between atoms: C2_2  and  N1_3 
REMARK    2  A    between atoms: C16_22  and  N5_23 
REMARK    3  A    between atoms: N5_23  and  C17_24 
ROOT
HETATM    1  N1  UNL     1      -0.800   0.201  -0.500  1.00  0.00    -0.360 N 
HETATM    2  C3  UNL     1      -1.089   0.547  -1.905  1.00  0.00     0.126 C 
HETATM    3  C4  UNL     1      -2.338   1.438  -1.850  1.00  0.00     0.040 C 
HETATM    4  C5  UNL     1      -3.616   0.680  -1.894  1.00  0.00     0.124 C 
HETATM    5  N2  UNL     1      -3.993   0.146  -0.586  1.00  0.00    -0.378 N 
HETATM    6  C6  UNL     1      -5.354   0.463  -0.124  1.00  0.00     0.149 C 
HETATM    7  C7  UNL     1      -5.624  -0.398   1.079  1.00  0.00     0.187 C 
HETATM    8  O1  UNL     1      -5.131  -1.672   0.810  1.00  0.00    -0.384 OA
HETATM    9  C8  UNL     1      -3.759  -1.637   1.155  1.00  0.00     0.226 C 
HETATM   10  C9  UNL     1      -3.121  -0.640   0.218  1.00  0.00     0.060 C 
HETATM   11  C10 UNL     1      -1.796  -0.576   0.209  1.00  0.00     0.080 C 
HETATM   12  C11 UNL     1      -1.302  -1.590   1.171  1.00  0.00     0.410 C 
HETATM   13  O2  UNL     1      -1.093  -2.488   2.014  1.00  0.00    -0.404 OA
ENDROOT
BRANCH   1  14
HETATM   14  C2  UNL     1       0.323   0.466   0.315  1.00  0.00     0.099 C 
HETATM   15  C1  UNL     1       0.132   0.433   1.795  1.00  0.00     0.048 C 
HETATM   16  C12 UNL     1       0.815   1.871   0.002  1.00  0.00     0.011 C 
HETATM   17  C13 UNL     1       1.660   1.808  -1.069  1.00  0.00     0.030 C 
HETATM   18  C14 UNL     1       1.727   0.376  -1.470  1.00  0.00     0.089 A 
HETATM   19  N3  UNL     1       1.838  -0.599  -2.292  1.00  0.00    -0.242 NA
HETATM   20  C16 UNL     1       1.588  -0.252  -0.091  1.00  0.00     0.201 A 
HETATM   21  C15 UNL     1       1.761  -1.841  -1.577  1.00  0.00     0.230 A 
HETATM   22  N4  UNL     1       1.610  -1.613  -0.308  1.00  0.00    -0.241 NA
BRANCH  20  23
HETATM   23  N5  UNL     1       2.662   0.281   0.722  1.00  0.00    -0.355 N 
HETATM   24  H20 UNL     1       2.363   1.058   1.383  1.00  0.00     0.162 HD
BRANCH  23  25
HETATM   25  C17 UNL     1       4.050   0.067   0.896  1.00  0.00     0.030 A 
HETATM   26  C18 UNL     1       4.846   0.777   1.805  1.00  0.00     0.032 A 
HETATM   27  C19 UNL     1       6.187   0.543   1.946  1.00  0.00     0.044 A 
HETATM   28  C20 UNL     1       6.813  -0.410   1.191  1.00  0.00     0.116 A 
HETATM   29  F1  UNL     1       8.132  -0.547   1.421  1.00  0.00    -0.206 F 
HETATM   30  C21 UNL     1       6.097  -1.147   0.278  1.00  0.00     0.044 A 
HETATM   31  C22 UNL     1       4.751  -0.873   0.174  1.00  0.00     0.032 A 
ENDBRANCH  23  25
ENDBRANCH  20  23
ENDBRANCH   1  14
TORSDOF 3
