REMARK  6 active torsions:
REMARK  status: ('A' for Active; 'I' for Inactive)
REMARK    1  A    between atoms: C3_3  and  C4_5 
REMARK    2  A    between atoms: C5_6  and  P1_7 
REMARK    3  A    between atoms: N3_17  and  N4_18 
REMARK    4  A    between atoms: N4_18  and  C13_19 
REMARK    5  A    between atoms: C13_19  and  C14_20 
REMARK    6  A    between atoms: C14_20  and  N5_21 
ROOT
HETATM    1  P1  UNL     1       4.101  -1.005   0.124  1.00  0.00     0.070 P 
HETATM    2  N1  UNL     1       5.299  -2.344   0.400  1.00  0.00    -0.247 NA
HETATM    3  C6  UNL     1       4.950  -3.501  -0.014  1.00  0.00     0.207 A 
HETATM    4  N2  UNL     1       3.805  -3.985  -0.659  1.00  0.00    -0.350 N 
HETATM    5  C7  UNL     1       2.679  -3.193  -1.020  1.00  0.00     0.049 A 
HETATM    6  C8  UNL     1       1.582  -3.762  -1.661  1.00  0.00     0.069 A 
HETATM    7  C9  UNL     1       0.496  -3.005  -2.011  1.00  0.00     0.100 A 
HETATM    8  C10 UNL     1       0.519  -1.657  -1.710  1.00  0.00     0.088 A 
HETATM    9  C11 UNL     1       1.594  -1.068  -1.076  1.00  0.00     0.050 A 
HETATM   10  C12 UNL     1       2.681  -1.839  -0.727  1.00  0.00     0.024 A 
HETATM   11  N3  UNL     1      -0.554  -0.786  -2.032  1.00  0.00    -0.241 N 
HETATM   12  C19 UNL     1      -1.693  -1.372  -2.697  1.00  0.00     0.263 C 
HETATM   13  O2  UNL     1      -2.557  -0.653  -3.307  1.00  0.00    -0.269 OA
HETATM   14  C20 UNL     1      -1.870  -2.866  -2.672  1.00  0.00     0.280 C 
HETATM   15  O3  UNL     1      -0.620  -3.521  -2.650  1.00  0.00    -0.340 OA
HETATM   16  H8  UNL     1       3.729  -4.996  -0.912  1.00  0.00     0.166 HD
ENDROOT
BRANCH  11  17
HETATM   17  N4  UNL     1      -0.661   0.562  -1.795  1.00  0.00    -0.229 NA
HETATM   18  H11 UNL     1       0.246   1.064  -1.897  1.00  0.00     0.147 HD
BRANCH  17  19
HETATM   19  C13 UNL     1      -1.250   0.942  -0.549  1.00  0.00     0.141 C 
BRANCH  19  20
HETATM   20  C14 UNL     1      -2.662   0.432  -0.381  1.00  0.00     0.288 C 
BRANCH  20  21
HETATM   21  N5  UNL     1      -3.257   0.825   0.894  1.00  0.00     0.093 N 
HETATM   22  C15 UNL     1      -4.603   0.233   0.853  1.00  0.00     0.298 C 
HETATM   23  C16 UNL     1      -5.465   0.719   1.987  1.00  0.00     0.198 C 
HETATM   24  O1  UNL     1      -5.377   2.097   2.170  1.00  0.00    -0.388 OA
HETATM   25  C17 UNL     1      -4.891   2.670   1.009  1.00  0.00     0.198 C 
HETATM   26  C18 UNL     1      -3.415   2.268   0.914  1.00  0.00     0.298 C 
ENDBRANCH  20  21
ENDBRANCH  19  20
ENDBRANCH  17  19
ENDBRANCH  11  17
BRANCH   1  27
HETATM   27  C5  UNL     1       3.582  -0.439   1.782  1.00  0.00     0.038 C 
HETATM   28  C4  UNL     1       3.614   0.814   2.202  1.00  0.00     0.045 C 
BRANCH  28  29
HETATM   29  C3  UNL     1       4.089   1.873   1.322  1.00  0.00     0.112 C 
HETATM   30  C2  UNL     1       4.100   3.101   1.789  1.00  0.00     0.011 C 
HETATM   31  C1  UNL     1       4.529   4.322   1.097  1.00  0.00     0.039 C 
HETATM   32  F1  UNL     1       4.500   1.600   0.076  1.00  0.00    -0.206 F 
ENDBRANCH  28  29
ENDBRANCH   1  27
TORSDOF 6
