REMARK  7 active torsions:
REMARK  status: ('A' for Active; 'I' for Inactive)
REMARK    1  A    between atoms: C2_2  and  C3_3 
REMARK    2  A    between atoms: C2_2  and  N1_5 
REMARK    3  A    between atoms: N1_5  and  C4_6 
REMARK    4  A    between atoms: N1_5  and  C9_13 
REMARK    5  A    between atoms: C4_6  and  C5_7 
REMARK    6  A    between atoms: C14_20  and  N5_21 
REMARK    7  A    between atoms: N5_21  and  C15_22 
ROOT
HETATM    1  C9  UNL     1      -0.584  -1.645  -0.495  1.00  0.00     0.031 A 
HETATM    2  C10 UNL     1      -0.383  -3.017  -0.571  1.00  0.00     0.031 A 
HETATM    3  C11 UNL     1       0.841  -3.649  -0.572  1.00  0.00     0.035 A 
HETATM    4  C12 UNL     1       1.992  -2.890  -0.492  1.00  0.00     0.072 A 
HETATM    5  N3  UNL     1       3.180  -3.486  -0.491  1.00  0.00    -0.241 NA
HETATM    6  C13 UNL     1       4.321  -2.787  -0.415  1.00  0.00     0.236 A 
HETATM    7  N4  UNL     1       4.181  -1.469  -0.340  1.00  0.00    -0.224 NA
HETATM    8  C14 UNL     1       3.031  -0.789  -0.334  1.00  0.00     0.142 A 
HETATM    9  C21 UNL     1       1.870  -1.518  -0.413  1.00  0.00     0.041 A 
HETATM   10  C22 UNL     1       0.616  -0.975  -0.418  1.00  0.00     0.047 A 
ENDROOT
BRANCH   1  11
HETATM   11  N1  UNL     1      -1.874  -1.042  -0.521  1.00  0.00    -0.372 N 
BRANCH  11  12
HETATM   12  C2  UNL     1      -3.106  -1.736  -0.716  1.00  0.00     0.114 C 
HETATM   13  C1  UNL     1      -3.066  -2.807  -1.804  1.00  0.00     0.035 C 
BRANCH  12  14
HETATM   14  C3  UNL     1      -3.550  -2.466   0.517  1.00  0.00     0.415 C 
HETATM   15  O1  UNL     1      -4.178  -3.149   1.327  1.00  0.00    -0.428 OA
ENDBRANCH  12  14
ENDBRANCH  11  12
BRANCH  11  16
HETATM   16  C4  UNL     1      -1.972   0.366  -0.250  1.00  0.00     0.161 C 
BRANCH  16  17
HETATM   17  C5  UNL     1      -2.463   0.806   1.073  1.00  0.00     0.261 C 
HETATM   18  C6  UNL     1      -3.816   0.442   1.528  1.00  0.00     0.204 C 
HETATM   19  O2  UNL     1      -4.353   1.569   2.233  1.00  0.00    -0.387 OA
HETATM   20  C7  UNL     1      -4.799   2.416   1.193  1.00  0.00     0.197 C 
HETATM   21  C8  UNL     1      -3.521   2.880   0.512  1.00  0.00     0.296 C 
HETATM   22  N2  UNL     1      -2.343   2.277   1.090  1.00  0.00     0.093 N 
HETATM   23  H15 UNL     1      -2.386   2.534   2.122  1.00  0.00     0.316 HD
ENDBRANCH  16  17
ENDBRANCH  11  16
ENDBRANCH   1  11
BRANCH   8  24
HETATM   24  N5  UNL     1       3.011   0.621  -0.250  1.00  0.00    -0.340 N 
HETATM   25  H19 UNL     1       2.131   1.174  -0.218  1.00  0.00     0.167 HD
BRANCH  24  26
HETATM   26  C15 UNL     1       4.123   1.495  -0.200  1.00  0.00     0.035 A 
HETATM   27  C16 UNL     1       5.417   1.145  -0.519  1.00  0.00     0.032 A 
HETATM   28  C17 UNL     1       6.510   1.981  -0.461  1.00  0.00     0.046 A 
HETATM   29  C18 UNL     1       6.310   3.281  -0.051  1.00  0.00     0.138 A 
HETATM   30  F1  UNL     1       7.332   4.166   0.034  1.00  0.00    -0.204 F 
HETATM   31  C19 UNL     1       5.063   3.718   0.285  1.00  0.00     0.074 A 
HETATM   32 CL1  UNL     1       4.785   5.358   0.807  1.00  0.00    -0.081 Cl
HETATM   33  C20 UNL     1       4.028   2.818   0.199  1.00  0.00     0.056 A 
ENDBRANCH  24  26
ENDBRANCH   8  24
TORSDOF 7
