REMARK  2 active torsions:
REMARK  status: ('A' for Active; 'I' for Inactive)
REMARK    1  A    between atoms: C1_2  and  N2_3 
REMARK    2  A    between atoms: C2_4  and  C3_5 
ROOT
HETATM    1  C3  UNL     1       2.090   0.049  -0.940  1.00  0.00     0.185 C 
HETATM    2  C4  UNL     1       1.675   0.268   0.492  1.00  0.00     0.012 C 
HETATM    3  C5  UNL     1       0.459   0.224   1.064  1.00  0.00     0.029 C 
HETATM    4  C6  UNL     1      -0.865  -0.044   0.524  1.00  0.00     0.042 C 
HETATM    5  C7  UNL     1      -1.343  -0.109  -0.708  1.00  0.00     0.041 C 
HETATM    6  C8  UNL     1      -2.679  -0.380  -1.223  1.00  0.00     0.059 C 
HETATM    7  C9  UNL     1      -3.903  -0.377  -0.667  1.00  0.00     0.117 C 
HETATM    8  F1  UNL     1      -4.940  -0.690  -1.492  1.00  0.00    -0.206 F 
HETATM    9  C10 UNL     1      -4.378  -0.094   0.703  1.00  0.00     0.040 C 
HETATM   10  C11 UNL     1      -3.766  -0.298   1.857  1.00  0.00    -0.004 C 
HETATM   11  C12 UNL     1      -2.536  -0.801   2.469  1.00  0.00     0.147 C 
HETATM   12  N3  UNL     1      -1.387  -0.196   1.838  1.00  0.00    -0.386 N 
HETATM   13  C13 UNL     1      -0.896   0.027  -2.089  1.00  0.00     0.185 C 
HETATM   14  O1  UNL     1      -1.836  -0.032  -2.894  1.00  0.00    -0.290 OA
HETATM   15  C14 UNL     1       0.481   0.217  -2.604  1.00  0.00     0.253 C 
HETATM   16  O2  UNL     1       1.302   0.874  -1.714  1.00  0.00    -0.369 OA
HETATM   17  H12 UNL     1      -0.704   0.288   2.493  1.00  0.00     0.160 HD
ENDROOT
BRANCH   1  18
HETATM   18  C2  UNL     1       3.538   0.339  -1.010  1.00  0.00     0.126 C 
HETATM   19  N2  UNL     1       4.282   0.312   0.063  1.00  0.00    -0.256 NA
BRANCH  19  20
HETATM   20  C1  UNL     1       5.659   0.574   0.084  1.00  0.00     0.222 C 
HETATM   21  N1  UNL     1       5.744   0.449   1.367  1.00  0.00    -0.293 NA
HETATM   22  H1  UNL     1       4.948   0.228   1.995  1.00  0.00     0.187 HD
ENDBRANCH  19  20
ENDBRANCH   1  18
TORSDOF 2
