REMARK  6 active torsions:
REMARK  status: ('A' for Active; 'I' for Inactive)
REMARK    1  A    between atoms: C5_5  and  N1_6 
REMARK    2  A    between atoms: N1_6  and  C6_7 
REMARK    3  A    between atoms: N4_17  and  C14_18 
REMARK    4  A    between atoms: C14_18  and  C15_19 
REMARK    5  A    between atoms: C15_19  and  C16_20 
REMARK    6  A    between atoms: C16_20  and  N5_21 
ROOT
HETATM    1  C6  UNL     1       2.956  -1.486  -0.624  1.00  0.00     0.142 A 
HETATM    2  N2  UNL     1       3.944  -2.367  -0.457  1.00  0.00    -0.224 NA
HETATM    3  C7  UNL     1       3.878  -3.686  -0.532  1.00  0.00     0.236 A 
HETATM    4  N3  UNL     1       2.695  -4.252  -0.806  1.00  0.00    -0.241 NA
HETATM    5  C8  UNL     1       1.603  -3.456  -0.999  1.00  0.00     0.075 A 
HETATM    6  C9  UNL     1       0.419  -4.099  -1.279  1.00  0.00     0.071 A 
HETATM    7  C10 UNL     1      -0.721  -3.352  -1.487  1.00  0.00     0.098 A 
HETATM    8  C11 UNL     1      -0.646  -1.978  -1.409  1.00  0.00     0.071 A 
HETATM    9  C12 UNL     1       0.575  -1.414  -1.124  1.00  0.00     0.050 A 
HETATM   10  C13 UNL     1       1.753  -2.090  -0.905  1.00  0.00     0.041 A 
HETATM   11  N4  UNL     1      -1.820  -1.198  -1.625  1.00  0.00    -0.314 N 
HETATM   12  C21 UNL     1      -3.043  -1.906  -1.919  1.00  0.00     0.248 C 
HETATM   13  O2  UNL     1      -4.018  -1.318  -2.472  1.00  0.00    -0.271 OA
HETATM   14  C22 UNL     1      -3.178  -3.361  -1.570  1.00  0.00     0.279 C 
HETATM   15  O3  UNL     1      -1.921  -3.980  -1.769  1.00  0.00    -0.340 OA
ENDROOT
BRANCH   1  16
HETATM   16  N1  UNL     1       3.029  -0.080  -0.544  1.00  0.00    -0.340 N 
HETATM   17  H5  UNL     1       2.202   0.516  -0.667  1.00  0.00     0.167 HD
BRANCH  16  18
HETATM   18  C5  UNL     1       4.186   0.697  -0.296  1.00  0.00     0.034 A 
HETATM   19  C4  UNL     1       5.448   0.171  -0.283  1.00  0.00     0.030 A 
HETATM   20  C3  UNL     1       6.582   0.896  -0.036  1.00  0.00     0.013 A 
HETATM   21  C2  UNL     1       6.501   2.267   0.224  1.00  0.00    -0.036 A 
HETATM   22  C1  UNL     1       7.594   2.975   0.464  1.00  0.00     0.024 C 
HETATM   23  C24 UNL     1       5.250   2.832   0.220  1.00  0.00    -0.034 A 
HETATM   24  C23 UNL     1       4.152   2.049  -0.035  1.00  0.00     0.041 A 
HETATM   25  C25 UNL     1       5.075   4.119   0.457  1.00  0.00     0.024 C 
ENDBRANCH  16  18
ENDBRANCH   1  16
BRANCH  11  26
HETATM   26  C14 UNL     1      -1.797   0.204  -1.556  1.00  0.00     0.134 C 
BRANCH  26  27
HETATM   27  C15 UNL     1      -2.088   0.657  -0.132  1.00  0.00     0.050 C 
BRANCH  27  28
HETATM   28  C16 UNL     1      -3.433   0.183   0.316  1.00  0.00     0.274 C 
BRANCH  28  29
HETATM   29  N5  UNL     1      -3.797   0.565   1.653  1.00  0.00     0.092 N 
HETATM   30  C17 UNL     1      -4.011   1.993   1.782  1.00  0.00     0.298 C 
HETATM   31  C18 UNL     1      -5.249   2.469   1.044  1.00  0.00     0.198 C 
HETATM   32  O1  UNL     1      -6.375   1.924   1.679  1.00  0.00    -0.388 OA
HETATM   33  C19 UNL     1      -6.085   0.887   2.530  1.00  0.00     0.198 C 
HETATM   34  C20 UNL     1      -5.058  -0.072   1.968  1.00  0.00     0.298 C 
ENDBRANCH  28  29
ENDBRANCH  27  28
ENDBRANCH  26  27
ENDBRANCH  11  26
TORSDOF 6
