REMARK  9 active torsions:
REMARK  status: ('A' for Active; 'I' for Inactive)
REMARK    1  A    between atoms: C7_11  and  N3_12 
REMARK    2  A    between atoms: N3_12  and  C8_13 
REMARK    3  A    between atoms: C8_13  and  S1_14 
REMARK    4  A    between atoms: S1_14  and  C9_15 
REMARK    5  A    between atoms: C10_16  and  C11_17 
REMARK    6  A    between atoms: N4_22  and  C15_23 
REMARK    7  A    between atoms: C15_23  and  C16_24 
REMARK    8  A    between atoms: C16_24  and  C17_25 
REMARK    9  A    between atoms: C17_25  and  N5_26 
ROOT
HETATM    1  O1  UNL     1      -4.056   1.626  -1.523  1.00  0.00    -0.271 OA
HETATM    2  C1  UNL     1      -2.917   2.146  -1.342  1.00  0.00     0.248 C 
HETATM    3  C2  UNL     1      -2.771   3.583  -1.712  1.00  0.00     0.279 C 
HETATM    4  O2  UNL     1      -1.495   3.807  -2.284  1.00  0.00    -0.340 OA
HETATM    5  C3  UNL     1      -0.355   3.159  -1.791  1.00  0.00     0.098 A 
HETATM    6  C4  UNL     1       0.855   3.731  -2.064  1.00  0.00     0.071 A 
HETATM    7  C5  UNL     1       1.999   3.126  -1.598  1.00  0.00     0.075 A 
HETATM    8  N1  UNL     1       3.273   3.569  -1.796  1.00  0.00    -0.241 NA
HETATM    9  C6  UNL     1       4.312   2.870  -1.287  1.00  0.00     0.236 A 
HETATM   10  N2  UNL     1       4.147   1.719  -0.572  1.00  0.00    -0.223 NA
HETATM   11  C7  UNL     1       2.903   1.255  -0.359  1.00  0.00     0.149 A 
HETATM   12  C12 UNL     1       1.841   1.962  -0.875  1.00  0.00     0.042 A 
HETATM   13  C13 UNL     1       0.641   1.366  -0.585  1.00  0.00     0.050 A 
HETATM   14  C14 UNL     1      -0.489   1.975  -1.052  1.00  0.00     0.071 A 
HETATM   15  N4  UNL     1      -1.799   1.459  -0.823  1.00  0.00    -0.314 N 
ENDROOT
BRANCH  15  16
HETATM   16  C15 UNL     1      -2.037   0.249  -0.079  1.00  0.00     0.134 C 
BRANCH  16  17
HETATM   17  C16 UNL     1      -2.036  -0.983  -0.902  1.00  0.00     0.040 C 
BRANCH  17  18
HETATM   18  C17 UNL     1      -2.281  -2.187  -0.032  1.00  0.00     0.118 C 
BRANCH  18  19
HETATM   19  N5  UNL     1      -3.512  -2.190   0.681  1.00  0.00    -0.408 N 
HETATM   20  C18 UNL     1      -4.660  -2.301  -0.118  1.00  0.00     0.143 C 
HETATM   21  C19 UNL     1      -5.728  -1.258   0.248  1.00  0.00     0.187 C 
HETATM   22  O3  UNL     1      -5.930  -1.384   1.600  1.00  0.00    -0.388 OA
HETATM   23  C20 UNL     1      -4.844  -1.023   2.384  1.00  0.00     0.187 C 
HETATM   24  C21 UNL     1      -3.575  -1.723   1.986  1.00  0.00     0.143 C 
ENDBRANCH  18  19
ENDBRANCH  17  18
ENDBRANCH  16  17
ENDBRANCH  15  16
BRANCH  11  25
HETATM   25  N3  UNL     1       2.729   0.033   0.391  1.00  0.00    -0.300 N 
HETATM   26  H5  UNL     1       1.914  -0.476   0.737  1.00  0.00     0.177 HD
BRANCH  25  27
HETATM   27  C8  UNL     1       3.879  -0.585   0.721  1.00  0.00     0.010 C 
BRANCH  27  28
HETATM   28  S1  UNL     1       5.129  -1.259   1.053  1.00  0.00    -0.041 SA
BRANCH  28  29
HETATM   29  C9  UNL     1       6.614  -2.049   1.417  1.00  0.00     0.058 C 
HETATM   30  C10 UNL     1       7.571  -2.048   0.513  1.00  0.00     0.012 C 
BRANCH  30  31
HETATM   31  C11 UNL     1       8.857  -2.719   0.803  1.00  0.00     0.250 C 
HETATM   32  F1  UNL     1       8.886  -3.286   2.046  1.00  0.00    -0.251 F 
ENDBRANCH  30  31
ENDBRANCH  28  29
ENDBRANCH  27  28
ENDBRANCH  25  27
ENDBRANCH  11  25
TORSDOF 9
