REMARK  7 active torsions:
REMARK  status: ('A' for Active; 'I' for Inactive)
REMARK    1  A    between atoms: C3_3  and  C4_4 
REMARK    2  A    between atoms: C4_4  and  C5_5 
REMARK    3  A    between atoms: C4_4  and  C20_25 
REMARK    4  A    between atoms: C5_5  and  C6_6 
REMARK    5  A    between atoms: C6_6  and  N1_7 
REMARK    6  A    between atoms: N1_7  and  C7_8 
REMARK    7  A    between atoms: C12_14  and  O1_15 
ROOT
HETATM    1  C7  UNL     1       0.667  -1.298   0.003  1.00  0.00     0.156 C 
HETATM    2  C8  UNL     1       0.868  -0.702  -1.130  1.00  0.00     0.129 C 
HETATM    3  N2  UNL     1       0.466   0.478  -1.275  1.00  0.00    -0.280 NA
HETATM    4  C9  UNL     1      -0.707   0.941  -0.631  1.00  0.00     0.178 C 
HETATM    5  C10 UNL     1      -1.958   0.975  -1.418  1.00  0.00     0.011 C 
HETATM    6  C11 UNL     1      -3.031   0.282  -0.988  1.00  0.00     0.020 C 
HETATM    7  C12 UNL     1      -4.188   0.430  -1.895  1.00  0.00     0.080 C 
HETATM    8  C14 UNL     1      -5.475   0.521  -1.512  1.00  0.00     0.037 C 
HETATM    9  C15 UNL     1      -6.090   0.510  -0.205  1.00  0.00    -0.001 C 
HETATM   10  C16 UNL     1      -5.421   0.173   0.877  1.00  0.00    -0.021 C 
HETATM   11  C17 UNL     1      -4.088  -0.269   1.338  1.00  0.00     0.087 C 
HETATM   12  C18 UNL     1      -3.163  -0.566   0.227  1.00  0.00     0.052 C 
HETATM   13  N3  UNL     1      -2.376  -1.596   0.181  1.00  0.00    -0.245 NA
HETATM   14  C19 UNL     1      -1.539  -1.739  -0.991  1.00  0.00     0.235 C 
HETATM   15  N4  UNL     1      -0.687  -1.483  -0.168  1.00  0.00    -0.222 NA
ENDROOT
BRANCH   1  16
HETATM   16  N1  UNL     1       1.418  -1.702   1.105  1.00  0.00    -0.369 N 
HETATM   17  H9  UNL     1       1.354  -2.742   0.889  1.00  0.00     0.161 HD
BRANCH  16  18
HETATM   18  C6  UNL     1       2.179  -1.313   2.295  1.00  0.00     0.149 C 
BRANCH  18  19
HETATM   19  C5  UNL     1       3.418  -0.647   1.959  1.00  0.00     0.000 C 
BRANCH  19  20
HETATM   20  C4  UNL     1       4.438  -0.108   1.349  1.00  0.00    -0.051 C 
BRANCH  20  21
HETATM   21  C3  UNL     1       5.633   0.566   1.818  1.00  0.00     0.003 C 
HETATM   22  C2  UNL     1       6.718   1.138   1.401  1.00  0.00    -0.030 C 
HETATM   23  C1  UNL     1       7.387   1.445   0.119  1.00  0.00     0.036 C 
ENDBRANCH  20  21
BRANCH  20  24
HETATM   24  C20 UNL     1       4.361  -0.243  -0.126  1.00  0.00     0.123 C 
HETATM   25 BR1  UNL     1       4.252   1.484  -0.999  1.00  0.00    -0.091 Br
ENDBRANCH  20  24
ENDBRANCH  19  20
ENDBRANCH  18  19
ENDBRANCH  16  18
ENDBRANCH   1  16
BRANCH   7  26
HETATM   26  O1  UNL     1      -3.807   0.472  -3.252  1.00  0.00    -0.355 OA
HETATM   27  C13 UNL     1      -4.861   0.103  -4.139  1.00  0.00     0.210 C 
ENDBRANCH   7  26
TORSDOF 7
