REMARK  4 active torsions:
REMARK  status: ('A' for Active; 'I' for Inactive)
REMARK    1  A    between atoms: P1_2  and  C1_3 
REMARK    2  A    between atoms: C4_7  and  S1_8 
REMARK    3  A    between atoms: S1_8  and  N2_9 
REMARK    4  A    between atoms: N2_9  and  C5_10 
ROOT
HETATM    1  C1  UNL     1      -3.852   0.687   0.394  1.00  0.00     0.003 C 
HETATM    2  C2  UNL     1      -2.739   0.901   1.069  1.00  0.00     0.018 C 
HETATM    3  C3  UNL     1      -2.102  -0.398   1.003  1.00  0.00     0.142 A 
HETATM    4  N1  UNL     1      -0.689  -0.568   0.900  1.00  0.00    -0.371 N 
HETATM    5  C4  UNL     1      -0.797  -1.284  -0.349  1.00  0.00     0.096 A 
HETATM    6  C11 UNL     1      -2.118  -1.109  -0.251  1.00  0.00     0.003 A 
HETATM    7  C12 UNL     1      -3.419  -1.295  -0.909  1.00  0.00     0.013 C 
HETATM    8  C13 UNL     1      -4.314  -0.336  -0.573  1.00  0.00     0.015 C 
HETATM    9  H3  UNL     1       0.179  -0.314   1.452  1.00  0.00     0.161 HD
ENDROOT
BRANCH   5  10
HETATM   10  S1  UNL     1       0.347  -2.047  -1.485  1.00  0.00     0.004 SA
BRANCH  10  11
HETATM   11  N2  UNL     1       1.998  -1.898  -0.975  1.00  0.00    -0.325 N 
HETATM   12  H4  UNL     1       2.427  -2.848  -0.918  1.00  0.00     0.174 HD
BRANCH  11  13
HETATM   13  C5  UNL     1       2.690  -0.694  -0.674  1.00  0.00     0.040 A 
HETATM   14  C6  UNL     1       1.989   0.488  -0.795  1.00  0.00     0.033 A 
HETATM   15  C7  UNL     1       2.693   1.635  -0.495  1.00  0.00     0.046 A 
HETATM   16  C8  UNL     1       4.014   1.577  -0.100  1.00  0.00     0.138 A 
HETATM   17  F1  UNL     1       4.768   2.657   0.210  1.00  0.00    -0.204 F 
HETATM   18  C9  UNL     1       4.673   0.354   0.005  1.00  0.00     0.074 A 
HETATM   19 CL1  UNL     1       6.365   0.219   0.506  1.00  0.00    -0.081 Cl
HETATM   20  C10 UNL     1       4.009  -0.819  -0.285  1.00  0.00     0.057 A 
ENDBRANCH  11  13
ENDBRANCH  10  11
ENDBRANCH   5  10
BRANCH   1  21
HETATM   21  P1  UNL     1      -5.046   2.113   0.247  1.00  0.00     0.161 P 
HETATM   22  O1  UNL     1      -4.786   3.446   0.956  1.00  0.00    -0.198 OA
ENDBRANCH   1  21
TORSDOF 4
