REMARK  2 active torsions:
REMARK  status: ('A' for Active; 'I' for Inactive)
REMARK    1  A    between atoms: C5_9  and  C6_10 
REMARK    2  A    between atoms: C16_23  and  N4_24 
ROOT
HETATM    1  O1  UNL     1      -3.943  -0.784   0.495  1.00  0.00    -0.296 OA
HETATM    2  C1  UNL     1      -2.764  -0.548   0.171  1.00  0.00     0.151 C 
HETATM    3  C2  UNL     1      -2.127  -1.849  -0.167  1.00  0.00     0.088 C 
HETATM    4  O2  UNL     1      -0.823  -1.761  -0.655  1.00  0.00     0.000 OA
HETATM    5  C3  UNL     1       0.050  -2.832  -0.802  1.00  0.00     0.137 A 
HETATM    6  N1  UNL     1       0.381  -1.649  -0.947  1.00  0.00    -0.253 N 
HETATM    7  C4  UNL     1       1.556  -0.971  -1.263  1.00  0.00     0.233 C 
HETATM    8  N2  UNL     1       2.573  -0.665  -0.663  1.00  0.00    -0.241 NA
HETATM    9  C5  UNL     1       3.202  -0.745   0.542  1.00  0.00     0.068 C 
HETATM   10  C12 UNL     1       2.957  -0.395   1.833  1.00  0.00     0.034 C 
HETATM   11  C13 UNL     1       1.814   0.261   2.415  1.00  0.00     0.019 C 
HETATM   12  C14 UNL     1       0.622   0.811   2.224  1.00  0.00     0.083 C 
HETATM   13  N3  UNL     1      -0.219   1.036   1.097  1.00  0.00    -0.396 N 
HETATM   14  C15 UNL     1      -1.101   1.337   0.024  1.00  0.00     0.151 C 
HETATM   15  C16 UNL     1      -2.521   0.913   0.264  1.00  0.00     0.167 C 
HETATM   16  H11 UNL     1       0.272   0.192   0.819  1.00  0.00     0.158 HD
ENDROOT
BRANCH   9  17
HETATM   17  C6  UNL     1       4.538  -1.355   0.340  1.00  0.00    -0.006 A 
HETATM   18  C7  UNL     1       5.541  -1.480   1.265  1.00  0.00     0.017 A 
HETATM   19  C8  UNL     1       6.792  -2.048   1.167  1.00  0.00     0.045 A 
HETATM   20  C9  UNL     1       7.070  -2.582  -0.093  1.00  0.00     0.138 A 
HETATM   21  F1  UNL     1       8.249  -3.171  -0.356  1.00  0.00    -0.204 F 
HETATM   22  C10 UNL     1       6.157  -2.519  -1.085  1.00  0.00     0.073 A 
HETATM   23 CL1  UNL     1       6.489  -3.195  -2.689  1.00  0.00    -0.081 Cl
HETATM   24  C11 UNL     1       4.934  -1.927  -0.879  1.00  0.00     0.040 A 
ENDBRANCH   9  17
BRANCH  15  25
HETATM   25  N4  UNL     1      -3.517   1.685  -0.330  1.00  0.00    -0.396 N 
HETATM   26  C17 UNL     1      -3.386   3.096  -0.277  1.00  0.00     0.144 C 
HETATM   27  C18 UNL     1      -4.814   3.627  -0.042  1.00  0.00     0.187 C 
HETATM   28  O3  UNL     1      -5.626   3.337  -1.112  1.00  0.00    -0.388 OA
HETATM   29  C19 UNL     1      -5.415   2.151  -1.748  1.00  0.00     0.187 C 
HETATM   30  C20 UNL     1      -4.675   1.136  -0.874  1.00  0.00     0.144 C 
ENDBRANCH  15  25
TORSDOF 2
