REMARK  4 active torsions:
REMARK  status: ('A' for Active; 'I' for Inactive)
REMARK    1  A    between atoms: C2_2  and  O1_4 
REMARK    2  A    between atoms: O1_4  and  C4_5 
REMARK       I    between atoms: C4_5  and  N1_7 
REMARK    3  A    between atoms: N1_7  and  C5_8 
REMARK    4  A    between atoms: C5_8  and  C6_9 
ROOT
HETATM    1  C6  UNL     1      -0.966  -0.490  -1.490  1.00  0.00     0.091 A 
HETATM    2  C7  UNL     1      -1.808  -1.527  -2.134  1.00  0.00     0.068 A 
HETATM    3  C8  UNL     1      -0.530  -1.982  -2.714  1.00  0.00     0.004 A 
HETATM    4  C9  UNL     1       0.275  -1.065  -2.153  1.00  0.00     0.035 A 
HETATM    5  N2  UNL     1       1.653  -0.613  -2.045  1.00  0.00    -0.360 N 
HETATM    6  C10 UNL     1       2.473  -1.036  -3.169  1.00  0.00     0.152 C 
HETATM    7  C11 UNL     1       2.285   0.185  -0.979  1.00  0.00     0.245 C 
HETATM    8  N3  UNL     1       3.487  -0.644  -0.617  1.00  0.00    -0.244 NA
HETATM    9  C12 UNL     1       4.260  -0.461   0.435  1.00  0.00     0.129 C 
HETATM   10  N4  UNL     1       3.559   0.262   1.699  1.00  0.00    -0.233 NA
HETATM   11  C13 UNL     1       2.510   0.205   0.963  1.00  0.00     0.207 C 
HETATM   12  N5  UNL     1       2.331  -1.114   1.902  1.00  0.00    -0.364 N 
HETATM   13  C14 UNL     1       3.347  -2.098   2.582  1.00  0.00     0.082 C 
HETATM   14  C15 UNL     1       4.736  -1.781   2.399  1.00  0.00     0.002 C 
HETATM   15  C16 UNL     1       5.395  -0.920   1.185  1.00  0.00     0.076 C 
HETATM   16  C17 UNL     1       6.156   0.129   1.876  1.00  0.00     0.022 C 
HETATM   17  C18 UNL     1       1.336  -0.050   0.252  1.00  0.00     0.034 C 
HETATM   18  C19 UNL     1       0.208  -0.359   0.851  1.00  0.00     0.095 C 
HETATM   19  N6  UNL     1      -0.853  -0.697  -0.068  1.00  0.00    -0.382 N 
HETATM   20  H18 UNL     1       1.410  -1.650   2.256  1.00  0.00     0.162 HD
HETATM   21  H26 UNL     1      -1.546  -1.174   0.588  1.00  0.00     0.160 HD
ENDROOT
BRANCH   1  22
HETATM   22  C5  UNL     1      -1.267   0.896  -1.921  1.00  0.00     0.162 C 
BRANCH  22  23
HETATM   23  N1  UNL     1      -2.620   1.275  -1.642  1.00  0.00    -0.334 N 
HETATM   24  C4  UNL     1      -3.322   1.403  -0.427  1.00  0.00     0.360 C 
HETATM   25  O2  UNL     1      -2.762   1.177   0.648  1.00  0.00    -0.239 OA
HETATM   26  H8  UNL     1      -3.285   1.523  -2.438  1.00  0.00     0.164 HD
BRANCH  24  27
HETATM   27  O1  UNL     1      -4.622   1.765  -0.248  1.00  0.00    -0.299 OA
BRANCH  27  28
HETATM   28  C2  UNL     1      -5.266   1.874   0.999  1.00  0.00     0.125 C 
HETATM   29  C1  UNL     1      -5.706   3.286   1.314  1.00  0.00     0.040 C 
HETATM   30  C3  UNL     1      -6.405   0.889   1.143  1.00  0.00     0.040 C 
ENDBRANCH  27  28
ENDBRANCH  24  27
ENDBRANCH  22  23
ENDBRANCH   1  22
TORSDOF 4
