REMARK  5 active torsions:
REMARK  status: ('A' for Active; 'I' for Inactive)
REMARK    1  A    between atoms: C7_7  and  N1_8 
REMARK    2  A    between atoms: N1_8  and  C8_9 
REMARK    3  A    between atoms: C14_17  and  C15_18 
REMARK    4  A    between atoms: C15_18  and  C16_19 
REMARK    5  A    between atoms: C16_19  and  N4_20 
ROOT
HETATM    1  C1  UNL     1       8.647   0.632  -0.180  1.00  0.00     0.018 C 
HETATM    2  C2  UNL     1       7.565   1.155  -0.261  1.00  0.00    -0.078 C 
HETATM    3  C3  UNL     1       6.282   1.782  -0.381  1.00  0.00     0.019 A 
HETATM    4  C4  UNL     1       6.276   3.155  -0.477  1.00  0.00     0.021 A 
HETATM    5  C5  UNL     1       5.081   3.800  -0.594  1.00  0.00     0.004 A 
HETATM    6  C6  UNL     1       3.938   3.059  -0.612  1.00  0.00     0.029 A 
HETATM    7  C7  UNL     1       3.826   1.672  -0.523  1.00  0.00     0.035 A 
HETATM    8  C24 UNL     1       5.090   1.092  -0.406  1.00  0.00     0.050 A 
ENDROOT
BRANCH   7   9
HETATM    9  N1  UNL     1       2.634   0.935  -0.563  1.00  0.00    -0.340 N 
HETATM   10  H5  UNL     1       1.993   1.500  -1.197  1.00  0.00     0.167 HD
BRANCH   9  11
HETATM   11  C8  UNL     1       2.411  -0.296   0.124  1.00  0.00     0.141 A 
HETATM   12  N2  UNL     1       3.445  -0.626   0.903  1.00  0.00    -0.224 NA
HETATM   13  C9  UNL     1       3.413  -1.749   1.622  1.00  0.00     0.236 A 
HETATM   14  N3  UNL     1       2.307  -2.489   1.509  1.00  0.00    -0.239 NA
HETATM   15  C10 UNL     1       1.246  -2.193   0.739  1.00  0.00     0.093 A 
HETATM   16  C11 UNL     1       1.267  -1.051  -0.001  1.00  0.00     0.037 A 
HETATM   17  C23 UNL     1       0.368  -3.153   0.923  1.00  0.00     0.167 C 
HETATM   18  C12 UNL     1       0.325  -0.611  -0.816  1.00  0.00    -0.007 C 
HETATM   19  C13 UNL     1      -0.986  -1.210  -1.144  1.00  0.00     0.063 C 
HETATM   20  C14 UNL     1      -2.033  -0.952  -0.096  1.00  0.00     0.226 C 
HETATM   21  N5  UNL     1      -3.166  -1.808  -0.232  1.00  0.00     0.094 N 
HETATM   22  C20 UNL     1      -3.151  -3.061   0.416  1.00  0.00     0.241 C 
HETATM   23  H21 UNL     1      -3.388  -1.983  -1.250  1.00  0.00     0.317 HD
HETATM   24  C21 UNL     1      -4.408  -3.821  -0.018  1.00  0.00     0.045 C 
HETATM   25  C22 UNL     1      -1.976  -3.966   0.207  1.00  0.00     0.209 C 
HETATM   26  O1  UNL     1      -0.792  -3.546   0.572  1.00  0.00    -0.359 OA
BRANCH  20  27
HETATM   27  C15 UNL     1      -2.395   0.542  -0.042  1.00  0.00     0.066 C 
BRANCH  27  28
HETATM   28  C16 UNL     1      -3.438   0.685   1.024  1.00  0.00     0.274 C 
BRANCH  28  29
HETATM   29  N4  UNL     1      -3.914   2.013   1.234  1.00  0.00     0.088 N 
HETATM   30  C17 UNL     1      -4.688   2.634   0.203  1.00  0.00     0.274 C 
HETATM   31  C18 UNL     1      -3.840   3.874   0.397  1.00  0.00     0.060 C 
HETATM   32  C19 UNL     1      -2.956   3.064   1.333  1.00  0.00     0.274 C 
ENDBRANCH  28  29
ENDBRANCH  27  28
ENDBRANCH  20  27
ENDBRANCH   9  11
ENDBRANCH   7   9
TORSDOF 5
