REMARK  6 active torsions:
REMARK  status: ('A' for Active; 'I' for Inactive)
REMARK    1  A    between atoms: C2_2  and  C3_3 
REMARK    2  A    between atoms: C4_4  and  N1_5 
REMARK    3  A    between atoms: N1_5  and  C5_6 
REMARK    4  A    between atoms: N4_20  and  C16_21 
REMARK    5  A    between atoms: C16_21  and  N5_22 
REMARK    6  A    between atoms: C21_28  and  C22_29 
ROOT
HETATM    1  C5  UNL     1       2.714  -1.342  -0.391  1.00  0.00     0.142 A 
HETATM    2  N2  UNL     1       3.561  -1.818  -1.335  1.00  0.00    -0.224 NA
HETATM    3  C6  UNL     1       3.130  -2.309  -2.519  1.00  0.00     0.236 A 
HETATM    4  N3  UNL     1       1.806  -2.321  -2.759  1.00  0.00    -0.241 NA
HETATM    5  C7  UNL     1       0.915  -1.862  -1.863  1.00  0.00     0.075 A 
HETATM    6  C8  UNL     1       1.356  -1.355  -0.640  1.00  0.00     0.050 A 
HETATM    7  C9  UNL     1       0.711  -0.871   0.354  1.00  0.00    -0.006 C 
HETATM    8  C10 UNL     1      -0.579  -1.061   0.582  1.00  0.00     0.045 C 
HETATM    9  C11 UNL     1      -1.713  -1.169  -0.367  1.00  0.00     0.068 C 
HETATM   10  C12 UNL     1      -1.512  -1.575  -1.607  1.00  0.00     0.100 C 
HETATM   11  C13 UNL     1      -0.323  -1.983  -2.341  1.00  0.00     0.071 C 
HETATM   12  O1  UNL     1      -2.749  -1.552  -2.172  1.00  0.00    -0.324 OA
HETATM   13  C14 UNL     1      -3.763  -1.422  -1.197  1.00  0.00     0.227 C 
HETATM   14  C15 UNL     1      -4.224  -2.848  -0.865  1.00  0.00     0.064 C 
HETATM   15  N4  UNL     1      -3.096  -0.863  -0.071  1.00  0.00    -0.336 N 
ENDROOT
BRANCH   1  16
HETATM   16  N1  UNL     1       3.234  -0.836   0.838  1.00  0.00    -0.350 N 
HETATM   17  H6  UNL     1       3.271  -1.714   1.433  1.00  0.00     0.166 HD
BRANCH  16  18
HETATM   18  C4  UNL     1       3.621   0.471   1.229  1.00  0.00     0.090 C 
HETATM   19  C3  UNL     1       4.627   1.319   1.265  1.00  0.00     0.023 C 
BRANCH  19  20
HETATM   20  C2  UNL     1       5.936   0.986   0.758  1.00  0.00    -0.062 C 
HETATM   21  C1  UNL     1       6.244  -0.327   0.164  1.00  0.00     0.048 C 
HETATM   22  C21 UNL     1       6.862   1.923   0.851  1.00  0.00     0.011 C 
BRANCH  22  23
HETATM   23  C22 UNL     1       8.277   1.878   0.423  1.00  0.00     0.250 C 
HETATM   24  F1  UNL     1       8.468   2.892  -0.523  1.00  0.00    -0.251 F 
ENDBRANCH  22  23
ENDBRANCH  19  20
ENDBRANCH  16  18
ENDBRANCH   1  16
BRANCH  15  25
HETATM   25  C16 UNL     1      -3.428  -0.152   1.171  1.00  0.00     0.246 C 
BRANCH  25  26
HETATM   26  N5  UNL     1      -4.159   1.009   0.895  1.00  0.00    -0.393 N 
HETATM   27  C17 UNL     1      -5.530   0.865   0.499  1.00  0.00     0.145 C 
HETATM   28  C18 UNL     1      -5.749   1.951  -0.568  1.00  0.00     0.187 C 
HETATM   29  O2  UNL     1      -5.148   3.125  -0.115  1.00  0.00    -0.388 OA
HETATM   30  C19 UNL     1      -5.011   3.181   1.271  1.00  0.00     0.187 C 
HETATM   31  C20 UNL     1      -4.054   2.116   1.805  1.00  0.00     0.145 C 
ENDBRANCH  25  26
ENDBRANCH  15  25
TORSDOF 6
