REMARK  2 active torsions:
REMARK  status: ('A' for Active; 'I' for Inactive)
REMARK    1  A    between atoms: C7_7  and  N1_8 
REMARK    2  A    between atoms: N1_8  and  C8_9 
ROOT
HETATM    1  C1  UNL     1       8.839  -1.205   3.162  1.00  0.00     0.018 C 
HETATM    2  C2  UNL     1       8.182  -1.015   2.145  1.00  0.00    -0.078 C 
HETATM    3  C3  UNL     1       7.427  -0.777   0.961  1.00  0.00     0.019 A 
HETATM    4  C4  UNL     1       8.039  -0.776  -0.264  1.00  0.00     0.021 A 
HETATM    5  C5  UNL     1       7.297  -0.541  -1.400  1.00  0.00     0.004 A 
HETATM    6  C6  UNL     1       5.945  -0.311  -1.276  1.00  0.00     0.029 A 
HETATM    7  C7  UNL     1       5.247  -0.293  -0.089  1.00  0.00     0.035 A 
HETATM    8  C24 UNL     1       6.083  -0.540   0.995  1.00  0.00     0.050 A 
ENDROOT
BRANCH   7   9
HETATM    9  N1  UNL     1       3.856  -0.031   0.009  1.00  0.00    -0.340 N 
HETATM   10  H5  UNL     1       3.526  -0.425   0.897  1.00  0.00     0.167 HD
BRANCH   9  11
HETATM   11  C8  UNL     1       3.063   0.645  -0.938  1.00  0.00     0.143 A 
HETATM   12  N2  UNL     1       3.604   1.166  -2.030  1.00  0.00    -0.223 NA
HETATM   13  C9  UNL     1       2.935   1.827  -2.980  1.00  0.00     0.236 A 
HETATM   14  N3  UNL     1       1.588   1.975  -2.807  1.00  0.00    -0.241 NA
HETATM   15  C10 UNL     1       1.023   1.446  -1.691  1.00  0.00     0.074 A 
HETATM   16  C11 UNL     1       1.713   0.763  -0.714  1.00  0.00     0.054 A 
HETATM   17  C23 UNL     1      -0.274   1.641  -1.551  1.00  0.00     0.059 A 
HETATM   18  C12 UNL     1       1.057   0.273   0.324  1.00  0.00     0.106 A 
HETATM   19  N4  UNL     1      -0.349   0.425   0.499  1.00  0.00    -0.360 N 
HETATM   20  C13 UNL     1      -0.915  -0.268   1.692  1.00  0.00     0.127 C 
HETATM   21  C22 UNL     1      -1.160   1.195  -0.452  1.00  0.00     0.249 A 
HETATM   22  C14 UNL     1      -2.329  -0.374   1.386  1.00  0.00     0.039 C 
HETATM   23  C15 UNL     1      -3.380  -1.042   2.191  1.00  0.00     0.119 C 
HETATM   24  N5  UNL     1      -4.561  -0.807   1.379  1.00  0.00    -0.398 N 
HETATM   25  C16 UNL     1      -5.425   0.218   1.799  1.00  0.00     0.144 C 
HETATM   26  C19 UNL     1      -4.525  -1.006  -0.008  1.00  0.00     0.175 C 
HETATM   27  C17 UNL     1      -6.817  -0.114   1.260  1.00  0.00     0.187 C 
HETATM   28  O1  UNL     1      -6.807  -0.581  -0.030  1.00  0.00    -0.387 OA
HETATM   29  C18 UNL     1      -5.933  -1.623  -0.281  1.00  0.00     0.200 C 
HETATM   30  C20 UNL     1      -4.518   0.170  -0.918  1.00  0.00     0.174 C 
HETATM   31  O2  UNL     1      -5.539   0.529  -1.537  1.00  0.00    -0.293 OA
HETATM   32  C21 UNL     1      -3.429   1.173  -1.332  1.00  0.00     0.251 C 
HETATM   33  O3  UNL     1      -2.370   0.834  -0.664  1.00  0.00    -0.356 OA
ENDBRANCH   9  11
ENDBRANCH   7   9
TORSDOF 2
