REMARK  7 active torsions:
REMARK  status: ('A' for Active; 'I' for Inactive)
REMARK    1  A    between atoms: C3_3  and  C22_28 
REMARK    2  A    between atoms: C4_4  and  C5_5 
REMARK    3  A    between atoms: N3_15  and  C13_16 
REMARK    4  A    between atoms: C13_16  and  C14_17 
REMARK    5  A    between atoms: C14_17  and  C15_18 
REMARK    6  A    between atoms: C15_18  and  N4_19 
REMARK    7  A    between atoms: C22_28  and  C23_29 
ROOT
HETATM    1  C1  UNL     1       3.909   4.564  -0.621  1.00  0.00     0.017 C 
HETATM    2  C2  UNL     1       4.149   3.407  -0.287  1.00  0.00    -0.082 C 
HETATM    3  C3  UNL     1       4.417   2.025   0.130  1.00  0.00     0.000 C 
HETATM    4  C4  UNL     1       3.613   1.473   1.064  1.00  0.00     0.049 C 
ENDROOT
BRANCH   3   5
HETATM    5  C22 UNL     1       5.596   1.541  -0.632  1.00  0.00     0.074 C 
BRANCH   5   6
HETATM    6  C23 UNL     1       6.010   0.170  -0.330  1.00  0.00    -0.032 C 
HETATM    7  C24 UNL     1       7.225  -0.114   0.155  1.00  0.00     0.007 C 
ENDBRANCH   5   6
ENDBRANCH   3   5
BRANCH   4   8
HETATM    8  C5  UNL     1       3.732   0.133   1.585  1.00  0.00     0.071 A 
HETATM    9  N1  UNL     1       4.682  -0.650   2.133  1.00  0.00    -0.241 NA
HETATM   10  C6  UNL     1       4.390  -1.947   2.467  1.00  0.00     0.234 A 
HETATM   11  N2  UNL     1       3.214  -2.553   2.303  1.00  0.00    -0.245 NA
HETATM   12  C7  UNL     1       2.335  -1.706   1.755  1.00  0.00     0.061 A 
HETATM   13  C8  UNL     1       1.165  -2.282   1.563  1.00  0.00     0.059 A 
HETATM   14  C12 UNL     1       2.542  -0.396   1.390  1.00  0.00     0.017 A 
HETATM   15  C9  UNL     1       0.043  -2.710   1.338  1.00  0.00     0.059 A 
HETATM   16  O2  UNL     1      -0.053  -2.551   1.226  1.00  0.00     0.000 OA
HETATM   17  C10 UNL     1       0.265  -1.228   0.916  1.00  0.00     0.069 A 
HETATM   18  C20 UNL     1      -1.180  -2.054   0.385  1.00  0.00     0.084 A 
HETATM   19  N3  UNL     1      -0.889  -0.656   0.304  1.00  0.00    -0.394 N 
HETATM   20  C21 UNL     1      -1.169  -2.827  -0.866  1.00  0.00     0.032 C 
HETATM   21  C11 UNL     1       1.259  -0.194   0.901  1.00  0.00     0.021 A 
BRANCH  19  22
HETATM   22  C13 UNL     1      -1.278   0.645  -0.067  1.00  0.00     0.120 C 
BRANCH  22  23
HETATM   23  C14 UNL     1      -2.393   1.267   0.736  1.00  0.00     0.050 C 
BRANCH  23  24
HETATM   24  C15 UNL     1      -3.675   0.488   0.703  1.00  0.00     0.274 C 
BRANCH  24  25
HETATM   25  N4  UNL     1      -4.183   0.320  -0.634  1.00  0.00     0.092 N 
HETATM   26  C16 UNL     1      -4.648   1.520  -1.266  1.00  0.00     0.298 C 
HETATM   27  C17 UNL     1      -4.748   1.198  -2.766  1.00  0.00     0.198 C 
HETATM   28  O1  UNL     1      -5.380  -0.018  -2.983  1.00  0.00    -0.388 OA
HETATM   29  C18 UNL     1      -6.117  -0.397  -1.864  1.00  0.00     0.198 C 
HETATM   30  C19 UNL     1      -5.252  -0.650  -0.655  1.00  0.00     0.298 C 
ENDBRANCH  24  25
ENDBRANCH  23  24
ENDBRANCH  22  23
ENDBRANCH  19  22
ENDBRANCH   4   8
TORSDOF 7
