REMARK  5 active torsions:
REMARK  status: ('A' for Active; 'I' for Inactive)
REMARK    1  A    between atoms: N1_6  and  C6_7 
REMARK    2  A    between atoms: N4_17  and  C14_18 
REMARK    3  A    between atoms: C14_18  and  C15_19 
REMARK    4  A    between atoms: C15_19  and  C16_20 
REMARK    5  A    between atoms: C16_20  and  N5_21 
ROOT
HETATM    1  C6  UNL     1      -3.722  -0.571   1.162  1.00  0.00     0.148 A 
HETATM    2  N2  UNL     1      -4.843  -1.265   1.413  1.00  0.00    -0.223 NA
HETATM    3  C7  UNL     1      -4.851  -2.318   2.250  1.00  0.00     0.236 A 
HETATM    4  N3  UNL     1      -3.724  -2.711   2.867  1.00  0.00    -0.241 NA
HETATM    5  C8  UNL     1      -2.573  -2.039   2.641  1.00  0.00     0.075 A 
HETATM    6  C9  UNL     1      -1.462  -2.512   3.318  1.00  0.00     0.071 A 
HETATM    7  C10 UNL     1      -0.275  -1.840   3.104  1.00  0.00     0.098 A 
HETATM    8  C11 UNL     1      -0.176  -0.735   2.251  1.00  0.00     0.071 A 
HETATM    9  C12 UNL     1      -1.313  -0.293   1.591  1.00  0.00     0.050 A 
HETATM   10  C13 UNL     1      -2.526  -0.947   1.783  1.00  0.00     0.042 A 
HETATM   11  N4  UNL     1       1.047  -0.031   2.028  1.00  0.00    -0.314 N 
HETATM   12  C21 UNL     1       2.204  -0.517   2.734  1.00  0.00     0.248 C 
HETATM   13  O2  UNL     1       3.201   0.244   2.885  1.00  0.00    -0.271 OA
HETATM   14  C22 UNL     1       2.173  -1.914   3.262  1.00  0.00     0.279 C 
HETATM   15  O3  UNL     1       0.895  -2.258   3.754  1.00  0.00    -0.340 OA
ENDROOT
BRANCH  11  16
HETATM   16  C14 UNL     1       1.154   1.079   1.179  1.00  0.00     0.134 C 
BRANCH  16  17
HETATM   17  C15 UNL     1       1.501   0.700  -0.262  1.00  0.00     0.050 C 
BRANCH  17  18
HETATM   18  C16 UNL     1       2.794  -0.022  -0.384  1.00  0.00     0.274 C 
BRANCH  18  19
HETATM   19  N5  UNL     1       3.179  -0.401  -1.725  1.00  0.00     0.092 N 
HETATM   20  C17 UNL     1       4.384  -1.161  -1.624  1.00  0.00     0.298 C 
HETATM   21  C18 UNL     1       5.671  -0.442  -1.697  1.00  0.00     0.198 C 
HETATM   22  O1  UNL     1       5.511   0.876  -2.038  1.00  0.00    -0.388 OA
HETATM   23  C19 UNL     1       4.683   0.863  -3.189  1.00  0.00     0.198 C 
HETATM   24  C20 UNL     1       3.279   0.726  -2.621  1.00  0.00     0.298 C 
ENDBRANCH  18  19
ENDBRANCH  17  18
ENDBRANCH  16  17
ENDBRANCH  11  16
BRANCH   1  25
HETATM   25  N1  UNL     1      -3.670   0.560   0.272  1.00  0.00    -0.309 N 
HETATM   26  C4  UNL     1      -3.386   0.270  -1.111  1.00  0.00     0.025 C 
HETATM   27  C3  UNL     1      -2.868   1.216  -1.836  1.00  0.00     0.005 C 
HETATM   28  C5  UNL     1      -3.685  -1.088  -1.690  1.00  0.00     0.070 C 
HETATM   29  C2  UNL     1      -3.480   2.382  -1.729  1.00  0.00    -0.048 C 
HETATM   30  C1  UNL     1      -3.946   3.386  -2.747  1.00  0.00     0.049 C 
HETATM   31  C24 UNL     1      -3.775   2.809  -0.363  1.00  0.00     0.025 C 
HETATM   32  C23 UNL     1      -3.876   1.930   0.650  1.00  0.00     0.099 C 
ENDBRANCH   1  25
TORSDOF 5
