REMARK  5 active torsions:
REMARK  status: ('A' for Active; 'I' for Inactive)
REMARK    1  A    between atoms: C5_7  and  C6_8 
REMARK    2  A    between atoms: C6_8  and  N2_9 
REMARK    3  A    between atoms: C13_19  and  N5_20 
REMARK    4  A    between atoms: N5_20  and  C14_21 
REMARK    5  A    between atoms: C18_25  and  C19_26 
ROOT
HETATM    1  N2  UNL     1      -2.331  -1.373   0.558  1.00  0.00    -0.376 N 
HETATM    2  C7  UNL     1      -3.348  -2.381   0.768  1.00  0.00     0.149 C 
HETATM    3  C8  UNL     1      -3.573  -3.220  -0.478  1.00  0.00     0.195 C 
HETATM    4  O2  UNL     1      -2.368  -3.980  -0.635  1.00  0.00    -0.347 OA
HETATM    5  C9  UNL     1      -1.166  -3.261  -0.448  1.00  0.00     0.097 A 
HETATM    6  C10 UNL     1      -0.036  -3.931  -0.892  1.00  0.00     0.071 A 
HETATM    7  C11 UNL     1       1.177  -3.304  -0.752  1.00  0.00     0.075 A 
HETATM    8  N3  UNL     1       2.261  -4.003  -1.206  1.00  0.00    -0.241 NA
HETATM    9  C12 UNL     1       3.460  -3.425  -1.088  1.00  0.00     0.236 A 
HETATM   10  N4  UNL     1       3.549  -2.222  -0.548  1.00  0.00    -0.224 NA
HETATM   11  C13 UNL     1       2.566  -1.459  -0.077  1.00  0.00     0.142 A 
HETATM   12  C21 UNL     1       1.333  -2.045  -0.193  1.00  0.00     0.041 A 
HETATM   13  C22 UNL     1       0.173  -1.444   0.223  1.00  0.00     0.050 A 
HETATM   14  C23 UNL     1      -1.094  -1.984   0.130  1.00  0.00     0.065 A 
ENDROOT
BRANCH  11  15
HETATM   15  N5  UNL     1       2.714  -0.170   0.484  1.00  0.00    -0.340 N 
HETATM   16  H17 UNL     1       1.919   0.381   0.832  1.00  0.00     0.167 HD
BRANCH  15  17
HETATM   17  C14 UNL     1       3.923   0.543   0.656  1.00  0.00     0.034 A 
HETATM   18  C15 UNL     1       5.177  -0.012   0.537  1.00  0.00     0.029 A 
HETATM   19  C16 UNL     1       6.367   0.665   0.682  1.00  0.00     0.003 A 
HETATM   20  C17 UNL     1       6.335   2.010   0.972  1.00  0.00     0.016 A 
HETATM   21  C18 UNL     1       5.121   2.636   1.106  1.00  0.00     0.050 A 
HETATM   22  C20 UNL     1       3.981   1.889   0.945  1.00  0.00     0.045 A 
BRANCH  21  23
HETATM   23  C19 UNL     1       5.014   4.103   1.420  1.00  0.00     0.417 C 
HETATM   24  F1  UNL     1       5.928   4.729   0.560  1.00  0.00    -0.166 F 
HETATM   25  F2  UNL     1       3.738   4.556   1.173  1.00  0.00    -0.166 F 
HETATM   26  F3  UNL     1       5.381   4.319   2.730  1.00  0.00    -0.166 F 
ENDBRANCH  21  23
ENDBRANCH  15  17
ENDBRANCH  11  15
BRANCH   1  27
HETATM   27  C6  UNL     1      -2.326   0.059   0.659  1.00  0.00     0.137 C 
BRANCH  27  28
HETATM   28  C5  UNL     1      -3.072   0.804  -0.391  1.00  0.00     0.101 C 
HETATM   29  C1  UNL     1      -4.513   0.553  -0.514  1.00  0.00     0.136 C 
HETATM   30  O1  UNL     1      -5.446   0.010   0.076  1.00  0.00    -0.297 OA
HETATM   31  C2  UNL     1      -5.025   1.172  -1.796  1.00  0.00     0.108 C 
HETATM   32  C3  UNL     1      -4.879   2.683  -1.554  1.00  0.00     0.277 C 
HETATM   33  N1  UNL     1      -3.449   2.933  -1.407  1.00  0.00     0.084 N 
HETATM   34  C4  UNL     1      -2.938   2.325  -0.194  1.00  0.00     0.283 C 
HETATM   35  H5  UNL     1      -3.282   3.957  -1.441  1.00  0.00     0.315 HD
ENDBRANCH  27  28
ENDBRANCH   1  27
TORSDOF 5
