REMARK  7 active torsions:
REMARK  status: ('A' for Active; 'I' for Inactive)
REMARK    1  A    between atoms: C4_6  and  N3_7 
REMARK    2  A    between atoms: N3_7  and  C5_8 
REMARK    3  A    between atoms: C9_12  and  C10_13 
REMARK    4  A    between atoms: C13_19  and  C14_20 
REMARK    5  A    between atoms: C18_27  and  C19_28 
REMARK    6  A    between atoms: C19_28  and  C20_29 
REMARK    7  A    between atoms: C20_29  and  N5_30 
ROOT
HETATM    1  C1  UNL     1       0.589   1.427  -3.699  1.00  0.00     0.071 C 
HETATM    2  C2  UNL     1      -0.591   1.764  -2.823  1.00  0.00     0.046 A 
HETATM    3  N1  UNL     1      -1.398   2.647  -3.474  1.00  0.00    -0.246 NA
HETATM    4  C3  UNL     1      -2.503   3.078  -2.860  1.00  0.00     0.235 A 
HETATM    5  N2  UNL     1      -2.832   2.670  -1.644  1.00  0.00    -0.224 NA
HETATM    6  C4  UNL     1      -2.057   1.804  -0.989  1.00  0.00     0.141 A 
HETATM    7  C13 UNL     1      -0.896   1.302  -1.533  1.00  0.00     0.037 A 
ENDROOT
BRANCH   7   8
HETATM    8  C14 UNL     1       0.156   0.389  -1.130  1.00  0.00     0.051 C 
HETATM    9  C15 UNL     1       0.830   0.540  -0.022  1.00  0.00     0.070 C 
HETATM   10  O1  UNL     1       0.539   1.629   0.832  1.00  0.00    -0.344 OA
HETATM   11  C18 UNL     1       1.943  -0.260   0.591  1.00  0.00     0.143 C 
HETATM   12  C16 UNL     1       1.595   2.290   1.541  1.00  0.00     0.278 C 
HETATM   13  C17 UNL     1       2.863   1.891   0.849  1.00  0.00     0.242 C 
HETATM   14  O2  UNL     1       3.797   2.768   0.820  1.00  0.00    -0.271 OA
HETATM   15  N4  UNL     1       3.110   0.615   0.221  1.00  0.00    -0.349 N 
HETATM   16  H15 UNL     1       3.978   0.547  -0.340  1.00  0.00     0.163 HD
BRANCH  11  17
HETATM   17  C19 UNL     1       2.109  -1.604   0.028  1.00  0.00     0.051 C 
BRANCH  17  18
HETATM   18  C20 UNL     1       3.120  -2.504   0.604  1.00  0.00     0.121 C 
BRANCH  18  19
HETATM   19  N5  UNL     1       4.468  -2.217   0.705  1.00  0.00    -0.390 N 
HETATM   20  C21 UNL     1       5.001  -1.309   1.637  1.00  0.00     0.145 C 
HETATM   21  C22 UNL     1       6.177  -0.674   0.930  1.00  0.00     0.189 C 
HETATM   22  O3  UNL     1       6.160  -1.114  -0.387  1.00  0.00    -0.371 OA
HETATM   23  C23 UNL     1       5.251  -2.160  -0.491  1.00  0.00     0.287 C 
ENDBRANCH  18  19
ENDBRANCH  17  18
ENDBRANCH  11  17
ENDBRANCH   7   8
BRANCH   6  24
HETATM   24  N3  UNL     1      -2.322   1.264   0.320  1.00  0.00    -0.340 N 
HETATM   25  H5  UNL     1      -2.063   1.480   1.331  1.00  0.00     0.167 HD
BRANCH  24  26
HETATM   26  C5  UNL     1      -3.159   0.127   0.622  1.00  0.00     0.040 A 
HETATM   27  C6  UNL     1      -2.692  -1.065   1.189  1.00  0.00     0.030 A 
HETATM   28  C7  UNL     1      -3.462  -2.154   1.507  1.00  0.00     0.003 A 
HETATM   29  C8  UNL     1      -4.796  -2.059   1.244  1.00  0.00     0.017 A 
HETATM   30  C9  UNL     1      -5.379  -0.935   0.686  1.00  0.00     0.056 A 
HETATM   31  C11 UNL     1      -4.538   0.115   0.396  1.00  0.00    -0.020 A 
HETATM   32  C12 UNL     1      -5.193   1.310  -0.195  1.00  0.00     0.051 C 
BRANCH  30  33
HETATM   33  C10 UNL     1      -6.836  -0.905   0.443  1.00  0.00     0.418 C 
HETATM   34  F1  UNL     1      -7.117  -0.684  -0.892  1.00  0.00    -0.166 F 
HETATM   35  F2  UNL     1      -7.528  -0.063   1.293  1.00  0.00    -0.166 F 
HETATM   36  F3  UNL     1      -7.351  -2.176   0.714  1.00  0.00    -0.166 F 
ENDBRANCH  30  33
ENDBRANCH  24  26
ENDBRANCH   6  24
TORSDOF 7
