REMARK  6 active torsions:
REMARK  status: ('A' for Active; 'I' for Inactive)
REMARK    1  A    between atoms: C2_2  and  C3_3 
REMARK    2  A    between atoms: C2_2  and  O1_5 
REMARK    3  A    between atoms: C2_2  and  N4_23 
REMARK    4  A    between atoms: C3_3  and  N1_4 
REMARK    5  A    between atoms: O1_5  and  C4_6 
REMARK    6  A    between atoms: C13_17  and  C14_18 
ROOT
HETATM    1  C4  UNL     1      -0.934   0.286  -0.123  1.00  0.00     0.074 A 
HETATM    2  C5  UNL     1      -0.327   1.432  -0.647  1.00  0.00     0.038 A 
HETATM    3  C6  UNL     1       1.063   1.549  -0.724  1.00  0.00     0.018 A 
HETATM    4  C7  UNL     1       1.877   0.513  -0.273  1.00  0.00     0.019 A 
HETATM    5  C8  UNL     1       3.238   0.249  -0.178  1.00  0.00     0.046 A 
HETATM    6  N2  UNL     1       3.400  -0.970   0.366  1.00  0.00    -0.272 N 
HETATM    7  N3  UNL     1       2.206  -1.480   0.615  1.00  0.00    -0.172 NA
HETATM    8  C9  UNL     1       1.257  -0.603   0.238  1.00  0.00     0.092 A 
HETATM    9  C10 UNL     1      -0.113  -0.727   0.317  1.00  0.00     0.071 A 
HETATM   10  C11 UNL     1       4.657  -1.610   0.631  1.00  0.00     0.155 C 
HETATM   11  C12 UNL     1       5.658  -0.740   1.337  1.00  0.00     0.061 C 
HETATM   12  C13 UNL     1       6.333   0.089   0.272  1.00  0.00    -0.018 C 
HETATM   13  C15 UNL     1       5.594   0.902  -0.501  1.00  0.00    -0.012 C 
HETATM   14  C16 UNL     1       4.186   1.286  -0.659  1.00  0.00     0.087 C 
ENDROOT
BRANCH   1  15
HETATM   15  O1  UNL     1      -2.299   0.410  -0.155  1.00  0.00    -0.315 OA
BRANCH  15  16
HETATM   16  C2  UNL     1      -3.250  -0.512   0.273  1.00  0.00     0.175 C 
HETATM   17  C1  UNL     1      -3.223  -1.839  -0.411  1.00  0.00     0.078 C 
BRANCH  16  18
HETATM   18  C3  UNL     1      -3.111  -0.681   1.749  1.00  0.00     0.140 C 
BRANCH  18  19
HETATM   19  N1  UNL     1      -2.955  -0.758   3.028  1.00  0.00    -0.311 NA
HETATM   20  H5  UNL     1      -2.483  -0.015   3.554  1.00  0.00     0.185 HD
ENDBRANCH  18  19
ENDBRANCH  16  18
BRANCH  16  21
HETATM   21  N4  UNL     1      -4.562   0.091   0.013  1.00  0.00    -0.311 N 
HETATM   22  C17 UNL     1      -4.707   1.379  -0.682  1.00  0.00     0.155 C 
HETATM   23  C18 UNL     1      -5.691   1.275  -1.824  1.00  0.00     0.188 C 
HETATM   24  O2  UNL     1      -6.633   0.274  -1.611  1.00  0.00    -0.380 OA
HETATM   25  C19 UNL     1      -6.980   0.172  -0.259  1.00  0.00     0.270 C 
HETATM   26  C20 UNL     1      -5.811  -0.505   0.404  1.00  0.00     0.246 C 
HETATM   27  O3  UNL     1      -5.754  -1.467   1.210  1.00  0.00    -0.271 OA
ENDBRANCH  16  21
ENDBRANCH  15  16
ENDBRANCH   1  15
BRANCH  12  28
HETATM   28  C14 UNL     1       7.793   0.063   0.017  1.00  0.00     0.382 C 
HETATM   29  F1  UNL     1       8.079   0.937  -1.024  1.00  0.00    -0.209 F 
HETATM   30  F2  UNL     1       8.251  -1.168  -0.373  1.00  0.00    -0.209 F 
ENDBRANCH  12  28
TORSDOF 6
