REMARK  6 active torsions:
REMARK  status: ('A' for Active; 'I' for Inactive)
REMARK    1  A    between atoms: C7_11  and  N3_12 
REMARK    2  A    between atoms: N3_12  and  C8_13 
REMARK    3  A    between atoms: C12_17  and  C13_18 
REMARK    4  A    between atoms: N4_26  and  C18_27 
REMARK    5  A    between atoms: C18_27  and  C19_28 
REMARK    6  A    between atoms: C19_28  and  N5_29 
ROOT
HETATM    1  O1  UNL     1      -2.847   0.890  -2.502  1.00  0.00    -0.271 OA
HETATM    2  C1  UNL     1      -2.365  -0.186  -2.058  1.00  0.00     0.248 C 
HETATM    3  C2  UNL     1      -2.881  -1.500  -2.526  1.00  0.00     0.279 C 
HETATM    4  O2  UNL     1      -1.801  -2.450  -2.569  1.00  0.00    -0.340 OA
HETATM    5  C3  UNL     1      -0.755  -2.375  -1.658  1.00  0.00     0.098 A 
HETATM    6  C4  UNL     1      -0.014  -3.516  -1.534  1.00  0.00     0.071 A 
HETATM    7  C5  UNL     1       1.048  -3.531  -0.649  1.00  0.00     0.075 A 
HETATM    8  N1  UNL     1       1.823  -4.626  -0.479  1.00  0.00    -0.241 NA
HETATM    9  C6  UNL     1       2.862  -4.661   0.375  1.00  0.00     0.236 A 
HETATM   10  N2  UNL     1       3.167  -3.559   1.113  1.00  0.00    -0.224 NA
HETATM   11  C7  UNL     1       2.424  -2.432   0.984  1.00  0.00     0.142 A 
HETATM   12  C15 UNL     1       1.346  -2.409   0.092  1.00  0.00     0.041 A 
HETATM   13  C16 UNL     1       0.565  -1.296  -0.078  1.00  0.00     0.050 A 
HETATM   14  C17 UNL     1      -0.506  -1.210  -0.940  1.00  0.00     0.071 A 
HETATM   15  N4  UNL     1      -1.305  -0.016  -1.091  1.00  0.00    -0.312 N 
ENDROOT
BRANCH  11  16
HETATM   16  N3  UNL     1       2.644  -1.222   1.693  1.00  0.00    -0.340 N 
HETATM   17  H5  UNL     1       2.253  -0.970   2.621  1.00  0.00     0.167 HD
BRANCH  16  18
HETATM   18  C8  UNL     1       3.489  -0.288   1.031  1.00  0.00     0.034 A 
HETATM   19  C9  UNL     1       4.084  -0.573  -0.181  1.00  0.00     0.029 A 
HETATM   20  C10 UNL     1       4.900   0.334  -0.827  1.00  0.00     0.003 A 
HETATM   21  C11 UNL     1       5.152   1.580  -0.271  1.00  0.00     0.016 A 
HETATM   22  C12 UNL     1       4.565   1.876   0.936  1.00  0.00     0.050 A 
HETATM   23  C14 UNL     1       3.752   0.952   1.564  1.00  0.00     0.045 A 
BRANCH  22  24
HETATM   24  C13 UNL     1       4.801   3.205   1.566  1.00  0.00     0.417 C 
HETATM   25  F1  UNL     1       4.497   4.215   0.646  1.00  0.00    -0.166 F 
HETATM   26  F2  UNL     1       6.104   3.384   1.930  1.00  0.00    -0.166 F 
HETATM   27  F3  UNL     1       3.966   3.414   2.641  1.00  0.00    -0.166 F 
ENDBRANCH  22  24
ENDBRANCH  16  18
ENDBRANCH  11  16
BRANCH  15  28
HETATM   28  C18 UNL     1      -1.013   1.131  -0.322  1.00  0.00     0.151 C 
BRANCH  28  29
HETATM   29  C19 UNL     1      -1.619   1.268   1.026  1.00  0.00     0.137 C 
BRANCH  29  30
HETATM   30  N5  UNL     1      -2.977   1.295   1.220  1.00  0.00    -0.407 N 
HETATM   31  C20 UNL     1      -3.778   0.198   1.034  1.00  0.00     0.143 C 
HETATM   32  C21 UNL     1      -5.055   0.425   0.249  1.00  0.00     0.187 C 
HETATM   33  O3  UNL     1      -5.643   1.645   0.572  1.00  0.00    -0.388 OA
HETATM   34  C22 UNL     1      -4.717   2.621   0.211  1.00  0.00     0.187 C 
HETATM   35  C23 UNL     1      -3.583   2.559   1.202  1.00  0.00     0.143 C 
ENDBRANCH  29  30
ENDBRANCH  28  29
ENDBRANCH  15  28
TORSDOF 6
