REMARK  5 active torsions:
REMARK  status: ('A' for Active; 'I' for Inactive)
REMARK    1  A    between atoms: C2_3  and  C3_4 
REMARK    2  A    between atoms: N4_19  and  C14_20 
REMARK    3  A    between atoms: C14_20  and  C15_21 
REMARK    4  A    between atoms: C15_21  and  C16_22 
REMARK    5  A    between atoms: C16_22  and  N5_23 
ROOT
HETATM    1  O1  UNL     1      -0.323  -3.214   3.436  1.00  0.00    -0.284 OA
HETATM    2  C1  UNL     1      -1.354  -2.605   3.051  1.00  0.00     0.218 C 
HETATM    3  C2  UNL     1      -2.303  -1.811   2.615  1.00  0.00     0.045 C 
ENDROOT
BRANCH   3   4
HETATM    4  C3  UNL     1      -2.661  -2.027   1.181  1.00  0.00     0.061 C 
HETATM    5  C4  UNL     1      -3.986  -1.381   0.891  1.00  0.00     0.003 C 
HETATM    6  C5  UNL     1      -5.241  -1.656   0.472  1.00  0.00     0.086 C 
HETATM    7  N1  UNL     1      -6.412  -0.910   0.235  1.00  0.00    -0.354 N 
HETATM    8  C6  UNL     1      -5.644   0.213  -0.346  1.00  0.00     0.109 A 
HETATM    9  H5  UNL     1      -7.271  -1.349   0.511  1.00  0.00     0.166 HD
HETATM   10  C7  UNL     1      -4.395  -0.015  -1.105  1.00  0.00     0.201 A 
HETATM   11  N3  UNL     1      -6.500   1.224   0.231  1.00  0.00    -0.234 NA
HETATM   12  C8  UNL     1      -4.197   1.390  -1.120  1.00  0.00     0.208 A 
HETATM   13  N2  UNL     1      -4.731   2.650  -0.716  1.00  0.00     0.346 NA
HETATM   14  C10 UNL     1      -2.820   1.369  -1.682  1.00  0.00     0.051 C 
HETATM   15  C9  UNL     1      -5.938   2.488  -0.015  1.00  0.00     0.444 A 
HETATM   16  C11 UNL     1      -1.715   0.607  -1.471  1.00  0.00     0.093 C 
HETATM   17  O2  UNL     1      -0.697   1.058  -2.285  1.00  0.00    -0.347 OA
HETATM   18  C21 UNL     1      -1.201  -0.536  -0.673  1.00  0.00     0.060 C 
HETATM   19  C12 UNL     1       0.163   0.286  -3.110  1.00  0.00     0.195 C 
HETATM   20  C13 UNL     1       0.791  -0.845  -2.331  1.00  0.00     0.149 C 
HETATM   21  N4  UNL     1       0.183  -0.804  -0.975  1.00  0.00    -0.377 N 
HETATM   22  C22 UNL     1      -1.691  -1.392   0.262  1.00  0.00     0.018 C 
BRANCH  21  23
HETATM   23  C14 UNL     1       1.123  -1.063   0.097  1.00  0.00     0.125 C 
BRANCH  23  24
HETATM   24  C15 UNL     1       2.065   0.125   0.152  1.00  0.00     0.050 C 
BRANCH  24  25
HETATM   25  C16 UNL     1       3.095  -0.061   1.266  1.00  0.00     0.274 C 
BRANCH  25  26
HETATM   26  N5  UNL     1       3.942   1.114   1.248  1.00  0.00     0.092 N 
HETATM   27  C17 UNL     1       4.964   1.064   2.270  1.00  0.00     0.298 C 
HETATM   28  C18 UNL     1       6.175   0.343   1.751  1.00  0.00     0.198 C 
HETATM   29  O3  UNL     1       6.784   1.020   0.699  1.00  0.00    -0.388 OA
HETATM   30  C19 UNL     1       5.912   1.817  -0.007  1.00  0.00     0.198 C 
HETATM   31  C20 UNL     1       4.499   1.243  -0.073  1.00  0.00     0.298 C 
ENDBRANCH  25  26
ENDBRANCH  24  25
ENDBRANCH  23  24
ENDBRANCH  21  23
ENDBRANCH   3   4
TORSDOF 5
