REMARK  7 active torsions:
REMARK  status: ('A' for Active; 'I' for Inactive)
REMARK    1  A    between atoms: C2_2  and  C3_3 
REMARK    2  A    between atoms: C4_4  and  N1_5 
REMARK    3  A    between atoms: N1_5  and  C5_6 
REMARK    4  A    between atoms: N4_16  and  C13_17 
REMARK    5  A    between atoms: C13_17  and  C14_18 
REMARK    6  A    between atoms: C14_18  and  C15_19 
REMARK    7  A    between atoms: C15_19  and  N5_20 
ROOT
HETATM    1  C5  UNL     1      -3.875  -0.213  -0.431  1.00  0.00     0.141 A 
HETATM    2  N2  UNL     1      -5.210  -0.136  -0.516  1.00  0.00    -0.224 NA
HETATM    3  C6  UNL     1      -5.871   0.734  -1.286  1.00  0.00     0.236 A 
HETATM    4  N3  UNL     1      -5.101   1.559  -1.996  1.00  0.00    -0.241 NA
HETATM    5  C7  UNL     1      -3.762   1.592  -2.006  1.00  0.00     0.075 A 
HETATM    6  C8  UNL     1      -3.116   2.524  -2.818  1.00  0.00     0.071 A 
HETATM    7  C9  UNL     1      -1.730   2.481  -2.769  1.00  0.00     0.098 A 
HETATM    8  C10 UNL     1      -1.095   1.560  -1.958  1.00  0.00     0.071 A 
HETATM    9  C11 UNL     1      -1.758   0.668  -1.180  1.00  0.00     0.050 A 
HETATM   10  C12 UNL     1      -3.121   0.653  -1.178  1.00  0.00     0.041 A 
HETATM   11  N4  UNL     1       0.320   1.562  -1.953  1.00  0.00    -0.314 N 
HETATM   12  C20 UNL     1       0.940   2.545  -2.810  1.00  0.00     0.248 C 
HETATM   13  O2  UNL     1       2.139   2.858  -2.493  1.00  0.00    -0.271 OA
HETATM   14  C21 UNL     1       0.259   3.165  -3.981  1.00  0.00     0.279 C 
HETATM   15  O3  UNL     1      -1.088   3.406  -3.574  1.00  0.00    -0.340 OA
ENDROOT
BRANCH  11  16
HETATM   16  C13 UNL     1       1.184   0.658  -1.174  1.00  0.00     0.134 C 
BRANCH  16  17
HETATM   17  C14 UNL     1       1.438   1.326   0.119  1.00  0.00     0.050 C 
BRANCH  17  18
HETATM   18  C15 UNL     1       2.367   0.686   1.079  1.00  0.00     0.274 C 
BRANCH  18  19
HETATM   19  N5  UNL     1       2.031  -0.611   1.537  1.00  0.00     0.092 N 
HETATM   20  C16 UNL     1       2.900  -0.936   2.719  1.00  0.00     0.298 C 
HETATM   21  C17 UNL     1       4.256  -1.386   2.320  1.00  0.00     0.198 C 
HETATM   22  O1  UNL     1       4.646  -1.136   1.034  1.00  0.00    -0.388 OA
HETATM   23  C18 UNL     1       3.740  -1.597   0.082  1.00  0.00     0.198 C 
HETATM   24  C19 UNL     1       2.352  -1.711   0.635  1.00  0.00     0.298 C 
ENDBRANCH  18  19
ENDBRANCH  17  18
ENDBRANCH  16  17
ENDBRANCH  11  16
BRANCH   1  25
HETATM   25  N1  UNL     1      -3.263  -1.157   0.410  1.00  0.00    -0.350 N 
HETATM   26  H6  UNL     1      -3.257  -0.568   1.266  1.00  0.00     0.166 HD
BRANCH  25  27
HETATM   27  C4  UNL     1      -2.748  -2.467   0.398  1.00  0.00     0.090 C 
HETATM   28  C3  UNL     1      -1.847  -2.769   1.324  1.00  0.00     0.016 C 
BRANCH  28  29
HETATM   29  C2  UNL     1      -1.362  -1.819   2.346  1.00  0.00    -0.009 C 
HETATM   30  C1  UNL     1      -0.456  -2.266   3.235  1.00  0.00     0.011 C 
ENDBRANCH  28  29
ENDBRANCH  25  27
ENDBRANCH   1  25
TORSDOF 7
