REMARK  1 active torsions:
REMARK  status: ('A' for Active; 'I' for Inactive)
REMARK    1  A    between atoms: C2_2  and  C3_3 
ROOT
HETATM    1  C3  UNL     1      -4.735  -0.741  -3.524  1.00  0.00     0.011 C 
HETATM    2  C4  UNL     1      -4.048  -0.912  -2.374  1.00  0.00     0.080 C 
HETATM    3  C5  UNL     1      -2.900  -0.033  -2.006  1.00  0.00    -0.049 C 
HETATM    4  C6  UNL     1      -2.014   0.632  -1.705  1.00  0.00    -0.097 C 
HETATM    5  C7  UNL     1      -0.863   1.483  -1.341  1.00  0.00     0.139 C 
HETATM    6  C8  UNL     1       0.045   0.759  -0.362  1.00  0.00     0.214 C 
HETATM    7  C9  UNL     1      -0.790  -0.066   0.022  1.00  0.00     0.030 A 
HETATM    8  C10 UNL     1      -0.588  -1.168   1.017  1.00  0.00     0.037 A 
HETATM    9  C11 UNL     1      -1.952  -1.526   0.888  1.00  0.00    -0.067 A 
HETATM   10  C12 UNL     1      -3.215  -2.396   1.199  1.00  0.00     0.088 A 
HETATM   11  C13 UNL     1      -4.029  -1.885   0.016  1.00  0.00     0.149 A 
HETATM   12  N1  UNL     1      -4.725  -1.031   0.614  1.00  0.00    -0.186 NA
HETATM   13  C14 UNL     1      -3.902  -0.026   1.325  1.00  0.00     0.094 A 
HETATM   14  N2  UNL     1      -3.245  -1.017   0.631  1.00  0.00     0.000 N 
HETATM   15  N3  UNL     1      -4.271  -1.938  -1.408  1.00  0.00    -0.356 N 
HETATM   16  O1  UNL     1       0.441  -0.194   0.590  1.00  0.00     0.000 OA
HETATM   17  C15 UNL     1       1.517  -1.007   0.597  1.00  0.00     0.088 C 
HETATM   18  C16 UNL     1       2.715  -0.375   1.368  1.00  0.00     0.162 C 
HETATM   19  O2  UNL     1       1.786   0.382   1.692  1.00  0.00    -0.296 OA
HETATM   20  C17 UNL     1       4.035  -0.045   1.952  1.00  0.00     0.315 C 
HETATM   21  C18 UNL     1       3.907   0.944   3.085  1.00  0.00     0.211 C 
HETATM   22  O3  UNL     1       4.833   1.999   2.923  1.00  0.00    -0.387 OA
HETATM   23  C19 UNL     1       6.113   1.507   2.711  1.00  0.00     0.198 C 
HETATM   24  C20 UNL     1       6.126   0.917   1.324  1.00  0.00     0.299 C 
HETATM   25  N4  UNL     1       4.847   0.542   0.870  1.00  0.00     0.104 N 
HETATM   26  C21 UNL     1       4.007   1.628   0.367  1.00  0.00     0.275 C 
HETATM   27  C22 UNL     1       3.569   1.376  -1.039  1.00  0.00     0.060 C 
HETATM   28  C23 UNL     1       2.273   2.119  -1.411  1.00  0.00     0.272 C 
HETATM   29  N5  UNL     1       1.121   1.685  -0.743  1.00  0.00     0.097 N 
HETATM   30  H13 UNL     1      -4.635  -2.873  -1.473  1.00  0.00     0.162 HD
HETATM   31  H29 UNL     1       1.311   0.731  -1.196  1.00  0.00     0.317 HD
ENDROOT
BRANCH   1  32
HETATM   32  C2  UNL     1      -5.780  -1.786  -3.555  1.00  0.00     0.025 C 
HETATM   33  C1  UNL     1      -7.175  -1.151  -3.500  1.00  0.00     0.009 C 
ENDBRANCH   1  32
TORSDOF 1
