REMARK  6 active torsions:
REMARK  status: ('A' for Active; 'I' for Inactive)
REMARK    1  A    between atoms: O1_2  and  C2_3 
REMARK    2  A    between atoms: C7_9  and  N1_10 
REMARK    3  A    between atoms: N1_10  and  C8_11 
REMARK    4  A    between atoms: C20_28  and  O3_29 
REMARK    5  A    between atoms: O3_29  and  C21_30 
REMARK    6  A    between atoms: C21_30  and  C22_31 
ROOT
HETATM    1  C8  UNL     1       1.224   0.718   1.723  1.00  0.00     0.115 A 
HETATM    2  N2  UNL     1       1.523   1.277   2.922  1.00  0.00    -0.228 NA
HETATM    3  C9  UNL     1       0.472   1.885   3.518  1.00  0.00     0.234 A 
HETATM    4  N3  UNL     1      -0.725   1.893   2.920  1.00  0.00    -0.249 NA
HETATM    5  C10 UNL     1      -1.024   1.355   1.755  1.00  0.00     0.039 A 
HETATM    6  C11 UNL     1       0.036   0.678   1.040  1.00  0.00     0.052 A 
HETATM    7  C12 UNL     1       0.126   0.008  -0.120  1.00  0.00     0.065 C 
HETATM    8  C13 UNL     1       0.602  -0.734  -1.214  1.00  0.00     0.044 C 
HETATM    9  C14 UNL     1      -0.534  -1.573  -1.858  1.00  0.00     0.247 C 
HETATM   10  C15 UNL     1      -0.149  -3.000  -1.744  1.00  0.00     0.203 C 
HETATM   11  O2  UNL     1      -1.105  -3.912  -2.158  1.00  0.00    -0.387 OA
HETATM   12  C16 UNL     1      -2.361  -3.351  -2.222  1.00  0.00     0.198 C 
HETATM   13  C17 UNL     1      -2.588  -2.383  -1.078  1.00  0.00     0.299 C 
HETATM   14  N4  UNL     1      -1.768  -1.198  -1.173  1.00  0.00     0.099 N 
HETATM   15  C18 UNL     1      -2.356  -0.163  -1.960  1.00  0.00     0.294 C 
HETATM   16  C19 UNL     1      -3.671   0.387  -1.578  1.00  0.00     0.181 C 
HETATM   17  N5  UNL     1      -3.915   1.058  -0.409  1.00  0.00    -0.268 NA
HETATM   18  C20 UNL     1      -3.415   1.471   0.651  1.00  0.00     0.146 C 
HETATM   19  C23 UNL     1      -2.342   1.716   1.689  1.00  0.00     0.128 C 
ENDROOT
BRANCH   1  20
HETATM   20  N1  UNL     1       2.164   0.037   0.868  1.00  0.00    -0.352 N 
HETATM   21  H8  UNL     1       2.061  -0.960   1.205  1.00  0.00     0.166 HD
BRANCH  20  22
HETATM   22  C7  UNL     1       2.833   0.880  -0.041  1.00  0.00     0.111 C 
HETATM   23  C6  UNL     1       4.125   0.887  -0.276  1.00  0.00     0.053 A 
HETATM   24  C2  UNL     1       4.915  -0.051   0.482  1.00  0.00     0.086 A 
HETATM   25  S1  UNL     1       5.016   1.912  -1.415  1.00  0.00    -0.098 SA
HETATM   26  C3  UNL     1       6.202  -0.287   0.484  1.00  0.00     0.039 A 
HETATM   27  C4  UNL     1       7.011   0.493  -0.402  1.00  0.00     0.010 A 
HETATM   28  C5  UNL     1       6.738   1.450  -1.273  1.00  0.00     0.050 A 
BRANCH  24  29
HETATM   29  O1  UNL     1       4.330  -0.915   1.409  1.00  0.00    -0.355 OA
HETATM   30  C1  UNL     1       4.598  -0.854   2.801  1.00  0.00     0.210 C 
ENDBRANCH  24  29
ENDBRANCH  20  22
ENDBRANCH   1  20
BRANCH  18  31
HETATM   31  O3  UNL     1      -4.486   2.120   1.329  1.00  0.00    -0.331 OA
BRANCH  31  32
HETATM   32  C21 UNL     1      -5.775   2.238   0.723  1.00  0.00     0.246 C 
BRANCH  32  33
HETATM   33  C22 UNL     1      -6.745   2.937   1.560  1.00  0.00     0.257 C 
HETATM   34  O4  UNL     1      -7.860   3.006   1.061  1.00  0.00    -0.305 OA
ENDBRANCH  32  33
ENDBRANCH  31  32
ENDBRANCH  18  31
TORSDOF 6
