REMARK  6 active torsions:
REMARK  status: ('A' for Active; 'I' for Inactive)
REMARK    1  A    between atoms: O1_2  and  C2_3 
REMARK    2  A    between atoms: C12_15  and  C13_16 
REMARK    3  A    between atoms: C13_16  and  C14_17 
REMARK    4  A    between atoms: C14_17  and  C15_18 
REMARK    5  A    between atoms: C22_27  and  O3_28 
REMARK    6  A    between atoms: C24_30  and  O4_31 
ROOT
HETATM    1  C2  UNL     1       3.298   1.962  -0.148  1.00  0.00     0.102 A 
HETATM    2  C3  UNL     1       3.526   1.815   1.209  1.00  0.00     0.040 A 
HETATM    3  C4  UNL     1       3.377   0.610   1.851  1.00  0.00     0.004 A 
HETATM    4  C5  UNL     1       2.992  -0.465   1.107  1.00  0.00     0.017 A 
HETATM    5  C6  UNL     1       2.738  -0.414  -0.265  1.00  0.00     0.030 A 
HETATM    6  C7  UNL     1       2.385  -1.406  -1.228  1.00  0.00     0.083 A 
HETATM    7  N1  UNL     1       3.275  -1.726  -2.175  1.00  0.00    -0.240 NA
HETATM    8  C8  UNL     1       3.063  -2.630  -3.141  1.00  0.00     0.234 A 
HETATM    9  N2  UNL     1       1.934  -3.328  -3.287  1.00  0.00    -0.241 NA
HETATM   10  C9  UNL     1       0.972  -3.104  -2.415  1.00  0.00     0.071 A 
HETATM   11  C10 UNL     1       1.221  -2.112  -1.367  1.00  0.00     0.021 A 
HETATM   12  C11 UNL     1       0.362  -1.637  -0.374  1.00  0.00     0.027 C 
HETATM   13  C12 UNL     1      -1.067  -1.348   0.110  1.00  0.00     0.097 C 
HETATM   14  N3  UNL     1      -1.772  -0.886  -1.104  1.00  0.00    -0.380 N 
HETATM   15  C19 UNL     1      -2.029  -2.135  -1.777  1.00  0.00     0.096 C 
HETATM   16  C20 UNL     1      -1.275  -3.278  -1.501  1.00  0.00    -0.016 C 
HETATM   17  C21 UNL     1      -1.123  -3.701  -0.010  1.00  0.00     0.047 C 
HETATM   18  C22 UNL     1      -1.793  -2.647   0.518  1.00  0.00     0.076 C 
HETATM   19  C23 UNL     1      -0.247  -3.870  -2.532  1.00  0.00     0.045 C 
HETATM   20  C24 UNL     1       2.911   0.846  -0.849  1.00  0.00     0.111 A 
HETATM   21  H20 UNL     1      -2.042   0.056  -1.455  1.00  0.00     0.160 HD
ENDROOT
BRANCH  20  22
HETATM   22  O4  UNL     1       2.712   1.110  -2.202  1.00  0.00    -0.357 OA
HETATM   23  H25 UNL     1       3.349   1.725  -2.724  1.00  0.00     0.217 HD
ENDBRANCH  20  22
BRANCH   1  24
HETATM   24  O1  UNL     1       3.471   3.212  -0.711  1.00  0.00    -0.353 OA
HETATM   25  C1  UNL     1       3.860   4.279   0.096  1.00  0.00     0.210 C 
ENDBRANCH   1  24
BRANCH  13  26
HETATM   26  C13 UNL     1      -0.976  -0.357   1.176  1.00  0.00     0.043 C 
BRANCH  26  27
HETATM   27  C14 UNL     1      -2.164   0.138   1.877  1.00  0.00     0.010 C 
BRANCH  27  28
HETATM   28  C15 UNL     1      -3.228   0.824   1.102  1.00  0.00     0.011 C 
HETATM   29  C16 UNL     1      -2.834   2.067   0.385  1.00  0.00     0.033 C 
HETATM   30  C17 UNL     1      -3.516   3.208   1.087  1.00  0.00     0.168 C 
HETATM   31  O2  UNL     1      -4.645   2.591   1.629  1.00  0.00    -0.391 OA
HETATM   32  C18 UNL     1      -4.224   1.374   2.133  1.00  0.00     0.172 C 
ENDBRANCH  27  28
ENDBRANCH  26  27
ENDBRANCH  13  26
BRANCH  18  33
HETATM   33  O3  UNL     1      -2.933  -2.378   1.317  1.00  0.00    -0.362 OA
HETATM   34  H23 UNL     1      -3.157  -3.108   1.983  1.00  0.00     0.217 HD
ENDBRANCH  18  33
TORSDOF 6
