REMARK  4 active torsions:
REMARK  status: ('A' for Active; 'I' for Inactive)
REMARK    1  A    between atoms: C7_7  and  N1_8 
REMARK    2  A    between atoms: N1_8  and  C8_9 
REMARK    3  A    between atoms: N4_23  and  C17_24 
REMARK    4  A    between atoms: C17_24  and  C18_25 
ROOT
HETATM    1  C8  UNL     1       0.159   1.680  -0.566  1.00  0.00     0.176 C 
HETATM    2  C9  UNL     1      -0.973   1.131   0.242  1.00  0.00     0.127 C 
HETATM    3  C10 UNL     1      -1.547  -0.142  -0.178  1.00  0.00     0.053 C 
HETATM    4  C11 UNL     1      -1.425  -1.137  -1.068  1.00  0.00     0.093 C 
HETATM    5  C12 UNL     1      -0.411  -1.231  -2.142  1.00  0.00     0.059 C 
HETATM    6  C13 UNL     1      -0.046  -0.282  -2.973  1.00  0.00     0.036 C 
HETATM    7  S1  UNL     1       0.089   1.183  -2.327  1.00  0.00    -0.014 SA
HETATM    8  N2  UNL     1      -0.567   2.737  -2.951  1.00  0.00    -0.214 NA
HETATM    9  C14 UNL     1      -0.420   3.552  -1.960  1.00  0.00     0.213 C 
HETATM   10  N3  UNL     1       0.149   3.095  -0.770  1.00  0.00    -0.348 N 
HETATM   11  O1  UNL     1      -2.203  -2.282  -1.186  1.00  0.00    -0.340 OA
HETATM   12  C15 UNL     1      -2.936  -2.773  -0.083  1.00  0.00     0.279 C 
HETATM   13  C16 UNL     1      -3.428  -1.569   0.642  1.00  0.00     0.248 C 
HETATM   14  O2  UNL     1      -4.596  -1.689   1.152  1.00  0.00    -0.271 OA
HETATM   15  N4  UNL     1      -2.631  -0.364   0.752  1.00  0.00    -0.316 N 
HETATM   16  H15 UNL     1       0.547   3.751  -0.062  1.00  0.00     0.163 HD
ENDROOT
BRANCH   1  17
HETATM   17  N1  UNL     1       1.464   1.316  -0.061  1.00  0.00    -0.353 N 
HETATM   18  H10 UNL     1       2.182   2.027   0.250  1.00  0.00     0.163 HD
BRANCH  17  19
HETATM   19  C7  UNL     1       2.268   0.179   0.218  1.00  0.00     0.032 A 
HETATM   20  C2  UNL     1       3.219  -0.417  -0.701  1.00  0.00    -0.040 A 
HETATM   21  C1  UNL     1       3.377   0.198  -2.043  1.00  0.00     0.050 C 
HETATM   22  C3  UNL     1       3.911  -1.479  -0.321  1.00  0.00    -0.018 A 
HETATM   23  C4  UNL     1       3.852  -2.189   0.980  1.00  0.00     0.031 A 
HETATM   24  C5  UNL     1       2.882  -1.598   1.943  1.00  0.00     0.033 A 
HETATM   25  C6  UNL     1       2.161  -0.401   1.399  1.00  0.00     0.003 A 
ENDBRANCH  17  19
ENDBRANCH   1  17
BRANCH  15  26
HETATM   26  C17 UNL     1      -3.094   0.448   1.841  1.00  0.00     0.142 C 
BRANCH  26  27
HETATM   27  C18 UNL     1      -4.218   1.390   1.468  1.00  0.00     0.105 C 
HETATM   28 BR1  UNL     1      -4.693   2.400   3.074  1.00  0.00    -0.095 Br
ENDBRANCH  26  27
ENDBRANCH  15  26
TORSDOF 4
