REMARK  2 active torsions:
REMARK  status: ('A' for Active; 'I' for Inactive)
REMARK    1  A    between atoms: C6_6  and  N1_7 
REMARK    2  A    between atoms: N1_7  and  C7_8 
ROOT
HETATM    1  C7  UNL     1       2.105  -0.813  -1.476  1.00  0.00     0.141 A 
HETATM    2  N2  UNL     1       2.578  -1.879  -2.115  1.00  0.00    -0.224 NA
HETATM    3  C8  UNL     1       1.759  -2.891  -2.386  1.00  0.00     0.235 A 
HETATM    4  N3  UNL     1       0.463  -2.800  -1.999  1.00  0.00    -0.245 NA
HETATM    5  C9  UNL     1      -0.029  -1.727  -1.352  1.00  0.00     0.061 A 
HETATM    6  C10 UNL     1       0.818  -0.652  -1.058  1.00  0.00     0.034 A 
HETATM    7  C11 UNL     1       0.282   0.403  -0.472  1.00  0.00     0.028 C 
HETATM    8  C12 UNL     1      -0.583   1.356   0.162  1.00  0.00     0.270 C 
HETATM    9  C13 UNL     1       0.177   2.141   1.237  1.00  0.00     0.207 C 
HETATM   10  O1  UNL     1      -0.178   1.609   2.481  1.00  0.00    -0.387 OA
HETATM   11  C14 UNL     1      -1.436   2.186   2.770  1.00  0.00     0.198 C 
HETATM   12  C15 UNL     1      -2.386   1.666   1.757  1.00  0.00     0.299 C 
HETATM   13  N4  UNL     1      -1.847   0.924   0.679  1.00  0.00     0.100 N 
HETATM   14  C16 UNL     1      -2.855   0.924  -0.382  1.00  0.00     0.273 C 
HETATM   15  C17 UNL     1      -4.108   0.343   0.186  1.00  0.00     0.033 C 
HETATM   16  C18 UNL     1      -5.178  -0.052  -0.765  1.00  0.00     0.044 C 
HETATM   17  C19 UNL     1      -4.848  -1.224  -1.631  1.00  0.00     0.220 C 
HETATM   18  O2  UNL     1      -3.499  -1.406  -1.779  1.00  0.00    -0.339 OA
HETATM   19  C20 UNL     1      -2.660  -2.255  -1.012  1.00  0.00     0.074 C 
HETATM   20  C21 UNL     1      -3.156  -3.046  -0.073  1.00  0.00     0.124 C 
HETATM   21  N5  UNL     1      -4.595  -3.212  -0.042  1.00  0.00    -0.333 N 
HETATM   22  C22 UNL     1      -5.386  -2.508  -1.029  1.00  0.00     0.251 C 
HETATM   23  O3  UNL     1      -6.476  -3.091  -1.268  1.00  0.00    -0.270 OA
HETATM   24  C23 UNL     1      -1.257  -2.207  -1.312  1.00  0.00     0.113 C 
HETATM   25  H25 UNL     1      -4.886  -3.845   0.720  1.00  0.00     0.168 HD
ENDROOT
BRANCH   1  26
HETATM   26  N1  UNL     1       3.015   0.247  -1.240  1.00  0.00    -0.340 N 
HETATM   27  H7  UNL     1       2.856   1.140  -1.743  1.00  0.00     0.167 HD
BRANCH  26  28
HETATM   28  C6  UNL     1       4.123   0.150  -0.357  1.00  0.00     0.034 A 
HETATM   29  C5  UNL     1       4.415  -1.001   0.356  1.00  0.00     0.029 A 
HETATM   30  C4  UNL     1       5.491  -1.143   1.210  1.00  0.00     0.003 A 
HETATM   31  C3  UNL     1       6.309  -0.041   1.336  1.00  0.00     0.007 A 
HETATM   32  C2  UNL     1       6.099   1.146   0.668  1.00  0.00    -0.060 A 
HETATM   33  C1  UNL     1       6.935   2.369   0.745  1.00  0.00     0.048 C 
HETATM   34  C24 UNL     1       4.987   1.217  -0.182  1.00  0.00     0.036 A 
ENDBRANCH  26  28
ENDBRANCH   1  26
TORSDOF 2
