REMARK  1 active torsions:
REMARK  status: ('A' for Active; 'I' for Inactive)
REMARK    1  A    between atoms: C7_10  and  N2_11 
ROOT
HETATM    1  O1  UNL     1       1.213  -2.818   0.440  1.00  0.00    -0.271 OA
HETATM    2  C1  UNL     1       2.316  -2.216   0.445  1.00  0.00     0.248 C 
HETATM    3  C2  UNL     1       3.724  -2.375   1.042  1.00  0.00     0.278 C 
HETATM    4  O2  UNL     1       3.971  -1.007   1.602  1.00  0.00    -0.341 OA
HETATM    5  C3  UNL     1       3.017  -0.094   1.172  1.00  0.00     0.085 C 
HETATM    6  C4  UNL     1       2.726   0.359  -0.011  1.00  0.00     0.130 C 
HETATM    7  N1  UNL     1       2.298  -1.016  -0.323  1.00  0.00    -0.324 N 
HETATM    8  C5  UNL     1       1.454  -0.835  -1.618  1.00  0.00     0.134 C 
HETATM    9  C6  UNL     1       0.452   0.019  -1.022  1.00  0.00     0.060 C 
HETATM   10  C7  UNL     1      -0.527   0.852  -0.445  1.00  0.00     0.248 C 
HETATM   11  C12 UNL     1      -0.656   2.263  -0.856  1.00  0.00     0.021 C 
HETATM   12  C13 UNL     1       0.487   2.878  -0.798  1.00  0.00    -0.028 C 
HETATM   13  C14 UNL     1       0.963   2.773   0.399  1.00  0.00     0.012 C 
HETATM   14  C15 UNL     1       1.198   1.808   1.449  1.00  0.00     0.004 C 
HETATM   15  C16 UNL     1       1.954   0.726   1.775  1.00  0.00     0.038 C 
ENDROOT
BRANCH  10  16
HETATM   16  N2  UNL     1      -1.771   0.234  -0.838  1.00  0.00     0.100 N 
HETATM   17  C8  UNL     1      -1.916  -1.124  -0.392  1.00  0.00     0.299 C 
HETATM   18  C9  UNL     1      -3.313  -1.581  -0.734  1.00  0.00     0.198 C 
HETATM   19  O3  UNL     1      -4.272  -0.878  -0.009  1.00  0.00    -0.388 OA
HETATM   20  C10 UNL     1      -3.753   0.320   0.492  1.00  0.00     0.198 C 
HETATM   21  C11 UNL     1      -2.950   0.979  -0.608  1.00  0.00     0.299 C 
ENDBRANCH  10  16
TORSDOF 1
