REMARK  0 active torsions:
REMARK  status: ('A' for Active; 'I' for Inactive)
ROOT
HETATM    1 BR1  UNL     1       0.682   3.202   1.412  1.00  0.00    -0.050 Br
HETATM    2  C1  UNL     1      -0.824   2.439   0.469  1.00  0.00     0.020 A 
HETATM    3  C2  UNL     1      -1.774   3.386   0.151  1.00  0.00     0.020 A 
HETATM    4  C3  UNL     1      -2.889   2.943  -0.529  1.00  0.00     0.004 A 
HETATM    5  C4  UNL     1      -2.929   1.569  -0.820  1.00  0.00     0.031 A 
HETATM    6  C5  UNL     1      -1.928   0.648  -0.469  1.00  0.00     0.051 A 
HETATM    7  C6  UNL     1      -0.817   1.062   0.202  1.00  0.00    -0.000 A 
HETATM    8  C7  UNL     1       0.345   0.341   0.661  1.00  0.00     0.116 C 
HETATM    9  C8  UNL     1       0.140  -0.970   1.325  1.00  0.00    -0.030 C 
HETATM   10  C9  UNL     1       1.363  -1.492   1.604  1.00  0.00     0.012 C 
HETATM   11  C10 UNL     1       2.722  -0.934   1.335  1.00  0.00     0.304 C 
HETATM   12  N1  UNL     1       2.676   0.039   0.285  1.00  0.00     0.123 N 
HETATM   13  C11 UNL     1       3.530  -0.189  -0.832  1.00  0.00     0.302 C 
HETATM   14  C12 UNL     1       2.819   0.666  -1.892  1.00  0.00     0.201 C 
HETATM   15  O1  UNL     1       1.604   1.073  -1.294  1.00  0.00    -0.355 OA
HETATM   16  C13 UNL     1       1.383   0.073  -0.390  1.00  0.00     0.372 C 
HETATM   17  C14 UNL     1      -0.944  -1.882   1.782  1.00  0.00     0.119 C 
HETATM   18  N2  UNL     1      -1.154  -1.955   0.533  1.00  0.00    -0.285 NA
HETATM   19  C15 UNL     1      -2.139  -2.691  -0.190  1.00  0.00     0.258 C 
HETATM   20  N3  UNL     1      -3.197  -1.689  -0.423  1.00  0.00    -0.220 NA
HETATM   21  N4  UNL     1      -2.467  -0.595  -0.993  1.00  0.00    -0.319 N 
HETATM   22  H16 UNL     1      -3.667  -1.416   0.441  1.00  0.00     0.148 HD
HETATM   23  H17 UNL     1      -2.235  -0.604  -2.012  1.00  0.00     0.181 HD
ENDROOT
TORSDOF 0
