REMARK  1 active torsions:
REMARK  status: ('A' for Active; 'I' for Inactive)
REMARK    1  A    between atoms: C7_8  and  C8_9 
ROOT
HETATM    1  C8  UNL     1      -0.029  -0.123   1.328  1.00  0.00     0.079 A 
HETATM    2  C9  UNL     1      -0.981   0.731   0.410  1.00  0.00     0.040 C 
HETATM    3  C10 UNL     1      -2.278   0.466   0.523  1.00  0.00     0.013 A 
HETATM    4  C11 UNL     1      -3.537  -0.265   0.822  1.00  0.00     0.044 A 
HETATM    5  C12 UNL     1      -2.307  -0.798   0.972  1.00  0.00     0.100 A 
HETATM    6  O1  UNL     1      -1.961  -1.204  -0.473  1.00  0.00    -0.376 OA
HETATM    7  C13 UNL     1      -2.490  -0.370  -1.590  1.00  0.00     0.174 C 
HETATM    8  C14 UNL     1      -2.707   1.046  -0.837  1.00  0.00     0.018 C 
HETATM    9  C15 UNL     1      -4.098   1.482  -0.992  1.00  0.00     0.013 C 
HETATM   10  C16 UNL     1      -1.032  -1.238   1.788  1.00  0.00     0.177 A 
HETATM   11  N1  UNL     1      -1.209  -1.067   3.171  1.00  0.00    -0.274 NA
HETATM   12  C17 UNL     1      -0.459  -0.093   3.562  1.00  0.00     0.197 A 
HETATM   13  N2  UNL     1       0.311   0.510   2.503  1.00  0.00    -0.370 N 
HETATM   14  H19 UNL     1       0.935   1.269   2.854  1.00  0.00     0.161 HD
ENDROOT
BRANCH   1  15
HETATM   15  C7  UNL     1       0.936  -0.692   0.434  1.00  0.00     0.002 C 
HETATM   16  C6  UNL     1       2.078  -0.177   0.015  1.00  0.00    -0.093 A 
HETATM   17  C2  UNL     1       3.019  -0.838  -0.914  1.00  0.00    -0.067 A 
HETATM   18  B1  UNL     1       2.515   1.246   0.512  1.00  0.00     0.219 B 
HETATM   19  C1  UNL     1       2.632  -2.194  -1.407  1.00  0.00     0.047 C 
HETATM   20  C3  UNL     1       4.136  -0.262  -1.286  1.00  0.00     0.005 A 
HETATM   21  C4  UNL     1       4.631   1.030  -0.895  1.00  0.00    -0.015 A 
HETATM   22  C5  UNL     1       3.892   1.761  -0.051  1.00  0.00    -0.077 A 
HETATM   23  H7  UNL     1       1.699   2.072   0.734  1.00  0.00    -0.016 HD
ENDBRANCH   1  15
TORSDOF 1
