REMARK  7 active torsions:
REMARK  status: ('A' for Active; 'I' for Inactive)
REMARK    1  A    between atoms: C6_6  and  N1_7 
REMARK    2  A    between atoms: N1_7  and  C7_8 
REMARK    3  A    between atoms: C10_13  and  C11_14 
REMARK    4  A    between atoms: N4_16  and  C13_17 
REMARK    5  A    between atoms: C13_17  and  C14_18 
REMARK    6  A    between atoms: C14_18  and  C15_19 
REMARK    7  A    between atoms: C15_19  and  N5_20 
ROOT
HETATM    1  C7  UNL     1       4.018  -1.719   1.906  1.00  0.00     0.111 C 
HETATM    2  N2  UNL     1       3.249  -2.758   2.172  1.00  0.00    -0.228 NA
HETATM    3  C8  UNL     1       1.829  -2.635   2.022  1.00  0.00     0.235 C 
HETATM    4  N3  UNL     1       1.348  -1.522   1.616  1.00  0.00    -0.246 NA
HETATM    5  C9  UNL     1       2.134  -0.389   1.290  1.00  0.00     0.045 C 
HETATM    6  C10 UNL     1       1.417   0.539   0.668  1.00  0.00     0.065 C 
HETATM    7  C22 UNL     1       3.584  -0.316   1.549  1.00  0.00     0.137 C 
ENDROOT
BRANCH   6   8
HETATM    8  C11 UNL     1       0.004   0.359   0.382  1.00  0.00     0.086 C 
HETATM    9  C12 UNL     1      -0.695   1.263  -0.242  1.00  0.00     0.122 C 
HETATM   10  N4  UNL     1      -2.042   0.902  -0.431  1.00  0.00    -0.385 N 
HETATM   11  C20 UNL     1      -2.338  -0.516  -0.645  1.00  0.00     0.149 C 
HETATM   12  C21 UNL     1      -1.859  -1.270   0.603  1.00  0.00     0.195 C 
HETATM   13  O2  UNL     1      -0.528  -0.865   0.846  1.00  0.00    -0.348 OA
BRANCH  10  14
HETATM   14  C13 UNL     1      -3.243   1.734  -0.439  1.00  0.00     0.124 C 
BRANCH  14  15
HETATM   15  C14 UNL     1      -3.870   1.806  -1.782  1.00  0.00     0.050 C 
BRANCH  15  16
HETATM   16  C15 UNL     1      -5.129   2.558  -1.943  1.00  0.00     0.274 C 
BRANCH  16  17
HETATM   17  N5  UNL     1      -5.108   3.935  -1.590  1.00  0.00     0.092 N 
HETATM   18  C16 UNL     1      -5.027   4.218  -0.195  1.00  0.00     0.298 C 
HETATM   19  C17 UNL     1      -6.219   5.067   0.219  1.00  0.00     0.198 C 
HETATM   20  O1  UNL     1      -7.431   4.577  -0.198  1.00  0.00    -0.388 OA
HETATM   21  C18 UNL     1      -7.507   4.387  -1.580  1.00  0.00     0.198 C 
HETATM   22  C19 UNL     1      -6.162   4.695  -2.224  1.00  0.00     0.298 C 
ENDBRANCH  16  17
ENDBRANCH  15  16
ENDBRANCH  14  15
ENDBRANCH  10  14
ENDBRANCH   6   8
BRANCH   1  23
HETATM   23  N1  UNL     1       5.423  -2.014   2.094  1.00  0.00    -0.344 N 
HETATM   24  H7  UNL     1       5.947  -1.326   2.680  1.00  0.00     0.167 HD
BRANCH  23  25
HETATM   25  C6  UNL     1       6.016  -3.157   1.501  1.00  0.00     0.033 A 
HETATM   26  C5  UNL     1       5.302  -3.968   0.611  1.00  0.00     0.029 A 
HETATM   27  C4  UNL     1       5.722  -5.073  -0.029  1.00  0.00     0.003 A 
HETATM   28  C3  UNL     1       7.020  -5.490   0.194  1.00  0.00     0.007 A 
HETATM   29  C2  UNL     1       7.811  -4.764   1.051  1.00  0.00    -0.060 A 
HETATM   30  C1  UNL     1       9.226  -5.155   1.344  1.00  0.00     0.048 C 
HETATM   31  C23 UNL     1       7.279  -3.649   1.653  1.00  0.00     0.036 A 
ENDBRANCH  23  25
ENDBRANCH   1  23
TORSDOF 7
