REMARK  6 active torsions:
REMARK  status: ('A' for Active; 'I' for Inactive)
REMARK    1  A    between atoms: C1_2  and  C2_3 
REMARK    2  A    between atoms: C2_3  and  C3_4 
REMARK    3  A    between atoms: C7_10  and  C8_11 
REMARK    4  A    between atoms: N3_19  and  C15_20 
REMARK    5  A    between atoms: C15_20  and  C16_21 
REMARK    6  A    between atoms: C16_21  and  N4_22 
ROOT
HETATM    1  C3  UNL     1      -1.242   2.898  -0.738  1.00  0.00    -0.054 C 
HETATM    2  C4  UNL     1      -2.536   2.840  -0.491  1.00  0.00     0.039 C 
HETATM    3  C5  UNL     1      -2.925   1.483  -0.131  1.00  0.00     0.087 A 
HETATM    4  N1  UNL     1      -4.270   1.397   0.112  1.00  0.00    -0.240 NA
HETATM    5  C6  UNL     1      -4.841   0.225   0.426  1.00  0.00     0.234 A 
HETATM    6  N2  UNL     1      -4.000  -0.820   0.478  1.00  0.00    -0.239 NA
HETATM    7  C7  UNL     1      -2.657  -0.726   0.235  1.00  0.00     0.097 A 
HETATM    8  C14 UNL     1      -2.051   0.435  -0.084  1.00  0.00     0.089 A 
HETATM    9  N3  UNL     1      -0.671   0.502  -0.381  1.00  0.00    -0.372 N 
HETATM   10  C21 UNL     1      -0.218   1.860  -0.569  1.00  0.00     0.158 C 
ENDROOT
BRANCH   9  11
HETATM   11  C15 UNL     1       0.089  -0.652  -0.601  1.00  0.00     0.143 C 
BRANCH  11  12
HETATM   12  C16 UNL     1       1.303  -1.048   0.107  1.00  0.00     0.136 C 
BRANCH  12  13
HETATM   13  N4  UNL     1       2.531  -0.355   0.038  1.00  0.00    -0.407 N 
HETATM   14  C17 UNL     1       2.795   0.867   0.598  1.00  0.00     0.143 C 
HETATM   15  C18 UNL     1       4.196   1.074   1.136  1.00  0.00     0.187 C 
HETATM   16  O2  UNL     1       5.179   0.402   0.426  1.00  0.00    -0.388 OA
HETATM   17  C19 UNL     1       4.850  -0.966   0.574  1.00  0.00     0.187 C 
HETATM   18  C20 UNL     1       3.666  -1.175  -0.322  1.00  0.00     0.143 C 
ENDBRANCH  12  13
ENDBRANCH  11  12
ENDBRANCH   9  11
BRANCH   7  19
HETATM   19  C8  UNL     1      -2.117  -2.064   0.368  1.00  0.00    -0.004 A 
HETATM   20  C9  UNL     1      -2.646  -3.031  -0.545  1.00  0.00     0.014 A 
HETATM   21  C10 UNL     1      -2.380  -4.392  -0.613  1.00  0.00     0.002 A 
HETATM   22  C11 UNL     1      -1.495  -4.854   0.324  1.00  0.00     0.019 A 
HETATM   23  C12 UNL     1      -0.920  -4.025   1.257  1.00  0.00     0.011 A 
HETATM   24 BR1  UNL     1       0.320  -4.554   2.602  1.00  0.00    -0.051 Br
HETATM   25  C13 UNL     1      -1.245  -2.694   1.244  1.00  0.00     0.033 A 
ENDBRANCH   7  19
BRANCH   1  26
HETATM   26  C2  UNL     1      -0.618   4.212  -1.145  1.00  0.00     0.105 C 
BRANCH  26  27
HETATM   27  C1  UNL     1      -1.650   5.283  -1.182  1.00  0.00     0.235 C 
HETATM   28  O1  UNL     1      -2.664   5.942  -1.131  1.00  0.00    -0.307 OA
ENDBRANCH  26  27
ENDBRANCH   1  26
TORSDOF 6
