REMARK  3 active torsions:
REMARK  status: ('A' for Active; 'I' for Inactive)
REMARK    1  A    between atoms: C1_2  and  N1_3 
REMARK    2  A    between atoms: N1_3  and  C2_4 
REMARK    3  A    between atoms: C5_8  and  O2_9 
ROOT
HETATM    1  C2  UNL     1      -1.915  -1.455  -0.657  1.00  0.00     0.157 C 
HETATM    2  C3  UNL     1      -2.728  -0.331  -1.092  1.00  0.00     0.120 C 
HETATM    3  N2  UNL     1      -2.637   0.978  -1.026  1.00  0.00    -0.263 NA
HETATM    4  C4  UNL     1      -1.713   1.685  -0.141  1.00  0.00     0.085 C 
HETATM    5  C5  UNL     1      -1.999   2.602   0.787  1.00  0.00     0.076 C 
HETATM    6  C6  UNL     1      -0.672   2.978   1.399  1.00  0.00     0.146 C 
HETATM    7  C7  UNL     1       0.097   1.690   1.184  1.00  0.00     0.153 C 
HETATM    8  O3  UNL     1       0.714   1.315   2.177  1.00  0.00    -0.296 OA
HETATM    9  C8  UNL     1      -0.236   1.395  -0.228  1.00  0.00     0.107 C 
HETATM   10  C9  UNL     1      -0.075   0.031  -0.708  1.00  0.00     0.009 C 
HETATM   11  C10 UNL     1      -0.530  -1.101  -0.205  1.00  0.00    -0.033 C 
HETATM   12  C11 UNL     1       0.080  -2.069   0.697  1.00  0.00     0.005 C 
HETATM   13  C12 UNL     1       1.339  -2.340   0.867  1.00  0.00    -0.024 C 
HETATM   14  C13 UNL     1       2.703  -2.066   0.498  1.00  0.00     0.057 C 
HETATM   15  C14 UNL     1       2.943  -0.969  -0.512  1.00  0.00     0.276 C 
HETATM   16  N3  UNL     1       2.592   0.331   0.026  1.00  0.00     0.106 N 
HETATM   17  C15 UNL     1       2.692   1.433  -0.841  1.00  0.00     0.437 C 
HETATM   18  O4  UNL     1       1.681   1.794  -1.653  1.00  0.00    -0.361 OA
HETATM   19  C16 UNL     1       0.519   2.294  -1.126  1.00  0.00     0.198 C 
HETATM   20  H15 UNL     1       3.013   0.437   0.960  1.00  0.00     0.318 HD
ENDROOT
BRANCH   1  21
HETATM   21  N1  UNL     1      -2.522  -2.270   0.372  1.00  0.00    -0.355 N 
HETATM   22  H2  UNL     1      -2.771  -1.940   1.331  1.00  0.00     0.162 HD
BRANCH  21  23
HETATM   23  C1  UNL     1      -2.828  -3.655   0.102  1.00  0.00     0.349 C 
HETATM   24  O1  UNL     1      -2.566  -4.167  -1.041  1.00  0.00    -0.284 OA
ENDBRANCH  21  23
ENDBRANCH   1  21
BRANCH   5  25
HETATM   25  O2  UNL     1      -3.243   3.108   1.132  1.00  0.00    -0.362 OA
HETATM   26  H5  UNL     1      -3.815   3.671   0.508  1.00  0.00     0.217 HD
ENDBRANCH   5  25
TORSDOF 3
