REMARK  4 active torsions:
REMARK  status: ('A' for Active; 'I' for Inactive)
REMARK    1  A    between atoms: N3_14  and  C9_15 
REMARK    2  A    between atoms: C9_15  and  C10_16 
REMARK    3  A    between atoms: C10_16  and  C11_17 
REMARK    4  A    between atoms: C11_17  and  N4_18 
ROOT
HETATM    1  O1  UNL     1       0.915   3.161   1.593  1.00  0.00    -0.271 OA
HETATM    2  C1  UNL     1       1.563   2.273   0.972  1.00  0.00     0.244 C 
HETATM    3  C2  UNL     1       2.992   2.583   1.019  1.00  0.00     0.278 C 
HETATM    4  O2  UNL     1       3.710   1.578   0.335  1.00  0.00    -0.344 OA
HETATM    5  C3  UNL     1       3.242   0.302   0.082  1.00  0.00     0.075 C 
HETATM    6  C4  UNL     1       4.061  -0.715  -0.168  1.00  0.00     0.025 A 
HETATM    7  C5  UNL     1       3.626  -2.072  -0.440  1.00  0.00     0.130 A 
HETATM    8  N1  UNL     1       4.460  -3.009  -0.673  1.00  0.00    -0.254 NA
HETATM    9  C6  UNL     1       5.861  -2.781  -0.681  1.00  0.00     0.228 A 
HETATM   10  N2  UNL     1       6.307  -1.600  -0.447  1.00  0.00    -0.262 NA
HETATM   11  C7  UNL     1       5.517  -0.447  -0.169  1.00  0.00     0.217 A 
HETATM   12 BR1  UNL     1       6.003   0.241   1.580  1.00  0.00    -0.061 Br
HETATM   13  C8  UNL     1       1.808  -0.022   0.070  1.00  0.00     0.191 C 
HETATM   14  N3  UNL     1       1.001   1.147   0.326  1.00  0.00    -0.344 N 
ENDROOT
BRANCH  14  15
HETATM   15  C9  UNL     1      -0.401   1.262  -0.038  1.00  0.00     0.128 C 
BRANCH  15  16
HETATM   16  C10 UNL     1      -1.315   0.781   1.047  1.00  0.00     0.050 C 
BRANCH  16  17
HETATM   17  C11 UNL     1      -2.770   0.880   0.730  1.00  0.00     0.274 C 
BRANCH  17  18
HETATM   18  N4  UNL     1      -3.201   0.143  -0.412  1.00  0.00     0.092 N 
HETATM   19  C12 UNL     1      -3.166  -1.271  -0.308  1.00  0.00     0.298 C 
HETATM   20  C13 UNL     1      -4.393  -1.942   0.197  1.00  0.00     0.198 C 
HETATM   21  O3  UNL     1      -5.589  -1.369  -0.206  1.00  0.00    -0.388 OA
HETATM   22  C14 UNL     1      -5.566   0.018  -0.125  1.00  0.00     0.198 C 
HETATM   23  C15 UNL     1      -4.446   0.595  -0.953  1.00  0.00     0.298 C 
ENDBRANCH  17  18
ENDBRANCH  16  17
ENDBRANCH  15  16
ENDBRANCH  14  15
TORSDOF 4
