REMARK  9 active torsions:
REMARK  status: ('A' for Active; 'I' for Inactive)
REMARK    1  A    between atoms: C2_2  and  C3_3 
REMARK    2  A    between atoms: C3_3  and  O1_4 
REMARK    3  A    between atoms: O1_4  and  C4_5 
REMARK    4  A    between atoms: C7_10  and  N3_11 
REMARK    5  A    between atoms: N3_11  and  C8_12 
REMARK    6  A    between atoms: N4_22  and  C17_23 
REMARK    7  A    between atoms: C17_23  and  C18_24 
REMARK    8  A    between atoms: C18_24  and  C19_25 
REMARK    9  A    between atoms: C19_25  and  N5_26 
ROOT
HETATM    1  C4  UNL     1      -0.280   0.786  -0.785  1.00  0.00     0.277 C 
HETATM    2  C5  UNL     1       1.202   0.609  -0.821  1.00  0.00     0.098 A 
HETATM    3  N1  UNL     1       1.831   1.511  -1.578  1.00  0.00    -0.241 NA
HETATM    4  C6  UNL     1       3.157   1.576  -1.642  1.00  0.00     0.235 A 
HETATM    5  N2  UNL     1       3.860   0.702  -0.917  1.00  0.00    -0.224 NA
HETATM    6  C7  UNL     1       3.340  -0.245  -0.126  1.00  0.00     0.141 A 
HETATM    7  C14 UNL     1       1.965  -0.271  -0.098  1.00  0.00     0.040 A 
HETATM    8  C15 UNL     1       1.238  -1.331   0.579  1.00  0.00     0.034 C 
HETATM    9  C16 UNL     1      -0.083  -1.382   0.434  1.00  0.00     0.089 C 
HETATM   10  N4  UNL     1      -0.901  -0.478  -0.356  1.00  0.00    -0.359 N 
ENDROOT
BRANCH   6  11
HETATM   11  N3  UNL     1       4.067  -1.161   0.635  1.00  0.00    -0.340 N 
HETATM   12  H10 UNL     1       3.599  -1.861   1.240  1.00  0.00     0.167 HD
BRANCH  11  13
HETATM   13  C8  UNL     1       5.468  -1.315   0.741  1.00  0.00     0.035 A 
HETATM   14  C9  UNL     1       6.106  -2.313   1.475  1.00  0.00     0.029 A 
HETATM   15  C10 UNL     1       7.462  -2.457   1.575  1.00  0.00     0.004 A 
HETATM   16  C11 UNL     1       8.306  -1.584   0.925  1.00  0.00     0.019 A 
HETATM   17  C12 UNL     1       7.732  -0.577   0.183  1.00  0.00     0.013 A 
HETATM   18 BR1  UNL     1       8.938   0.603  -0.696  1.00  0.00    -0.051 Br
HETATM   19  C13 UNL     1       6.371  -0.482   0.120  1.00  0.00     0.048 A 
ENDBRANCH  11  13
ENDBRANCH   6  11
BRANCH   1  20
HETATM   20  O1  UNL     1      -0.504   1.638   0.316  1.00  0.00    -0.361 OA
BRANCH  20  21
HETATM   21  C3  UNL     1      -1.144   2.800   0.073  1.00  0.00     0.170 C 
BRANCH  21  22
HETATM   22  C2  UNL     1      -0.427   3.783  -0.822  1.00  0.00     0.022 C 
HETATM   23  C1  UNL     1       0.883   4.196  -0.150  1.00  0.00     0.007 C 
ENDBRANCH  21  22
ENDBRANCH  20  21
ENDBRANCH   1  20
BRANCH  10  24
HETATM   24  C17 UNL     1      -2.234  -0.947  -0.649  1.00  0.00     0.127 C 
BRANCH  24  25
HETATM   25  C18 UNL     1      -3.365  -0.227  -0.020  1.00  0.00     0.050 C 
BRANCH  25  26
HETATM   26  C19 UNL     1      -4.626  -0.986  -0.507  1.00  0.00     0.277 C 
BRANCH  26  27
HETATM   27  N5  UNL     1      -5.815  -0.395   0.022  1.00  0.00     0.113 N 
HETATM   28  C20 UNL     1      -6.949  -1.159  -0.473  1.00  0.00     0.301 C 
HETATM   29  C21 UNL     1      -7.283  -2.022   0.727  1.00  0.00     0.200 C 
HETATM   30  O2  UNL     1      -7.051  -1.119   1.786  1.00  0.00    -0.361 OA
HETATM   31  C22 UNL     1      -5.824  -0.534   1.449  1.00  0.00     0.440 C 
ENDBRANCH  26  27
ENDBRANCH  25  26
ENDBRANCH  24  25
ENDBRANCH  10  24
TORSDOF 9
