REMARK  3 active torsions:
REMARK  status: ('A' for Active; 'I' for Inactive)
REMARK    1  A    between atoms: O1_2  and  C2_3 
REMARK    2  A    between atoms: N4_17  and  C13_18 
REMARK    3  A    between atoms: C17_22  and  C18_23 
ROOT
HETATM    1  C2  UNL     1      -5.048   1.245   0.499  1.00  0.00     0.069 A 
HETATM    2  C3  UNL     1      -5.286  -0.089   0.241  1.00  0.00     0.046 A 
HETATM    3  C4  UNL     1      -4.237  -0.987   0.228  1.00  0.00    -0.025 A 
HETATM    4  C5  UNL     1      -4.503  -2.424  -0.051  1.00  0.00     0.051 C 
HETATM    5  C6  UNL     1      -2.940  -0.545   0.474  1.00  0.00     0.091 A 
HETATM    6  C7  UNL     1      -2.751   0.826   0.732  1.00  0.00     0.007 A 
HETATM    7  C8  UNL     1      -3.784   1.734   0.749  1.00  0.00     0.048 A 
HETATM    8  C9  UNL     1      -1.338   1.288   1.006  1.00  0.00     0.314 C 
HETATM    9  N1  UNL     1      -0.543   0.931  -0.117  1.00  0.00     0.120 N 
HETATM   10  C10 UNL     1       0.093  -0.331  -0.123  1.00  0.00     0.420 A 
HETATM   11  C11 UNL     1      -0.623  -1.424   0.587  1.00  0.00     0.202 A 
HETATM   12  N2  UNL     1      -0.027  -2.265   1.403  1.00  0.00    -0.216 NA
HETATM   13  C12 UNL     1       1.369  -2.165   1.656  1.00  0.00     0.257 A 
HETATM   14  N3  UNL     1       2.083  -1.246   1.094  1.00  0.00    -0.163 NA
HETATM   15  N4  UNL     1       1.516  -0.306   0.214  1.00  0.00    -0.231 N 
HETATM   16  O2  UNL     1      -2.011  -1.615   0.415  1.00  0.00    -0.291 OA
HETATM   17  H11 UNL     1      -1.002   1.109  -1.034  1.00  0.00     0.319 HD
ENDROOT
BRANCH  15  18
HETATM   18  C13 UNL     1       2.277   0.724  -0.405  1.00  0.00     0.045 A 
HETATM   19  C14 UNL     1       2.145   2.013  -0.137  1.00  0.00     0.027 A 
HETATM   20  C15 UNL     1       3.081   2.777  -0.953  1.00  0.00    -0.001 A 
HETATM   21  C16 UNL     1       3.760   1.919  -1.700  1.00  0.00    -0.011 A 
HETATM   22  C17 UNL     1       3.316   0.515  -1.426  1.00  0.00     0.093 A 
BRANCH  22  23
HETATM   23  C18 UNL     1       4.460  -0.279  -0.915  1.00  0.00    -0.045 A 
HETATM   24  C19 UNL     1       4.838  -1.405  -1.616  1.00  0.00     0.008 A 
HETATM   25  C20 UNL     1       5.898  -2.155  -1.156  1.00  0.00     0.001 A 
HETATM   26  C21 UNL     1       6.602  -1.823  -0.014  1.00  0.00     0.000 A 
HETATM   27  C22 UNL     1       6.164  -0.675   0.641  1.00  0.00     0.001 A 
HETATM   28  C23 UNL     1       5.105   0.139   0.247  1.00  0.00     0.008 A 
ENDBRANCH  22  23
ENDBRANCH  15  18
BRANCH   1  29
HETATM   29  O1  UNL     1      -6.062   2.219   0.530  1.00  0.00    -0.356 OA
HETATM   30  C1  UNL     1      -7.376   1.745   0.276  1.00  0.00     0.210 C 
ENDBRANCH   1  29
TORSDOF 3
