REMARK  5 active torsions:
REMARK  status: ('A' for Active; 'I' for Inactive)
REMARK    1  A    between atoms: C7_11  and  N3_12 
REMARK    2  A    between atoms: N3_12  and  C8_13 
REMARK    3  A    between atoms: N4_23  and  C17_24 
REMARK    4  A    between atoms: C17_24  and  C18_25 
REMARK    5  A    between atoms: C18_25  and  C19_26 
ROOT
HETATM    1  O1  UNL     1      -3.306  -4.174   0.016  1.00  0.00    -0.271 OA
HETATM    2  C1  UNL     1      -2.102  -3.911   0.343  1.00  0.00     0.248 C 
HETATM    3  C2  UNL     1      -1.293  -4.977   1.028  1.00  0.00     0.279 C 
HETATM    4  O2  UNL     1      -0.082  -5.055   0.271  1.00  0.00    -0.340 OA
HETATM    5  C3  UNL     1       0.578  -3.864   0.006  1.00  0.00     0.098 A 
HETATM    6  C4  UNL     1       1.945  -3.839  -0.164  1.00  0.00     0.071 A 
HETATM    7  C5  UNL     1       2.560  -2.636  -0.424  1.00  0.00     0.075 A 
HETATM    8  N1  UNL     1       3.901  -2.710  -0.576  1.00  0.00    -0.241 NA
HETATM    9  C6  UNL     1       4.620  -1.603  -0.833  1.00  0.00     0.236 A 
HETATM   10  N2  UNL     1       3.932  -0.463  -0.925  1.00  0.00    -0.224 NA
HETATM   11  C7  UNL     1       2.634  -0.269  -0.796  1.00  0.00     0.142 A 
HETATM   12  C14 UNL     1       1.904  -1.412  -0.531  1.00  0.00     0.041 A 
HETATM   13  C15 UNL     1       0.556  -1.483  -0.356  1.00  0.00     0.050 A 
HETATM   14  C16 UNL     1      -0.098  -2.668  -0.095  1.00  0.00     0.071 A 
HETATM   15  N4  UNL     1      -1.509  -2.625   0.071  1.00  0.00    -0.314 N 
ENDROOT
BRANCH  15  16
HETATM   16  C17 UNL     1      -2.361  -1.492   0.002  1.00  0.00     0.134 C 
BRANCH  16  17
HETATM   17  C18 UNL     1      -2.579  -0.763   1.299  1.00  0.00     0.056 C 
BRANCH  17  18
HETATM   18  C19 UNL     1      -3.514   0.428   1.072  1.00  0.00     0.230 C 
HETATM   19  C20 UNL     1      -3.742   1.175   2.383  1.00  0.00     0.096 C 
HETATM   20  P1  UNL     1      -2.178   2.173   2.643  1.00  0.00     0.016 P 
HETATM   21  O3  UNL     1      -1.998   3.098   1.182  1.00  0.00    -0.338 OA
HETATM   22  H18 UNL     1      -1.047   1.322   2.901  1.00  0.00     0.087 HD
HETATM   23  C21 UNL     1      -3.007   2.666   0.322  1.00  0.00     0.442 C 
HETATM   24  N5  UNL     1      -2.998   1.267   0.046  1.00  0.00     0.111 N 
HETATM   25  H21 UNL     1      -3.388   1.110  -0.894  1.00  0.00     0.319 HD
ENDBRANCH  17  18
ENDBRANCH  16  17
ENDBRANCH  15  16
BRANCH  11  26
HETATM   26  N3  UNL     1       1.949   0.949  -0.899  1.00  0.00    -0.340 N 
HETATM   27  H5  UNL     1       0.921   1.028  -0.772  1.00  0.00     0.167 HD
BRANCH  26  28
HETATM   28  C8  UNL     1       2.485   2.230  -1.179  1.00  0.00     0.035 A 
HETATM   29  C9  UNL     1       3.808   2.441  -1.501  1.00  0.00     0.029 A 
HETATM   30  C10 UNL     1       4.359   3.667  -1.772  1.00  0.00     0.004 A 
HETATM   31  C11 UNL     1       3.588   4.791  -1.736  1.00  0.00     0.024 A 
HETATM   32  C12 UNL     1       2.257   4.651  -1.422  1.00  0.00     0.036 A 
HETATM   33 CL1  UNL     1       1.210   6.051  -1.358  1.00  0.00    -0.084 Cl
HETATM   34  C13 UNL     1       1.771   3.408  -1.163  1.00  0.00     0.053 A 
ENDBRANCH  26  28
ENDBRANCH  11  26
TORSDOF 5
