REMARK  6 active torsions:
REMARK  status: ('A' for Active; 'I' for Inactive)
REMARK    1  A    between atoms: C1_2  and  C2_3 
REMARK    2  A    between atoms: C2_3  and  O2_4 
REMARK    3  A    between atoms: O2_4  and  C3_5 
REMARK    4  A    between atoms: C7_9  and  C8_10 
REMARK    5  A    between atoms: C9_11  and  C10_12 
REMARK    6  A    between atoms: C11_13  and  C12_14 
ROOT
HETATM    1  C3  UNL     1      -3.177  -0.151   0.343  1.00  0.00     0.071 A 
HETATM    2  C4  UNL     1      -2.165  -0.068   1.298  1.00  0.00     0.038 A 
HETATM    3  C5  UNL     1      -0.837  -0.027   0.938  1.00  0.00     0.019 A 
HETATM    4  C6  UNL     1      -0.475  -0.069  -0.391  1.00  0.00     0.022 A 
HETATM    5  C7  UNL     1       0.840  -0.029  -0.753  1.00  0.00     0.070 A 
HETATM    6  N1  UNL     1       1.159  -0.072  -2.057  1.00  0.00    -0.241 NA
HETATM    7  C13 UNL     1       0.228  -0.151  -3.008  1.00  0.00     0.234 A 
HETATM    8  N2  UNL     1      -1.084  -0.191  -2.654  1.00  0.00    -0.241 NA
HETATM    9  C14 UNL     1      -1.454  -0.151  -1.361  1.00  0.00     0.073 A 
HETATM   10  C15 UNL     1      -2.783  -0.191  -0.991  1.00  0.00     0.069 A 
ENDROOT
BRANCH   5  11
HETATM   11  C8  UNL     1       1.911   0.057   0.221  1.00  0.00     0.032 C 
HETATM   12  C9  UNL     1       3.196   0.094  -0.175  1.00  0.00     0.002 C 
BRANCH  12  13
HETATM   13  C10 UNL     1       4.361   0.180   0.700  1.00  0.00    -0.002 C 
HETATM   14  C11 UNL     1       5.595   0.212   0.230  1.00  0.00     0.004 C 
BRANCH  14  15
HETATM   15  C12 UNL     1       6.738   0.300   1.175  1.00  0.00     0.249 C 
HETATM   16  F1  UNL     1       7.515  -0.842   0.955  1.00  0.00    -0.251 F 
ENDBRANCH  14  15
ENDBRANCH  12  13
ENDBRANCH   5  11
BRANCH   1  17
HETATM   17  O2  UNL     1      -4.474  -0.186   0.793  1.00  0.00    -0.344 OA
BRANCH  17  18
HETATM   18  C2  UNL     1      -5.604  -0.269  -0.037  1.00  0.00     0.244 C 
BRANCH  18  19
HETATM   19  C1  UNL     1      -6.797  -0.280   0.872  1.00  0.00     0.257 C 
HETATM   20  O1  UNL     1      -8.006  -0.333   0.807  1.00  0.00    -0.305 OA
ENDBRANCH  18  19
ENDBRANCH  17  18
ENDBRANCH   1  17
TORSDOF 6
