REMARK  5 active torsions:
REMARK  status: ('A' for Active; 'I' for Inactive)
REMARK    1  A    between atoms: C7_11  and  N3_12 
REMARK    2  A    between atoms: N3_12  and  C8_13 
REMARK    3  A    between atoms: N4_23  and  C17_24 
REMARK    4  A    between atoms: C17_24  and  C18_25 
REMARK    5  A    between atoms: C18_25  and  N5_26 
ROOT
HETATM    1  O1  UNL     1      -3.564  -3.251   0.938  1.00  0.00    -0.271 OA
HETATM    2  C1  UNL     1      -2.438  -3.418   0.360  1.00  0.00     0.248 C 
HETATM    3  C2  UNL     1      -2.100  -4.700  -0.313  1.00  0.00     0.279 C 
HETATM    4  O2  UNL     1      -0.697  -4.896  -0.295  1.00  0.00    -0.340 OA
HETATM    5  C3  UNL     1       0.181  -3.843  -0.265  1.00  0.00     0.098 A 
HETATM    6  C4  UNL     1       1.497  -4.089  -0.586  1.00  0.00     0.071 A 
HETATM    7  C5  UNL     1       2.420  -3.066  -0.571  1.00  0.00     0.075 A 
HETATM    8  N1  UNL     1       3.690  -3.411  -0.903  1.00  0.00    -0.241 NA
HETATM    9  C6  UNL     1       4.608  -2.430  -0.897  1.00  0.00     0.236 A 
HETATM   10  N2  UNL     1       4.285  -1.179  -0.580  1.00  0.00    -0.224 NA
HETATM   11  C7  UNL     1       3.061  -0.770  -0.244  1.00  0.00     0.142 A 
HETATM   12  C14 UNL     1       2.118  -1.748  -0.244  1.00  0.00     0.041 A 
HETATM   13  C15 UNL     1       0.804  -1.585   0.059  1.00  0.00     0.050 A 
HETATM   14  C16 UNL     1      -0.171  -2.559   0.065  1.00  0.00     0.071 A 
HETATM   15  N4  UNL     1      -1.526  -2.324   0.391  1.00  0.00    -0.312 N 
ENDROOT
BRANCH  11  16
HETATM   16  N3  UNL     1       2.696   0.543   0.093  1.00  0.00    -0.340 N 
HETATM   17  H5  UNL     1       1.729   0.795   0.373  1.00  0.00     0.167 HD
BRANCH  16  18
HETATM   18  C8  UNL     1       3.511   1.701   0.119  1.00  0.00     0.035 A 
HETATM   19  C9  UNL     1       4.796   1.720  -0.370  1.00  0.00     0.029 A 
HETATM   20  C10 UNL     1       5.613   2.829  -0.352  1.00  0.00     0.004 A 
HETATM   21  C11 UNL     1       5.166   4.012   0.176  1.00  0.00     0.024 A 
HETATM   22  C12 UNL     1       3.903   4.049   0.673  1.00  0.00     0.036 A 
HETATM   23 CL1  UNL     1       3.287   5.516   1.351  1.00  0.00    -0.084 Cl
HETATM   24  C13 UNL     1       3.128   2.918   0.632  1.00  0.00     0.053 A 
ENDBRANCH  16  18
ENDBRANCH  11  16
BRANCH  15  25
HETATM   25  C17 UNL     1      -1.949  -0.986   0.747  1.00  0.00     0.162 C 
BRANCH  25  26
HETATM   26  C18 UNL     1      -2.379  -0.246  -0.497  1.00  0.00     0.293 C 
BRANCH  26  27
HETATM   27  N5  UNL     1      -2.820   1.096  -0.264  1.00  0.00     0.093 N 
HETATM   28  C19 UNL     1      -3.197   1.677  -1.522  1.00  0.00     0.299 C 
HETATM   29  C20 UNL     1      -3.895   2.985  -1.372  1.00  0.00    -0.001 C 
HETATM   30  C21 UNL     1      -4.476   3.343  -0.231  1.00  0.00    -0.027 C 
HETATM   31  C22 UNL     1      -4.462   2.462   0.954  1.00  0.00     0.057 C 
HETATM   32  C23 UNL     1      -3.842   1.123   0.734  1.00  0.00     0.276 C 
ENDBRANCH  26  27
ENDBRANCH  25  26
ENDBRANCH  15  25
TORSDOF 5
