REMARK  8 active torsions:
REMARK  status: ('A' for Active; 'I' for Inactive)
REMARK    1  A    between atoms: N3_14  and  C11_15 
REMARK    2  A    between atoms: C11_15  and  C12_16 
REMARK    3  A    between atoms: C12_16  and  N4_17 
REMARK    4  A    between atoms: N4_17  and  C13_18 
REMARK    5  A    between atoms: C13_18  and  C14_19 
REMARK    6  A    between atoms: C14_19  and  O2_20 
REMARK    7  A    between atoms: O2_20  and  C15_21 
REMARK    8  A    between atoms: C15_21  and  C16_22 
ROOT
HETATM    1  C1  UNL     1      -2.681   0.844  -3.752  1.00  0.00     0.065 C 
HETATM    2  C2  UNL     1      -3.176   1.166  -2.570  1.00  0.00     0.038 C 
HETATM    3  C3  UNL     1      -2.487   0.489  -1.457  1.00  0.00     0.055 C 
HETATM    4  C4  UNL     1      -2.684   0.242  -0.162  1.00  0.00     0.048 C 
HETATM    5  C5  UNL     1      -3.722   0.537   0.820  1.00  0.00     0.212 C 
HETATM    6  C6  UNL     1      -4.334   1.866   0.588  1.00  0.00     0.129 C 
HETATM    7  N1  UNL     1      -4.788   2.702  -0.281  1.00  0.00    -0.255 NA
HETATM    8  C7  UNL     1      -4.936   2.729  -1.716  1.00  0.00     0.232 C 
HETATM    9  N2  UNL     1      -4.253   2.085  -2.602  1.00  0.00    -0.246 NA
HETATM   10  O1  UNL     1      -3.315   0.443   2.137  1.00  0.00    -0.369 OA
HETATM   11  C8  UNL     1      -1.947   0.568   2.308  1.00  0.00     0.225 C 
HETATM   12  C9  UNL     1      -1.254  -0.546   1.565  1.00  0.00     0.026 C 
HETATM   13  C10 UNL     1      -0.528  -1.506   2.103  1.00  0.00     0.040 C 
HETATM   14  N3  UNL     1      -1.464  -0.496   0.129  1.00  0.00    -0.348 N 
ENDROOT
BRANCH  14  15
HETATM   15  C11 UNL     1      -0.551  -1.097  -0.775  1.00  0.00     0.159 C 
BRANCH  15  16
HETATM   16  C12 UNL     1       0.787  -0.493  -0.956  1.00  0.00     0.289 C 
BRANCH  16  17
HETATM   17  N4  UNL     1       1.626  -0.385   0.216  1.00  0.00     0.087 N 
HETATM   18  H15 UNL     1       1.256   0.333   0.891  1.00  0.00     0.316 HD
BRANCH  17  19
HETATM   19  C13 UNL     1       2.943   0.179  -0.152  1.00  0.00     0.295 C 
BRANCH  19  20
HETATM   20  C14 UNL     1       3.761   0.270   1.097  1.00  0.00     0.197 C 
BRANCH  20  21
HETATM   21  O2  UNL     1       3.945  -0.969   1.688  1.00  0.00    -0.389 OA
BRANCH  21  22
HETATM   22  C15 UNL     1       4.595  -1.879   0.870  1.00  0.00     0.178 C 
BRANCH  22  23
HETATM   23  C16 UNL     1       5.981  -1.416   0.457  1.00  0.00     0.111 C 
HETATM   24 BR1  UNL     1       6.822  -2.740  -0.685  1.00  0.00    -0.094 Br
ENDBRANCH  22  23
ENDBRANCH  21  22
ENDBRANCH  20  21
ENDBRANCH  19  20
ENDBRANCH  17  19
ENDBRANCH  16  17
ENDBRANCH  15  16
ENDBRANCH  14  15
TORSDOF 8
