REMARK  6 active torsions:
REMARK  status: ('A' for Active; 'I' for Inactive)
REMARK    1  A    between atoms: C7_8  and  C8_9 
REMARK    2  A    between atoms: C10_13  and  C11_14 
REMARK    3  A    between atoms: N3_20  and  C16_21 
REMARK    4  A    between atoms: C16_21  and  C17_22 
REMARK    5  A    between atoms: C17_22  and  C18_23 
REMARK    6  A    between atoms: C18_23  and  N4_24 
ROOT
HETATM    1  C8  UNL     1      -1.541   1.264  -0.942  1.00  0.00     0.243 C 
HETATM    2  N1  UNL     1      -2.733   0.377  -1.038  1.00  0.00    -0.252 NA
HETATM    3  C9  UNL     1      -2.531  -0.886  -1.280  1.00  0.00     0.229 C 
HETATM    4  N2  UNL     1      -3.166  -2.142  -1.471  1.00  0.00    -0.247 NA
HETATM    5  C10 UNL     1      -3.085  -2.914  -0.396  1.00  0.00     0.040 C 
HETATM    6  C13 UNL     1      -2.485  -2.729   0.956  1.00  0.00     0.087 C 
HETATM    7  C14 UNL     1      -1.598  -1.559   1.040  1.00  0.00    -0.004 C 
HETATM    8  C15 UNL     1      -0.860  -0.477   0.795  1.00  0.00     0.084 C 
HETATM    9  N3  UNL     1      -0.543   0.348  -0.349  1.00  0.00    -0.364 N 
ENDROOT
BRANCH   1  10
HETATM   10  C7  UNL     1      -1.912   2.324  -0.006  1.00  0.00    -0.007 A 
HETATM   11  C2  UNL     1      -1.578   3.621  -0.335  1.00  0.00    -0.030 A 
HETATM   12  C1  UNL     1      -0.875   4.056  -1.563  1.00  0.00     0.050 C 
HETATM   13  C3  UNL     1      -1.929   4.616   0.565  1.00  0.00     0.040 A 
HETATM   14 CL1  UNL     1      -1.536   6.309   0.216  1.00  0.00    -0.084 Cl
HETATM   15  C4  UNL     1      -2.593   4.397   1.774  1.00  0.00     0.024 A 
HETATM   16  C5  UNL     1      -2.908   3.078   2.061  1.00  0.00     0.002 A 
HETATM   17  C6  UNL     1      -2.566   2.053   1.170  1.00  0.00     0.012 A 
ENDBRANCH   1  10
BRANCH   9  18
HETATM   18  C16 UNL     1       0.769   0.298  -0.993  1.00  0.00     0.126 C 
BRANCH  18  19
HETATM   19  C17 UNL     1       1.740  -0.532  -0.183  1.00  0.00     0.050 C 
BRANCH  19  20
HETATM   20  C18 UNL     1       3.045  -0.562  -0.956  1.00  0.00     0.277 C 
BRANCH  20  21
HETATM   21  N4  UNL     1       4.086  -1.306  -0.222  1.00  0.00     0.113 N 
HETATM   22  C19 UNL     1       4.496  -0.560   0.940  1.00  0.00     0.301 C 
HETATM   23  C20 UNL     1       5.992  -0.546   0.853  1.00  0.00     0.200 C 
HETATM   24  O1  UNL     1       6.317  -1.445  -0.182  1.00  0.00    -0.361 OA
HETATM   25  C21 UNL     1       5.252  -1.333  -1.064  1.00  0.00     0.440 C 
ENDBRANCH  20  21
ENDBRANCH  19  20
ENDBRANCH  18  19
ENDBRANCH   9  18
BRANCH   5  26
HETATM   26  C11 UNL     1      -3.766  -4.157  -0.703  1.00  0.00     0.039 C 
HETATM   27  C12 UNL     1      -3.853  -5.135   0.202  1.00  0.00     0.086 C 
HETATM   28 CL2  UNL     1      -3.442  -5.632   1.824  1.00  0.00    -0.097 Cl
ENDBRANCH   5  26
TORSDOF 6
