REMARK  7 active torsions:
REMARK  status: ('A' for Active; 'I' for Inactive)
REMARK    1  A    between atoms: N1_8  and  C7_9 
REMARK    2  A    between atoms: C7_9  and  C8_10 
REMARK    3  A    between atoms: C9_11  and  N2_12 
REMARK    4  A    between atoms: N2_12  and  C10_13 
REMARK    5  A    between atoms: C10_13  and  C11_14 
REMARK    6  A    between atoms: C11_14  and  C12_15 
REMARK    7  A    between atoms: C12_15  and  N3_16 
ROOT
HETATM    1  C7  UNL     1      -2.496  -0.121   0.198  1.00  0.00     0.259 C 
HETATM    2  N4  UNL     1      -2.978  -1.185  -0.730  1.00  0.00    -0.221 NA
HETATM    3  C17 UNL     1      -4.136  -1.456  -1.067  1.00  0.00     0.232 C 
HETATM    4  N5  UNL     1      -4.568  -2.528  -1.969  1.00  0.00    -0.254 NA
HETATM    5  C18 UNL     1      -4.528  -3.746  -1.404  1.00  0.00     0.120 C 
HETATM    6  C19 UNL     1      -4.146  -4.274  -0.091  1.00  0.00     0.043 C 
HETATM    7  C20 UNL     1      -3.674  -4.054   1.132  1.00  0.00     0.139 C 
HETATM    8  O2  UNL     1      -3.176  -3.031   2.042  1.00  0.00    -0.338 OA
HETATM    9  C21 UNL     1      -2.937  -1.908   1.301  1.00  0.00     0.349 C 
HETATM   10  O3  UNL     1      -2.140  -0.854   1.405  1.00  0.00    -0.314 OA
ENDROOT
BRANCH   1  11
HETATM   11  N1  UNL     1      -3.443   0.857   0.403  1.00  0.00    -0.353 N 
HETATM   12  C2  UNL     1      -3.345   1.992  -0.501  1.00  0.00     0.085 C 
HETATM   13  C1  UNL     1      -2.658   3.138   0.207  1.00  0.00     0.032 C 
HETATM   14  C3  UNL     1      -4.710   2.475  -0.940  1.00  0.00     0.075 C 
HETATM   15  C4  UNL     1      -5.352   3.074   0.277  1.00  0.00     0.011 C 
HETATM   16 CL1  UNL     1      -6.105   4.621   0.580  1.00  0.00    -0.089 Cl
HETATM   17  C5  UNL     1      -5.266   2.141   1.251  1.00  0.00     0.012 C 
HETATM   18  C6  UNL     1      -4.632   0.757   1.103  1.00  0.00     0.151 C 
ENDBRANCH   1  11
BRANCH   1  19
HETATM   19  C8  UNL     1      -1.258   0.361  -0.382  1.00  0.00     0.076 C 
HETATM   20  C9  UNL     1      -0.154   0.466   0.341  1.00  0.00     0.085 C 
BRANCH  20  21
HETATM   21  N2  UNL     1       1.213   0.822   0.373  1.00  0.00    -0.399 N 
HETATM   22  H12 UNL     1       1.578   1.754   0.647  1.00  0.00     0.158 HD
BRANCH  21  23
HETATM   23  C10 UNL     1       2.167  -0.197  -0.006  1.00  0.00     0.120 C 
BRANCH  23  24
HETATM   24  C11 UNL     1       3.596   0.313   0.084  1.00  0.00     0.050 C 
BRANCH  24  25
HETATM   25  C12 UNL     1       4.502  -0.822  -0.331  1.00  0.00     0.274 C 
BRANCH  25  26
HETATM   26  N3  UNL     1       5.898  -0.506  -0.299  1.00  0.00     0.092 N 
HETATM   27  C13 UNL     1       6.454  -0.295   1.002  1.00  0.00     0.298 C 
HETATM   28  C14 UNL     1       7.967  -0.485   0.891  1.00  0.00     0.198 C 
HETATM   29  O1  UNL     1       8.411  -0.042  -0.353  1.00  0.00    -0.388 OA
HETATM   30  C15 UNL     1       7.652   1.030  -0.826  1.00  0.00     0.198 C 
HETATM   31  C16 UNL     1       6.299   0.476  -1.281  1.00  0.00     0.298 C 
ENDBRANCH  25  26
ENDBRANCH  24  25
ENDBRANCH  23  24
ENDBRANCH  21  23
ENDBRANCH  20  21
ENDBRANCH   1  19
TORSDOF 7
