REMARK  5 active torsions:
REMARK  status: ('A' for Active; 'I' for Inactive)
REMARK    1  A    between atoms: C7_11  and  N3_12 
REMARK    2  A    between atoms: N3_12  and  C8_13 
REMARK    3  A    between atoms: N4_23  and  C17_24 
REMARK    4  A    between atoms: C17_24  and  C18_25 
REMARK    5  A    between atoms: C18_25  and  C19_26 
ROOT
HETATM    1  O1  UNL     1       2.639   4.108  -0.499  1.00  0.00    -0.271 OA
HETATM    2  C1  UNL     1       1.378   4.100  -0.315  1.00  0.00     0.248 C 
HETATM    3  C2  UNL     1       0.763   5.417  -0.001  1.00  0.00     0.279 C 
HETATM    4  O2  UNL     1      -0.585   5.289   0.363  1.00  0.00    -0.340 OA
HETATM    5  C3  UNL     1      -1.258   4.059   0.256  1.00  0.00     0.098 A 
HETATM    6  C4  UNL     1      -2.597   4.063   0.554  1.00  0.00     0.071 A 
HETATM    7  C5  UNL     1      -3.278   2.871   0.457  1.00  0.00     0.075 A 
HETATM    8  N1  UNL     1      -4.599   2.939   0.770  1.00  0.00    -0.241 NA
HETATM    9  C6  UNL     1      -5.378   1.857   0.726  1.00  0.00     0.236 A 
HETATM   10  N2  UNL     1      -4.799   0.710   0.359  1.00  0.00    -0.224 NA
HETATM   11  C7  UNL     1      -3.518   0.532   0.033  1.00  0.00     0.142 A 
HETATM   12  C14 UNL     1      -2.719   1.654   0.082  1.00  0.00     0.041 A 
HETATM   13  C15 UNL     1      -1.374   1.697  -0.207  1.00  0.00     0.050 A 
HETATM   14  C16 UNL     1      -0.667   2.875  -0.119  1.00  0.00     0.071 A 
HETATM   15  N4  UNL     1       0.714   2.822  -0.435  1.00  0.00    -0.314 N 
ENDROOT
BRANCH  15  16
HETATM   16  C17 UNL     1       1.477   1.655  -0.845  1.00  0.00     0.134 C 
BRANCH  16  17
HETATM   17  C18 UNL     1       2.014   1.007   0.384  1.00  0.00     0.045 C 
BRANCH  17  18
HETATM   18  C19 UNL     1       2.845  -0.233   0.162  1.00  0.00     0.078 C 
HETATM   19  C20 UNL     1       4.041   0.072  -0.672  1.00  0.00     0.027 C 
HETATM   20  C21 UNL     1       4.665  -1.152  -1.296  1.00  0.00     0.028 C 
HETATM   21  C22 UNL     1       5.313  -2.069  -0.314  1.00  0.00     0.167 C 
HETATM   22  O3  UNL     1       4.464  -3.170  -0.084  1.00  0.00    -0.390 OA
HETATM   23  C23 UNL     1       3.645  -2.907   1.010  1.00  0.00     0.186 C 
HETATM   24  C24 UNL     1       2.273  -2.565   0.537  1.00  0.00     0.140 C 
HETATM   25  N5  UNL     1       2.118  -1.384  -0.213  1.00  0.00    -0.415 N 
HETATM   26  H26 UNL     1       1.519  -1.367  -1.029  1.00  0.00     0.153 HD
ENDBRANCH  17  18
ENDBRANCH  16  17
ENDBRANCH  15  16
BRANCH  11  27
HETATM   27  N3  UNL     1      -2.937  -0.691  -0.344  1.00  0.00    -0.340 N 
HETATM   28  H5  UNL     1      -1.961  -0.793  -0.654  1.00  0.00     0.167 HD
BRANCH  27  29
HETATM   29  C8  UNL     1      -3.579  -1.954  -0.361  1.00  0.00     0.035 A 
HETATM   30  C9  UNL     1      -4.772  -2.222   0.260  1.00  0.00     0.029 A 
HETATM   31  C10 UNL     1      -5.420  -3.435   0.250  1.00  0.00     0.004 A 
HETATM   32  C11 UNL     1      -4.860  -4.491  -0.427  1.00  0.00     0.024 A 
HETATM   33  C12 UNL     1      -3.675  -4.300  -1.067  1.00  0.00     0.036 A 
HETATM   34 CL1  UNL     1      -2.929  -5.621  -1.942  1.00  0.00    -0.084 Cl
HETATM   35  C13 UNL     1      -3.084  -3.079  -1.021  1.00  0.00     0.053 A 
ENDBRANCH  27  29
ENDBRANCH  11  27
TORSDOF 5
