REMARK  0 active torsions:
REMARK  status: ('A' for Active; 'I' for Inactive)
ROOT
HETATM    1  C1  UNL     1       0.133  -4.662   0.300  1.00  0.00     0.071 C 
HETATM    2  C2  UNL     1      -0.757  -3.705   0.822  1.00  0.00     0.329 C 
HETATM    3  O1  UNL     1      -1.919  -3.377  -0.116  1.00  0.00    -0.318 OA
HETATM    4  C3  UNL     1      -2.190  -1.971   0.195  1.00  0.00     0.111 A 
HETATM    5  C4  UNL     1      -1.124  -1.263   0.836  1.00  0.00     0.338 A 
HETATM    6  C5  UNL     1      -0.322  -0.734   1.317  1.00  0.00     0.160 A 
HETATM    7  C6  UNL     1      -1.692  -0.104   0.906  1.00  0.00     0.097 A 
HETATM    8  C7  UNL     1      -2.998   0.175   0.429  1.00  0.00     0.028 A 
HETATM    9  C8  UNL     1      -4.015   0.967   0.186  1.00  0.00     0.134 A 
HETATM   10  N1  UNL     1      -5.061   0.427  -0.403  1.00  0.00    -0.224 NA
HETATM   11  C9  UNL     1      -5.263  -0.826  -0.808  1.00  0.00     0.236 A 
HETATM   12  N2  UNL     1      -4.257  -1.756  -0.611  1.00  0.00    -0.239 NA
HETATM   13  C10 UNL     1      -3.211  -1.115   0.004  1.00  0.00     0.100 A 
HETATM   14  N3  UNL     1      -3.853   2.310   0.513  1.00  0.00    -0.372 N 
HETATM   15  C11 UNL     1      -2.929   3.260   1.004  1.00  0.00     0.146 C 
HETATM   16  C12 UNL     1      -1.683   3.466   0.264  1.00  0.00     0.128 A 
HETATM   17  C13 UNL     1      -0.736   4.038  -0.420  1.00  0.00    -0.005 A 
HETATM   18 CL1  UNL     1      -2.006   5.178  -0.077  1.00  0.00    -0.179 Cl
HETATM   19  C14 UNL     1       0.555   4.011  -1.070  1.00  0.00     0.021 C 
HETATM   20  C15 UNL     1       1.038   2.754  -0.860  1.00  0.00     0.055 C 
HETATM   21  C16 UNL     1       2.361   2.266  -1.358  1.00  0.00    -0.016 C 
HETATM   22  C17 UNL     1       2.618   0.993  -1.016  1.00  0.00    -0.051 C 
HETATM   23  C18 UNL     1       3.835   0.224  -1.355  1.00  0.00     0.038 C 
HETATM   24  C19 UNL     1       4.612   0.115  -0.032  1.00  0.00     0.034 C 
HETATM   25  C20 UNL     1       3.764  -0.700   0.904  1.00  0.00     0.271 C 
HETATM   26  N4  UNL     1       2.393  -0.355   0.986  1.00  0.00     0.092 N 
HETATM   27  C21 UNL     1       1.720   0.084  -0.182  1.00  0.00     0.250 C 
HETATM   28  C22 UNL     1       1.123  -1.016  -0.976  1.00  0.00     0.068 C 
HETATM   29  C23 UNL     1       0.968  -2.318  -0.276  1.00  0.00     0.244 C 
HETATM   30  N5  UNL     1      -0.165  -2.260   0.779  1.00  0.00    -0.022 N 
HETATM   31  H8  UNL     1      -4.785   2.799   0.311  1.00  0.00     0.161 HD
HETATM   32  H21 UNL     1       2.249   0.302   1.807  1.00  0.00     0.316 HD
ENDROOT
TORSDOF 0
