REMARK  0 active torsions:
REMARK  status: ('A' for Active; 'I' for Inactive)
ROOT
HETATM    1  O1  UNL     1       0.293  -4.550   0.666  1.00  0.00    -0.271 OA
HETATM    2  C1  UNL     1      -0.548  -3.620   0.541  1.00  0.00     0.244 C 
HETATM    3  C2  UNL     1      -1.557  -3.788   1.601  1.00  0.00     0.278 C 
HETATM    4  O2  UNL     1      -2.495  -2.691   1.670  1.00  0.00    -0.340 OA
HETATM    5  C3  UNL     1      -2.436  -1.517   0.957  1.00  0.00     0.096 C 
HETATM    6  C4  UNL     1      -1.438  -0.977   0.281  1.00  0.00     0.032 C 
HETATM    7  C5  UNL     1      -0.991  -1.649  -0.958  1.00  0.00     0.155 C 
HETATM    8  N1  UNL     1      -0.188  -2.786  -0.570  1.00  0.00    -0.347 N 
HETATM    9  C6  UNL     1       0.966  -3.068  -1.334  1.00  0.00     0.127 C 
HETATM   10  C7  UNL     1       2.248  -2.405  -0.920  1.00  0.00     0.040 C 
HETATM   11  C8  UNL     1       2.117  -0.925  -0.968  1.00  0.00     0.124 C 
HETATM   12  N2  UNL     1       3.346  -0.190  -0.615  1.00  0.00    -0.380 N 
HETATM   13  C9  UNL     1       4.503  -0.979  -0.859  1.00  0.00     0.149 C 
HETATM   14  C10 UNL     1       5.680  -0.481  -0.055  1.00  0.00     0.187 C 
HETATM   15  O3  UNL     1       5.156   0.403   0.885  1.00  0.00    -0.384 OA
HETATM   16  C11 UNL     1       4.496   1.449   0.223  1.00  0.00     0.224 C 
HETATM   17  C12 UNL     1       3.085   1.098  -0.144  1.00  0.00     0.031 C 
HETATM   18  C13 UNL     1       2.408   2.125   0.143  1.00  0.00     0.027 C 
HETATM   19  C14 UNL     1       1.028   2.462   0.028  1.00  0.00     0.003 C 
HETATM   20  C15 UNL     1       0.288   3.477   0.284  1.00  0.00     0.020 C 
HETATM   21  C16 UNL     1      -1.039   3.943   0.230  1.00  0.00     0.015 A 
HETATM   22 CL1  UNL     1      -1.544   5.505   0.717  1.00  0.00    -0.174 Cl
HETATM   23  C17 UNL     1      -2.288   3.753  -0.061  1.00  0.00     0.132 A 
HETATM   24  C18 UNL     1      -3.734   3.840  -0.279  1.00  0.00     0.146 C 
HETATM   25  N3  UNL     1      -4.523   2.878   0.455  1.00  0.00    -0.373 N 
HETATM   26  C19 UNL     1      -4.638   1.484   0.509  1.00  0.00     0.127 A 
HETATM   27  C20 UNL     1      -3.484   0.789   0.748  1.00  0.00     0.084 A 
HETATM   28  C21 UNL     1      -3.503  -0.572   0.782  1.00  0.00     0.095 A 
HETATM   29  N4  UNL     1      -4.640  -1.283   0.588  1.00  0.00    -0.239 NA
HETATM   30  C22 UNL     1      -5.805  -0.594   0.350  1.00  0.00     0.236 A 
HETATM   31  N5  UNL     1      -5.745   0.747   0.322  1.00  0.00    -0.225 NA
HETATM   32  H24 UNL     1      -5.244   3.145   1.173  1.00  0.00     0.161 HD
ENDROOT
TORSDOF 0
