REMARK  7 active torsions:
REMARK  status: ('A' for Active; 'I' for Inactive)
REMARK    1  A    between atoms: C1_2  and  C2_3 
REMARK    2  A    between atoms: C7_11  and  N3_12 
REMARK    3  A    between atoms: N3_12  and  C8_13 
REMARK    4  A    between atoms: N4_24  and  C18_25 
REMARK    5  A    between atoms: C18_25  and  C19_26 
REMARK    6  A    between atoms: C19_26  and  C20_27 
REMARK    7  A    between atoms: C20_27  and  N5_28 
ROOT
HETATM    1  C2  UNL     1       1.486  -3.196  -1.099  1.00  0.00     0.288 C 
HETATM    2  O2  UNL     1       0.180  -3.748  -1.105  1.00  0.00    -0.319 OA
HETATM    3  C3  UNL     1      -0.908  -2.924  -0.872  1.00  0.00     0.082 A 
HETATM    4  C4  UNL     1      -2.153  -3.465  -0.653  1.00  0.00     0.070 A 
HETATM    5  C5  UNL     1      -3.246  -2.674  -0.422  1.00  0.00     0.074 A 
HETATM    6  N1  UNL     1      -4.408  -3.298  -0.220  1.00  0.00    -0.241 NA
HETATM    7  C6  UNL     1      -5.531  -2.612   0.015  1.00  0.00     0.236 A 
HETATM    8  N2  UNL     1      -5.434  -1.280   0.038  1.00  0.00    -0.224 NA
HETATM    9  C7  UNL     1      -4.324  -0.563  -0.150  1.00  0.00     0.142 A 
HETATM   10  C14 UNL     1      -3.190  -1.300  -0.389  1.00  0.00     0.039 A 
HETATM   11  C15 UNL     1      -1.941  -0.782  -0.609  1.00  0.00     0.029 A 
HETATM   12  C16 UNL     1      -0.834  -1.566  -0.844  1.00  0.00    -0.006 A 
HETATM   13  C17 UNL     1       0.534  -0.980  -1.082  1.00  0.00     0.161 C 
HETATM   14  N4  UNL     1       1.465  -1.899  -0.519  1.00  0.00    -0.378 N 
ENDROOT
BRANCH   9  15
HETATM   15  N3  UNL     1      -4.231   0.848  -0.124  1.00  0.00    -0.340 N 
HETATM   16  H5  UNL     1      -3.338   1.337  -0.289  1.00  0.00     0.167 HD
BRANCH  15  17
HETATM   17  C8  UNL     1      -5.232   1.819   0.110  1.00  0.00     0.035 A 
HETATM   18  C9  UNL     1      -5.062   3.204   0.037  1.00  0.00     0.029 A 
HETATM   19  C10 UNL     1      -6.054   4.101   0.273  1.00  0.00     0.004 A 
HETATM   20  C11 UNL     1      -7.315   3.692   0.606  1.00  0.00     0.024 A 
HETATM   21  C12 UNL     1      -7.543   2.337   0.694  1.00  0.00     0.036 A 
HETATM   22 CL1  UNL     1      -9.169   1.866   1.125  1.00  0.00    -0.084 Cl
HETATM   23  C13 UNL     1      -6.511   1.454   0.448  1.00  0.00     0.053 A 
ENDBRANCH  15  17
ENDBRANCH   9  15
BRANCH  14  24
HETATM   24  C18 UNL     1       2.698  -1.369  -0.061  1.00  0.00     0.121 C 
BRANCH  24  25
HETATM   25  C19 UNL     1       3.630  -0.848  -1.110  1.00  0.00     0.039 C 
BRANCH  25  26
HETATM   26  C20 UNL     1       4.915  -0.303  -0.516  1.00  0.00     0.118 C 
BRANCH  26  27
HETATM   27  N5  UNL     1       4.702   0.771   0.386  1.00  0.00    -0.408 N 
HETATM   28  C21 UNL     1       4.232   1.997  -0.147  1.00  0.00     0.143 C 
HETATM   29  C22 UNL     1       5.341   2.994  -0.201  1.00  0.00     0.187 C 
HETATM   30  O3  UNL     1       6.131   3.071   0.918  1.00  0.00    -0.388 OA
HETATM   31  C23 UNL     1       5.767   2.259   1.959  1.00  0.00     0.187 C 
HETATM   32  C24 UNL     1       5.519   0.828   1.545  1.00  0.00     0.143 C 
ENDBRANCH  26  27
ENDBRANCH  25  26
ENDBRANCH  24  25
ENDBRANCH  14  24
BRANCH   1  33
HETATM   33  C1  UNL     1       2.306  -4.105  -0.257  1.00  0.00     0.284 C 
HETATM   34  O1  UNL     1       1.415  -4.899   0.020  1.00  0.00    -0.302 OA
ENDBRANCH   1  33
TORSDOF 7
