REMARK  3 active torsions:
REMARK  status: ('A' for Active; 'I' for Inactive)
REMARK    1  A    between atoms: O1_2  and  C2_3 
REMARK    2  A    between atoms: N2_11  and  C8_12 
REMARK    3  A    between atoms: N3_24  and  N4_25 
ROOT
HETATM    1  C2  UNL     1       4.313   0.891  -0.713  1.00  0.00     0.101 C 
HETATM    2  C3  UNL     1       4.102  -0.337  -0.246  1.00  0.00     0.058 C 
HETATM    3  C4  UNL     1       4.498  -1.672   0.191  1.00  0.00     0.006 C 
HETATM    4  C5  UNL     1       3.485  -2.411   0.567  1.00  0.00     0.132 C 
HETATM    5  O2  UNL     1       2.306  -3.134   0.956  1.00  0.00    -0.349 OA
HETATM    6  C6  UNL     1       1.082  -2.557   0.640  1.00  0.00     0.196 C 
HETATM    7  C7  UNL     1      -0.170  -3.008   1.215  1.00  0.00     0.148 C 
HETATM    8  N1  UNL     1      -1.143  -2.450   0.502  1.00  0.00    -0.183 NA
HETATM    9  N2  UNL     1      -1.033  -1.132  -0.003  1.00  0.00    -0.241 N 
HETATM   10  C18 UNL     1       0.161  -0.422   0.294  1.00  0.00     0.136 C 
HETATM   11  C19 UNL     1       1.054  -1.099   1.059  1.00  0.00     0.062 C 
HETATM   12  N3  UNL     1       0.613   0.881  -0.205  1.00  0.00    -0.299 N 
HETATM   13  C20 UNL     1       2.007   0.670  -0.355  1.00  0.00     0.148 C 
HETATM   14  C21 UNL     1       2.983   1.655  -0.835  1.00  0.00     0.063 C 
ENDROOT
BRANCH   9  15
HETATM   15  C8  UNL     1      -2.004  -0.383  -0.739  1.00  0.00     0.165 A 
HETATM   16  C9  UNL     1      -2.705  -1.444  -1.570  1.00  0.00     0.006 A 
HETATM   17  C10 UNL     1      -3.970  -1.594  -1.309  1.00  0.00     0.010 A 
HETATM   18  C11 UNL     1      -4.283  -0.641  -0.248  1.00  0.00    -0.031 A 
HETATM   19  C12 UNL     1      -3.168   0.047   0.085  1.00  0.00    -0.038 A 
HETATM   20  C17 UNL     1      -5.697  -0.607   0.210  1.00  0.00     0.011 C 
HETATM   21  C13 UNL     1      -3.290   1.013   1.200  1.00  0.00     0.064 C 
HETATM   22  C14 UNL     1      -4.368   1.982   0.937  1.00  0.00    -0.022 C 
HETATM   23  C15 UNL     1      -5.687   1.905   0.674  1.00  0.00    -0.004 C 
HETATM   24  C16 UNL     1      -6.288   0.549   0.613  1.00  0.00     0.001 C 
ENDBRANCH   9  15
BRANCH  12  25
HETATM   25  N4  UNL     1      -0.467   1.729  -0.329  1.00  0.00    -0.246 NA
HETATM   26  H19 UNL     1      -0.400   2.405   0.471  1.00  0.00     0.143 HD
HETATM   27  H20 UNL     1      -0.418   2.296  -1.233  1.00  0.00     0.143 HD
ENDBRANCH  12  25
BRANCH   1  28
HETATM   28  O1  UNL     1       5.205   1.858  -1.162  1.00  0.00    -0.381 OA
HETATM   29  C1  UNL     1       6.095   2.547  -0.315  1.00  0.00     0.202 C 
ENDBRANCH   1  28
TORSDOF 3
