REMARK  7 active torsions:
REMARK  status: ('A' for Active; 'I' for Inactive)
REMARK    1  A    between atoms: C1_2  and  C2_3 
REMARK    2  A    between atoms: C2_3  and  O2_4 
REMARK    3  A    between atoms: O2_4  and  C3_5 
REMARK    4  A    between atoms: N4_15  and  C10_16 
REMARK    5  A    between atoms: C10_16  and  C11_17 
REMARK    6  A    between atoms: C11_17  and  C12_18 
REMARK    7  A    between atoms: C12_18  and  N5_19 
ROOT
HETATM    1  C3  UNL     1       2.361  -0.287  -0.693  1.00  0.00     0.146 C 
HETATM    2  C4  UNL     1       3.421   0.169  -0.017  1.00  0.00     0.090 C 
HETATM    3  C5  UNL     1       3.504   0.695   1.330  1.00  0.00     0.092 A 
HETATM    4  N1  UNL     1       4.622   1.381   1.668  1.00  0.00    -0.238 NA
HETATM    5  C6  UNL     1       4.752   1.894   2.916  1.00  0.00     0.257 A 
HETATM    6  N2  UNL     1       3.790   1.752   3.872  1.00  0.00    -0.143 NA
HETATM    7  N3  UNL     1       2.688   1.083   3.556  1.00  0.00    -0.147 NA
HETATM    8  C7  UNL     1       2.521   0.553   2.315  1.00  0.00     0.109 A 
HETATM    9  C8  UNL     1       1.236  -0.131   2.218  1.00  0.00     0.053 C 
HETATM   10  C9  UNL     1       0.613  -0.514   1.117  1.00  0.00     0.095 C 
HETATM   11  N4  UNL     1       1.008  -0.372  -0.238  1.00  0.00    -0.338 N 
ENDROOT
BRANCH  11  12
HETATM   12  C10 UNL     1       0.040  -0.288  -1.306  1.00  0.00     0.132 C 
BRANCH  12  13
HETATM   13  C11 UNL     1      -0.759   0.970  -1.311  1.00  0.00     0.050 C 
BRANCH  13  14
HETATM   14  C12 UNL     1      -1.584   1.266  -0.121  1.00  0.00     0.274 C 
BRANCH  14  15
HETATM   15  N5  UNL     1      -2.605   0.294   0.195  1.00  0.00     0.092 N 
HETATM   16  C13 UNL     1      -3.661   0.258  -0.779  1.00  0.00     0.298 C 
HETATM   17  C14 UNL     1      -4.896  -0.433  -0.300  1.00  0.00     0.198 C 
HETATM   18  O3  UNL     1      -5.358   0.353   0.785  1.00  0.00    -0.388 OA
HETATM   19  C15 UNL     1      -4.485   0.129   1.812  1.00  0.00     0.198 C 
HETATM   20  C16 UNL     1      -3.050   0.371   1.549  1.00  0.00     0.298 C 
ENDBRANCH  14  15
ENDBRANCH  13  14
ENDBRANCH  12  13
ENDBRANCH  11  12
BRANCH   1  21
HETATM   21  O2  UNL     1       2.709  -0.702  -1.966  1.00  0.00    -0.329 OA
BRANCH  21  22
HETATM   22  C2  UNL     1       2.818  -2.085  -2.230  1.00  0.00     0.246 C 
BRANCH  22  23
HETATM   23  C1  UNL     1       3.518  -2.332  -3.533  1.00  0.00     0.257 C 
HETATM   24  O1  UNL     1       3.946  -3.101  -4.361  1.00  0.00    -0.305 OA
ENDBRANCH  22  23
ENDBRANCH  21  22
ENDBRANCH   1  21
TORSDOF 7
