REMARK  6 active torsions:
REMARK  status: ('A' for Active; 'I' for Inactive)
REMARK    1  A    between atoms: C3_3  and  C4_4 
REMARK    2  A    between atoms: C6_6  and  C7_7 
REMARK    3  A    between atoms: C7_7  and  N1_8 
REMARK    4  A    between atoms: N1_8  and  C8_9 
REMARK    5  A    between atoms: N4_19  and  C16_20 
REMARK    6  A    between atoms: C16_20  and  N5_21 
ROOT
HETATM    1  C1  UNL     1       6.870   2.116  -1.776  1.00  0.00     0.112 C 
HETATM    2  C2  UNL     1       6.259   1.455  -0.622  1.00  0.00    -0.106 C 
HETATM    3  C3  UNL     1       5.749   0.919   0.351  1.00  0.00    -0.072 C 
ENDROOT
BRANCH   3   4
HETATM    4  C4  UNL     1       5.164   0.270   1.514  1.00  0.00    -0.011 C 
HETATM    5  C5  UNL     1       5.709   0.491   2.868  1.00  0.00     0.058 C 
HETATM    6  C6  UNL     1       4.135  -0.495   1.207  1.00  0.00     0.008 C 
BRANCH   6   7
HETATM    7  C7  UNL     1       3.364  -0.922   0.041  1.00  0.00     0.149 C 
BRANCH   7   8
HETATM    8  N1  UNL     1       1.973  -0.554   0.148  1.00  0.00    -0.371 N 
HETATM    9  H10 UNL     1       1.685   0.121  -0.584  1.00  0.00     0.161 HD
BRANCH   8  10
HETATM   10  C8  UNL     1       1.149  -1.094   1.168  1.00  0.00     0.137 A 
HETATM   11  N2  UNL     1       1.622  -1.963   2.057  1.00  0.00    -0.224 NA
HETATM   12  C9  UNL     1       0.839  -2.473   3.015  1.00  0.00     0.235 A 
HETATM   13  N3  UNL     1      -0.461  -2.148   3.144  1.00  0.00    -0.241 NA
HETATM   14  C10 UNL     1      -0.999  -1.273   2.272  1.00  0.00     0.075 A 
HETATM   15  C11 UNL     1      -2.333  -0.978   2.449  1.00  0.00     0.071 A 
HETATM   16  C15 UNL     1      -0.181  -0.755   1.290  1.00  0.00     0.041 A 
HETATM   17  C12 UNL     1      -2.918  -0.087   1.574  1.00  0.00     0.097 A 
HETATM   18  C13 UNL     1      -2.127   0.461   0.565  1.00  0.00     0.066 A 
HETATM   19  O3  UNL     1      -4.225   0.346   1.568  1.00  0.00    -0.347 OA
HETATM   20  C14 UNL     1      -0.787   0.133   0.427  1.00  0.00     0.050 A 
HETATM   21  N4  UNL     1      -2.697   1.393  -0.363  1.00  0.00    -0.360 N 
HETATM   22  C21 UNL     1      -3.775   2.273   0.127  1.00  0.00     0.151 C 
HETATM   23  C22 UNL     1      -4.567   1.678   1.235  1.00  0.00     0.195 C 
BRANCH  21  24
HETATM   24  C16 UNL     1      -2.247   1.462  -1.697  1.00  0.00     0.252 C 
BRANCH  24  25
HETATM   25  N5  UNL     1      -2.543   0.179  -2.347  1.00  0.00    -0.332 N 
HETATM   26  C17 UNL     1      -1.920  -1.094  -2.575  1.00  0.00     0.153 C 
HETATM   27  C18 UNL     1      -2.929  -2.176  -2.164  1.00  0.00     0.188 C 
HETATM   28  O1  UNL     1      -3.948  -2.281  -3.087  1.00  0.00    -0.380 OA
HETATM   29  C19 UNL     1      -4.620  -1.113  -3.359  1.00  0.00     0.270 C 
HETATM   30  C20 UNL     1      -3.846   0.102  -2.982  1.00  0.00     0.244 C 
HETATM   31  O2  UNL     1      -4.549   1.121  -3.324  1.00  0.00    -0.271 OA
ENDBRANCH  24  25
ENDBRANCH  21  24
ENDBRANCH   8  10
ENDBRANCH   7   8
ENDBRANCH   6   7
ENDBRANCH   3   4
TORSDOF 6
