REMARK  2 active torsions:
REMARK  status: ('A' for Active; 'I' for Inactive)
REMARK    1  A    between atoms: C4_4  and  C5_5 
REMARK    2  A    between atoms: C11_16  and  N4_17 
ROOT
HETATM    1  C5  UNL     1      -0.700   0.758  -0.078  1.00  0.00     0.136 A 
HETATM    2  C6  UNL     1      -1.276   1.364  -1.296  1.00  0.00     0.028 A 
HETATM    3  C7  UNL     1      -0.859   2.630  -1.489  1.00  0.00     0.148 C 
HETATM    4  O1  UNL     1       0.023   3.101  -0.492  1.00  0.00    -0.346 OA
HETATM    5  C8  UNL     1      -0.469   2.953   0.832  1.00  0.00     0.302 C 
HETATM    6  N1  UNL     1      -1.045   1.627   1.026  1.00  0.00    -0.106 NA
HETATM    7  F1  UNL     1      -2.381   1.744   1.159  1.00  0.00    -0.130 F 
HETATM    8  C9  UNL     1      -2.033   0.178  -1.584  1.00  0.00     0.082 A 
HETATM    9  N2  UNL     1      -2.905  -0.439  -2.425  1.00  0.00    -0.241 NA
HETATM   10  C10 UNL     1      -3.360  -1.670  -2.073  1.00  0.00     0.235 A 
HETATM   11  N3  UNL     1      -2.940  -2.223  -0.931  1.00  0.00    -0.224 NA
HETATM   12  C11 UNL     1      -2.079  -1.621  -0.098  1.00  0.00     0.134 A 
HETATM   13  C12 UNL     1      -1.571  -0.374  -0.383  1.00  0.00     0.052 A 
ENDROOT
BRANCH   1  14
HETATM   14  C4  UNL     1       0.755   0.427  -0.148  1.00  0.00    -0.026 A 
HETATM   15  C3  UNL     1       1.082  -0.580   0.885  1.00  0.00     0.012 A 
HETATM   16  C2  UNL     1       2.384  -0.885   0.815  1.00  0.00    -0.080 A 
HETATM   17  C1  UNL     1       3.370  -1.764   1.493  1.00  0.00     0.043 C 
HETATM   18  C14 UNL     1       3.026  -0.102  -0.273  1.00  0.00     0.061 A 
HETATM   19  C13 UNL     1       1.878   0.680  -0.792  1.00  0.00    -0.013 A 
ENDBRANCH   1  14
BRANCH  12  20
HETATM   20  N4  UNL     1      -1.764  -2.375   1.061  1.00  0.00    -0.383 N 
HETATM   21  H9  UNL     1      -1.035  -3.045   1.389  1.00  0.00     0.157 HD
HETATM   22  H10 UNL     1      -2.488  -2.201   1.817  1.00  0.00     0.157 HD
ENDBRANCH  12  20
TORSDOF 2
