REMARK  5 active torsions:
REMARK  status: ('A' for Active; 'I' for Inactive)
REMARK    1  A    between atoms: C7_8  and  N2_9 
REMARK    2  A    between atoms: C8_10  and  N3_11 
REMARK    3  A    between atoms: N4_16  and  C13_17 
REMARK    4  A    between atoms: C13_17  and  C14_18 
REMARK    5  A    between atoms: C14_18  and  C15_19 
ROOT
HETATM    1  N3  UNL     1       0.156  -1.659   2.114  1.00  0.00    -0.245 NA
HETATM    2  C9  UNL     1      -0.071  -2.301   1.023  1.00  0.00     0.081 A 
HETATM    3  C10 UNL     1      -0.519  -3.238   0.093  1.00  0.00     0.148 A 
HETATM    4  C11 UNL     1       0.671  -3.619  -0.197  1.00  0.00     0.025 A 
HETATM    5  C12 UNL     1       0.252  -2.224  -0.446  1.00  0.00     0.169 A 
HETATM    6  N4  UNL     1      -0.760  -1.937  -1.334  1.00  0.00    -0.378 N 
HETATM    7  C21 UNL     1      -1.697  -2.910  -1.750  1.00  0.00     0.290 C 
HETATM    8  O1  UNL     1      -1.687  -3.787  -0.524  1.00  0.00    -0.349 OA
ENDROOT
BRANCH   1   9
HETATM    9  C8  UNL     1       0.938  -0.464   2.118  1.00  0.00     0.229 C 
HETATM   10  N2  UNL     1       2.122  -0.981   1.989  1.00  0.00    -0.257 NA
BRANCH  10  11
HETATM   11  C7  UNL     1       3.305  -0.145   1.939  1.00  0.00     0.213 C 
HETATM   12  C2  UNL     1       3.813  -0.103   0.537  1.00  0.00     0.048 C 
HETATM   13  C1  UNL     1       4.181  -1.518   0.086  1.00  0.00     0.018 C 
HETATM   14  C3  UNL     1       4.881   0.852   0.260  1.00  0.00    -0.019 C 
HETATM   15  C4  UNL     1       5.266   2.060   0.635  1.00  0.00    -0.002 C 
HETATM   16  C5  UNL     1       4.491   2.821   1.634  1.00  0.00     0.016 C 
HETATM   17  C6  UNL     1       3.561   2.456   2.506  1.00  0.00     0.085 C 
HETATM   18  N1  UNL     1       3.137   1.100   2.597  1.00  0.00    -0.376 N 
HETATM   19  H9  UNL     1       2.481   0.943   3.420  1.00  0.00     0.161 HD
ENDBRANCH  10  11
ENDBRANCH   1   9
BRANCH   6  20
HETATM   20  C13 UNL     1      -0.728  -0.692  -2.017  1.00  0.00     0.122 C 
BRANCH  20  21
HETATM   21  C14 UNL     1      -0.940   0.508  -1.144  1.00  0.00     0.055 C 
BRANCH  21  22
HETATM   22  C15 UNL     1      -2.213   0.595  -0.402  1.00  0.00     0.225 C 
HETATM   23  N5  UNL     1      -2.202   1.822   0.385  1.00  0.00     0.088 N 
HETATM   24  C16 UNL     1      -3.440   2.035   1.083  1.00  0.00     0.270 C 
HETATM   25  H19 UNL     1      -1.346   1.948   0.927  1.00  0.00     0.316 HD
HETATM   26  C17 UNL     1      -4.331   0.825   1.096  1.00  0.00     0.030 C 
HETATM   27  C18 UNL     1      -4.580   0.196  -0.231  1.00  0.00     0.008 C 
HETATM   28  C19 UNL     1      -3.474   0.494  -1.222  1.00  0.00     0.015 C 
HETATM   29  C20 UNL     1      -3.818   1.791  -1.912  1.00  0.00     0.012 C 
ENDBRANCH  21  22
ENDBRANCH  20  21
ENDBRANCH   6  20
TORSDOF 5
