REMARK  1 active torsions:
REMARK  status: ('A' for Active; 'I' for Inactive)
REMARK    1  A    between atoms: C14_19  and  N4_20 
ROOT
HETATM    1  C1  UNL     1      -0.701   0.096   1.612  1.00  0.00     0.044 C 
HETATM    2  C2  UNL     1      -1.229   0.084   0.389  1.00  0.00    -0.020 C 
HETATM    3  C3  UNL     1      -2.631   0.481   0.078  1.00  0.00     0.076 C 
HETATM    4  N1  UNL     1      -2.662   1.675   0.524  1.00  0.00    -0.244 NA
HETATM    5  C4  UNL     1      -1.518   2.280   1.132  1.00  0.00     0.229 C 
HETATM    6  N2  UNL     1      -0.799   2.447   0.100  1.00  0.00    -0.263 NA
HETATM    7  C5  UNL     1       0.507   3.020   0.017  1.00  0.00     0.272 C 
HETATM    8  N3  UNL     1       1.354   2.309  -0.944  1.00  0.00    -0.371 N 
HETATM    9  C6  UNL     1       1.589   0.901  -0.702  1.00  0.00     0.038 A 
HETATM   10  C7  UNL     1       0.908  -0.258  -0.644  1.00  0.00     0.017 A 
HETATM   11  C8  UNL     1       1.799  -1.434  -0.329  1.00  0.00     0.233 A 
HETATM   12  F1  UNL     1       1.772  -2.208  -1.495  1.00  0.00    -0.240 F 
HETATM   13  C9  UNL     1       3.107  -0.788  -0.212  1.00  0.00    -0.044 A 
HETATM   14  C10 UNL     1       4.196  -1.715   0.098  1.00  0.00     0.047 C 
HETATM   15  C11 UNL     1       2.977   0.513  -0.422  1.00  0.00     0.035 A 
HETATM   16  C12 UNL     1      -0.539  -0.319  -0.872  1.00  0.00     0.187 C 
HETATM   17  O1  UNL     1      -1.014  -1.568  -1.171  1.00  0.00    -0.374 OA
HETATM   18  C13 UNL     1      -2.203  -1.826  -0.557  1.00  0.00     0.210 C 
HETATM   19  C14 UNL     1      -3.198  -0.722  -0.568  1.00  0.00     0.293 C 
HETATM   20  H6  UNL     1       1.826   2.711  -1.811  1.00  0.00     0.161 HD
ENDROOT
BRANCH  19  21
HETATM   21  N4  UNL     1      -4.338  -1.166   0.225  1.00  0.00     0.090 N 
HETATM   22  H16 UNL     1      -3.974  -1.443   1.163  1.00  0.00     0.313 HD
HETATM   23  H17 UNL     1      -5.021  -0.376   0.252  1.00  0.00     0.313 HD
ENDBRANCH  19  21
TORSDOF 1
