REMARK  5 active torsions:
REMARK  status: ('A' for Active; 'I' for Inactive)
REMARK    1  A    between atoms: N1_5  and  C4_6 
REMARK    2  A    between atoms: C4_6  and  C5_7 
REMARK    3  A    between atoms: C5_7  and  C6_8 
REMARK    4  A    between atoms: C6_8  and  N2_9 
REMARK    5  A    between atoms: C16_22  and  C17_23 
ROOT
HETATM    1  C1  UNL     1      -1.824  -3.157   1.418  1.00  0.00     0.030 C 
HETATM    2  C2  UNL     1      -1.508  -2.100   0.791  1.00  0.00     0.034 C 
HETATM    3  C3  UNL     1      -1.041  -0.771   1.248  1.00  0.00     0.254 C 
HETATM    4  O1  UNL     1      -0.878  -0.532   2.443  1.00  0.00    -0.267 OA
HETATM    5  N1  UNL     1      -0.864   0.030   0.032  1.00  0.00    -0.337 N 
HETATM    6  C11 UNL     1      -1.819  -0.106  -1.090  1.00  0.00     0.163 C 
HETATM    7  C12 UNL     1      -1.255  -1.298  -1.807  1.00  0.00     0.015 C 
HETATM    8  C13 UNL     1      -1.544  -2.082  -0.722  1.00  0.00    -0.006 C 
HETATM    9  C14 UNL     1      -2.672  -3.135  -1.012  1.00  0.00     0.126 C 
HETATM   10  N3  UNL     1      -3.879  -2.751  -1.656  1.00  0.00    -0.250 N 
HETATM   11  C15 UNL     1      -3.947  -1.234  -1.784  1.00  0.00     0.397 A 
HETATM   12  N4  UNL     1      -4.088   0.177  -2.008  1.00  0.00     0.370 N 
HETATM   13  C16 UNL     1      -3.264  -0.238  -0.897  1.00  0.00     0.313 A 
ENDROOT
BRANCH   5  14
HETATM   14  C4  UNL     1       0.267   0.940   0.067  1.00  0.00     0.128 C 
BRANCH  14  15
HETATM   15  C5  UNL     1       1.534   0.292  -0.451  1.00  0.00     0.050 C 
BRANCH  15  16
HETATM   16  C6  UNL     1       2.618   1.350  -0.355  1.00  0.00     0.274 C 
BRANCH  16  17
HETATM   17  N2  UNL     1       3.892   0.857  -0.823  1.00  0.00     0.092 N 
HETATM   18  C7  UNL     1       4.881   1.907  -0.707  1.00  0.00     0.298 C 
HETATM   19  C8  UNL     1       5.860   1.591   0.412  1.00  0.00     0.198 C 
HETATM   20  O2  UNL     1       6.553   0.423   0.144  1.00  0.00    -0.388 OA
HETATM   21  C9  UNL     1       5.730  -0.587  -0.327  1.00  0.00     0.198 C 
HETATM   22  C10 UNL     1       4.260  -0.298  -0.022  1.00  0.00     0.298 C 
ENDBRANCH  16  17
ENDBRANCH  15  16
ENDBRANCH  14  15
ENDBRANCH   5  14
BRANCH  13  23
HETATM   23  C17 UNL     1      -3.832   0.176   0.384  1.00  0.00    -0.007 A 
HETATM   24  C18 UNL     1      -4.419  -0.519   1.422  1.00  0.00     0.010 A 
HETATM   25  C19 UNL     1      -4.888   0.114   2.552  1.00  0.00     0.004 A 
HETATM   26  C20 UNL     1      -4.793   1.481   2.699  1.00  0.00     0.042 A 
HETATM   27  C21 UNL     1      -4.212   2.209   1.682  1.00  0.00     0.117 A 
HETATM   28  F1  UNL     1      -4.139   3.548   1.866  1.00  0.00    -0.206 F 
HETATM   29  C22 UNL     1      -3.736   1.567   0.534  1.00  0.00     0.052 A 
ENDBRANCH  13  23
TORSDOF 5
