REMARK  5 active torsions:
REMARK  status: ('A' for Active; 'I' for Inactive)
REMARK    1  A    between atoms: C7_11  and  C8_12 
REMARK    2  A    between atoms: N3_22  and  C17_23 
REMARK    3  A    between atoms: C17_23  and  C18_24 
REMARK    4  A    between atoms: C18_24  and  C19_25 
REMARK    5  A    between atoms: C19_25  and  N4_26 
ROOT
HETATM    1  O1  UNL     1      -2.312  -2.990  -1.949  1.00  0.00    -0.271 OA
HETATM    2  C1  UNL     1      -1.077  -2.763  -2.163  1.00  0.00     0.248 C 
HETATM    3  C2  UNL     1      -0.499  -3.700  -3.162  1.00  0.00     0.279 C 
HETATM    4  O2  UNL     1       0.907  -3.576  -3.241  1.00  0.00    -0.340 OA
HETATM    5  C3  UNL     1       1.604  -2.559  -2.589  1.00  0.00     0.098 A 
HETATM    6  C4  UNL     1       2.957  -2.517  -2.850  1.00  0.00     0.071 A 
HETATM    7  C5  UNL     1       3.733  -1.545  -2.251  1.00  0.00     0.073 A 
HETATM    8  N1  UNL     1       5.044  -1.475  -2.491  1.00  0.00    -0.241 NA
HETATM    9  C6  UNL     1       5.727  -0.480  -1.863  1.00  0.00     0.234 A 
HETATM   10  N2  UNL     1       5.148   0.407  -1.034  1.00  0.00    -0.240 NA
HETATM   11  C7  UNL     1       3.829   0.348  -0.782  1.00  0.00     0.081 A 
HETATM   12  C14 UNL     1       3.113  -0.640  -1.399  1.00  0.00     0.025 A 
HETATM   13  C15 UNL     1       1.760  -0.674  -1.133  1.00  0.00     0.049 A 
HETATM   14  C16 UNL     1       1.015  -1.640  -1.736  1.00  0.00     0.071 A 
HETATM   15  N3  UNL     1      -0.384  -1.697  -1.474  1.00  0.00    -0.314 N 
ENDROOT
BRANCH  15  16
HETATM   16  C17 UNL     1      -1.113  -0.800  -0.605  1.00  0.00     0.134 C 
BRANCH  16  17
HETATM   17  C18 UNL     1      -1.193  -1.221   0.799  1.00  0.00     0.040 C 
BRANCH  17  18
HETATM   18  C19 UNL     1      -1.933  -0.224   1.640  1.00  0.00     0.118 C 
BRANCH  18  19
HETATM   19  N4  UNL     1      -3.244   0.107   1.375  1.00  0.00    -0.408 N 
HETATM   20  C20 UNL     1      -3.638   0.855   0.255  1.00  0.00     0.143 C 
HETATM   21  C21 UNL     1      -4.522   2.029   0.662  1.00  0.00     0.187 C 
HETATM   22  O3  UNL     1      -5.508   1.632   1.559  1.00  0.00    -0.388 OA
HETATM   23  C22 UNL     1      -4.947   1.075   2.707  1.00  0.00     0.187 C 
HETATM   24  C23 UNL     1      -4.281  -0.216   2.276  1.00  0.00     0.143 C 
ENDBRANCH  18  19
ENDBRANCH  17  18
ENDBRANCH  16  17
ENDBRANCH  15  16
BRANCH  11  25
HETATM   25  C8  UNL     1       3.372   1.381   0.131  1.00  0.00    -0.004 A 
HETATM   26  C9  UNL     1       2.609   1.292   1.274  1.00  0.00     0.014 A 
HETATM   27  C10 UNL     1       2.240   2.365   2.016  1.00  0.00     0.004 A 
HETATM   28  C11 UNL     1       2.637   3.626   1.627  1.00  0.00     0.042 A 
HETATM   29  C12 UNL     1       3.402   3.835   0.503  1.00  0.00     0.117 A 
HETATM   30  F1  UNL     1       3.804   5.053   0.099  1.00  0.00    -0.206 F 
HETATM   31  C13 UNL     1       3.744   2.688  -0.212  1.00  0.00     0.056 A 
ENDBRANCH  11  25
TORSDOF 5
