REMARK  6 active torsions:
REMARK  status: ('A' for Active; 'I' for Inactive)
REMARK    1  A    between atoms: C2_2  and  C3_3 
REMARK    2  A    between atoms: C4_4  and  O1_5 
REMARK    3  A    between atoms: O1_5  and  C5_6 
REMARK    4  A    between atoms: C5_6  and  N1_7 
REMARK    5  A    between atoms: C8_10  and  O2_11 
REMARK    6  A    between atoms: O2_11  and  C9_12 
ROOT
HETATM    1  C1  UNL     1       2.488  -2.323  -0.530  1.00  0.00     0.060 C 
HETATM    2  C2  UNL     1       2.496  -0.838  -0.447  1.00  0.00     0.019 C 
HETATM    3  C6  UNL     1       1.391  -0.182  -0.133  1.00  0.00     0.058 A 
HETATM    4  C7  UNL     1       0.152  -0.957   0.133  1.00  0.00     0.147 A 
HETATM    5  C8  UNL     1      -0.973  -0.054   0.469  1.00  0.00     0.152 A 
HETATM    6  N2  UNL     1      -0.899   1.216   0.524  1.00  0.00    -0.221 NA
HETATM    7  C16 UNL     1       0.315   1.903   0.258  1.00  0.00     0.235 A 
HETATM    8  N3  UNL     1       1.386   1.232  -0.051  1.00  0.00    -0.245 NA
ENDROOT
BRANCH   2   9
HETATM    9  C3  UNL     1       3.726  -0.146  -0.715  1.00  0.00    -0.039 C 
HETATM   10  C4  UNL     1       4.773   0.422  -0.950  1.00  0.00     0.061 C 
BRANCH  10  11
HETATM   11  O1  UNL     1       5.957   1.075  -1.199  1.00  0.00    -0.274 OA
BRANCH  11  12
HETATM   12  C5  UNL     1       6.868   1.157  -0.128  1.00  0.00     0.453 C 
BRANCH  12  13
HETATM   13  N1  UNL     1       6.286   1.867   1.017  1.00  0.00     0.102 N 
HETATM   14  H6  UNL     1       5.501   1.259   1.371  1.00  0.00     0.315 HD
HETATM   15  H7  UNL     1       7.033   1.822   1.757  1.00  0.00     0.315 HD
ENDBRANCH  12  13
ENDBRANCH  11  12
ENDBRANCH  10  11
ENDBRANCH   2   9
BRANCH   5  16
HETATM   16  O2  UNL     1      -2.247  -0.494   0.767  1.00  0.00    -0.295 OA
BRANCH  16  17
HETATM   17  C9  UNL     1      -3.389   0.094   0.259  1.00  0.00     0.083 A 
HETATM   18  C10 UNL     1      -3.610   1.152  -0.589  1.00  0.00     0.038 A 
HETATM   19  C11 UNL     1      -4.892   1.518  -0.926  1.00  0.00     0.003 A 
HETATM   20  C12 UNL     1      -6.014   0.852  -0.439  1.00  0.00     0.001 A 
HETATM   21  C13 UNL     1      -5.800  -0.225   0.422  1.00  0.00     0.009 A 
HETATM   22  C14 UNL     1      -4.508  -0.584   0.755  1.00  0.00    -0.028 A 
HETATM   23  C15 UNL     1      -4.510  -1.759   1.686  1.00  0.00     0.051 C 
ENDBRANCH  16  17
ENDBRANCH   5  16
TORSDOF 6
