REMARK  7 active torsions:
REMARK  status: ('A' for Active; 'I' for Inactive)
REMARK    1  A    between atoms: C6_7  and  C7_8 
REMARK    2  A    between atoms: C7_8  and  C8_9 
REMARK    3  A    between atoms: C8_9  and  C9_10 
REMARK    4  A    between atoms: C8_9  and  C10_12 
REMARK    5  A    between atoms: C9_10  and  P1_11 
REMARK    6  A    between atoms: C10_12  and  C11_13 
REMARK    7  A    between atoms: C11_13  and  C12_14 
ROOT
HETATM    1  C8  UNL     1       0.056   0.287  -0.114  1.00  0.00    -0.006 C 
ENDROOT
BRANCH   1   2
HETATM    2  C7  UNL     1      -1.348   0.481  -0.382  1.00  0.00     0.029 C 
BRANCH   2   3
HETATM    3  C6  UNL     1      -2.555   0.906  -0.524  1.00  0.00    -0.007 A 
HETATM    4  C2  UNL     1      -3.709   0.333  -0.996  1.00  0.00     0.057 A 
HETATM    5  C1  UNL     1      -3.583  -0.905  -1.402  1.00  0.00     0.046 C 
HETATM    6  N1  UNL     1      -4.794   1.099  -0.981  1.00  0.00    -0.261 NA
HETATM    7  C3  UNL     1      -4.789   2.353  -0.539  1.00  0.00     0.117 A 
HETATM    8  C4  UNL     1      -3.686   3.010  -0.050  1.00  0.00     0.020 A 
HETATM    9  C5  UNL     1      -2.535   2.224  -0.056  1.00  0.00     0.015 A 
ENDBRANCH   2   3
ENDBRANCH   1   2
BRANCH   1  10
HETATM   10  C9  UNL     1       0.617   1.385   0.373  1.00  0.00    -0.115 C 
BRANCH  10  11
HETATM   11  P1  UNL     1       1.378   2.824   0.713  1.00  0.00    -0.017 P 
HETATM   12  H7  UNL     1       1.812   3.651  -0.416  1.00  0.00     0.076 HD
ENDBRANCH  10  11
ENDBRANCH   1  10
BRANCH   1  13
HETATM   13  C10 UNL     1       1.039  -0.766  -0.224  1.00  0.00     0.042 C 
BRANCH  13  14
HETATM   14  C11 UNL     1       1.722  -1.837  -0.410  1.00  0.00     0.025 C 
BRANCH  14  15
HETATM   15  C12 UNL     1       3.125  -1.698  -0.044  1.00  0.00     0.152 C 
HETATM   16  S1  UNL     1       3.497  -0.232   0.969  1.00  0.00    -0.086 SA
HETATM   17  C13 UNL     1       4.904  -0.919   1.839  1.00  0.00     0.141 C 
HETATM   18  S2  UNL     1       6.110  -0.281   2.766  1.00  0.00    -0.052 SA
HETATM   19  N2  UNL     1       4.798  -2.332   1.556  1.00  0.00    -0.311 N 
HETATM   20  C14 UNL     1       3.603  -2.738   0.940  1.00  0.00     0.237 C 
HETATM   21  H11 UNL     1       5.564  -3.033   1.792  1.00  0.00     0.170 HD
HETATM   22  O1  UNL     1       3.038  -3.853   1.217  1.00  0.00    -0.272 OA
ENDBRANCH  14  15
ENDBRANCH  13  14
ENDBRANCH   1  13
TORSDOF 7
