REMARK  3 active torsions:
REMARK  status: ('A' for Active; 'I' for Inactive)
REMARK    1  A    between atoms: N1_1  and  C1_2 
REMARK    2  A    between atoms: C5_6  and  N2_7 
REMARK    3  A    between atoms: N2_7  and  C6_8 
ROOT
HETATM    1  C6  UNL     1       2.256  -0.691   0.911  1.00  0.00     0.030 A 
HETATM    2  C7  UNL     1       1.345   0.114   0.390  1.00  0.00     0.040 A 
HETATM    3  C8  UNL     1      -0.064  -0.244   0.507  1.00  0.00    -0.008 A 
HETATM    4  C9  UNL     1      -0.970   0.533   0.002  1.00  0.00     0.007 A 
HETATM    5  C10 UNL     1      -2.402   0.205   0.100  1.00  0.00     0.064 A 
HETATM    6  C11 UNL     1      -2.990   1.318   0.980  1.00  0.00     0.189 C 
HETATM    7  O1  UNL     1      -3.176   2.486   0.250  1.00  0.00    -0.388 OA
HETATM    8  C12 UNL     1      -4.509   2.668  -0.095  1.00  0.00     0.187 C 
HETATM    9  C13 UNL     1      -4.734   1.868  -1.358  1.00  0.00     0.143 C 
HETATM   10  N3  UNL     1      -4.473   0.469  -1.203  1.00  0.00    -0.407 N 
HETATM   11  C14 UNL     1      -5.420  -0.189  -0.418  1.00  0.00     0.143 C 
HETATM   12  C15 UNL     1      -5.101  -1.477   0.218  1.00  0.00     0.194 C 
HETATM   13  O2  UNL     1      -3.957  -1.551   1.013  1.00  0.00    -0.352 OA
HETATM   14  C16 UNL     1      -2.644  -1.077   0.823  1.00  0.00     0.065 A 
HETATM   15  C17 UNL     1      -1.729  -1.890   1.349  1.00  0.00     0.065 A 
HETATM   16  C18 UNL     1      -0.339  -1.475   1.198  1.00  0.00     0.064 A 
HETATM   17  N4  UNL     1       0.544  -2.256   1.703  1.00  0.00    -0.283 NA
HETATM   18  C19 UNL     1       1.965  -1.978   1.634  1.00  0.00     0.206 A 
HETATM   19  C20 UNL     1      -3.117   0.080  -1.200  1.00  0.00     0.139 C 
ENDROOT
BRANCH   1  20
HETATM   20  N2  UNL     1       3.669  -0.539   0.914  1.00  0.00    -0.358 N 
HETATM   21  H6  UNL     1       4.181  -0.433   1.840  1.00  0.00     0.166 HD
BRANCH  20  22
HETATM   22  C5  UNL     1       4.851  -0.454   0.122  1.00  0.00     0.034 A 
HETATM   23  C4  UNL     1       5.511  -1.646  -0.196  1.00  0.00     0.029 A 
HETATM   24  C3  UNL     1       6.674  -1.630  -0.967  1.00  0.00     0.004 A 
HETATM   25  C2  UNL     1       7.074  -0.372  -1.356  1.00  0.00     0.029 A 
HETATM   26  C1  UNL     1       6.492   0.836  -1.091  1.00  0.00     0.027 A 
HETATM   27  C21 UNL     1       5.328   0.778  -0.316  1.00  0.00     0.058 A 
BRANCH  26  28
HETATM   28  N1  UNL     1       7.042   2.053  -1.575  1.00  0.00    -0.399 N 
HETATM   29  H1  UNL     1       6.841   2.627  -2.440  1.00  0.00     0.156 HD
HETATM   30  H2  UNL     1       7.715   2.182  -0.778  1.00  0.00     0.156 HD
ENDBRANCH  26  28
ENDBRANCH  20  22
ENDBRANCH   1  20
TORSDOF 3
