REMARK  5 active torsions:
REMARK  status: ('A' for Active; 'I' for Inactive)
REMARK    1  A    between atoms: C7_8  and  C8_9 
REMARK    2  A    between atoms: N3_21  and  C17_22 
REMARK    3  A    between atoms: C17_22  and  C18_23 
REMARK    4  A    between atoms: C18_23  and  C19_24 
REMARK    5  A    between atoms: C19_24  and  N4_25 
ROOT
HETATM    1  O1  UNL     1       2.193   3.294   0.573  1.00  0.00    -0.273 OA
HETATM    2  C1  UNL     1       1.027   2.859   0.542  1.00  0.00     0.228 A 
HETATM    3  C2  UNL     1      -0.063   3.719   1.075  1.00  0.00     0.144 A 
HETATM    4  C3  UNL     1      -1.259   2.874   0.875  1.00  0.00    -0.024 A 
HETATM    5  C4  UNL     1      -0.959   1.717   0.317  1.00  0.00     0.025 A 
HETATM    6  C5  UNL     1      -1.846   0.586  -0.057  1.00  0.00     0.101 A 
HETATM    7  C6  UNL     1      -3.227   0.902   0.307  1.00  0.00     0.004 A 
HETATM    8  C7  UNL     1      -4.293   0.146   0.147  1.00  0.00     0.077 A 
HETATM    9  N1  UNL     1      -5.599   0.528   0.520  1.00  0.00    -0.243 NA
HETATM   10  C14 UNL     1      -5.943   1.642   1.061  1.00  0.00     0.208 A 
HETATM   11  N2  UNL     1      -4.906   2.579   1.306  1.00  0.00    -0.350 N 
HETATM   12  C15 UNL     1      -3.580   2.195   0.929  1.00  0.00     0.042 A 
HETATM   13  C16 UNL     1      -2.650   3.129   1.201  1.00  0.00     0.039 A 
HETATM   14  N3  UNL     1       0.453   1.631   0.077  1.00  0.00    -0.321 N 
HETATM   15  H10 UNL     1      -5.133   3.477   1.733  1.00  0.00     0.166 HD
ENDROOT
BRANCH  14  16
HETATM   16  C17 UNL     1       1.391   0.662  -0.481  1.00  0.00     0.133 C 
BRANCH  16  17
HETATM   17  C18 UNL     1       1.911  -0.262   0.587  1.00  0.00     0.050 C 
BRANCH  17  18
HETATM   18  C19 UNL     1       2.892  -1.283   0.113  1.00  0.00     0.274 C 
BRANCH  18  19
HETATM   19  N4  UNL     1       4.087  -0.691  -0.460  1.00  0.00     0.092 N 
HETATM   20  C20 UNL     1       4.890  -0.027   0.536  1.00  0.00     0.298 C 
HETATM   21  C21 UNL     1       6.311   0.196   0.188  1.00  0.00     0.198 C 
HETATM   22  O2  UNL     1       6.659  -0.242  -1.091  1.00  0.00    -0.388 OA
HETATM   23  C22 UNL     1       6.290  -1.604  -1.111  1.00  0.00     0.198 C 
HETATM   24  C23 UNL     1       4.807  -1.634  -1.277  1.00  0.00     0.298 C 
ENDBRANCH  18  19
ENDBRANCH  17  18
ENDBRANCH  16  17
ENDBRANCH  14  16
BRANCH   8  25
HETATM   25  C8  UNL     1      -4.259  -1.168  -0.439  1.00  0.00    -0.004 A 
HETATM   26  C9  UNL     1      -3.711  -1.651  -1.607  1.00  0.00     0.014 A 
HETATM   27  C10 UNL     1      -3.761  -2.975  -1.968  1.00  0.00     0.004 A 
HETATM   28  C11 UNL     1      -4.369  -3.928  -1.181  1.00  0.00     0.042 A 
HETATM   29  C12 UNL     1      -4.946  -3.526   0.011  1.00  0.00     0.117 A 
HETATM   30  F1  UNL     1      -5.560  -4.403   0.834  1.00  0.00    -0.206 F 
HETATM   31  C13 UNL     1      -4.864  -2.188   0.318  1.00  0.00     0.056 A 
ENDBRANCH   8  25
TORSDOF 5
