REMARK  4 active torsions:
REMARK  status: ('A' for Active; 'I' for Inactive)
REMARK    1  A    between atoms: C4_4  and  N1_5 
REMARK    2  A    between atoms: C5_6  and  C7_8 
REMARK    3  A    between atoms: C7_8  and  C8_9 
REMARK    4  A    between atoms: C8_9  and  C9_10 
ROOT
HETATM    1  C9  UNL     1      -0.772   0.012  -0.735  1.00  0.00     0.048 A 
HETATM    2  N2  UNL     1      -0.438   0.653  -1.832  1.00  0.00    -0.246 NA
HETATM    3  C10 UNL     1      -1.138   1.534  -2.538  1.00  0.00     0.234 A 
HETATM    4  N3  UNL     1      -2.369   1.831  -2.089  1.00  0.00    -0.241 NA
HETATM    5  C11 UNL     1      -2.856   1.243  -0.959  1.00  0.00     0.070 A 
HETATM    6  C12 UNL     1      -4.128   1.632  -0.611  1.00  0.00     0.033 A 
HETATM    7  C13 UNL     1      -4.656   1.057   0.524  1.00  0.00     0.009 A 
HETATM    8  C14 UNL     1      -3.918   0.144   1.246  1.00  0.00    -0.061 A 
HETATM    9  C15 UNL     1      -4.516  -0.467   2.475  1.00  0.00     0.048 C 
HETATM   10  C16 UNL     1      -2.663  -0.181   0.824  1.00  0.00     0.022 A 
HETATM   11  C17 UNL     1      -2.052   0.339  -0.293  1.00  0.00     0.018 A 
ENDROOT
BRANCH   1  12
HETATM   12  C8  UNL     1      -0.121  -0.957   0.129  1.00  0.00     0.061 C 
BRANCH  12  13
HETATM   13  C7  UNL     1       1.205  -1.474  -0.231  1.00  0.00     0.022 C 
BRANCH  13  14
HETATM   14  C5  UNL     1       2.362  -0.541  -0.352  1.00  0.00     0.013 A 
HETATM   15  C2  UNL     1       2.763   0.252   0.765  1.00  0.00    -0.075 A 
HETATM   16  C1  UNL     1       2.138   1.427   1.441  1.00  0.00     0.044 C 
HETATM   17  C3  UNL     1       3.844  -0.396   0.983  1.00  0.00     0.012 A 
HETATM   18  C4  UNL     1       3.630  -1.320  -0.114  1.00  0.00     0.253 A 
HETATM   19  C6  UNL     1       2.509   0.164  -1.709  1.00  0.00     0.022 C 
BRANCH  18  20
HETATM   20  N1  UNL     1       4.609  -1.261  -1.185  1.00  0.00     0.087 N 
HETATM   21  H6  UNL     1       4.578  -2.089  -1.803  1.00  0.00     0.313 HD
HETATM   22  H7  UNL     1       5.563  -0.983  -0.870  1.00  0.00     0.313 HD
ENDBRANCH  18  20
ENDBRANCH  13  14
ENDBRANCH  12  13
ENDBRANCH   1  12
TORSDOF 4
