REMARK  2 active torsions:
REMARK  status: ('A' for Active; 'I' for Inactive)
REMARK    1  A    between atoms: C10_11  and  N2_12 
REMARK    2  A    between atoms: N2_12  and  C11_13 
ROOT
HETATM    1  C1  UNL     1       6.480   0.997  -1.263  1.00  0.00     0.048 C 
HETATM    2  C2  UNL     1       5.065   0.570  -1.154  1.00  0.00    -0.061 A 
HETATM    3  C3  UNL     1       4.128   0.965  -2.099  1.00  0.00     0.009 A 
HETATM    4  C4  UNL     1       2.794   0.622  -2.090  1.00  0.00     0.038 A 
HETATM    5  C5  UNL     1       2.408  -0.179  -1.039  1.00  0.00     0.085 A 
HETATM    6  C6  UNL     1       3.274  -0.609  -0.070  1.00  0.00    -0.006 A 
HETATM    7  C7  UNL     1       4.599  -0.241  -0.120  1.00  0.00     0.018 A 
HETATM    8  C8  UNL     1       3.171  -1.442   1.140  1.00  0.00     0.160 A 
HETATM    9  N1  UNL     1       1.897  -2.064   1.347  1.00  0.00    -0.391 N 
HETATM   10  C9  UNL     1       0.649  -2.058   0.685  1.00  0.00     0.140 A 
HETATM   11  C10 UNL     1       0.299  -1.364  -0.379  1.00  0.00     0.163 A 
HETATM   12  O1  UNL     1       1.059  -0.469  -1.116  1.00  0.00    -0.292 OA
HETATM   13  H9  UNL     1       2.049  -2.636   2.231  1.00  0.00     0.159 HD
ENDROOT
BRANCH  11  14
HETATM   14  N2  UNL     1      -1.041  -1.712  -0.641  1.00  0.00    -0.342 N 
HETATM   15  H11 UNL     1      -1.495  -2.577  -1.014  1.00  0.00     0.167 HD
BRANCH  14  16
HETATM   16  C11 UNL     1      -2.062  -0.749  -0.373  1.00  0.00    -0.005 A 
HETATM   17  C12 UNL     1      -3.185  -0.119  -0.316  1.00  0.00     0.042 A 
HETATM   18  C13 UNL     1      -4.532  -0.165  -0.690  1.00  0.00     0.052 C 
HETATM   19  C21 UNL     1      -1.667   0.511   0.393  1.00  0.00     0.066 A 
HETATM   20  C14 UNL     1      -5.469  -0.969  -0.136  1.00  0.00    -0.010 C 
HETATM   21  C15 UNL     1      -5.002  -1.402   1.018  1.00  0.00    -0.046 C 
HETATM   22  C16 UNL     1      -4.500  -0.374   1.713  1.00  0.00     0.008 C 
HETATM   23  C17 UNL     1      -5.095   0.963   1.456  1.00  0.00     0.000 C 
HETATM   24  C18 UNL     1      -4.885   2.196   0.942  1.00  0.00    -0.004 C 
HETATM   25  C19 UNL     1      -3.564   2.496   0.355  1.00  0.00    -0.021 C 
HETATM   26  C20 UNL     1      -2.737   1.478   0.428  1.00  0.00     0.022 C 
ENDBRANCH  14  16
ENDBRANCH  11  14
TORSDOF 2
