REMARK  2 active torsions:
REMARK  status: ('A' for Active; 'I' for Inactive)
REMARK    1  A    between atoms: C6_6  and  N1_7 
REMARK    2  A    between atoms: N1_7  and  C8_9 
ROOT
HETATM    1  C8  UNL     1      -0.194   1.204  -0.182  1.00  0.00     0.143 A 
HETATM    2  N2  UNL     1      -0.800   1.950  -1.111  1.00  0.00    -0.223 NA
HETATM    3  C9  UNL     1      -0.198   2.314  -2.259  1.00  0.00     0.236 A 
HETATM    4  N3  UNL     1       1.076   1.905  -2.478  1.00  0.00    -0.241 NA
HETATM    5  C10 UNL     1       1.739   1.161  -1.595  1.00  0.00     0.072 A 
HETATM    6  C11 UNL     1       3.033   0.718  -1.767  1.00  0.00     0.039 A 
HETATM    7  C12 UNL     1       3.731  -0.052  -0.863  1.00  0.00    -0.054 A 
HETATM    8  C13 UNL     1       5.109  -0.489  -1.111  1.00  0.00     0.049 C 
HETATM    9  C14 UNL     1       3.029  -0.374   0.282  1.00  0.00    -0.055 A 
HETATM   10  C15 UNL     1       3.685  -1.200   1.324  1.00  0.00     0.049 C 
HETATM   11  C16 UNL     1       1.725   0.028   0.538  1.00  0.00     0.025 A 
HETATM   12  C17 UNL     1       1.105   0.792  -0.413  1.00  0.00     0.039 A 
ENDROOT
BRANCH   1  13
HETATM   13  N1  UNL     1      -0.944   0.891   0.986  1.00  0.00    -0.335 N 
HETATM   14  C7  UNL     1      -0.534   1.275   2.329  1.00  0.00     0.158 C 
BRANCH  13  15
HETATM   15  C6  UNL     1      -2.173   0.159   0.861  1.00  0.00     0.036 A 
HETATM   16  C5  UNL     1      -2.876  -0.126   2.030  1.00  0.00     0.029 A 
HETATM   17  C4  UNL     1      -4.056  -0.837   1.834  1.00  0.00     0.003 A 
HETATM   18  C3  UNL     1      -4.585  -1.273   0.660  1.00  0.00     0.007 A 
HETATM   19  C2  UNL     1      -3.829  -0.953  -0.474  1.00  0.00    -0.060 A 
HETATM   20  C1  UNL     1      -4.304  -1.375  -1.817  1.00  0.00     0.048 C 
HETATM   21  C18 UNL     1      -2.644  -0.249  -0.368  1.00  0.00     0.036 A 
ENDBRANCH  13  15
ENDBRANCH   1  13
TORSDOF 2
