REMARK  0 active torsions:
REMARK  status: ('A' for Active; 'I' for Inactive)
ROOT
HETATM    1  C1  UNL     1       4.296  -0.319   0.046  1.00  0.00     0.049 C 
HETATM    2  C2  UNL     1       2.921   0.302   0.053  1.00  0.00    -0.053 A 
HETATM    3  C3  UNL     1       2.882   1.682   0.236  1.00  0.00     0.040 A 
HETATM    4  C4  UNL     1       1.633   2.247   0.240  1.00  0.00     0.073 A 
HETATM    5  N1  UNL     1       1.566   3.569   0.425  1.00  0.00    -0.241 NA
HETATM    6  C5  UNL     1       0.382   4.197   0.454  1.00  0.00     0.236 A 
HETATM    7  N2  UNL     1      -0.744   3.470   0.292  1.00  0.00    -0.223 NA
HETATM    8  C6  UNL     1      -0.659   2.149   0.107  1.00  0.00     0.144 A 
HETATM    9  C7  UNL     1       0.531   1.447   0.067  1.00  0.00     0.050 A 
HETATM   10  C8  UNL     1       0.633   0.087  -0.111  1.00  0.00    -0.004 A 
HETATM   11  C9  UNL     1       1.842  -0.585  -0.128  1.00  0.00    -0.044 A 
HETATM   12  C10 UNL     1       2.044  -2.023  -0.247  1.00  0.00     0.049 C 
HETATM   13  C11 UNL     1      -0.576  -0.713  -0.282  1.00  0.00    -0.016 A 
HETATM   14  C12 UNL     1      -1.735   0.003  -0.235  1.00  0.00     0.043 A 
HETATM   15  C13 UNL     1      -3.107  -0.553  -0.374  1.00  0.00     0.030 C 
HETATM   16  C14 UNL     1      -3.469  -1.807  -0.008  1.00  0.00     0.002 C 
HETATM   17  C15 UNL     1      -2.661  -2.903   0.588  1.00  0.00    -0.004 C 
HETATM   18  C16 UNL     1      -1.358  -2.984   0.306  1.00  0.00    -0.022 C 
HETATM   19  C17 UNL     1      -0.463  -2.156  -0.539  1.00  0.00     0.069 C 
HETATM   20  N3  UNL     1      -1.870   1.418  -0.048  1.00  0.00    -0.335 N 
HETATM   21  C18 UNL     1      -3.151   2.044  -0.022  1.00  0.00     0.158 C 
ENDROOT
TORSDOF 0
