REMARK  1 active torsions:
REMARK  status: ('A' for Active; 'I' for Inactive)
REMARK    1  A    between atoms: N1_7  and  C7_8 
ROOT
HETATM    1  C7  UNL     1       0.782  -1.261   0.425  1.00  0.00     0.143 A 
HETATM    2  N2  UNL     1       0.536  -2.511   0.862  1.00  0.00    -0.223 NA
HETATM    3  C8  UNL     1       1.579  -3.354   0.929  1.00  0.00     0.236 A 
HETATM    4  N3  UNL     1       2.837  -3.017   0.587  1.00  0.00    -0.241 NA
HETATM    5  C9  UNL     1       3.110  -1.767   0.144  1.00  0.00     0.072 A 
HETATM    6  C10 UNL     1       4.363  -1.332  -0.228  1.00  0.00     0.033 A 
HETATM    7  C11 UNL     1       4.570  -0.046  -0.669  1.00  0.00     0.009 A 
HETATM    8  C12 UNL     1       3.497   0.841  -0.745  1.00  0.00    -0.061 A 
HETATM    9  C13 UNL     1       3.686   2.250  -1.221  1.00  0.00     0.048 C 
HETATM   10  C14 UNL     1       2.252   0.383  -0.367  1.00  0.00     0.024 A 
HETATM   11  C15 UNL     1       2.045  -0.903   0.075  1.00  0.00     0.039 A 
ENDROOT
BRANCH   1  12
HETATM   12  N1  UNL     1      -0.377  -0.402   0.374  1.00  0.00    -0.340 N 
HETATM   13  C6  UNL     1      -1.010   0.297  -0.710  1.00  0.00     0.138 C 
HETATM   14  C4  UNL     1      -2.418  -0.079  -0.987  1.00  0.00     0.023 C 
HETATM   15  C3  UNL     1      -3.409   0.445  -0.026  1.00  0.00    -0.014 C 
HETATM   16  C5  UNL     1      -2.805   0.429  -2.362  1.00  0.00     0.016 C 
HETATM   17  C2  UNL     1      -3.240   0.490   1.288  1.00  0.00    -0.064 C 
HETATM   18  C1  UNL     1      -4.375   1.062   2.071  1.00  0.00     0.048 C 
HETATM   19  C17 UNL     1      -2.134   0.082   2.161  1.00  0.00     0.023 C 
HETATM   20  C16 UNL     1      -0.923  -0.292   1.707  1.00  0.00     0.093 C 
ENDBRANCH   1  12
TORSDOF 1
