REMARK  4 active torsions:
REMARK  status: ('A' for Active; 'I' for Inactive)
REMARK    1  A    between atoms: N1_1  and  C1_2 
REMARK    2  A    between atoms: C4_5  and  N2_6 
REMARK    3  A    between atoms: N2_6  and  C5_7 
REMARK    4  A    between atoms: C8_14  and  C9_15 
ROOT
HETATM    1  C5  UNL     1      -0.036  -1.486   0.207  1.00  0.00     0.190 A 
HETATM    2  O1  UNL     1       0.643  -2.534   0.540  1.00  0.00    -0.192 OA
HETATM    3  N3  UNL     1      -0.114  -3.553   0.752  1.00  0.00    -0.105 NA
HETATM    4  C6  UNL     1      -1.381  -3.202   0.559  1.00  0.00     0.195 A 
HETATM    5  N4  UNL     1      -2.572  -3.815   0.643  1.00  0.00    -0.220 NA
HETATM    6  C7  UNL     1      -3.684  -3.114   0.381  1.00  0.00     0.236 A 
HETATM    7  N5  UNL     1      -3.639  -1.817   0.035  1.00  0.00    -0.240 NA
HETATM    8  C8  UNL     1      -2.465  -1.159  -0.064  1.00  0.00     0.087 A 
HETATM    9  C15 UNL     1      -1.337  -1.869   0.206  1.00  0.00     0.097 A 
ENDROOT
BRANCH   1  10
HETATM   10  N2  UNL     1       0.513  -0.222  -0.081  1.00  0.00    -0.334 N 
HETATM   11  H5  UNL     1       0.180   0.694  -0.318  1.00  0.00     0.168 HD
BRANCH  10  12
HETATM   12  C4  UNL     1       1.895   0.092  -0.069  1.00  0.00     0.034 A 
HETATM   13  C3  UNL     1       2.651   1.025  -0.786  1.00  0.00     0.032 A 
HETATM   14  C2  UNL     1       3.997   1.240  -0.656  1.00  0.00     0.031 A 
HETATM   15  C1  UNL     1       4.659   0.464   0.266  1.00  0.00     0.025 A 
HETATM   16  C17 UNL     1       3.966  -0.475   1.005  1.00  0.00     0.031 A 
HETATM   17  C16 UNL     1       2.610  -0.673   0.856  1.00  0.00     0.032 A 
BRANCH  15  18
HETATM   18  N1  UNL     1       6.058   0.728   0.361  1.00  0.00    -0.399 N 
HETATM   19  H1  UNL     1       6.375   0.767   1.351  1.00  0.00     0.156 HD
HETATM   20  H2  UNL     1       6.646   0.860  -0.484  1.00  0.00     0.156 HD
ENDBRANCH  15  18
ENDBRANCH  10  12
ENDBRANCH   1  10
BRANCH   8  21
HETATM   21  C9  UNL     1      -2.640   0.222  -0.458  1.00  0.00    -0.005 A 
HETATM   22  C10 UNL     1      -2.155   1.029  -1.466  1.00  0.00     0.014 A 
HETATM   23  C11 UNL     1      -2.449   2.354  -1.654  1.00  0.00     0.003 A 
HETATM   24  C12 UNL     1      -3.306   2.982  -0.779  1.00  0.00     0.024 A 
HETATM   25  C13 UNL     1      -3.850   2.268   0.267  1.00  0.00     0.035 A 
HETATM   26 CL1  UNL     1      -4.930   3.091   1.356  1.00  0.00    -0.084 Cl
HETATM   27  C14 UNL     1      -3.505   0.945   0.386  1.00  0.00     0.037 A 
ENDBRANCH   8  21
TORSDOF 4
