REMARK  5 active torsions:
REMARK  status: ('A' for Active; 'I' for Inactive)
REMARK    1  A    between atoms: O1_2  and  C2_3 
REMARK    2  A    between atoms: C2_3  and  C16_20 
REMARK    3  A    between atoms: C3_4  and  C4_5 
REMARK    4  A    between atoms: C6_7  and  N1_8 
REMARK    5  A    between atoms: N1_8  and  C8_10 
ROOT
HETATM    1  C4  UNL     1      -1.598   0.699   1.671  1.00  0.00     0.064 A 
HETATM    2  C5  UNL     1      -0.670   0.554   0.649  1.00  0.00     0.082 A 
HETATM    3  C6  UNL     1       0.681   0.352   0.806  1.00  0.00     0.133 A 
HETATM    4  N2  UNL     1       1.028   0.306   2.094  1.00  0.00    -0.224 NA
HETATM    5  C15 UNL     1       0.205   0.436   3.132  1.00  0.00     0.235 A 
HETATM    6  N3  UNL     1      -1.107   0.632   2.942  1.00  0.00    -0.242 NA
ENDROOT
BRANCH   3   7
HETATM    7  N1  UNL     1       1.535   0.219  -0.325  1.00  0.00    -0.336 N 
HETATM    8  C7  UNL     1       0.813   0.351  -1.563  1.00  0.00     0.158 C 
BRANCH   7   9
HETATM    9  C8  UNL     1       2.926  -0.017  -0.248  1.00  0.00     0.036 A 
HETATM   10  C9  UNL     1       3.701  -0.157   0.879  1.00  0.00     0.029 A 
HETATM   11  C10 UNL     1       5.055  -0.388   0.918  1.00  0.00     0.003 A 
HETATM   12  C11 UNL     1       5.731  -0.495  -0.278  1.00  0.00     0.007 A 
HETATM   13  C12 UNL     1       4.997  -0.362  -1.452  1.00  0.00    -0.060 A 
HETATM   14  C13 UNL     1       5.825  -0.495  -2.680  1.00  0.00     0.048 C 
HETATM   15  C14 UNL     1       3.658  -0.134  -1.410  1.00  0.00     0.036 A 
ENDBRANCH   7   9
ENDBRANCH   3   7
BRANCH   1  16
HETATM   16  C3  UNL     1      -3.018   0.906   1.465  1.00  0.00     0.071 C 
HETATM   17  C2  UNL     1      -3.745   0.339   0.534  1.00  0.00     0.103 C 
BRANCH  17  18
HETATM   18  O1  UNL     1      -3.162  -0.547  -0.365  1.00  0.00    -0.353 OA
HETATM   19  C1  UNL     1      -2.919  -1.906  -0.102  1.00  0.00     0.210 C 
ENDBRANCH  17  18
BRANCH  17  20
HETATM   20  C16 UNL     1      -5.185   0.654   0.453  1.00  0.00     0.100 A 
HETATM   21  C17 UNL     1      -6.135   0.254  -0.346  1.00  0.00     0.039 A 
HETATM   22  C18 UNL     1      -7.121   1.084   0.354  1.00  0.00     0.206 A 
HETATM   23  O2  UNL     1      -6.043   1.452   1.155  1.00  0.00    -0.345 OA
ENDBRANCH  17  20
ENDBRANCH   1  16
TORSDOF 5
