REMARK  4 active torsions:
REMARK  status: ('A' for Active; 'I' for Inactive)
REMARK    1  A    between atoms: O1_2  and  C2_3 
REMARK    2  A    between atoms: C6_9  and  N3_10 
REMARK    3  A    between atoms: N3_10  and  C8_12 
REMARK    4  A    between atoms: C17_21  and  O2_22 
ROOT
HETATM    1  C2  UNL     1       1.139   3.566  -0.132  1.00  0.00     0.103 A 
HETATM    2  C3  UNL     1       0.285   3.639   0.940  1.00  0.00     0.072 A 
HETATM    3  C4  UNL     1      -0.294   2.514   1.523  1.00  0.00     0.075 A 
HETATM    4  N1  UNL     1      -1.137   2.560   2.582  1.00  0.00    -0.241 NA
HETATM    5  C5  UNL     1      -1.622   1.367   3.038  1.00  0.00     0.236 A 
HETATM    6  N2  UNL     1      -1.316   0.160   2.506  1.00  0.00    -0.223 NA
HETATM    7  C6  UNL     1      -0.460   0.097   1.430  1.00  0.00     0.144 A 
HETATM    8  C15 UNL     1       0.039   1.320   0.956  1.00  0.00     0.042 A 
HETATM    9  C16 UNL     1       0.884   1.120  -0.118  1.00  0.00     0.057 A 
HETATM   10  C17 UNL     1       1.416   2.308  -0.630  1.00  0.00     0.102 A 
ENDROOT
BRANCH   7  11
HETATM   11  N3  UNL     1      -0.189  -1.243   1.048  1.00  0.00    -0.335 N 
HETATM   12  C7  UNL     1       1.087  -1.587   1.649  1.00  0.00     0.158 C 
BRANCH  11  13
HETATM   13  C8  UNL     1      -1.024  -2.059   0.237  1.00  0.00     0.036 A 
HETATM   14  C9  UNL     1      -2.225  -1.539  -0.258  1.00  0.00     0.029 A 
HETATM   15  C10 UNL     1      -2.991  -2.411  -1.044  1.00  0.00     0.003 A 
HETATM   16  C11 UNL     1      -2.567  -3.694  -1.299  1.00  0.00     0.007 A 
HETATM   17  C12 UNL     1      -1.384  -4.199  -0.811  1.00  0.00    -0.060 A 
HETATM   18  C13 UNL     1      -0.952  -5.590  -1.104  1.00  0.00     0.048 C 
HETATM   19  C14 UNL     1      -0.618  -3.337  -0.028  1.00  0.00     0.036 A 
ENDBRANCH  11  13
ENDBRANCH   7  11
BRANCH  10  20
HETATM   20  O2  UNL     1       2.280   2.204  -1.704  1.00  0.00    -0.353 OA
HETATM   21  C18 UNL     1       2.593   0.932  -2.212  1.00  0.00     0.210 C 
ENDBRANCH  10  20
BRANCH   1  22
HETATM   22  O1  UNL     1       1.734   4.636  -0.756  1.00  0.00    -0.353 OA
HETATM   23  C1  UNL     1       1.502   5.935  -0.244  1.00  0.00     0.210 C 
ENDBRANCH   1  22
TORSDOF 4
