REMARK  4 active torsions:
REMARK  status: ('A' for Active; 'I' for Inactive)
REMARK    1  A    between atoms: O1_2  and  C2_3 
REMARK    2  A    between atoms: C2_3  and  C3_4 
REMARK    3  A    between atoms: C4_5  and  C5_6 
REMARK    4  A    between atoms: C9_11  and  O2_12 
ROOT
HETATM    1  C5  UNL     1       2.519  -0.898   0.611  1.00  0.00     0.092 A 
HETATM    2  N1  UNL     1       1.660  -0.229  -0.174  1.00  0.00    -0.226 NA
HETATM    3  C6  UNL     1       0.327  -0.392  -0.211  1.00  0.00     0.161 A 
HETATM    4  C7  UNL     1      -0.249  -1.324   0.621  1.00  0.00     0.015 A 
HETATM    5  C8  UNL     1       0.625  -2.014   1.430  1.00  0.00     0.054 A 
HETATM    6  C9  UNL     1       1.987  -1.853   1.473  1.00  0.00     0.095 A 
HETATM    7  C10 UNL     1      -1.490  -1.723   0.834  1.00  0.00     0.027 C 
HETATM    8  C11 UNL     1      -2.716  -1.291   0.232  1.00  0.00    -0.033 A 
HETATM    9  C12 UNL     1      -3.539  -2.129  -0.489  1.00  0.00     0.011 A 
HETATM   10  C13 UNL     1      -4.689  -1.692  -1.104  1.00  0.00     0.003 A 
HETATM   11  C14 UNL     1      -5.008  -0.357  -0.981  1.00  0.00     0.030 A 
HETATM   12  C15 UNL     1      -4.175   0.465  -0.259  1.00  0.00     0.042 A 
HETATM   13  C16 UNL     1      -3.020   0.046   0.368  1.00  0.00     0.041 A 
HETATM   14  N2  UNL     1      -4.422   1.885  -0.168  1.00  0.00    -0.307 N 
HETATM   15  C17 UNL     1      -5.634   1.947   0.591  1.00  0.00     0.166 C 
HETATM   16  S1  UNL     1      -3.098   2.683  -1.051  1.00  0.00     0.095 SA
HETATM   17  N3  UNL     1      -1.582   1.819  -0.874  1.00  0.00    -0.188 NA
HETATM   18  C18 UNL     1      -1.224   0.809  -1.627  1.00  0.00     0.246 C 
HETATM   19  N4  UNL     1       0.019   0.473  -1.111  1.00  0.00    -0.221 NA
ENDROOT
BRANCH   1  20
HETATM   20  C4  UNL     1       3.987  -0.704   0.638  1.00  0.00     0.032 C 
HETATM   21  C3  UNL     1       4.535   0.194  -0.165  1.00  0.00     0.002 C 
BRANCH  21  22
HETATM   22  C2  UNL     1       6.005   0.400  -0.151  1.00  0.00     0.194 C 
BRANCH  22  23
HETATM   23  O1  UNL     1       6.396   1.674   0.182  1.00  0.00    -0.392 OA
HETATM   24  C1  UNL     1       5.879   2.572  -0.727  1.00  0.00     0.201 C 
ENDBRANCH  22  23
ENDBRANCH  21  22
ENDBRANCH   1  20
BRANCH   6  25
HETATM   25  O2  UNL     1       2.847  -2.560   2.296  1.00  0.00    -0.358 OA
HETATM   26  H9  UNL     1       3.243  -2.109   3.111  1.00  0.00     0.217 HD
ENDBRANCH   6  25
TORSDOF 4
