REMARK  2 active torsions:
REMARK  status: ('A' for Active; 'I' for Inactive)
REMARK    1  A    between atoms: O1_2  and  C2_3 
REMARK    2  A    between atoms: C5_6  and  N1_7 
ROOT
HETATM    1  C2  UNL     1      -2.508  -0.895   0.338  1.00  0.00     0.070 C 
HETATM    2  C3  UNL     1      -1.414  -0.209   0.500  1.00  0.00     0.050 C 
HETATM    3  C4  UNL     1      -1.183   1.148   0.041  1.00  0.00     0.026 A 
HETATM    4  C5  UNL     1       0.128   1.201  -0.051  1.00  0.00     0.142 A 
HETATM    5  N2  UNL     1       0.871   2.360  -0.472  1.00  0.00    -0.223 NA
HETATM    6  C13 UNL     1       0.506   3.556  -0.760  1.00  0.00     0.234 A 
HETATM    7  N3  UNL     1      -0.791   4.134  -0.755  1.00  0.00    -0.253 NA
HETATM    8  C14 UNL     1      -1.963   3.606  -0.545  1.00  0.00     0.132 A 
HETATM    9  C15 UNL     1      -2.172   2.189  -0.248  1.00  0.00     0.017 A 
HETATM   10  C16 UNL     1      -3.488   2.010  -0.293  1.00  0.00     0.148 C 
HETATM   11  O2  UNL     1      -4.185   0.804  -0.074  1.00  0.00    -0.356 OA
HETATM   12  C17 UNL     1      -3.786  -0.526  -0.327  1.00  0.00     0.239 C 
ENDROOT
BRANCH   4  13
HETATM   13  N1  UNL     1       0.994   0.085   0.265  1.00  0.00    -0.341 N 
HETATM   14  C6  UNL     1       0.924  -0.824  -0.874  1.00  0.00     0.092 C 
HETATM   15  C7  UNL     1       1.821  -1.731  -1.330  1.00  0.00     0.017 C 
HETATM   16  C8  UNL     1       3.175  -2.127  -0.852  1.00  0.00    -0.003 C 
HETATM   17  C9  UNL     1       4.041  -1.368  -0.159  1.00  0.00    -0.027 C 
HETATM   18  C10 UNL     1       4.071   0.015   0.384  1.00  0.00     0.029 C 
HETATM   19  C11 UNL     1       3.167   0.305   1.499  1.00  0.00     0.024 C 
HETATM   20  C12 UNL     1       1.761  -0.022   1.484  1.00  0.00     0.130 C 
ENDBRANCH   4  13
BRANCH   1  21
HETATM   21  O1  UNL     1      -2.430  -2.174   0.889  1.00  0.00    -0.358 OA
HETATM   22  C1  UNL     1      -2.890  -3.321   0.214  1.00  0.00     0.209 C 
ENDBRANCH   1  21
TORSDOF 2
