REMARK  4 active torsions:
REMARK  status: ('A' for Active; 'I' for Inactive)
REMARK    1  A    between atoms: O1_2  and  C2_3 
REMARK    2  A    between atoms: C7_10  and  N3_11 
REMARK    3  A    between atoms: N3_11  and  C9_13 
REMARK    4  A    between atoms: C12_18  and  O3_19 
ROOT
HETATM    1  C9  UNL     1      -3.802  -0.374  -0.306  1.00  0.00     0.103 C 
HETATM    2  C10 UNL     1      -4.005   0.928  -0.301  1.00  0.00     0.110 C 
HETATM    3  C11 UNL     1      -2.919   1.848  -0.148  1.00  0.00     0.089 C 
HETATM    4  N4  UNL     1      -2.048   2.596  -0.011  1.00  0.00    -0.192 NA
ENDROOT
BRANCH   1   5
HETATM    5  N3  UNL     1      -2.511  -0.951  -0.163  1.00  0.00    -0.345 N 
HETATM    6  C8  UNL     1      -2.146  -1.714  -1.366  1.00  0.00     0.157 C 
BRANCH   5   7
HETATM    7  C7  UNL     1      -1.602  -0.876   0.931  1.00  0.00     0.145 A 
HETATM    8  C4  UNL     1      -0.319  -0.368   0.936  1.00  0.00     0.066 A 
HETATM    9  C3  UNL     1       0.143   0.152  -0.345  1.00  0.00     0.057 A 
HETATM   10  C5  UNL     1       0.421  -0.378   2.099  1.00  0.00     0.182 A 
HETATM   11  C2  UNL     1       1.380   0.651  -0.375  1.00  0.00     0.102 A 
HETATM   12  C12 UNL     1       2.254   0.687   0.815  1.00  0.00     0.325 A 
HETATM   13  O2  UNL     1       1.690   0.159   1.974  1.00  0.00    -0.295 OA
HETATM   14  N1  UNL     1      -0.089  -0.880   3.239  1.00  0.00    -0.217 NA
HETATM   15  C6  UNL     1      -1.359  -1.383   3.237  1.00  0.00     0.238 A 
HETATM   16  N2  UNL     1      -2.102  -1.379   2.093  1.00  0.00    -0.223 NA
BRANCH  11  17
HETATM   17  O1  UNL     1       1.938   1.172  -1.518  1.00  0.00    -0.355 OA
HETATM   18  C1  UNL     1       1.986   0.413  -2.715  1.00  0.00     0.209 C 
ENDBRANCH  11  17
BRANCH  12  19
HETATM   19  O3  UNL     1       3.447   0.005   0.585  1.00  0.00    -0.359 OA
HETATM   20  C13 UNL     1       4.520   0.892   0.602  1.00  0.00     0.205 C 
ENDBRANCH  12  19
ENDBRANCH   5   7
ENDBRANCH   1   5
TORSDOF 4
