REMARK  5 active torsions:
REMARK  status: ('A' for Active; 'I' for Inactive)
REMARK    1  A    between atoms: C2_2  and  C3_3 
REMARK    2  A    between atoms: C7_7  and  N1_8 
REMARK    3  A    between atoms: N1_8  and  O1_9 
REMARK    4  A    between atoms: O1_9  and  C8_10 
REMARK    5  A    between atoms: C13_17  and  O2_18 
ROOT
HETATM    1  C8  UNL     1      -1.146   0.237  -0.786  1.00  0.00     0.207 A 
HETATM    2  N2  UNL     1      -0.523  -0.010  -1.942  1.00  0.00    -0.215 NA
HETATM    3  C9  UNL     1      -1.028  -0.961  -2.745  1.00  0.00     0.238 A 
HETATM    4  N3  UNL     1      -2.144  -1.663  -2.405  1.00  0.00    -0.217 NA
HETATM    5  C10 UNL     1      -2.789  -1.421  -1.229  1.00  0.00     0.180 A 
HETATM    6  C11 UNL     1      -2.292  -0.451  -0.387  1.00  0.00     0.074 A 
HETATM    7  C12 UNL     1      -2.949  -0.162   0.874  1.00  0.00     0.055 A 
HETATM    8  C13 UNL     1      -4.013  -0.879   1.126  1.00  0.00     0.071 A 
HETATM    9  C15 UNL     1      -4.628  -1.934   0.303  1.00  0.00     0.241 A 
HETATM   10  O3  UNL     1      -3.922  -2.137  -0.890  1.00  0.00    -0.327 OA
ENDROOT
BRANCH   1  11
HETATM   11  O1  UNL     1      -0.693   1.197   0.096  1.00  0.00    -0.216 OA
BRANCH  11  12
HETATM   12  N1  UNL     1       0.412   1.978  -0.111  1.00  0.00    -0.259 N 
HETATM   13  H9  UNL     1       0.006   2.931  -0.093  1.00  0.00     0.195 HD
BRANCH  12  14
HETATM   14  C7  UNL     1       1.779   1.730  -0.311  1.00  0.00     0.055 A 
HETATM   15  C6  UNL     1       2.624   2.806  -0.490  1.00  0.00     0.031 A 
HETATM   16  C5  UNL     1       3.956   2.507  -0.683  1.00  0.00     0.003 A 
HETATM   17  C4  UNL     1       4.484   1.232  -0.707  1.00  0.00     0.007 A 
HETATM   18  C3  UNL     1       3.613   0.155  -0.524  1.00  0.00    -0.056 A 
HETATM   19  C16 UNL     1       2.256   0.436  -0.327  1.00  0.00     0.038 A 
BRANCH  18  20
HETATM   20  C2  UNL     1       4.177  -1.199  -0.550  1.00  0.00     0.034 C 
HETATM   21  C1  UNL     1       4.624  -1.711   0.787  1.00  0.00     0.010 C 
ENDBRANCH  18  20
ENDBRANCH  12  14
ENDBRANCH  11  12
ENDBRANCH   1  11
BRANCH   8  22
HETATM   22  O2  UNL     1      -4.624  -0.582   2.343  1.00  0.00    -0.358 OA
HETATM   23  C14 UNL     1      -5.032   0.766   2.599  1.00  0.00     0.209 C 
ENDBRANCH   8  22
TORSDOF 5
