REMARK  2 active torsions:
REMARK  status: ('A' for Active; 'I' for Inactive)
REMARK    1  A    between atoms: N1_4  and  C4_5 
REMARK    2  A    between atoms: C6_7  and  O1_8 
ROOT
HETATM    1  C4  UNL     1       0.467   0.436   1.399  1.00  0.00     0.235 C 
HETATM    2  C5  UNL     1      -0.494  -0.770   1.728  1.00  0.00     0.053 C 
HETATM    3  C6  UNL     1      -1.846  -0.455   1.531  1.00  0.00     0.045 C 
HETATM    4  C8  UNL     1      -2.766   0.456   1.156  1.00  0.00     0.065 C 
HETATM    5  C9  UNL     1      -3.672   1.019   0.178  1.00  0.00    -0.012 C 
HETATM    6  C10 UNL     1      -3.497   2.405  -0.187  1.00  0.00     0.063 C 
HETATM    7  C11 UNL     1      -2.331   2.983   0.601  1.00  0.00     0.096 C 
HETATM    8  N2  UNL     1      -1.378   3.281   1.305  1.00  0.00    -0.258 NA
HETATM    9  C12 UNL     1      -0.539   2.591   2.252  1.00  0.00     0.228 C 
HETATM   10  N3  UNL     1      -0.210   1.618   1.566  1.00  0.00    -0.253 NA
ENDROOT
BRANCH   1  11
HETATM   11  N1  UNL     1       0.777   0.214   0.002  1.00  0.00    -0.360 N 
HETATM   12  C3  UNL     1       1.134  -1.174  -0.308  1.00  0.00     0.159 C 
HETATM   13  C2  UNL     1       2.439  -1.267  -0.981  1.00  0.00    -0.056 C 
HETATM   14  C1  UNL     1       3.343  -2.038  -0.406  1.00  0.00     0.041 C 
HETATM   15  C16 UNL     1       2.830  -0.609  -2.213  1.00  0.00    -0.058 C 
HETATM   16  C15 UNL     1       2.345   0.539  -2.614  1.00  0.00     0.008 C 
HETATM   17  C17 UNL     1       3.857  -1.294  -3.032  1.00  0.00     0.048 C 
HETATM   18  C14 UNL     1       1.361   1.549  -2.130  1.00  0.00     0.017 C 
HETATM   19  C13 UNL     1       0.766   1.235  -0.955  1.00  0.00     0.088 C 
ENDBRANCH   1  11
BRANCH   3  20
HETATM   20  O1  UNL     1      -2.653  -1.555   1.845  1.00  0.00    -0.360 OA
HETATM   21  C7  UNL     1      -2.718  -2.550   0.849  1.00  0.00     0.209 C 
ENDBRANCH   3  20
TORSDOF 2
