REMARK  5 active torsions:
REMARK  status: ('A' for Active; 'I' for Inactive)
REMARK    1  A    between atoms: O1_2  and  C2_3 
REMARK    2  A    between atoms: C2_3  and  C3_4 
REMARK    3  A    between atoms: C3_4  and  O2_22 
REMARK    4  A    between atoms: C4_5  and  C5_6 
REMARK    5  A    between atoms: C7_10  and  N3_11 
ROOT
HETATM    1  C5  UNL     1       0.402  -1.094   0.743  1.00  0.00     0.066 C 
HETATM    2  N1  UNL     1      -0.158  -2.019   1.521  1.00  0.00    -0.242 NA
HETATM    3  C6  UNL     1      -1.186  -2.967   1.135  1.00  0.00     0.231 C 
HETATM    4  N2  UNL     1      -1.937  -2.899   0.086  1.00  0.00    -0.234 NA
HETATM    5  C7  UNL     1      -2.497  -1.706  -0.522  1.00  0.00     0.285 C 
HETATM    6  C8  UNL     1      -3.517  -1.085   0.311  1.00  0.00     0.042 C 
HETATM    7  C9  UNL     1      -4.227  -0.172   0.971  1.00  0.00     0.000 C 
HETATM    8  C10 UNL     1      -4.295   1.250   1.250  1.00  0.00    -0.003 C 
HETATM    9  C11 UNL     1      -3.629   2.351   0.948  1.00  0.00    -0.007 C 
HETATM   10  C12 UNL     1      -2.480   1.970   0.056  1.00  0.00     0.105 C 
HETATM   11 CL1  UNL     1      -2.104   3.407  -0.974  1.00  0.00    -0.121 Cl
HETATM   12  C13 UNL     1      -1.301   1.792   0.944  1.00  0.00     0.029 C 
HETATM   13  C14 UNL     1      -0.121   1.213   0.200  1.00  0.00     0.042 C 
HETATM   14  C15 UNL     1      -0.500  -0.228  -0.080  1.00  0.00    -0.028 C 
HETATM   15  C16 UNL     1      -1.436  -0.725  -0.867  1.00  0.00     0.052 C 
ENDROOT
BRANCH   1  16
HETATM   16  C4  UNL     1       1.848  -0.802   0.634  1.00  0.00     0.066 C 
HETATM   17  C3  UNL     1       2.890  -0.166   0.136  1.00  0.00     0.071 C 
BRANCH  17  18
HETATM   18  C2  UNL     1       3.060   0.883  -0.888  1.00  0.00     0.231 C 
BRANCH  18  19
HETATM   19  O1  UNL     1       3.618   2.050  -0.512  1.00  0.00    -0.390 OA
HETATM   20  C1  UNL     1       4.866   2.111  -0.003  1.00  0.00     0.201 C 
ENDBRANCH  18  19
ENDBRANCH  17  18
BRANCH  17  21
HETATM   21  O2  UNL     1       4.187  -0.470   0.602  1.00  0.00    -0.358 OA
HETATM   22  C17 UNL     1       4.760  -1.745   0.446  1.00  0.00     0.209 C 
ENDBRANCH  17  21
ENDBRANCH   1  16
BRANCH   5  23
HETATM   23  N3  UNL     1      -3.141  -2.163  -1.768  1.00  0.00     0.117 N 
HETATM   24  H8  UNL     1      -4.038  -2.606  -1.454  1.00  0.00     0.317 HD
HETATM   25  H9  UNL     1      -2.554  -2.934  -2.148  1.00  0.00     0.317 HD
ENDBRANCH   5  23
TORSDOF 5
