REMARK  5 active torsions:
REMARK  status: ('A' for Active; 'I' for Inactive)
REMARK    1  A    between atoms: O1_2  and  C2_3 
REMARK    2  A    between atoms: C5_8  and  N3_9 
REMARK    3  A    between atoms: N3_9  and  C7_11 
REMARK    4  A    between atoms: C7_11  and  C8_12 
REMARK    5  A    between atoms: C16_21  and  S2_22 
ROOT
HETATM    1  C2  UNL     1       3.456  -0.936  -0.804  1.00  0.00     0.116 C 
HETATM    2  C3  UNL     1       2.696  -0.729  -1.875  1.00  0.00     0.124 C 
HETATM    3  N1  UNL     1       1.879   0.248  -1.769  1.00  0.00    -0.237 NA
HETATM    4  C4  UNL     1       1.416   0.478  -0.456  1.00  0.00     0.236 C 
HETATM    5  N2  UNL     1       0.534  -0.471  -0.381  1.00  0.00    -0.225 NA
HETATM    6  C5  UNL     1      -0.131  -0.483   0.902  1.00  0.00     0.126 C 
HETATM    7  C14 UNL     1       0.830  -0.713   1.764  1.00  0.00     0.052 C 
HETATM    8  C15 UNL     1       2.223  -0.916   1.538  1.00  0.00     0.025 C 
HETATM    9  C16 UNL     1       3.098  -0.982   0.580  1.00  0.00     0.036 C 
ENDROOT
BRANCH   6  10
HETATM   10  N3  UNL     1      -1.485  -0.244   0.591  1.00  0.00    -0.366 N 
HETATM   11  C6  UNL     1      -2.308  -1.420   0.812  1.00  0.00     0.151 C 
BRANCH  10  12
HETATM   12  C7  UNL     1      -1.760   1.122   0.120  1.00  0.00     0.159 C 
BRANCH  12  13
HETATM   13  C8  UNL     1      -3.185   1.300  -0.184  1.00  0.00    -0.048 C 
HETATM   14  C9  UNL     1      -3.857   2.218   0.474  1.00  0.00    -0.056 C 
HETATM   15  C10 UNL     1      -3.196   3.065   1.508  1.00  0.00     0.048 C 
HETATM   16  C11 UNL     1      -5.273   2.418   0.201  1.00  0.00     0.026 C 
HETATM   17  C12 UNL     1      -6.120   1.479  -0.088  1.00  0.00     0.005 C 
HETATM   18  S1  UNL     1      -5.476   0.174  -0.775  1.00  0.00    -0.191 SA
HETATM   19  C13 UNL     1      -3.710   0.393  -1.236  1.00  0.00     0.102 C 
HETATM   20  H14 UNL     1      -6.388  -0.668  -1.482  1.00  0.00     0.096 HD
ENDBRANCH  12  13
ENDBRANCH  10  12
ENDBRANCH   6  10
BRANCH   9  21
HETATM   21  S2  UNL     1       4.610  -1.216   1.494  1.00  0.00    -0.132 SA
HETATM   22  C17 UNL     1       6.118  -1.194   0.578  1.00  0.00     0.095 C 
ENDBRANCH   9  21
BRANCH   1  23
HETATM   23  O1  UNL     1       4.603  -1.071  -1.519  1.00  0.00    -0.352 OA
HETATM   24  C1  UNL     1       4.843  -2.164  -2.397  1.00  0.00     0.210 C 
ENDBRANCH   1  23
TORSDOF 5
