REMARK  7 active torsions:
REMARK  status: ('A' for Active; 'I' for Inactive)
REMARK    1  A    between atoms: C2_2  and  C3_3 
REMARK    2  A    between atoms: C4_4  and  C5_5 
REMARK    3  A    between atoms: C6_6  and  C7_7 
REMARK    4  A    between atoms: C7_7  and  N1_8 
REMARK    5  A    between atoms: N1_8  and  C9_10 
REMARK    6  A    between atoms: C13_16  and  O1_17 
REMARK    7  A    between atoms: C15_19  and  O2_20 
ROOT
HETATM    1  C9  UNL     1      -0.748  -0.329  -1.364  1.00  0.00     0.139 A 
HETATM    2  N2  UNL     1      -0.289  -0.394  -2.638  1.00  0.00    -0.224 NA
HETATM    3  C10 UNL     1      -1.116  -0.453  -3.689  1.00  0.00     0.236 A 
HETATM    4  N3  UNL     1      -2.449  -0.453  -3.550  1.00  0.00    -0.241 NA
HETATM    5  C11 UNL     1      -2.988  -0.393  -2.322  1.00  0.00     0.075 A 
HETATM    6  C12 UNL     1      -4.347  -0.398  -2.119  1.00  0.00     0.072 A 
HETATM    7  C13 UNL     1      -4.834  -0.343  -0.833  1.00  0.00     0.103 A 
HETATM    8  C15 UNL     1      -3.963  -0.285   0.234  1.00  0.00     0.102 A 
HETATM    9  C17 UNL     1      -2.617  -0.282   0.005  1.00  0.00     0.057 A 
HETATM   10  C18 UNL     1      -2.108  -0.334  -1.272  1.00  0.00     0.041 A 
ENDROOT
BRANCH   1  11
HETATM   11  N1  UNL     1       0.258  -0.207  -0.377  1.00  0.00    -0.366 N 
HETATM   12  C8  UNL     1       0.332   0.304   0.977  1.00  0.00     0.151 C 
BRANCH  11  13
HETATM   13  C7  UNL     1       1.634  -0.635  -0.716  1.00  0.00     0.151 C 
BRANCH  13  14
HETATM   14  C6  UNL     1       2.530   0.515  -0.840  1.00  0.00    -0.007 C 
HETATM   15  C5  UNL     1       3.634   0.921  -0.242  1.00  0.00    -0.003 C 
BRANCH  15  16
HETATM   16  C4  UNL     1       4.252   0.153   0.829  1.00  0.00    -0.004 C 
HETATM   17  C3  UNL     1       5.373   0.623   1.397  1.00  0.00    -0.027 C 
BRANCH  17  18
HETATM   18  C2  UNL     1       6.148   0.014   2.479  1.00  0.00     0.022 C 
HETATM   19  C1  UNL     1       7.561  -0.274   2.018  1.00  0.00     0.009 C 
ENDBRANCH  17  18
ENDBRANCH  15  16
ENDBRANCH  13  14
ENDBRANCH  11  13
ENDBRANCH   1  11
BRANCH   8  20
HETATM   20  O2  UNL     1      -4.584  -0.236   1.461  1.00  0.00    -0.353 OA
HETATM   21  C16 UNL     1      -3.899  -0.185   2.697  1.00  0.00     0.210 C 
ENDBRANCH   8  20
BRANCH   7  22
HETATM   22  O1  UNL     1      -6.214  -0.350  -0.684  1.00  0.00    -0.353 OA
HETATM   23  C14 UNL     1      -7.053  -0.410  -1.805  1.00  0.00     0.210 C 
ENDBRANCH   7  22
TORSDOF 7
