REMARK  7 active torsions:
REMARK  status: ('A' for Active; 'I' for Inactive)
REMARK    1  A    between atoms: O1_2  and  C2_3 
REMARK    2  A    between atoms: C2_3  and  B1_4 
REMARK    3  A    between atoms: C2_3  and  C14_19 
REMARK    4  A    between atoms: B1_4  and  C3_5 
REMARK    5  A    between atoms: C4_6  and  N1_7 
REMARK    6  A    between atoms: N1_7  and  C6_9 
REMARK    7  A    between atoms: C14_19  and  O2_21 
ROOT
HETATM    1  C3  UNL     1       0.894  -1.447   1.330  1.00  0.00    -0.051 C 
HETATM    2  C4  UNL     1       1.906  -1.380   0.479  1.00  0.00     0.119 C 
HETATM    3  N2  UNL     1       3.157  -1.975   0.879  1.00  0.00    -0.262 N 
HETATM    4  N3  UNL     1       3.216  -2.590   2.153  1.00  0.00    -0.171 NA
HETATM    5  C12 UNL     1       2.117  -2.950   2.724  1.00  0.00     0.107 C 
HETATM    6  C13 UNL     1       1.117  -2.121   2.615  1.00  0.00     0.034 C 
HETATM    7  H10 UNL     1       3.938  -1.905   0.184  1.00  0.00     0.191 HD
ENDROOT
BRANCH   1   8
HETATM    8  B1  UNL     1      -0.652  -0.712   0.836  1.00  0.00     0.259 B 
BRANCH   8   9
HETATM    9  C2  UNL     1      -2.275  -0.237   0.555  1.00  0.00     0.005 C 
BRANCH   9  10
HETATM   10  O1  UNL     1      -3.399  -0.841   1.109  1.00  0.00    -0.374 OA
HETATM   11  C1  UNL     1      -3.216  -1.543   2.325  1.00  0.00     0.207 C 
ENDBRANCH   9  10
BRANCH   9  12
HETATM   12  C14 UNL     1      -2.542   0.913  -0.350  1.00  0.00     0.156 C 
HETATM   13  C15 UNL     1      -3.280   1.942   0.516  1.00  0.00     0.045 C 
BRANCH  12  14
HETATM   14  O2  UNL     1      -3.390   0.443  -1.348  1.00  0.00    -0.386 OA
HETATM   15  C16 UNL     1      -2.904   0.659  -2.617  1.00  0.00     0.202 C 
ENDBRANCH  12  14
ENDBRANCH   9  12
ENDBRANCH   8   9
ENDBRANCH   1   8
BRANCH   2  16
HETATM   16  N1  UNL     1       1.750  -0.739  -0.783  1.00  0.00    -0.336 N 
HETATM   17  C5  UNL     1       0.785  -1.065  -1.822  1.00  0.00     0.158 C 
BRANCH  16  18
HETATM   18  C6  UNL     1       2.659   0.334  -1.012  1.00  0.00     0.047 C 
HETATM   19  C7  UNL     1       3.889   0.167  -1.413  1.00  0.00     0.015 C 
HETATM   20  C8  UNL     1       4.843   0.922  -1.000  1.00  0.00    -0.011 C 
HETATM   21  C9  UNL     1       4.550   2.050  -0.402  1.00  0.00     0.013 C 
HETATM   22  C10 UNL     1       3.189   2.591  -0.489  1.00  0.00     0.003 C 
HETATM   23  C11 UNL     1       2.229   1.720  -0.799  1.00  0.00     0.030 C 
ENDBRANCH  16  18
ENDBRANCH   2  16
TORSDOF 7
