REMARK  5 active torsions:
REMARK  status: ('A' for Active; 'I' for Inactive)
REMARK    1  A    between atoms: C2_2  and  C3_4 
REMARK    2  A    between atoms: C4_5  and  C5_6 
REMARK    3  A    between atoms: C5_6  and  N1_7 
REMARK    4  A    between atoms: C9_11  and  O1_12 
REMARK    5  A    between atoms: C11_14  and  O2_15 
ROOT
HETATM    1  N1  UNL     1      -1.455   0.641   0.074  1.00  0.00    -0.371 N 
HETATM    2  C6  UNL     1      -0.313  -0.201   0.157  1.00  0.00     0.101 C 
HETATM    3  C7  UNL     1       0.966   0.070  -0.041  1.00  0.00     0.012 A 
HETATM    4  C8  UNL     1       1.728  -1.064   0.152  1.00  0.00     0.054 A 
HETATM    5  C9  UNL     1       3.103  -1.067   0.012  1.00  0.00     0.102 A 
HETATM    6  C11 UNL     1       3.718   0.133  -0.338  1.00  0.00     0.103 A 
HETATM    7  C13 UNL     1       2.931   1.250  -0.524  1.00  0.00     0.074 A 
HETATM    8  C14 UNL     1       1.558   1.269  -0.388  1.00  0.00     0.091 A 
HETATM    9  N2  UNL     1       0.976   2.376  -0.593  1.00  0.00    -0.177 NA
HETATM   10  N3  UNL     1      -0.379   2.701  -0.533  1.00  0.00    -0.295 N 
HETATM   11  C15 UNL     1      -1.540   1.861  -0.743  1.00  0.00     0.265 C 
HETATM   12  H16 UNL     1      -0.563   3.721  -0.297  1.00  0.00     0.184 HD
ENDROOT
BRANCH   1  13
HETATM   13  C5  UNL     1      -2.633   0.281   0.847  1.00  0.00     0.130 C 
BRANCH  13  14
HETATM   14  C4  UNL     1      -3.308  -0.928   0.388  1.00  0.00     0.020 C 
HETATM   15  C3  UNL     1      -4.546  -0.737   0.033  1.00  0.00     0.045 C 
BRANCH  15  16
HETATM   16  C2  UNL     1      -5.855  -1.032  -0.444  1.00  0.00     0.007 C 
HETATM   17  C1  UNL     1      -6.451   0.149  -0.394  1.00  0.00     0.032 C 
HETATM   18 CL1  UNL     1      -7.193  -1.936  -1.053  1.00  0.00    -0.089 Cl
ENDBRANCH  15  16
ENDBRANCH  13  14
ENDBRANCH   1  13
BRANCH   5  19
HETATM   19  O1  UNL     1       3.918  -2.177   0.193  1.00  0.00    -0.353 OA
HETATM   20  C10 UNL     1       3.455  -3.443   0.542  1.00  0.00     0.210 C 
ENDBRANCH   5  19
BRANCH   6  21
HETATM   21  O2  UNL     1       5.089   0.170  -0.487  1.00  0.00    -0.353 OA
HETATM   22  C12 UNL     1       5.706   1.397  -0.842  1.00  0.00     0.210 C 
ENDBRANCH   6  21
TORSDOF 5
