REMARK  6 active torsions:
REMARK  status: ('A' for Active; 'I' for Inactive)
REMARK    1  A    between atoms: C2_2  and  O1_3 
REMARK    2  A    between atoms: O1_3  and  N1_4 
REMARK    3  A    between atoms: N1_4  and  C3_5 
REMARK    4  A    between atoms: N1_4  and  C9_11 
REMARK    5  A    between atoms: C13_17  and  O2_18 
REMARK    6  A    between atoms: C15_20  and  O3_21 
ROOT
HETATM    1  C9  UNL     1      -0.059   0.852  -1.408  1.00  0.00     0.169 A 
HETATM    2  N2  UNL     1       0.098   1.664  -2.496  1.00  0.00    -0.221 NA
HETATM    3  C10 UNL     1       1.332   1.994  -2.921  1.00  0.00     0.236 A 
HETATM    4  N3  UNL     1       2.436   1.561  -2.323  1.00  0.00    -0.241 NA
HETATM    5  C11 UNL     1       2.321   0.764  -1.253  1.00  0.00     0.075 A 
HETATM    6  C12 UNL     1       3.390   0.245  -0.514  1.00  0.00     0.072 A 
HETATM    7  C13 UNL     1       3.197  -0.573   0.604  1.00  0.00     0.103 A 
HETATM    8  C15 UNL     1       1.922  -0.899   1.018  1.00  0.00     0.102 A 
HETATM    9  C17 UNL     1       0.847  -0.405   0.313  1.00  0.00     0.057 A 
HETATM   10  C18 UNL     1       1.070   0.388  -0.767  1.00  0.00     0.044 A 
ENDROOT
BRANCH   1  11
HETATM   11  N1  UNL     1      -1.423   0.609  -1.091  1.00  0.00    -0.203 N 
BRANCH  11  12
HETATM   12  O1  UNL     1      -2.088  -0.239  -1.869  1.00  0.00    -0.272 OA
BRANCH  12  13
HETATM   13  C2  UNL     1      -2.136  -1.548  -1.471  1.00  0.00     0.197 C 
HETATM   14  C1  UNL     1      -2.953  -2.417  -2.403  1.00  0.00     0.036 C 
ENDBRANCH  12  13
ENDBRANCH  11  12
BRANCH  11  15
HETATM   15  C3  UNL     1      -2.152   1.180   0.004  1.00  0.00     0.065 A 
HETATM   16  C4  UNL     1      -3.502   0.978   0.178  1.00  0.00     0.032 A 
HETATM   17  C5  UNL     1      -4.222   1.503   1.226  1.00  0.00     0.002 A 
HETATM   18  C6  UNL     1      -3.586   2.299   2.204  1.00  0.00     0.000 A 
HETATM   19  C7  UNL     1      -2.278   2.401   1.895  1.00  0.00     0.002 A 
HETATM   20  C8  UNL     1      -1.401   1.974   0.937  1.00  0.00     0.032 A 
ENDBRANCH  11  15
ENDBRANCH   1  11
BRANCH   8  21
HETATM   21  O3  UNL     1       1.952  -1.707   2.125  1.00  0.00    -0.353 OA
HETATM   22  C16 UNL     1       0.766  -2.167   2.719  1.00  0.00     0.210 C 
ENDBRANCH   8  21
BRANCH   7  23
HETATM   23  O2  UNL     1       4.389  -0.980   1.186  1.00  0.00    -0.353 OA
HETATM   24  C14 UNL     1       5.648  -0.607   0.662  1.00  0.00     0.210 C 
ENDBRANCH   7  23
TORSDOF 6
