REMARK  5 active torsions:
REMARK  status: ('A' for Active; 'I' for Inactive)
REMARK    1  A    between atoms: N1_2  and  C2_3 
REMARK    2  A    between atoms: N1_2  and  C12_16 
REMARK    3  A    between atoms: C2_3  and  O1_4 
REMARK    4  A    between atoms: O1_4  and  C3_5 
REMARK    5  A    between atoms: C5_7  and  O2_8 
ROOT
HETATM    1  C3  UNL     1      -1.608  -0.045   1.005  1.00  0.00     0.076 C 
HETATM    2  C4  UNL     1      -2.365   1.105   1.047  1.00  0.00     0.043 C 
HETATM    3  C5  UNL     1      -3.688   1.850   0.853  1.00  0.00     0.166 C 
HETATM    4  C6  UNL     1      -4.461   1.152  -0.279  1.00  0.00     0.009 C 
HETATM    5  C7  UNL     1      -4.209  -0.169  -0.671  1.00  0.00     0.011 C 
HETATM    6  C8  UNL     1      -3.375  -1.219   0.062  1.00  0.00    -0.021 C 
HETATM    7  C9  UNL     1      -3.452  -1.607   1.380  1.00  0.00     0.019 C 
HETATM    8  C10 UNL     1      -1.982  -1.410   1.362  1.00  0.00     0.187 C 
HETATM    9  N2  UNL     1      -1.751  -2.451   0.291  1.00  0.00    -0.285 NA
HETATM   10  C11 UNL     1      -2.222  -1.793  -0.757  1.00  0.00     0.122 C 
ENDROOT
BRANCH   1  11
HETATM   11  O1  UNL     1      -0.369   0.316   0.550  1.00  0.00    -0.334 OA
BRANCH  11  12
HETATM   12  C2  UNL     1       0.418  -0.209  -0.450  1.00  0.00     0.300 C 
BRANCH  12  13
HETATM   13  N1  UNL     1       1.710   0.445  -0.585  1.00  0.00    -0.363 N 
HETATM   14  C1  UNL     1       1.604   1.873  -0.901  1.00  0.00     0.152 C 
BRANCH  13  15
HETATM   15  C12 UNL     1       2.985  -0.161  -0.443  1.00  0.00     0.031 A 
HETATM   16  C13 UNL     1       3.213  -1.485  -0.142  1.00  0.00     0.029 A 
HETATM   17  C14 UNL     1       4.460  -2.055  -0.011  1.00  0.00     0.002 A 
HETATM   18  C15 UNL     1       5.556  -1.255  -0.192  1.00  0.00     0.000 A 
HETATM   19  C16 UNL     1       5.373   0.059  -0.491  1.00  0.00     0.002 A 
HETATM   20  C17 UNL     1       4.110   0.612  -0.617  1.00  0.00     0.029 A 
ENDBRANCH  13  15
ENDBRANCH  12  13
ENDBRANCH  11  12
ENDBRANCH   1  11
BRANCH   3  21
HETATM   21  O2  UNL     1      -3.451   3.134   0.486  1.00  0.00    -0.388 OA
HETATM   22  H8  UNL     1      -2.470   3.362   0.473  1.00  0.00     0.210 HD
ENDBRANCH   3  21
TORSDOF 5
