REMARK  5 active torsions:
REMARK  status: ('A' for Active; 'I' for Inactive)
REMARK    1  A    between atoms: O1_2  and  C2_3 
REMARK    2  A    between atoms: C6_7  and  P1_9 
REMARK    3  A    between atoms: P1_9  and  N1_10 
REMARK    4  A    between atoms: N1_10  and  C8_12 
REMARK    5  A    between atoms: C15_19  and  O2_20 
ROOT
HETATM    1  C2  UNL     1       3.724   0.896   0.518  1.00  0.00     0.098 A 
HETATM    2  C3  UNL     1       2.672   1.274   1.228  1.00  0.00     0.017 A 
HETATM    3  C4  UNL     1       1.344   0.674   1.079  1.00  0.00     0.070 A 
HETATM    4  C5  UNL     1       1.300  -0.393   0.055  1.00  0.00    -0.028 A 
HETATM    5  C6  UNL     1       0.145  -1.002  -0.159  1.00  0.00     0.062 C 
HETATM    6 CL1  UNL     1      -0.024  -2.270  -1.337  1.00  0.00    -0.081 Cl
HETATM    7  C14 UNL     1       2.487  -0.773  -0.701  1.00  0.00     0.049 A 
HETATM    8  C15 UNL     1       3.637  -0.159  -0.479  1.00  0.00     0.101 A 
ENDROOT
BRANCH   5   9
HETATM    9  P1  UNL     1      -1.359  -0.575   0.746  1.00  0.00     0.019 P 
HETATM   10  H7  UNL     1      -1.814  -1.681   1.592  1.00  0.00     0.086 HD
BRANCH   9  11
HETATM   11  N1  UNL     1      -2.698  -0.141  -0.369  1.00  0.00    -0.357 N 
HETATM   12  C7  UNL     1      -2.413   0.290  -1.744  1.00  0.00     0.155 C 
BRANCH  11  13
HETATM   13  C8  UNL     1      -4.042  -0.222   0.100  1.00  0.00     0.033 A 
HETATM   14  C9  UNL     1      -4.418  -0.613   1.367  1.00  0.00     0.029 A 
HETATM   15  C10 UNL     1      -5.751  -0.664   1.744  1.00  0.00     0.002 A 
HETATM   16  C11 UNL     1      -6.756  -0.323   0.861  1.00  0.00     0.000 A 
HETATM   17  C12 UNL     1      -6.416   0.076  -0.423  1.00  0.00     0.002 A 
HETATM   18  C13 UNL     1      -5.073   0.112  -0.758  1.00  0.00     0.029 A 
ENDBRANCH  11  13
ENDBRANCH   9  11
ENDBRANCH   5   9
BRANCH   8  19
HETATM   19  O2  UNL     1       4.830  -0.432  -1.135  1.00  0.00    -0.353 OA
HETATM   20  C16 UNL     1       5.554  -1.600  -0.806  1.00  0.00     0.210 C 
ENDBRANCH   8  19
BRANCH   1  21
HETATM   21  O1  UNL     1       4.828   1.649   0.889  1.00  0.00    -0.353 OA
HETATM   22  C1  UNL     1       5.559   2.289  -0.132  1.00  0.00     0.210 C 
ENDBRANCH   1  21
TORSDOF 5
