REMARK  5 active torsions:
REMARK  status: ('A' for Active; 'I' for Inactive)
REMARK    1  A    between atoms: O1_2  and  C2_3 
REMARK    2  A    between atoms: C8_11  and  O2_12 
REMARK    3  A    between atoms: O2_12  and  C9_13 
REMARK    4  A    between atoms: C9_13  and  C11_15 
REMARK    5  A    between atoms: C17_21  and  O3_22 
ROOT
HETATM    1  C2  UNL     1      -3.007   0.559  -0.342  1.00  0.00     0.105 A 
HETATM    2  C3  UNL     1      -3.242  -0.778  -0.094  1.00  0.00     0.055 A 
HETATM    3  C4  UNL     1      -2.199  -1.586   0.309  1.00  0.00     0.016 A 
HETATM    4  C5  UNL     1      -2.519  -2.911   0.536  1.00  0.00     0.132 A 
HETATM    5  N1  UNL     1      -1.549  -3.763   0.934  1.00  0.00    -0.253 NA
HETATM    6  C6  UNL     1      -0.303  -3.276   1.091  1.00  0.00     0.233 A 
HETATM    7  N2  UNL     1      -0.003  -1.979   0.866  1.00  0.00    -0.238 NA
HETATM    8  C7  UNL     1      -0.924  -1.086   0.470  1.00  0.00     0.106 A 
HETATM    9  C8  UNL     1      -0.665   0.247   0.228  1.00  0.00     0.135 A 
HETATM   10  C17 UNL     1      -1.713   1.064  -0.178  1.00  0.00     0.137 A 
ENDROOT
BRANCH   9  11
HETATM   11  O2  UNL     1       0.629   0.674   0.410  1.00  0.00    -0.336 OA
BRANCH  11  12
HETATM   12  C9  UNL     1       1.587   0.657  -0.625  1.00  0.00     0.158 C 
HETATM   13  C10 UNL     1       2.145   2.060  -0.883  1.00  0.00     0.045 C 
BRANCH  12  14
HETATM   14  C11 UNL     1       2.734  -0.201  -0.288  1.00  0.00    -0.029 A 
HETATM   15  C12 UNL     1       3.300  -1.107  -1.162  1.00  0.00     0.010 A 
HETATM   16  C13 UNL     1       4.374  -1.879  -0.780  1.00  0.00     0.001 A 
HETATM   17  C14 UNL     1       4.923  -1.774   0.494  1.00  0.00     0.000 A 
HETATM   18  C15 UNL     1       4.341  -0.860   1.355  1.00  0.00     0.001 A 
HETATM   19  C16 UNL     1       3.253  -0.074   0.975  1.00  0.00     0.010 A 
ENDBRANCH  12  14
ENDBRANCH  11  12
ENDBRANCH   9  11
BRANCH  10  20
HETATM   20  O3  UNL     1      -1.312   2.386  -0.387  1.00  0.00    -0.351 OA
HETATM   21  C18 UNL     1      -1.387   3.258   0.722  1.00  0.00     0.210 C 
ENDBRANCH  10  20
BRANCH   1  22
HETATM   22  O1  UNL     1      -3.867   1.564  -0.750  1.00  0.00    -0.353 OA
HETATM   23  C1  UNL     1      -5.236   1.408  -1.008  1.00  0.00     0.210 C 
ENDBRANCH   1  22
TORSDOF 5
