REMARK  8 active torsions:
REMARK  status: ('A' for Active; 'I' for Inactive)
REMARK    1  A    between atoms: O1_2  and  C2_3 
REMARK    2  A    between atoms: C3_4  and  O2_5 
REMARK    3  A    between atoms: C3_4  and  C5_7 
REMARK    4  A    between atoms: C5_7  and  O3_24 
REMARK    5  A    between atoms: C6_8  and  C7_9 
REMARK    6  A    between atoms: C7_9  and  C8_10 
REMARK    7  A    between atoms: C11_15  and  N3_16 
REMARK    8  A    between atoms: N3_16  and  C13_18 
ROOT
HETATM    1  C8  UNL     1       0.782  -0.961   0.559  1.00  0.00     0.009 A 
HETATM    2  C9  UNL     1       0.260  -2.179   1.007  1.00  0.00     0.129 A 
HETATM    3  N1  UNL     1       0.996  -3.093   1.615  1.00  0.00    -0.253 NA
HETATM    4  C10 UNL     1       2.304  -2.883   1.832  1.00  0.00     0.234 A 
HETATM    5  N2  UNL     1       2.877  -1.719   1.422  1.00  0.00    -0.224 NA
HETATM    6  C11 UNL     1       2.132  -0.767   0.794  1.00  0.00     0.139 A 
ENDROOT
BRANCH   1   7
HETATM    7  C7  UNL     1       0.048   0.131  -0.130  1.00  0.00     0.074 C 
BRANCH   7   8
HETATM    8  C6  UNL     1      -1.373  -0.296  -0.308  1.00  0.00     0.018 C 
HETATM    9  C5  UNL     1      -2.383   0.357   0.214  1.00  0.00     0.100 C 
BRANCH   9  10
HETATM   10  C3  UNL     1      -3.703  -0.187  -0.052  1.00  0.00     0.123 C 
HETATM   11  C2  UNL     1      -4.692   0.491   0.488  1.00  0.00     0.173 C 
BRANCH  11  12
HETATM   12  O1  UNL     1      -6.050   0.627   0.687  1.00  0.00    -0.365 OA
HETATM   13  C1  UNL     1      -6.884   1.025  -0.396  1.00  0.00     0.209 C 
ENDBRANCH  11  12
BRANCH  10  14
HETATM   14  O2  UNL     1      -3.970  -1.307  -0.795  1.00  0.00    -0.351 OA
HETATM   15  C4  UNL     1      -4.040  -2.626  -0.297  1.00  0.00     0.210 C 
ENDBRANCH  10  14
ENDBRANCH   9  10
BRANCH   9  16
HETATM   16  O3  UNL     1      -2.126   1.489   0.963  1.00  0.00    -0.353 OA
HETATM   17  C19 UNL     1      -2.064   2.796   0.428  1.00  0.00     0.210 C 
ENDBRANCH   9  16
ENDBRANCH   7   8
ENDBRANCH   1   7
BRANCH   6  18
HETATM   18  N3  UNL     1       2.886   0.384   0.436  1.00  0.00    -0.336 N 
HETATM   19  C12 UNL     1       2.525   1.668   0.970  1.00  0.00     0.158 C 
BRANCH  18  20
HETATM   20  C13 UNL     1       3.996   0.260  -0.447  1.00  0.00     0.035 A 
HETATM   21  C14 UNL     1       4.380  -0.957  -0.989  1.00  0.00     0.029 A 
HETATM   22  C15 UNL     1       5.459  -1.052  -1.841  1.00  0.00     0.002 A 
HETATM   23  C16 UNL     1       6.212   0.047  -2.198  1.00  0.00     0.000 A 
HETATM   24  C17 UNL     1       5.837   1.279  -1.659  1.00  0.00     0.002 A 
HETATM   25  C18 UNL     1       4.752   1.343  -0.809  1.00  0.00     0.029 A 
ENDBRANCH  18  20
ENDBRANCH   6  18
TORSDOF 8
