REMARK  6 active torsions:
REMARK  status: ('A' for Active; 'I' for Inactive)
REMARK    1  A    between atoms: C2_2  and  C3_3 
REMARK    2  A    between atoms: C3_3  and  O1_4 
REMARK    3  A    between atoms: O1_4  and  N1_5 
REMARK    4  A    between atoms: N1_5  and  C4_6 
REMARK    5  A    between atoms: N1_5  and  C9_11 
REMARK    6  A    between atoms: C13_17  and  O2_18 
ROOT
HETATM    1  C9  UNL     1       0.326   1.064  -0.455  1.00  0.00     0.169 A 
HETATM    2  N2  UNL     1       0.458   2.405  -0.537  1.00  0.00    -0.221 NA
HETATM    3  C10 UNL     1       1.647   2.989  -0.338  1.00  0.00     0.236 A 
HETATM    4  N3  UNL     1       2.734   2.259  -0.053  1.00  0.00    -0.241 NA
HETATM    5  C11 UNL     1       2.714   0.920   0.051  1.00  0.00     0.074 A 
HETATM    6  C12 UNL     1       3.827   0.164   0.343  1.00  0.00     0.069 A 
HETATM    7  C13 UNL     1       3.688  -1.200   0.425  1.00  0.00     0.070 A 
HETATM    8  C15 UNL     1       2.454  -1.779   0.216  1.00  0.00     0.038 A 
HETATM    9  C16 UNL     1       1.351  -1.003  -0.075  1.00  0.00     0.020 A 
HETATM   10  C17 UNL     1       1.473   0.365  -0.160  1.00  0.00     0.041 A 
ENDROOT
BRANCH   1  11
HETATM   11  N1  UNL     1      -0.948   0.488  -0.672  1.00  0.00    -0.203 N 
BRANCH  11  12
HETATM   12  O1  UNL     1      -1.577  -0.699  -0.701  1.00  0.00    -0.271 OA
BRANCH  12  13
HETATM   13  C3  UNL     1      -2.453  -0.905   0.336  1.00  0.00     0.201 C 
BRANCH  13  14
HETATM   14  C2  UNL     1      -3.099  -2.279   0.195  1.00  0.00     0.024 C 
HETATM   15  C1  UNL     1      -2.004  -3.327   0.227  1.00  0.00     0.007 C 
ENDBRANCH  13  14
ENDBRANCH  12  13
ENDBRANCH  11  12
BRANCH  11  16
HETATM   16  C4  UNL     1      -2.049   1.341  -0.979  1.00  0.00     0.061 A 
HETATM   17  C5  UNL     1      -2.887   1.650  -1.949  1.00  0.00     0.009 A 
HETATM   18  C6  UNL     1      -3.868   2.721  -1.548  1.00  0.00     0.056 A 
HETATM   19  C7  UNL     1      -3.438   2.974  -0.160  1.00  0.00    -0.021 A 
HETATM   20  C8  UNL     1      -2.409   2.197   0.172  1.00  0.00     0.028 A 
ENDBRANCH  11  16
ENDBRANCH   1  11
BRANCH   7  21
HETATM   21  O2  UNL     1       4.785  -2.019   0.718  1.00  0.00    -0.356 OA
HETATM   22  C14 UNL     1       6.054  -1.393   0.930  1.00  0.00     0.210 C 
ENDBRANCH   7  21
TORSDOF 6
