REMARK  7 active torsions:
REMARK  status: ('A' for Active; 'I' for Inactive)
REMARK    1  A    between atoms: B1_1  and  C1_2 
REMARK    2  A    between atoms: C1_2  and  C2_3 
REMARK    3  A    between atoms: C3_4  and  N1_6 
REMARK    4  A    between atoms: N1_6  and  C5_8 
REMARK    5  A    between atoms: C8_13  and  O1_14 
REMARK    6  A    between atoms: C10_16  and  O2_17 
REMARK    7  A    between atoms: C12_19  and  O3_20 
ROOT
HETATM    1  C5  UNL     1       0.989  -0.716   0.713  1.00  0.00     0.144 A 
HETATM    2  N2  UNL     1       1.372  -1.712   1.544  1.00  0.00    -0.223 NA
HETATM    3  C6  UNL     1       0.405  -2.381   2.228  1.00  0.00     0.236 A 
HETATM    4  N3  UNL     1      -0.931  -2.131   2.149  1.00  0.00    -0.238 NA
HETATM    5  C7  UNL     1      -1.293  -1.142   1.322  1.00  0.00     0.108 A 
HETATM    6  C8  UNL     1      -2.627  -0.773   1.138  1.00  0.00     0.134 A 
HETATM    7  C10 UNL     1      -2.941   0.255   0.273  1.00  0.00     0.137 A 
HETATM    8  C12 UNL     1      -1.993   0.959  -0.441  1.00  0.00     0.105 A 
HETATM    9  C14 UNL     1      -0.668   0.585  -0.252  1.00  0.00     0.057 A 
HETATM   10  C15 UNL     1      -0.352  -0.441   0.612  1.00  0.00     0.044 A 
ENDROOT
BRANCH   1  11
HETATM   11  N1  UNL     1       2.073  -0.087   0.051  1.00  0.00    -0.326 N 
HETATM   12  C4  UNL     1       2.227  -0.046  -1.401  1.00  0.00     0.159 C 
BRANCH  11  13
HETATM   13  C3  UNL     1       3.053   0.532   0.875  1.00  0.00     0.102 C 
HETATM   14  C2  UNL     1       4.239   0.813   0.364  1.00  0.00     0.005 C 
HETATM   15 CL1  UNL     1       2.733   0.933   2.549  1.00  0.00    -0.065 Cl
BRANCH  14  16
HETATM   16  C1  UNL     1       5.296   1.459   1.185  1.00  0.00    -0.030 C 
BRANCH  16  17
HETATM   17  B1  UNL     1       6.537   0.482   1.223  1.00  0.00     0.139 B 
HETATM   18  H1  UNL     1       6.310  -0.685   1.234  1.00  0.00    -0.032 HD
HETATM   19  H2  UNL     1       7.634   0.830   0.959  1.00  0.00    -0.032 HD
ENDBRANCH  16  17
ENDBRANCH  14  16
ENDBRANCH  11  13
ENDBRANCH   1  11
BRANCH   6  20
HETATM   20  O1  UNL     1      -3.568  -1.492   1.864  1.00  0.00    -0.351 OA
HETATM   21  C9  UNL     1      -4.108  -2.654   1.262  1.00  0.00     0.210 C 
ENDBRANCH   6  20
BRANCH   8  22
HETATM   22  O3  UNL     1      -2.435   1.972  -1.280  1.00  0.00    -0.353 OA
HETATM   23  C13 UNL     1      -1.625   2.782  -2.072  1.00  0.00     0.210 C 
ENDBRANCH   8  22
BRANCH   7  24
HETATM   24  O2  UNL     1      -4.269   0.568   0.137  1.00  0.00    -0.351 OA
HETATM   25  C11 UNL     1      -5.174   0.033  -0.781  1.00  0.00     0.210 C 
ENDBRANCH   7  24
TORSDOF 7
