REMARK  5 active torsions:
REMARK  status: ('A' for Active; 'I' for Inactive)
REMARK    1  A    between atoms: O1_2  and  C2_3 
REMARK    2  A    between atoms: C3_4  and  O2_5 
REMARK    3  A    between atoms: C9_12  and  N2_13 
REMARK    4  A    between atoms: N2_13  and  C10_14 
REMARK    5  A    between atoms: N2_13  and  C11_16 
ROOT
HETATM    1  C2  UNL     1       2.620  -0.683   0.812  1.00  0.00     0.110 C 
HETATM    2  C3  UNL     1       2.316  -1.235  -0.411  1.00  0.00     0.089 C 
HETATM    3  C5  UNL     1       0.807  -1.334  -0.067  1.00  0.00     0.118 A 
HETATM    4  C6  UNL     1       0.916  -2.627   0.594  1.00  0.00     0.003 A 
HETATM    5  C7  UNL     1       1.592  -1.708   1.258  1.00  0.00     0.133 A 
HETATM    6  N1  UNL     1       1.127  -0.682   2.334  1.00  0.00    -0.281 NA
HETATM    7  C8  UNL     1      -0.206  -1.015   2.313  1.00  0.00     0.112 C 
HETATM    8  C9  UNL     1       0.086  -0.465   0.853  1.00  0.00     0.147 C 
ENDROOT
BRANCH   8   9
HETATM    9  N2  UNL     1      -1.361  -0.404   0.389  1.00  0.00    -0.331 N 
BRANCH   9  10
HETATM   10  C10 UNL     1      -1.895  -1.737   0.403  1.00  0.00     0.201 C 
HETATM   11  N3  UNL     1      -2.133  -2.536  -0.587  1.00  0.00    -0.295 NA
HETATM   12  H12 UNL     1      -1.932  -2.235  -1.563  1.00  0.00     0.187 HD
ENDBRANCH   9  10
BRANCH   9  13
HETATM   13  C11 UNL     1      -2.163   0.697  -0.014  1.00  0.00     0.036 A 
HETATM   14  C12 UNL     1      -3.461   0.458  -0.388  1.00  0.00     0.029 A 
HETATM   15  C13 UNL     1      -4.164   1.581  -0.764  1.00  0.00     0.002 A 
HETATM   16  C14 UNL     1      -3.678   2.876  -0.790  1.00  0.00     0.000 A 
HETATM   17  C15 UNL     1      -2.362   3.057  -0.402  1.00  0.00     0.002 A 
HETATM   18  C16 UNL     1      -1.621   1.957  -0.018  1.00  0.00     0.029 A 
ENDBRANCH   9  13
ENDBRANCH   8   9
BRANCH   2  19
HETATM   19  O2  UNL     1       2.928  -1.649  -1.666  1.00  0.00    -0.357 OA
HETATM   20  C4  UNL     1       3.179  -0.642  -2.641  1.00  0.00     0.209 C 
ENDBRANCH   2  19
BRANCH   1  21
HETATM   21  O1  UNL     1       3.568   0.303   0.626  1.00  0.00    -0.355 OA
HETATM   22  C1  UNL     1       3.483   1.487   1.451  1.00  0.00     0.209 C 
ENDBRANCH   1  21
TORSDOF 5
