REMARK  1 active torsions:
REMARK  status: ('A' for Active; 'I' for Inactive)
REMARK    1  A    between atoms: C1_2  and  C2_3 
ROOT
HETATM    1  C2  UNL     1      -2.901  -0.579  -1.740  1.00  0.00     0.012 C 
HETATM    2  C3  UNL     1      -1.824  -0.479  -0.977  1.00  0.00    -0.049 C 
HETATM    3  C4  UNL     1      -0.897   0.680  -1.082  1.00  0.00     0.079 C 
HETATM    4  C5  UNL     1      -0.779   1.470   0.147  1.00  0.00    -0.027 A 
HETATM    5  C6  UNL     1      -1.884   1.470   0.968  1.00  0.00     0.010 A 
HETATM    6  C7  UNL     1      -2.008   2.136   2.169  1.00  0.00     0.001 A 
HETATM    7  C8  UNL     1      -0.922   2.878   2.594  1.00  0.00     0.002 A 
HETATM    8  C9  UNL     1       0.208   2.888   1.771  1.00  0.00     0.030 A 
HETATM    9  C10 UNL     1       0.300   2.209   0.574  1.00  0.00     0.039 A 
HETATM   10  N1  UNL     1       1.579   2.448   0.011  1.00  0.00    -0.352 N 
HETATM   11  C11 UNL     1       2.527   1.482  -0.424  1.00  0.00     0.087 C 
HETATM   12  C12 UNL     1       2.526   0.315   0.208  1.00  0.00     0.111 C 
HETATM   13  N2  UNL     1       2.301   0.107   1.637  1.00  0.00    -0.380 N 
HETATM   14  C13 UNL     1       1.433  -0.791   2.405  1.00  0.00     0.161 C 
HETATM   15  C14 UNL     1       0.727  -1.809   1.519  1.00  0.00    -0.010 C 
HETATM   16  C15 UNL     1      -0.476  -2.128   2.089  1.00  0.00    -0.011 C 
HETATM   17  C16 UNL     1      -1.786  -1.961   1.395  1.00  0.00     0.067 C 
HETATM   18  C17 UNL     1      -1.617  -1.594  -0.035  1.00  0.00    -0.048 C 
HETATM   19  C18 UNL     1      -1.084  -2.505  -0.892  1.00  0.00     0.011 C 
HETATM   20  C19 UNL     1       0.285  -3.057  -0.644  1.00  0.00     0.038 C 
HETATM   21  C20 UNL     1       1.162  -2.436   0.196  1.00  0.00     0.085 C 
HETATM   22  O1  UNL     1       2.567  -2.331  -0.121  1.00  0.00    -0.289 OA
HETATM   23  C21 UNL     1       2.728  -0.936  -0.540  1.00  0.00     0.200 C 
HETATM   24  N3  UNL     1       3.065  -1.402  -1.686  1.00  0.00    -0.216 NA
HETATM   25  C22 UNL     1       3.152  -0.557  -2.872  1.00  0.00     0.234 C 
HETATM   26  N4  UNL     1       3.483   0.674  -3.092  1.00  0.00    -0.251 NA
HETATM   27  P1  UNL     1       3.612   1.962  -1.818  1.00  0.00     0.053 P 
HETATM   28  H10 UNL     1       1.963   3.406  -0.145  1.00  0.00     0.166 HD
HETATM   29  H11 UNL     1       2.851   0.696   2.262  1.00  0.00     0.160 HD
HETATM   30  H20 UNL     1       4.980   2.147  -1.403  1.00  0.00     0.089 HD
ENDROOT
BRANCH   1  31
HETATM   31  C1  UNL     1      -3.511   0.253  -2.803  1.00  0.00     0.250 C 
HETATM   32  F1  UNL     1      -3.593  -0.462  -4.001  1.00  0.00    -0.251 F 
ENDBRANCH   1  31
TORSDOF 1
