REMARK  5 active torsions:
REMARK  status: ('A' for Active; 'I' for Inactive)
REMARK    1  A    between atoms: O1_2  and  C2_3 
REMARK    2  A    between atoms: C5_6  and  C6_7 
REMARK    3  A    between atoms: C6_7  and  N1_8 
REMARK    4  A    between atoms: N1_8  and  C8_10 
REMARK    5  A    between atoms: C18_22  and  O2_23 
ROOT
HETATM    1  C2  UNL     1       3.034  -0.956   1.538  1.00  0.00     0.049 C 
HETATM    2  C3  UNL     1       1.763  -0.512   1.617  1.00  0.00     0.017 C 
HETATM    3  C4  UNL     1       0.968  -0.944   0.512  1.00  0.00     0.073 C 
HETATM    4  C5  UNL     1      -0.012  -1.162  -0.323  1.00  0.00     0.045 C 
HETATM    5  N2  UNL     1       0.981  -1.666  -1.159  1.00  0.00    -0.270 N 
HETATM    6  C15 UNL     1       0.994  -2.413  -2.160  1.00  0.00     0.199 A 
HETATM    7  N3  UNL     1       2.230  -1.955  -1.755  1.00  0.00    -0.159 NA
HETATM    8  C16 UNL     1       3.119  -1.452  -2.506  1.00  0.00     0.092 C 
HETATM    9  C17 UNL     1       4.241  -1.120  -1.615  1.00  0.00     0.046 C 
HETATM   10  C18 UNL     1       4.660  -1.175  -0.350  1.00  0.00     0.050 C 
HETATM   11  C19 UNL     1       3.707  -1.799   0.562  1.00  0.00     0.128 C 
ENDROOT
BRANCH   4  12
HETATM   12  C6  UNL     1      -1.260  -1.248  -1.060  1.00  0.00     0.327 C 
BRANCH  12  13
HETATM   13  N1  UNL     1      -2.408  -0.595  -0.454  1.00  0.00     0.100 N 
HETATM   14  C7  UNL     1      -3.548  -0.828  -1.328  1.00  0.00     0.311 C 
BRANCH  13  15
HETATM   15  C8  UNL     1      -2.149   0.803  -0.207  1.00  0.00     0.173 A 
HETATM   16  C9  UNL     1      -1.815   1.621  -1.382  1.00  0.00     0.045 A 
HETATM   17  C10 UNL     1      -2.994   1.879  -0.818  1.00  0.00     0.017 A 
HETATM   18  C11 UNL     1      -4.185   1.862   0.068  1.00  0.00    -0.006 C 
HETATM   19  C12 UNL     1      -4.857   3.225   0.125  1.00  0.00     0.011 C 
HETATM   20  C13 UNL     1      -3.644   1.488   1.427  1.00  0.00     0.008 C 
HETATM   21  C14 UNL     1      -2.130   1.337   1.209  1.00  0.00     0.043 C 
ENDBRANCH  13  15
ENDBRANCH  12  13
ENDBRANCH   4  12
BRANCH   1  22
HETATM   22  O1  UNL     1       3.805  -0.521   2.603  1.00  0.00    -0.360 OA
HETATM   23  C1  UNL     1       3.946   0.827   2.973  1.00  0.00     0.209 C 
ENDBRANCH   1  22
BRANCH  10  24
HETATM   24  O2  UNL     1       5.876  -0.729   0.217  1.00  0.00    -0.365 OA
HETATM   25  H23 UNL     1       6.695  -1.037  -0.310  1.00  0.00     0.217 HD
ENDBRANCH  10  24
TORSDOF 5
