REMARK  5 active torsions:
REMARK  status: ('A' for Active; 'I' for Inactive)
REMARK    1  A    between atoms: C2_2  and  N1_3 
REMARK    2  A    between atoms: N1_3  and  C3_4 
REMARK    3  A    between atoms: N1_3  and  C9_10 
REMARK    4  A    between atoms: C13_16  and  O1_17 
REMARK    5  A    between atoms: C15_19  and  O2_20 
ROOT
HETATM    1  C9  UNL     1      -0.167  -0.432   0.765  1.00  0.00     0.144 A 
HETATM    2  N2  UNL     1      -0.389  -0.445   2.118  1.00  0.00    -0.223 NA
HETATM    3  C10 UNL     1       0.582  -0.049   2.982  1.00  0.00     0.236 A 
HETATM    4  N3  UNL     1       1.820   0.382   2.621  1.00  0.00    -0.241 NA
HETATM    5  C11 UNL     1       2.040   0.396   1.293  1.00  0.00     0.075 A 
HETATM    6  C12 UNL     1       3.245   0.809   0.759  1.00  0.00     0.072 A 
HETATM    7  C13 UNL     1       3.503   0.838  -0.617  1.00  0.00     0.103 A 
HETATM    8  C15 UNL     1       2.499   0.431  -1.473  1.00  0.00     0.100 A 
HETATM    9  C16 UNL     1       1.274   0.007  -0.993  1.00  0.00     0.057 A 
HETATM   10  C17 UNL     1       1.085   0.003   0.377  1.00  0.00     0.042 A 
ENDROOT
BRANCH   1  11
HETATM   11  N1  UNL     1      -1.244  -0.874  -0.001  1.00  0.00    -0.331 N 
BRANCH  11  12
HETATM   12  C2  UNL     1      -1.131  -2.038  -0.765  1.00  0.00     0.126 C 
HETATM   13  C1  UNL     1      -2.113  -3.155  -0.411  1.00  0.00     0.027 C 
ENDBRANCH  11  12
BRANCH  11  14
HETATM   14  C3  UNL     1      -2.453  -0.103   0.015  1.00  0.00     0.035 A 
HETATM   15  C4  UNL     1      -3.571  -0.402  -0.688  1.00  0.00     0.029 A 
HETATM   16  C5  UNL     1      -4.733   0.341  -0.668  1.00  0.00     0.002 A 
HETATM   17  C6  UNL     1      -4.789   1.474   0.116  1.00  0.00     0.000 A 
HETATM   18  C7  UNL     1      -3.682   1.823   0.850  1.00  0.00     0.002 A 
HETATM   19  C8  UNL     1      -2.554   1.054   0.796  1.00  0.00     0.029 A 
ENDBRANCH  11  14
ENDBRANCH   1  11
BRANCH   8  20
HETATM   20  O2  UNL     1       2.725   0.447  -2.850  1.00  0.00    -0.358 OA
HETATM   21  H16 UNL     1       3.505   0.017  -3.312  1.00  0.00     0.217 HD
ENDBRANCH   8  20
BRANCH   7  22
HETATM   22  O1  UNL     1       4.701   1.248  -1.161  1.00  0.00    -0.353 OA
HETATM   23  C14 UNL     1       5.744   1.669  -0.306  1.00  0.00     0.210 C 
ENDBRANCH   7  22
TORSDOF 5
