REMARK  8 active torsions:
REMARK  status: ('A' for Active; 'I' for Inactive)
REMARK    1  A    between atoms: O1_2  and  C2_3 
REMARK    2  A    between atoms: C2_3  and  C3_4 
REMARK    3  A    between atoms: C3_4  and  C15_20 
REMARK    4  A    between atoms: C4_5  and  C5_6 
REMARK    5  A    between atoms: C9_12  and  N3_13 
REMARK    6  A    between atoms: N3_13  and  N4_14 
REMARK    7  A    between atoms: N4_14  and  C11_16 
REMARK    8  A    between atoms: C15_20  and  O2_21 
ROOT
HETATM    1  C5  UNL     1      -0.527   0.913  -0.143  1.00  0.00     0.036 A 
HETATM    2  C6  UNL     1      -1.005   2.203  -0.010  1.00  0.00     0.046 A 
HETATM    3  C7  UNL     1      -2.250   2.802  -0.581  1.00  0.00     0.071 C 
HETATM    4  N1  UNL     1      -0.327   3.166   0.683  1.00  0.00    -0.246 NA
HETATM    5  C8  UNL     1       0.859   2.845   1.261  1.00  0.00     0.235 A 
HETATM    6  N2  UNL     1       1.340   1.601   1.143  1.00  0.00    -0.222 NA
HETATM    7  C9  UNL     1       0.667   0.667   0.462  1.00  0.00     0.155 A 
ENDROOT
BRANCH   1   8
HETATM    8  C4  UNL     1      -1.367   0.007  -0.846  1.00  0.00     0.024 C 
HETATM    9  C3  UNL     1      -2.592  -0.497  -0.779  1.00  0.00    -0.032 C 
BRANCH   9  10
HETATM   10  C2  UNL     1      -3.788  -0.363   0.139  1.00  0.00     0.203 C 
BRANCH  10  11
HETATM   11  O1  UNL     1      -3.442   0.531   1.164  1.00  0.00    -0.392 OA
HETATM   12  C1  UNL     1      -4.485   0.727   2.045  1.00  0.00     0.201 C 
ENDBRANCH  10  11
ENDBRANCH   9  10
BRANCH   9  13
HETATM   13  C15 UNL     1      -3.088  -1.418  -1.827  1.00  0.00     0.203 C 
BRANCH  13  14
HETATM   14  O2  UNL     1      -3.445  -2.662  -1.367  1.00  0.00    -0.392 OA
HETATM   15  C16 UNL     1      -2.447  -3.402  -0.782  1.00  0.00     0.201 C 
ENDBRANCH  13  14
ENDBRANCH   9  13
ENDBRANCH   1   8
BRANCH   7  16
HETATM   16  N3  UNL     1       1.298  -0.591   0.410  1.00  0.00    -0.282 N 
HETATM   17  H11 UNL     1       0.970  -1.413   0.932  1.00  0.00     0.189 HD
BRANCH  16  18
HETATM   18  N4  UNL     1       2.433  -0.903  -0.336  1.00  0.00    -0.306 N 
HETATM   19  C10 UNL     1       2.757  -2.090  -1.070  1.00  0.00     0.177 C 
BRANCH  18  20
HETATM   20  C11 UNL     1       3.330   0.186  -0.283  1.00  0.00     0.111 C 
HETATM   21  C12 UNL     1       4.497   0.390   0.335  1.00  0.00    -0.071 C 
HETATM   22  C13 UNL     1       5.279   1.675   0.228  1.00  0.00     0.044 C 
HETATM   23  C14 UNL     1       4.935  -0.785   1.144  1.00  0.00     0.044 C 
ENDBRANCH  18  20
ENDBRANCH  16  18
ENDBRANCH   7  16
TORSDOF 8
