REMARK  4 active torsions:
REMARK  status: ('A' for Active; 'I' for Inactive)
REMARK    1  A    between atoms: O1_2  and  C2_3 
REMARK    2  A    between atoms: C6_9  and  N3_10 
REMARK    3  A    between atoms: N3_10  and  C8_12 
REMARK    4  A    between atoms: C16_21  and  O3_22 
ROOT
HETATM    1  C2  UNL     1      -3.183   0.345   0.401  1.00  0.00     0.103 A 
HETATM    2  C3  UNL     1      -3.105   0.205  -0.982  1.00  0.00     0.072 A 
HETATM    3  C4  UNL     1      -1.982  -0.339  -1.571  1.00  0.00     0.075 A 
HETATM    4  N1  UNL     1      -1.810  -0.515  -2.887  1.00  0.00    -0.241 NA
HETATM    5  C5  UNL     1      -0.690  -1.051  -3.394  1.00  0.00     0.236 A 
HETATM    6  N2  UNL     1       0.305  -1.428  -2.538  1.00  0.00    -0.224 NA
HETATM    7  C6  UNL     1       0.190  -1.276  -1.198  1.00  0.00     0.141 A 
HETATM    8  C14 UNL     1      -0.975  -0.722  -0.711  1.00  0.00     0.041 A 
HETATM    9  C15 UNL     1      -1.011  -0.602   0.662  1.00  0.00     0.057 A 
HETATM   10  C16 UNL     1      -2.149  -0.053   1.231  1.00  0.00     0.102 A 
ENDROOT
BRANCH   7  11
HETATM   11  N3  UNL     1       1.332  -1.732  -0.491  1.00  0.00    -0.339 N 
HETATM   12  C7  UNL     1       1.302  -2.793   0.497  1.00  0.00     0.154 C 
BRANCH  11  13
HETATM   13  C8  UNL     1       2.581  -1.074  -0.805  1.00  0.00     0.253 A 
HETATM   14  C9  UNL     1       3.081  -0.451   0.444  1.00  0.00     0.027 A 
HETATM   15  C10 UNL     1       3.410   0.801   0.683  1.00  0.00     0.009 A 
HETATM   16  C11 UNL     1       3.266   1.720  -0.441  1.00  0.00    -0.040 A 
HETATM   17  C12 UNL     1       3.585   3.158  -0.366  1.00  0.00     0.050 C 
HETATM   18  C13 UNL     1       2.823   1.186  -1.563  1.00  0.00     0.144 A 
HETATM   19  O2  UNL     1       2.475  -0.132  -1.819  1.00  0.00    -0.334 OA
ENDBRANCH  11  13
ENDBRANCH   7  11
BRANCH  10  20
HETATM   20  O3  UNL     1      -2.236   0.090   2.614  1.00  0.00    -0.353 OA
HETATM   21  C17 UNL     1      -1.125  -0.345   3.384  1.00  0.00     0.210 C 
ENDBRANCH  10  20
BRANCH   1  22
HETATM   22  O1  UNL     1      -4.283   0.881   1.026  1.00  0.00    -0.353 OA
HETATM   23  C1  UNL     1      -5.452   1.357   0.451  1.00  0.00     0.210 C 
ENDBRANCH   1  22
TORSDOF 4
