REMARK  2 active torsions:
REMARK  status: ('A' for Active; 'I' for Inactive)
REMARK    1  A    between atoms: C2_2  and  N1_3 
REMARK    2  A    between atoms: C16_20  and  O2_21 
ROOT
HETATM    1  N1  UNL     1       2.503  -0.261  -0.147  1.00  0.00    -0.362 N 
HETATM    2  C3  UNL     1       2.330  -1.602  -0.773  1.00  0.00     0.151 C 
HETATM    3  C4  UNL     1       1.683  -1.531  -2.082  1.00  0.00    -0.011 C 
HETATM    4  C5  UNL     1       0.346  -1.816  -2.169  1.00  0.00    -0.023 C 
HETATM    5  C6  UNL     1      -0.790  -2.213  -1.285  1.00  0.00     0.047 C 
HETATM    6  C7  UNL     1      -0.677  -2.479   0.068  1.00  0.00     0.005 C 
HETATM    7  C8  UNL     1      -2.009  -2.797   0.698  1.00  0.00     0.176 C 
HETATM    8  O1  UNL     1      -2.027  -1.656   1.702  1.00  0.00    -0.348 OA
HETATM    9  C9  UNL     1      -1.810  -0.418   1.047  1.00  0.00     0.103 A 
HETATM   10  C10 UNL     1      -0.526  -0.154   0.627  1.00  0.00     0.057 A 
HETATM   11  C11 UNL     1       0.263   0.761  -0.014  1.00  0.00     0.041 A 
HETATM   12  C12 UNL     1       1.600   0.849  -0.422  1.00  0.00     0.140 A 
HETATM   13  N2  UNL     1       1.963   1.932  -1.090  1.00  0.00    -0.224 NA
HETATM   14  C13 UNL     1       1.085   2.936  -1.384  1.00  0.00     0.236 A 
HETATM   15  N3  UNL     1      -0.207   2.895  -1.018  1.00  0.00    -0.241 NA
HETATM   16  C14 UNL     1      -0.604   1.785  -0.328  1.00  0.00     0.075 A 
HETATM   17  C15 UNL     1      -1.965   1.747   0.002  1.00  0.00     0.072 A 
HETATM   18  C16 UNL     1      -2.537   0.684   0.661  1.00  0.00     0.103 A 
ENDROOT
BRANCH   1  19
HETATM   19  C2  UNL     1       3.420   0.172   0.873  1.00  0.00     0.120 C 
HETATM   20  C1  UNL     1       3.334   1.608   1.264  1.00  0.00     0.026 C 
ENDBRANCH   1  19
BRANCH  18  21
HETATM   21  O2  UNL     1      -3.859   0.487   1.058  1.00  0.00    -0.353 OA
HETATM   22  C17 UNL     1      -4.920   1.362   0.858  1.00  0.00     0.210 C 
ENDBRANCH  18  21
TORSDOF 2
