REMARK  3 active torsions:
REMARK  status: ('A' for Active; 'I' for Inactive)
REMARK    1  A    between atoms: C2_2  and  C3_3 
REMARK    2  A    between atoms: C3_3  and  C4_4 
REMARK    3  A    between atoms: C13_17  and  O2_18 
ROOT
HETATM    1  C4  UNL     1      -0.489  -1.046   0.702  1.00  0.00    -0.008 C 
HETATM    2  C5  UNL     1       0.620  -0.919  -0.113  1.00  0.00     0.053 C 
HETATM    3  O1  UNL     1       1.748  -0.211  -0.802  1.00  0.00     0.000 OA
HETATM    4  C6  UNL     1       1.040   0.751  -1.694  1.00  0.00     0.045 A 
HETATM    5  C7  UNL     1       0.630   1.353  -2.949  1.00  0.00     0.041 A 
HETATM    6  C8  UNL     1      -0.059   1.936  -1.854  1.00  0.00     0.087 A 
HETATM    7  N1  UNL     1      -1.081   2.810  -2.063  1.00  0.00    -0.247 NA
HETATM    8  C9  UNL     1      -1.924   3.050  -1.022  1.00  0.00     0.217 A 
HETATM    9 CL1  UNL     1      -3.120   4.184  -1.496  1.00  0.00    -0.042 Cl
HETATM   10  N2  UNL     1      -1.349   2.257  -0.218  1.00  0.00    -0.227 NA
HETATM   11  C10 UNL     1      -0.361   1.443  -0.072  1.00  0.00     0.149 A 
HETATM   12  C11 UNL     1       0.624   1.140  -1.133  1.00  0.00     0.059 A 
HETATM   13  C12 UNL     1       1.146   0.483  -0.086  1.00  0.00     0.091 A 
HETATM   14  C13 UNL     1       1.852  -0.175  -1.309  1.00  0.00     0.113 A 
HETATM   15  N3  UNL     1      -0.384   0.461   1.088  1.00  0.00    -0.362 N 
HETATM   16  C15 UNL     1      -0.232   1.315   2.282  1.00  0.00     0.152 C 
ENDROOT
BRANCH   1  17
HETATM   17  C3  UNL     1      -1.600  -1.849   1.365  1.00  0.00     0.057 C 
BRANCH  17  18
HETATM   18  C2  UNL     1      -1.967  -1.185   2.587  1.00  0.00    -0.005 C 
HETATM   19  C1  UNL     1      -3.206  -1.405   3.033  1.00  0.00     0.006 C 
ENDBRANCH  17  18
ENDBRANCH   1  17
BRANCH  14  20
HETATM   20  O2  UNL     1       2.598  -0.896  -2.247  1.00  0.00    -0.380 OA
HETATM   21  C14 UNL     1       3.608  -1.817  -2.115  1.00  0.00     0.202 C 
ENDBRANCH  14  20
TORSDOF 3
