REMARK  3 active torsions:
REMARK  status: ('A' for Active; 'I' for Inactive)
REMARK    1  A    between atoms: O1_2  and  C2_3 
REMARK    2  A    between atoms: C6_9  and  N3_10 
REMARK    3  A    between atoms: N3_10  and  C8_12 
ROOT
HETATM    1  C2  UNL     1      -4.201   0.260  -0.159  1.00  0.00     0.051 C 
HETATM    2  C3  UNL     1      -3.485   0.049  -1.227  1.00  0.00     0.065 C 
HETATM    3  C4  UNL     1      -2.150  -0.527  -1.302  1.00  0.00     0.074 A 
HETATM    4  N1  UNL     1      -1.795  -1.042  -2.495  1.00  0.00    -0.241 NA
HETATM    5  C5  UNL     1      -0.564  -1.601  -2.646  1.00  0.00     0.236 A 
HETATM    6  N2  UNL     1       0.350  -1.674  -1.647  1.00  0.00    -0.223 NA
HETATM    7  C6  UNL     1       0.017  -1.165  -0.446  1.00  0.00     0.143 A 
HETATM    8  C15 UNL     1      -1.231  -0.595  -0.280  1.00  0.00     0.039 A 
HETATM    9  C16 UNL     1      -1.343  -0.116   1.108  1.00  0.00     0.014 C 
HETATM   10  C17 UNL     1      -2.532   0.111   1.686  1.00  0.00    -0.019 C 
HETATM   11  C18 UNL     1      -3.909  -0.003   1.255  1.00  0.00     0.091 C 
ENDROOT
BRANCH   7  12
HETATM   12  N3  UNL     1       1.021  -1.284   0.556  1.00  0.00    -0.335 N 
HETATM   13  C7  UNL     1       0.923  -2.023   1.800  1.00  0.00     0.158 C 
BRANCH  12  14
HETATM   14  C8  UNL     1       2.257  -0.611   0.328  1.00  0.00     0.035 A 
HETATM   15  C9  UNL     1       2.504   0.142  -0.816  1.00  0.00     0.030 A 
HETATM   16  C10 UNL     1       3.694   0.799  -1.055  1.00  0.00     0.009 A 
HETATM   17  C11 UNL     1       4.702   0.718  -0.124  1.00  0.00    -0.062 A 
HETATM   18  C12 UNL     1       5.970   1.438  -0.412  1.00  0.00     0.048 C 
HETATM   19  C13 UNL     1       4.518  -0.012   1.028  1.00  0.00     0.009 A 
HETATM   20  C14 UNL     1       3.321  -0.638   1.206  1.00  0.00     0.030 A 
ENDBRANCH  12  14
ENDBRANCH   7  12
BRANCH   1  21
HETATM   21  O1  UNL     1      -5.460   0.836  -0.432  1.00  0.00    -0.360 OA
HETATM   22  C1  UNL     1      -5.610   2.198  -0.706  1.00  0.00     0.209 C 
ENDBRANCH   1  21
TORSDOF 3
