REMARK  4 active torsions:
REMARK  status: ('A' for Active; 'I' for Inactive)
REMARK    1  A    between atoms: O1_2  and  C2_3 
REMARK    2  A    between atoms: C5_8  and  N3_9 
REMARK    3  A    between atoms: N3_9  and  C7_11 
REMARK    4  A    between atoms: C15_19  and  O2_20 
ROOT
HETATM    1  C2  UNL     1      -3.042   0.278  -0.217  1.00  0.00     0.106 A 
HETATM    2  C3  UNL     1      -2.650  -0.635  -1.120  1.00  0.00     0.078 A 
HETATM    3  N1  UNL     1      -2.897  -1.472  -2.245  1.00  0.00    -0.348 N 
HETATM    4  C4  UNL     1      -1.826  -2.292  -2.704  1.00  0.00     0.210 A 
HETATM    5  N2  UNL     1      -0.690  -2.242  -2.088  1.00  0.00    -0.226 NA
HETATM    6  C5  UNL     1      -0.427  -1.410  -0.963  1.00  0.00     0.142 A 
HETATM    7  C14 UNL     1      -1.348  -0.612  -0.456  1.00  0.00     0.052 A 
HETATM    8  C15 UNL     1      -1.754   0.376   0.531  1.00  0.00     0.219 A 
HETATM    9  H4  UNL     1      -3.829  -1.486  -2.716  1.00  0.00     0.167 HD
ENDROOT
BRANCH   6  10
HETATM   10  N3  UNL     1       0.883  -1.546  -0.485  1.00  0.00    -0.336 N 
HETATM   11  C6  UNL     1       1.340  -2.876  -0.083  1.00  0.00     0.158 C 
BRANCH  10  12
HETATM   12  C7  UNL     1       1.816  -0.496  -0.356  1.00  0.00     0.035 A 
HETATM   13  C8  UNL     1       3.073  -0.766   0.128  1.00  0.00     0.030 A 
HETATM   14  C9  UNL     1       4.038   0.239   0.277  1.00  0.00     0.009 A 
HETATM   15  C10 UNL     1       3.732   1.539  -0.068  1.00  0.00    -0.062 A 
HETATM   16  C11 UNL     1       4.738   2.647   0.076  1.00  0.00     0.048 C 
HETATM   17  C12 UNL     1       2.463   1.853  -0.564  1.00  0.00     0.009 A 
HETATM   18  C13 UNL     1       1.566   0.817  -0.683  1.00  0.00     0.030 A 
ENDBRANCH  10  12
ENDBRANCH   6  10
BRANCH   8  19
HETATM   19  O2  UNL     1      -1.816  -0.010   1.852  1.00  0.00    -0.379 OA
HETATM   20  C16 UNL     1      -1.316   1.089   2.588  1.00  0.00     0.202 C 
ENDBRANCH   8  19
BRANCH   1  21
HETATM   21  O1  UNL     1      -4.289   0.887  -0.097  1.00  0.00    -0.355 OA
HETATM   22  C1  UNL     1      -5.194   0.609   0.941  1.00  0.00     0.209 C 
ENDBRANCH   1  21
TORSDOF 4
