REMARK  5 active torsions:
REMARK  status: ('A' for Active; 'I' for Inactive)
REMARK    1  A    between atoms: C5_5  and  C6_6 
REMARK    2  A    between atoms: C7_7  and  N1_8 
REMARK    3  A    between atoms: N1_8  and  C9_10 
REMARK    4  A    between atoms: C13_16  and  O1_17 
REMARK    5  A    between atoms: C15_19  and  O2_20 
ROOT
HETATM    1  C1  UNL     1       5.809  -0.675  -2.530  1.00  0.00     0.017 C 
HETATM    2  C2  UNL     1       5.350  -0.223  -1.522  1.00  0.00    -0.083 C 
HETATM    3  C3  UNL     1       4.804   0.327  -0.308  1.00  0.00    -0.009 C 
HETATM    4  C4  UNL     1       5.690   0.647   0.835  1.00  0.00     0.058 C 
HETATM    5  C5  UNL     1       3.497   0.565  -0.175  1.00  0.00     0.017 C 
ENDROOT
BRANCH   5   6
HETATM    6  C6  UNL     1       2.874   1.122   1.030  1.00  0.00     0.018 C 
HETATM    7  C7  UNL     1       1.567   1.337   1.105  1.00  0.00     0.092 C 
BRANCH   7   8
HETATM    8  N1  UNL     1       0.779   1.005  -0.036  1.00  0.00    -0.345 N 
HETATM    9  C8  UNL     1       0.706   2.003  -1.087  1.00  0.00     0.157 C 
BRANCH   8  10
HETATM   10  C9  UNL     1       0.250  -0.300   0.191  1.00  0.00     0.143 A 
HETATM   11  N2  UNL     1       1.095  -1.355   0.361  1.00  0.00    -0.223 NA
HETATM   12  C10 UNL     1       0.700  -2.603   0.576  1.00  0.00     0.236 A 
HETATM   13  N3  UNL     1      -0.607  -2.871   0.634  1.00  0.00    -0.241 NA
HETATM   14  C11 UNL     1      -1.524  -1.905   0.480  1.00  0.00     0.075 A 
HETATM   15  C12 UNL     1      -2.886  -2.129   0.532  1.00  0.00     0.072 A 
HETATM   16  C18 UNL     1      -1.088  -0.616   0.258  1.00  0.00     0.042 A 
HETATM   17  C13 UNL     1      -3.808  -1.115   0.370  1.00  0.00     0.103 A 
HETATM   18  C15 UNL     1      -3.369   0.185   0.146  1.00  0.00     0.102 A 
HETATM   19  C17 UNL     1      -1.994   0.387   0.098  1.00  0.00     0.057 A 
BRANCH  17  20
HETATM   20  O1  UNL     1      -5.181  -1.312   0.418  1.00  0.00    -0.353 OA
HETATM   21  C14 UNL     1      -5.824  -2.530   0.630  1.00  0.00     0.210 C 
ENDBRANCH  17  20
BRANCH  18  22
HETATM   22  O2  UNL     1      -4.306   1.213  -0.018  1.00  0.00    -0.353 OA
HETATM   23  C16 UNL     1      -3.786   2.523  -0.244  1.00  0.00     0.210 C 
ENDBRANCH  18  22
ENDBRANCH   8  10
ENDBRANCH   7   8
ENDBRANCH   5   6
TORSDOF 5
