REMARK  4 active torsions:
REMARK  status: ('A' for Active; 'I' for Inactive)
REMARK    1  A    between atoms: O1_2  and  C2_3 
REMARK    2  A    between atoms: C10_12  and  N2_13 
REMARK    3  A    between atoms: N2_13  and  C11_14 
REMARK    4  A    between atoms: C15_18  and  C16_19 
ROOT
HETATM    1  C2  UNL     1       5.688   0.752  -1.240  1.00  0.00     0.069 A 
HETATM    2  C3  UNL     1       6.218  -0.530  -1.207  1.00  0.00     0.039 A 
HETATM    3  C4  UNL     1       5.553  -1.489  -0.471  1.00  0.00     0.040 A 
HETATM    4  C5  UNL     1       4.393  -1.179   0.213  1.00  0.00     0.086 A 
HETATM    5  C6  UNL     1       3.841   0.083   0.201  1.00  0.00    -0.004 A 
HETATM    6  C7  UNL     1       4.530   1.016  -0.544  1.00  0.00     0.048 A 
HETATM    7  C8  UNL     1       2.648   0.730   0.805  1.00  0.00     0.161 C 
HETATM    8  N1  UNL     1       1.534  -0.182   0.934  1.00  0.00    -0.380 N 
HETATM    9  C9  UNL     1       1.455  -1.561   1.228  1.00  0.00     0.109 A 
HETATM   10  C10 UNL     1       0.246  -1.957   1.549  1.00  0.00     0.067 A 
HETATM   11  C23 UNL     1      -0.091  -3.355   1.899  1.00  0.00     0.263 A 
HETATM   12  O2  UNL     1       1.041  -4.193   1.844  1.00  0.00    -0.248 OA
HETATM   13  N3  UNL     1       2.293  -3.767   1.508  1.00  0.00    -0.105 NA
HETATM   14  C24 UNL     1       2.548  -2.527   1.207  1.00  0.00     0.225 A 
HETATM   15  O3  UNL     1       3.877  -2.276   0.892  1.00  0.00    -0.288 OA
HETATM   16  H9  UNL     1       0.586   0.263   0.780  1.00  0.00     0.160 HD
ENDROOT
BRANCH  10  17
HETATM   17  N2  UNL     1      -0.851  -1.054   1.585  1.00  0.00    -0.356 N 
HETATM   18  H10 UNL     1      -0.868  -0.456   2.439  1.00  0.00     0.166 HD
BRANCH  17  19
HETATM   19  C11 UNL     1      -1.844  -0.953   0.574  1.00  0.00     0.033 A 
HETATM   20  C12 UNL     1      -1.781  -1.763  -0.539  1.00  0.00     0.029 A 
HETATM   21  C13 UNL     1      -2.758  -1.666  -1.536  1.00  0.00     0.003 A 
HETATM   22  C14 UNL     1      -3.778  -0.730  -1.354  1.00  0.00     0.012 A 
HETATM   23  C15 UNL     1      -3.817   0.061  -0.240  1.00  0.00    -0.024 A 
HETATM   24  C22 UNL     1      -2.853  -0.036   0.741  1.00  0.00     0.041 A 
BRANCH  23  25
HETATM   25  C16 UNL     1      -4.938   1.000  -0.172  1.00  0.00    -0.026 A 
HETATM   26  C17 UNL     1      -5.501   1.570  -1.297  1.00  0.00     0.012 A 
HETATM   27  C18 UNL     1      -6.566   2.458  -1.217  1.00  0.00     0.001 A 
HETATM   28  C19 UNL     1      -7.063   2.768   0.036  1.00  0.00     0.000 A 
HETATM   29  C20 UNL     1      -6.525   2.217   1.195  1.00  0.00     0.001 A 
HETATM   30  C21 UNL     1      -5.463   1.335   1.071  1.00  0.00     0.012 A 
ENDBRANCH  23  25
ENDBRANCH  17  19
ENDBRANCH  10  17
BRANCH   1  31
HETATM   31  O1  UNL     1       6.405   1.661  -1.997  1.00  0.00    -0.356 OA
HETATM   32  C1  UNL     1       6.035   3.017  -2.159  1.00  0.00     0.210 C 
ENDBRANCH   1  31
TORSDOF 4
