REMARK  4 active torsions:
REMARK  status: ('A' for Active; 'I' for Inactive)
REMARK    1  A    between atoms: O1_2  and  C2_3 
REMARK    2  A    between atoms: C2_3  and  C3_4 
REMARK    3  A    between atoms: C3_4  and  O2_24 
REMARK    4  A    between atoms: C4_5  and  C5_6 
ROOT
HETATM    1  C5  UNL     1      -1.843   0.056   0.098  1.00  0.00    -0.019 C 
HETATM    2  C6  UNL     1      -1.725   0.454  -1.156  1.00  0.00     0.103 C 
HETATM    3  N1  UNL     1      -0.730  -0.099  -1.761  1.00  0.00    -0.192 NA
HETATM    4  S1  UNL     1       0.683  -0.336  -0.728  1.00  0.00     0.094 SA
HETATM    5  N2  UNL     1       2.169  -0.493  -1.634  1.00  0.00    -0.304 N 
HETATM    6  C7  UNL     1       2.186  -0.935  -2.995  1.00  0.00     0.167 C 
HETATM    7  C8  UNL     1       3.400  -0.172  -0.996  1.00  0.00     0.070 A 
HETATM    8  C9  UNL     1       4.583  -0.236  -1.697  1.00  0.00     0.033 A 
HETATM    9  C10 UNL     1       5.813   0.061  -1.145  1.00  0.00     0.009 A 
HETATM   10  C11 UNL     1       5.844   0.439   0.177  1.00  0.00    -0.060 A 
HETATM   11  C12 UNL     1       7.159   0.768   0.810  1.00  0.00     0.048 C 
HETATM   12  C13 UNL     1       4.675   0.508   0.887  1.00  0.00     0.040 A 
HETATM   13  C14 UNL     1       3.441   0.214   0.348  1.00  0.00     0.086 A 
HETATM   14  N3  UNL     1       2.201   0.273   1.056  1.00  0.00    -0.240 NA
HETATM   15  C15 UNL     1       2.033  -0.473   2.084  1.00  0.00     0.232 C 
HETATM   16  N4  UNL     1       0.731  -0.282   2.667  1.00  0.00    -0.258 NA
HETATM   17  C16 UNL     1      -0.316  -0.540   1.994  1.00  0.00     0.095 C 
HETATM   18  C17 UNL     1      -1.085  -0.980   0.803  1.00  0.00     0.088 C 
ENDROOT
BRANCH   1  19
HETATM   19  C4  UNL     1      -2.905   0.890   0.622  1.00  0.00     0.044 C 
HETATM   20  C3  UNL     1      -4.197   0.528   0.598  1.00  0.00     0.070 C 
BRANCH  20  21
HETATM   21  C2  UNL     1      -5.422   1.241   1.082  1.00  0.00     0.231 C 
BRANCH  21  22
HETATM   22  O1  UNL     1      -6.318   1.467   0.053  1.00  0.00    -0.390 OA
HETATM   23  C1  UNL     1      -5.766   2.242  -0.953  1.00  0.00     0.201 C 
ENDBRANCH  21  22
ENDBRANCH  20  21
BRANCH  20  24
HETATM   24  O2  UNL     1      -4.483  -0.698   0.045  1.00  0.00    -0.358 OA
HETATM   25  C18 UNL     1      -5.622  -1.476   0.285  1.00  0.00     0.209 C 
ENDBRANCH  20  24
ENDBRANCH   1  19
TORSDOF 4
