REMARK  4 active torsions:
REMARK  status: ('A' for Active; 'I' for Inactive)
REMARK    1  A    between atoms: O1_2  and  C2_3 
REMARK    2  A    between atoms: C6_9  and  N3_10 
REMARK    3  A    between atoms: N3_10  and  C8_12 
REMARK    4  A    between atoms: C17_21  and  O2_22 
ROOT
HETATM    1  C2  UNL     1      -3.029  -0.778   0.861  1.00  0.00     0.115 A 
HETATM    2  C3  UNL     1      -3.069   0.501   1.104  1.00  0.00     0.043 A 
HETATM    3  C4  UNL     1      -2.153   1.269   0.640  1.00  0.00     0.061 A 
HETATM    4  N1  UNL     1      -2.248   2.677   0.939  1.00  0.00    -0.349 N 
HETATM    5  C5  UNL     1      -1.223   3.529   0.419  1.00  0.00     0.209 A 
HETATM    6  N2  UNL     1      -0.238   3.084  -0.295  1.00  0.00    -0.225 NA
HETATM    7  C6  UNL     1      -0.103   1.698  -0.616  1.00  0.00     0.143 A 
HETATM    8  C15 UNL     1      -1.014   0.845  -0.170  1.00  0.00     0.041 A 
HETATM    9  C16 UNL     1      -0.986  -0.603  -0.432  1.00  0.00     0.057 A 
HETATM   10  C17 UNL     1      -1.955  -1.361   0.068  1.00  0.00     0.103 A 
HETATM   11  H4  UNL     1      -3.005   3.125   1.505  1.00  0.00     0.166 HD
ENDROOT
BRANCH   7  12
HETATM   12  N3  UNL     1       0.959   1.158  -1.396  1.00  0.00    -0.335 N 
HETATM   13  C7  UNL     1       0.927   1.015  -2.858  1.00  0.00     0.158 C 
BRANCH  12  14
HETATM   14  C8  UNL     1       2.126   0.729  -0.704  1.00  0.00     0.035 A 
HETATM   15  C9  UNL     1       2.248   0.824   0.680  1.00  0.00     0.030 A 
HETATM   16  C10 UNL     1       3.343   0.431   1.406  1.00  0.00     0.009 A 
HETATM   17  C11 UNL     1       4.394  -0.098   0.693  1.00  0.00    -0.062 A 
HETATM   18  C12 UNL     1       5.605  -0.540   1.439  1.00  0.00     0.048 C 
HETATM   19  C13 UNL     1       4.357  -0.226  -0.656  1.00  0.00     0.009 A 
HETATM   20  C14 UNL     1       3.219   0.189  -1.351  1.00  0.00     0.030 A 
ENDBRANCH  12  14
ENDBRANCH   7  12
BRANCH  10  21
HETATM   21  O2  UNL     1      -1.795  -2.699  -0.262  1.00  0.00    -0.353 OA
HETATM   22  C18 UNL     1      -2.846  -3.463  -0.811  1.00  0.00     0.210 C 
ENDBRANCH  10  21
BRANCH   1  23
HETATM   23  O1  UNL     1      -3.989  -1.660   1.335  1.00  0.00    -0.352 OA
HETATM   24  C1  UNL     1      -5.323  -1.221   1.577  1.00  0.00     0.210 C 
ENDBRANCH   1  23
TORSDOF 4
