REMARK  8 active torsions:
REMARK  status: ('A' for Active; 'I' for Inactive)
REMARK    1  A    between atoms: O1_2  and  C2_3 
REMARK    2  A    between atoms: C6_9  and  N3_10 
REMARK    3  A    between atoms: N3_10  and  C7_11 
REMARK    4  A    between atoms: C7_11  and  C8_12 
REMARK    5  A    between atoms: C9_13  and  C10_14 
REMARK    6  A    between atoms: C10_14  and  C11_15 
REMARK    7  A    between atoms: C11_15  and  C12_16 
REMARK    8  A    between atoms: C12_16  and  S1_17 
ROOT
HETATM    1  C2  UNL     1      -4.642  -0.574  -0.327  1.00  0.00     0.052 A 
HETATM    2  C3  UNL     1      -5.258   0.555  -0.165  1.00  0.00     0.065 A 
HETATM    3  C4  UNL     1      -4.319   1.597   0.155  1.00  0.00     0.071 A 
HETATM    4  N1  UNL     1      -4.186   2.888   0.437  1.00  0.00    -0.241 NA
HETATM    5  C5  UNL     1      -2.984   3.402   0.680  1.00  0.00     0.235 A 
HETATM    6  N2  UNL     1      -1.878   2.608   0.642  1.00  0.00    -0.224 NA
HETATM    7  C6  UNL     1      -1.920   1.215   0.351  1.00  0.00     0.133 A 
HETATM    8  C14 UNL     1      -3.101   1.048   0.181  1.00  0.00     0.022 A 
HETATM    9  C15 UNL     1      -3.144  -0.449  -0.136  1.00  0.00     0.109 A 
ENDROOT
BRANCH   7  10
HETATM   10  N3  UNL     1      -0.461   1.421   0.561  1.00  0.00    -0.374 N 
HETATM   11  H6  UNL     1       0.384   1.911   0.717  1.00  0.00     0.161 HD
BRANCH  10  12
HETATM   12  C7  UNL     1      -0.015   0.045   0.482  1.00  0.00     0.127 C 
BRANCH  12  13
HETATM   13  C8  UNL     1       1.437  -0.160   0.603  1.00  0.00     0.018 C 
HETATM   14  C9  UNL     1       1.958  -0.789  -0.469  1.00  0.00     0.022 C 
BRANCH  14  15
HETATM   15  C10 UNL     1       3.401  -0.883  -0.116  1.00  0.00    -0.024 C 
BRANCH  15  16
HETATM   16  C11 UNL     1       4.673  -1.194  -0.247  1.00  0.00    -0.020 C 
BRANCH  16  17
HETATM   17  C12 UNL     1       6.153  -1.416  -0.131  1.00  0.00     0.100 C 
BRANCH  17  18
HETATM   18  S1  UNL     1       7.097  -0.665  -1.446  1.00  0.00    -0.170 SA
HETATM   19  C13 UNL     1       7.080   1.124  -1.469  1.00  0.00     0.090 C 
ENDBRANCH  17  18
ENDBRANCH  16  17
ENDBRANCH  15  16
ENDBRANCH  14  15
ENDBRANCH  12  13
ENDBRANCH  10  12
ENDBRANCH   7  10
BRANCH   1  20
HETATM   20  O1  UNL     1      -5.209  -1.768  -0.638  1.00  0.00    -0.360 OA
HETATM   21  C1  UNL     1      -6.253  -2.372   0.069  1.00  0.00     0.209 C 
ENDBRANCH   1  20
TORSDOF 8
