REMARK  6 active torsions:
REMARK  status: ('A' for Active; 'I' for Inactive)
REMARK    1  A    between atoms: O1_2  and  C2_3 
REMARK    2  A    between atoms: C6_8  and  N2_9 
REMARK    3  A    between atoms: C6_8  and  N3_12 
REMARK    4  A    between atoms: N3_12  and  C9_14 
REMARK    5  A    between atoms: C9_14  and  C10_15 
REMARK    6  A    between atoms: C17_22  and  O2_23 
ROOT
HETATM    1  C2  UNL     1      -3.430  -0.097  -1.210  1.00  0.00     0.103 A 
HETATM    2  C3  UNL     1      -2.547  -0.366  -2.176  1.00  0.00     0.071 A 
HETATM    3  C4  UNL     1      -1.134  -0.063  -1.980  1.00  0.00     0.065 A 
HETATM    4  N1  UNL     1      -0.224  -0.292  -2.863  1.00  0.00    -0.299 NA
HETATM    5  C5  UNL     1      -0.665   0.540  -0.719  1.00  0.00     0.040 A 
HETATM    6  C6  UNL     1       0.564   0.865  -0.403  1.00  0.00     0.135 C 
HETATM    7  C16 UNL     1      -1.711   0.794   0.272  1.00  0.00     0.057 A 
HETATM    8  C17 UNL     1      -2.971   0.501   0.043  1.00  0.00     0.102 A 
HETATM    9  H5  UNL     1      -0.491  -0.718  -3.779  1.00  0.00     0.187 HD
ENDROOT
BRANCH   6  10
HETATM   10  N2  UNL     1       0.910   1.446   0.850  1.00  0.00    -0.248 NA
HETATM   11  C7  UNL     1       0.749   0.890   1.990  1.00  0.00     0.379 C 
HETATM   12 CL1  UNL     1       0.280  -0.367   3.117  1.00  0.00    -0.230 Cl
ENDBRANCH   6  10
BRANCH   6  13
HETATM   13  N3  UNL     1       1.691   0.687  -1.246  1.00  0.00    -0.365 N 
HETATM   14  C8  UNL     1       1.847   1.873  -2.073  1.00  0.00     0.151 C 
BRANCH  13  15
HETATM   15  C9  UNL     1       2.590  -0.432  -1.347  1.00  0.00     0.162 C 
BRANCH  15  16
HETATM   16  C10 UNL     1       3.299  -0.717  -0.061  1.00  0.00    -0.040 A 
HETATM   17  C11 UNL     1       4.499  -0.047   0.102  1.00  0.00     0.009 A 
HETATM   18  C12 UNL     1       5.252  -0.228   1.252  1.00  0.00     0.001 A 
HETATM   19  C13 UNL     1       4.789  -1.082   2.228  1.00  0.00     0.000 A 
HETATM   20  C14 UNL     1       3.591  -1.742   2.052  1.00  0.00     0.001 A 
HETATM   21  C15 UNL     1       2.813  -1.578   0.902  1.00  0.00     0.009 A 
ENDBRANCH  15  16
ENDBRANCH  13  15
ENDBRANCH   6  13
BRANCH   8  22
HETATM   22  O2  UNL     1      -4.015   0.717   0.943  1.00  0.00    -0.353 OA
HETATM   23  C18 UNL     1      -3.864   0.197   2.261  1.00  0.00     0.210 C 
ENDBRANCH   8  22
BRANCH   1  24
HETATM   24  O1  UNL     1      -4.732  -0.433  -1.526  1.00  0.00    -0.353 OA
HETATM   25  C1  UNL     1      -5.839  -0.345  -0.677  1.00  0.00     0.210 C 
ENDBRANCH   1  24
TORSDOF 6
