REMARK  3 active torsions:
REMARK  status: ('A' for Active; 'I' for Inactive)
REMARK    1  A    between atoms: O1_2  and  C2_3 
REMARK    2  A    between atoms: C7_8  and  O2_9 
REMARK    3  A    between atoms: N3_13  and  C9_14 
ROOT
HETATM    1  C2  UNL     1      -2.959   0.519  -0.458  1.00  0.00     0.102 A 
HETATM    2  C3  UNL     1      -1.615   0.779  -0.703  1.00  0.00     0.055 A 
HETATM    3  C4  UNL     1      -0.607   0.082  -0.068  1.00  0.00     0.015 A 
HETATM    4  C5  UNL     1      -0.939  -0.914   0.848  1.00  0.00     0.093 A 
HETATM    5  C6  UNL     1      -2.269  -1.179   1.098  1.00  0.00     0.074 A 
HETATM    6  C7  UNL     1      -3.262  -0.470   0.452  1.00  0.00     0.103 A 
HETATM    7  N1  UNL     1      -0.016  -1.581   1.455  1.00  0.00    -0.158 NA
HETATM    8  N2  UNL     1       1.339  -1.331   1.219  1.00  0.00    -0.213 N 
HETATM    9  N3  UNL     1       1.747  -0.349   0.315  1.00  0.00    -0.251 N 
HETATM   10  C15 UNL     1       0.676   0.333  -0.305  1.00  0.00     0.132 A 
HETATM   11  H9  UNL     1       2.019  -1.910   1.747  1.00  0.00     0.211 HD
ENDROOT
BRANCH   9  12
HETATM   12  C9  UNL     1       3.105  -0.069   0.052  1.00  0.00     0.057 A 
HETATM   13  C10 UNL     1       4.128  -0.738   0.660  1.00  0.00     0.031 A 
HETATM   14  C11 UNL     1       5.482  -0.487   0.422  1.00  0.00     0.002 A 
HETATM   15  C12 UNL     1       5.830   0.495  -0.481  1.00  0.00     0.000 A 
HETATM   16  C13 UNL     1       4.826   1.183  -1.106  1.00  0.00     0.002 A 
HETATM   17  C14 UNL     1       3.499   0.894  -0.834  1.00  0.00     0.031 A 
ENDBRANCH   9  12
BRANCH   1  18
HETATM   18  O1  UNL     1      -3.979   1.217  -1.093  1.00  0.00    -0.353 OA
HETATM   19  C1  UNL     1      -3.651   2.228  -2.023  1.00  0.00     0.210 C 
ENDBRANCH   1  18
BRANCH   6  20
HETATM   20  O2  UNL     1      -4.614  -0.753   0.720  1.00  0.00    -0.353 OA
HETATM   21  C8  UNL     1      -4.944  -1.767   1.652  1.00  0.00     0.210 C 
ENDBRANCH   6  20
TORSDOF 3
