REMARK  5 active torsions:
REMARK  status: ('A' for Active; 'I' for Inactive)
REMARK    1  A    between atoms: B1_1  and  C1_2 
REMARK    2  A    between atoms: C3_4  and  O1_5 
REMARK    3  A    between atoms: C5_7  and  O2_8 
REMARK    4  A    between atoms: C10_16  and  N3_17 
REMARK    5  A    between atoms: N3_17  and  C12_19 
ROOT
HETATM    1  C1  UNL     1       0.564   0.954   0.838  1.00  0.00     0.025 A 
HETATM    2  C2  UNL     1       1.089   0.672  -0.495  1.00  0.00     0.021 C 
HETATM    3  C3  UNL     1       2.218  -0.059  -0.559  1.00  0.00     0.098 C 
HETATM    4  C5  UNL     1       2.990  -0.711   0.523  1.00  0.00     0.103 C 
HETATM    5  C7  UNL     1       2.495  -0.624   1.782  1.00  0.00     0.067 C 
HETATM    6  C8  UNL     1       1.201   0.094   1.832  1.00  0.00     0.046 A 
HETATM    7  N1  UNL     1       0.563  -0.298   2.909  1.00  0.00    -0.223 NA
HETATM    8  C9  UNL     1      -0.785   0.073   3.134  1.00  0.00     0.220 A 
HETATM    9 CL1  UNL     1      -1.707  -0.379   4.560  1.00  0.00    -0.041 Cl
HETATM   10  N2  UNL     1      -1.426   0.775   2.294  1.00  0.00    -0.234 NA
HETATM   11  C10 UNL     1      -0.838   1.226   1.066  1.00  0.00     0.218 A 
ENDROOT
BRANCH  11  12
HETATM   12  N3  UNL     1      -1.754   1.041  -0.047  1.00  0.00    -0.361 N 
HETATM   13  C11 UNL     1      -1.532   2.001  -1.144  1.00  0.00     0.152 C 
BRANCH  12  14
HETATM   14  C12 UNL     1      -2.809   0.125  -0.299  1.00  0.00     0.031 A 
HETATM   15  C13 UNL     1      -3.214  -0.884   0.533  1.00  0.00     0.029 A 
HETATM   16  C14 UNL     1      -4.235  -1.777   0.310  1.00  0.00     0.002 A 
HETATM   17  C15 UNL     1      -4.935  -1.666  -0.862  1.00  0.00     0.000 A 
HETATM   18  C16 UNL     1      -4.579  -0.674  -1.742  1.00  0.00     0.002 A 
HETATM   19  C17 UNL     1      -3.546   0.190  -1.460  1.00  0.00     0.029 A 
ENDBRANCH  12  14
ENDBRANCH  11  12
BRANCH   1  20
HETATM   20  B1  UNL     1       1.355   2.418   1.258  1.00  0.00     0.162 B 
HETATM   21  H1  UNL     1       1.032   2.749   2.342  1.00  0.00    -0.030 HD
HETATM   22  H2  UNL     1       1.199   3.244   0.405  1.00  0.00    -0.030 HD
ENDBRANCH   1  20
BRANCH   3  23
HETATM   23  O1  UNL     1       2.834  -0.358  -1.795  1.00  0.00    -0.353 OA
HETATM   24  C4  UNL     1       2.627  -1.621  -2.422  1.00  0.00     0.210 C 
ENDBRANCH   3  23
BRANCH   4  25
HETATM   25  O2  UNL     1       4.179  -1.398   0.321  1.00  0.00    -0.353 OA
HETATM   26  C6  UNL     1       5.373  -0.796   0.799  1.00  0.00     0.210 C 
ENDBRANCH   4  25
TORSDOF 5
