REMARK  7 active torsions:
REMARK  status: ('A' for Active; 'I' for Inactive)
REMARK    1  A    between atoms: C2_2  and  C3_3 
REMARK    2  A    between atoms: C3_3  and  C4_4 
REMARK    3  A    between atoms: C4_4  and  C5_5 
REMARK    4  A    between atoms: C4_4  and  N1_7 
REMARK    5  A    between atoms: N1_7  and  C8_9 
REMARK    6  A    between atoms: C12_16  and  O1_17 
REMARK    7  A    between atoms: C14_19  and  O2_20 
ROOT
HETATM    1  C8  UNL     1       0.504   1.392  -0.421  1.00  0.00     0.145 A 
HETATM    2  N2  UNL     1       1.210   2.423   0.103  1.00  0.00    -0.200 NA
HETATM    3  C9  UNL     1       0.806   3.044   1.239  1.00  0.00     0.225 A 
HETATM    4 CL1  UNL     1       1.474   4.374   2.155  1.00  0.00    -0.041 Cl
HETATM    5  N3  UNL     1      -0.324   2.582   1.809  1.00  0.00    -0.218 NA
HETATM    6  C10 UNL     1      -1.039   1.569   1.314  1.00  0.00     0.077 A 
HETATM    7  C11 UNL     1      -2.194   1.088   1.925  1.00  0.00     0.072 A 
HETATM    8  C12 UNL     1      -2.858   0.015   1.337  1.00  0.00     0.103 A 
HETATM    9  C14 UNL     1      -2.469  -0.621   0.195  1.00  0.00     0.102 A 
HETATM   10  C16 UNL     1      -1.304  -0.149  -0.430  1.00  0.00     0.057 A 
HETATM   11  C17 UNL     1      -0.653   0.915   0.158  1.00  0.00     0.042 A 
ENDROOT
BRANCH   1  12
HETATM   12  N1  UNL     1       1.040   0.860  -1.626  1.00  0.00    -0.339 N 
HETATM   13  C7  UNL     1       0.835   1.119  -3.055  1.00  0.00     0.158 C 
BRANCH  12  14
HETATM   14  C4  UNL     1       1.947  -0.223  -1.219  1.00  0.00     0.014 C 
BRANCH  14  15
HETATM   15  C3  UNL     1       3.076   0.088  -0.642  1.00  0.00     0.004 C 
BRANCH  15  16
HETATM   16  C2  UNL     1       4.390  -0.030   0.022  1.00  0.00     0.035 C 
HETATM   17  C1  UNL     1       5.540   0.094   0.607  1.00  0.00    -0.008 C 
ENDBRANCH  15  16
ENDBRANCH  14  15
BRANCH  14  18
HETATM   18  C5  UNL     1       2.181  -1.696  -1.145  1.00  0.00     0.063 C 
HETATM   19  C6  UNL     1       1.394  -2.699  -1.569  1.00  0.00    -0.006 C 
ENDBRANCH  14  18
ENDBRANCH  12  14
ENDBRANCH   1  12
BRANCH   9  20
HETATM   20  O2  UNL     1      -3.226  -1.677  -0.286  1.00  0.00    -0.353 OA
HETATM   21  C15 UNL     1      -2.804  -2.323  -1.483  1.00  0.00     0.210 C 
ENDBRANCH   9  20
BRANCH   8  22
HETATM   22  O1  UNL     1      -3.983  -0.340   2.075  1.00  0.00    -0.353 OA
HETATM   23  C13 UNL     1      -4.405   0.281   3.253  1.00  0.00     0.210 C 
ENDBRANCH   8  22
TORSDOF 7
