REMARK  3 active torsions:
REMARK  status: ('A' for Active; 'I' for Inactive)
REMARK    1  A    between atoms: C2_2  and  C3_3 
REMARK    2  A    between atoms: C15_16  and  N2_17 
REMARK    3  A    between atoms: C18_21  and  O1_22 
ROOT
HETATM    1  C3  UNL     1       3.092  -0.327   0.382  1.00  0.00    -0.023 A 
HETATM    2  C4  UNL     1       2.051   0.220   0.966  1.00  0.00     0.018 A 
HETATM    3  C5  UNL     1       0.756   0.601   0.387  1.00  0.00    -0.044 A 
HETATM    4  C6  UNL     1      -0.140   1.287   1.070  1.00  0.00    -0.018 C 
HETATM    5  C7  UNL     1      -1.337   2.006   1.476  1.00  0.00     0.032 C 
HETATM    6  C8  UNL     1      -2.471   2.076   0.481  1.00  0.00     0.045 C 
HETATM    7  C9  UNL     1      -3.135   0.797   0.192  1.00  0.00    -0.029 A 
HETATM    8  C10 UNL     1      -4.490   0.788   0.566  1.00  0.00     0.009 A 
HETATM    9  C11 UNL     1      -5.376  -0.252   0.424  1.00  0.00     0.001 A 
HETATM   10  C12 UNL     1      -4.936  -1.429  -0.137  1.00  0.00     0.002 A 
HETATM   11  C13 UNL     1      -3.630  -1.494  -0.524  1.00  0.00     0.032 A 
HETATM   12  C14 UNL     1      -2.811  -0.415  -0.350  1.00  0.00     0.065 A 
HETATM   13  N1  UNL     1      -1.478  -0.130  -0.610  1.00  0.00    -0.234 NA
HETATM   14  C15 UNL     1      -0.538  -0.820  -1.072  1.00  0.00     0.112 C 
HETATM   15  C16 UNL     1       0.564   0.183  -1.041  1.00  0.00     0.135 A 
HETATM   16  C17 UNL     1       1.817  -0.409  -1.562  1.00  0.00     0.061 A 
HETATM   17 CL1  UNL     1       1.613  -0.809  -3.275  1.00  0.00    -0.085 Cl
HETATM   18  C18 UNL     1       2.984  -0.679  -1.020  1.00  0.00     0.090 A 
ENDROOT
BRANCH  14  19
HETATM   19  N2  UNL     1      -0.614  -2.163  -1.473  1.00  0.00    -0.387 N 
HETATM   20  H16 UNL     1      -0.225  -2.953  -0.901  1.00  0.00     0.157 HD
HETATM   21  H17 UNL     1      -1.107  -2.246  -2.408  1.00  0.00     0.157 HD
ENDBRANCH  14  19
BRANCH  18  22
HETATM   22  O1  UNL     1       3.990  -1.252  -1.778  1.00  0.00    -0.359 OA
HETATM   23  H19 UNL     1       4.510  -0.646  -2.428  1.00  0.00     0.217 HD
ENDBRANCH  18  22
BRANCH   1  24
HETATM   24  C2  UNL     1       4.362  -0.664   1.076  1.00  0.00     0.037 C 
HETATM   25  C1  UNL     1       5.480   0.110   0.412  1.00  0.00     0.010 C 
ENDBRANCH   1  24
TORSDOF 3
