REMARK  4 active torsions:
REMARK  status: ('A' for Active; 'I' for Inactive)
REMARK    1  A    between atoms: O1_2  and  C2_3 
REMARK    2  A    between atoms: C6_9  and  N3_10 
REMARK    3  A    between atoms: N3_10  and  C7_11 
REMARK    4  A    between atoms: C14_18  and  O2_19 
ROOT
HETATM    1  C2  UNL     1      -2.452  -0.091  -0.473  1.00  0.00     0.103 A 
HETATM    2  C3  UNL     1      -2.260  -1.434  -0.677  1.00  0.00     0.072 A 
HETATM    3  C4  UNL     1      -1.011  -1.997  -0.508  1.00  0.00     0.075 A 
HETATM    4  N1  UNL     1      -0.781  -3.296  -0.693  1.00  0.00    -0.241 NA
HETATM    5  C5  UNL     1       0.442  -3.820  -0.519  1.00  0.00     0.236 A 
HETATM    6  N2  UNL     1       1.487  -3.073  -0.154  1.00  0.00    -0.224 NA
HETATM    7  C6  UNL     1       1.351  -1.735   0.059  1.00  0.00     0.142 A 
HETATM    8  C12 UNL     1       0.081  -1.249  -0.132  1.00  0.00     0.042 A 
HETATM    9  C13 UNL     1      -0.136   0.091   0.067  1.00  0.00     0.057 A 
HETATM   10  C14 UNL     1      -1.370   0.678  -0.095  1.00  0.00     0.102 A 
ENDROOT
BRANCH   7  11
HETATM   11  N3  UNL     1       2.487  -1.003   0.442  1.00  0.00    -0.340 N 
HETATM   12  H6  UNL     1       3.382  -1.532   0.585  1.00  0.00     0.167 HD
BRANCH  11  13
HETATM   13  C7  UNL     1       2.936   0.276   0.741  1.00  0.00     0.034 C 
HETATM   14  C8  UNL     1       3.428   1.088  -0.212  1.00  0.00     0.030 C 
HETATM   15  C9  UNL     1       3.838   2.393   0.346  1.00  0.00     0.014 C 
HETATM   16  C10 UNL     1       3.340   2.322   1.570  1.00  0.00    -0.024 C 
HETATM   17  C11 UNL     1       3.039   1.104   1.962  1.00  0.00     0.041 C 
ENDBRANCH  11  13
ENDBRANCH   7  11
BRANCH  10  18
HETATM   18  O2  UNL     1      -1.603   2.031   0.102  1.00  0.00    -0.353 OA
HETATM   19  C15 UNL     1      -0.499   2.827   0.489  1.00  0.00     0.210 C 
ENDBRANCH  10  18
BRANCH   1  20
HETATM   20  O1  UNL     1      -3.693   0.480  -0.639  1.00  0.00    -0.353 OA
HETATM   21  C1  UNL     1      -4.826  -0.241  -1.019  1.00  0.00     0.210 C 
ENDBRANCH   1  20
TORSDOF 4
