REMARK  4 active torsions:
REMARK  status: ('A' for Active; 'I' for Inactive)
REMARK    1  A    between atoms: O1_2  and  C2_3 
REMARK    2  A    between atoms: C6_9  and  N3_10 
REMARK    3  A    between atoms: N3_10  and  C7_11 
REMARK    4  A    between atoms: C14_19  and  O2_20 
ROOT
HETATM    1  C2  UNL     1       3.488   0.414  -0.370  1.00  0.00     0.103 A 
HETATM    2  C3  UNL     1       2.880   1.632  -0.154  1.00  0.00     0.072 A 
HETATM    3  C4  UNL     1       1.511   1.704  -0.038  1.00  0.00     0.075 A 
HETATM    4  N1  UNL     1       0.970   2.929   0.174  1.00  0.00    -0.241 NA
HETATM    5  C5  UNL     1      -0.365   3.043   0.293  1.00  0.00     0.236 A 
HETATM    6  N2  UNL     1      -1.142   1.961   0.204  1.00  0.00    -0.224 NA
HETATM    7  C6  UNL     1      -0.701   0.716  -0.002  1.00  0.00     0.142 A 
HETATM    8  C12 UNL     1       0.667   0.617  -0.122  1.00  0.00     0.042 A 
HETATM    9  C13 UNL     1       1.342  -0.564  -0.337  1.00  0.00     0.057 A 
HETATM   10  C14 UNL     1       2.700  -0.714  -0.464  1.00  0.00     0.102 A 
ENDROOT
BRANCH   7  11
HETATM   11  N3  UNL     1      -1.496  -0.444  -0.100  1.00  0.00    -0.335 N 
HETATM   12  H6  UNL     1      -1.082  -1.359  -0.258  1.00  0.00     0.168 HD
BRANCH  11  13
HETATM   13  C7  UNL     1      -2.908  -0.523  -0.001  1.00  0.00     0.063 A 
HETATM   14  S1  UNL     1      -3.724  -1.944  -0.133  1.00  0.00    -0.157 SA
HETATM   15  C8  UNL     1      -5.510  -1.810   0.025  1.00  0.00     0.038 A 
HETATM   16  H7  UNL     1      -3.053  -3.169  -0.357  1.00  0.00     0.102 HD
HETATM   17  C9  UNL     1      -5.985  -0.605   0.228  1.00  0.00     0.006 A 
HETATM   18  C10 UNL     1      -5.104   0.548   0.319  1.00  0.00     0.003 A 
HETATM   19  C11 UNL     1      -3.803   0.599   0.224  1.00  0.00     0.036 A 
ENDBRANCH  11  13
ENDBRANCH   7  11
BRANCH  10  20
HETATM   20  O2  UNL     1       3.299  -1.949  -0.681  1.00  0.00    -0.353 OA
HETATM   21  C15 UNL     1       2.445  -3.098  -0.773  1.00  0.00     0.210 C 
ENDBRANCH  10  20
BRANCH   1  22
HETATM   22  O1  UNL     1       4.863   0.306  -0.492  1.00  0.00    -0.353 OA
HETATM   23  C1  UNL     1       5.642   1.484  -0.390  1.00  0.00     0.210 C 
ENDBRANCH   1  22
TORSDOF 4
