REMARK  9 active torsions:
REMARK  status: ('A' for Active; 'I' for Inactive)
REMARK    1  A    between atoms: O1_2  and  C2_3 
REMARK    2  A    between atoms: N1_7  and  C6_8 
REMARK    3  A    between atoms: C6_8  and  S1_9 
REMARK    4  A    between atoms: S1_9  and  N2_10 
REMARK    5  A    between atoms: N2_10  and  C7_11 
REMARK    6  A    between atoms: C7_11  and  N3_12 
REMARK    7  A    between atoms: N3_12  and  C8_13 
REMARK    8  A    between atoms: C15_20  and  O2_21 
REMARK    9  A    between atoms: O2_21  and  P1_22 
ROOT
HETATM    1  C2  UNL     1      -3.830   0.678  -1.563  1.00  0.00     0.098 A 
HETATM    2  C3  UNL     1      -2.921   1.207  -2.350  1.00  0.00     0.019 A 
HETATM    3  C4  UNL     1      -1.515   1.514  -2.006  1.00  0.00     0.088 A 
HETATM    4  C5  UNL     1      -1.244   1.133  -0.599  1.00  0.00     0.036 A 
HETATM    5  N1  UNL     1      -0.135   1.265   0.004  1.00  0.00    -0.274 NA
HETATM    6  C14 UNL     1      -2.256   0.546   0.270  1.00  0.00     0.067 A 
HETATM    7  C15 UNL     1      -3.498   0.327  -0.193  1.00  0.00     0.108 A 
ENDROOT
BRANCH   5   8
HETATM    8  C6  UNL     1       1.035   1.808  -0.594  1.00  0.00     0.222 C 
BRANCH   8   9
HETATM    9  S1  UNL     1       1.454   0.330  -1.266  1.00  0.00    -0.033 SA
BRANCH   9  10
HETATM   10  N2  UNL     1       2.146  -0.644  -0.140  1.00  0.00    -0.158 NA
BRANCH  10  11
HETATM   11  C7  UNL     1       2.227  -0.055   1.202  1.00  0.00     0.243 C 
BRANCH  11  12
HETATM   12  N3  UNL     1       3.309  -0.758   1.840  1.00  0.00    -0.376 N 
HETATM   13  H10 UNL     1       3.125  -1.308   2.703  1.00  0.00     0.161 HD
BRANCH  12  14
HETATM   14  C8  UNL     1       4.633  -0.725   1.327  1.00  0.00     0.028 A 
HETATM   15  C9  UNL     1       5.646  -1.410   1.953  1.00  0.00     0.029 A 
HETATM   16  C10 UNL     1       6.964  -1.441   1.537  1.00  0.00     0.002 A 
HETATM   17  C11 UNL     1       7.257  -0.722   0.404  1.00  0.00     0.000 A 
HETATM   18  C12 UNL     1       6.296   0.006  -0.302  1.00  0.00     0.002 A 
HETATM   19  C13 UNL     1       5.019  -0.039   0.209  1.00  0.00     0.029 A 
ENDBRANCH  12  14
ENDBRANCH  11  12
ENDBRANCH  10  11
ENDBRANCH   9  10
ENDBRANCH   8   9
ENDBRANCH   5   8
BRANCH   7  20
HETATM   20  O2  UNL     1      -4.515  -0.223   0.559  1.00  0.00    -0.325 OA
BRANCH  20  21
HETATM   21  P1  UNL     1      -4.611  -1.931   0.862  1.00  0.00     0.016 P 
HETATM   22  C16 UNL     1      -5.674  -2.279   2.335  1.00  0.00     0.072 C 
HETATM   23  H17 UNL     1      -3.279  -2.538   1.024  1.00  0.00     0.087 HD
ENDBRANCH  20  21
ENDBRANCH   7  20
BRANCH   1  24
HETATM   24  O1  UNL     1      -5.054   0.521  -2.198  1.00  0.00    -0.353 OA
HETATM   25  C1  UNL     1      -5.748   1.639  -2.706  1.00  0.00     0.210 C 
ENDBRANCH   1  24
TORSDOF 9
