REMARK  6 active torsions:
REMARK  status: ('A' for Active; 'I' for Inactive)
REMARK    1  A    between atoms: C2_2  and  O1_3 
REMARK    2  A    between atoms: O1_3  and  C3_4 
REMARK    3  A    between atoms: C7_10  and  C8_11 
REMARK    4  A    between atoms: C8_11  and  N3_12 
REMARK    5  A    between atoms: N3_12  and  C10_14 
REMARK    6  A    between atoms: C14_18  and  C15_19 
ROOT
HETATM    1  C3  UNL     1       3.775  -0.165  -0.056  1.00  0.00     0.077 A 
HETATM    2  C4  UNL     1       3.768  -1.269  -0.800  1.00  0.00     0.070 A 
HETATM    3  C5  UNL     1       2.375  -1.701  -0.741  1.00  0.00     0.074 A 
HETATM    4  N1  UNL     1       1.750  -2.764  -1.302  1.00  0.00    -0.241 NA
HETATM    5  C6  UNL     1       0.435  -2.990  -1.124  1.00  0.00     0.234 A 
HETATM    6  N2  UNL     1      -0.330  -2.164  -0.374  1.00  0.00    -0.240 NA
HETATM    7  C7  UNL     1       0.281  -1.107   0.186  1.00  0.00     0.086 A 
HETATM    8  C17 UNL     1       1.623  -0.839   0.029  1.00  0.00     0.032 A 
HETATM    9  C18 UNL     1       2.431   0.107   0.465  1.00  0.00    -0.014 A 
HETATM   10  C19 UNL     1       2.018   1.231   1.328  1.00  0.00     0.052 C 
ENDROOT
BRANCH   7  11
HETATM   11  C8  UNL     1      -0.495  -0.341   0.898  1.00  0.00     0.123 C 
BRANCH  11  12
HETATM   12  N3  UNL     1      -1.871  -0.608   1.062  1.00  0.00    -0.359 N 
HETATM   13  C9  UNL     1      -2.336  -1.528   2.110  1.00  0.00     0.156 C 
BRANCH  12  14
HETATM   14  C10 UNL     1      -2.844   0.002   0.223  1.00  0.00     0.034 A 
HETATM   15  C11 UNL     1      -2.526   0.886  -0.798  1.00  0.00     0.029 A 
HETATM   16  C12 UNL     1      -3.468   1.477  -1.610  1.00  0.00     0.003 A 
HETATM   17  C13 UNL     1      -4.813   1.177  -1.404  1.00  0.00     0.016 A 
HETATM   18  C14 UNL     1      -5.189   0.305  -0.404  1.00  0.00     0.050 A 
HETATM   19  C16 UNL     1      -4.180  -0.250   0.373  1.00  0.00     0.045 A 
BRANCH  18  20
HETATM   20  C15 UNL     1      -6.624  -0.049  -0.142  1.00  0.00     0.417 C 
HETATM   21  F1  UNL     1      -7.366   1.110  -0.084  1.00  0.00    -0.166 F 
HETATM   22  F2  UNL     1      -7.077  -0.953  -1.059  1.00  0.00    -0.166 F 
HETATM   23  F3  UNL     1      -6.686  -0.634   1.125  1.00  0.00    -0.166 F 
ENDBRANCH  18  20
ENDBRANCH  12  14
ENDBRANCH  11  12
ENDBRANCH   7  11
BRANCH   1  24
HETATM   24  O1  UNL     1       4.921   0.611   0.180  1.00  0.00    -0.351 OA
BRANCH  24  25
HETATM   25  C2  UNL     1       5.588   1.215  -0.931  1.00  0.00     0.171 C 
HETATM   26  C1  UNL     1       6.788   1.999  -0.448  1.00  0.00     0.034 C 
ENDBRANCH  24  25
ENDBRANCH   1  24
TORSDOF 6
