REMARK  3 active torsions:
REMARK  status: ('A' for Active; 'I' for Inactive)
REMARK    1  A    between atoms: O1_2  and  C2_3 
REMARK    2  A    between atoms: N3_10  and  C7_11 
REMARK    3  A    between atoms: C14_18  and  O2_19 
ROOT
HETATM    1  C2  UNL     1      -1.485   0.470   1.223  1.00  0.00     0.102 A 
HETATM    2  C3  UNL     1      -0.334   0.973   0.802  1.00  0.00     0.059 A 
HETATM    3  C4  UNL     1       0.092   1.304  -0.579  1.00  0.00     0.220 A 
HETATM    4  N1  UNL     1      -1.020   0.983  -1.459  1.00  0.00    -0.323 N 
HETATM    5  C5  UNL     1      -0.716   1.288  -2.820  1.00  0.00     0.207 C 
HETATM    6  N2  UNL     1       0.504   1.399  -3.176  1.00  0.00    -0.265 NA
HETATM    7  C6  UNL     1       1.660   1.244  -2.324  1.00  0.00     0.277 C 
HETATM    8  N3  UNL     1       1.317   0.710  -0.998  1.00  0.00    -0.337 N 
HETATM    9  C13 UNL     1      -2.288   0.439  -1.116  1.00  0.00     0.134 A 
HETATM   10  C14 UNL     1      -2.468   0.210   0.176  1.00  0.00     0.117 A 
ENDROOT
BRANCH   8  11
HETATM   11  C7  UNL     1       2.202  -0.228  -0.394  1.00  0.00     0.033 A 
HETATM   12  C8  UNL     1       3.478  -0.281  -0.915  1.00  0.00     0.029 A 
HETATM   13  C9  UNL     1       4.404  -1.169  -0.398  1.00  0.00     0.002 A 
HETATM   14  C10 UNL     1       4.094  -2.029   0.648  1.00  0.00     0.000 A 
HETATM   15  C11 UNL     1       2.804  -1.970   1.169  1.00  0.00     0.002 A 
HETATM   16  C12 UNL     1       1.933  -1.081   0.627  1.00  0.00     0.029 A 
ENDBRANCH   8  11
BRANCH   1  17
HETATM   17  O1  UNL     1      -1.727   0.214   2.561  1.00  0.00    -0.353 OA
HETATM   18  C1  UNL     1      -1.831  -1.163   2.935  1.00  0.00     0.210 C 
ENDBRANCH   1  17
BRANCH  10  19
HETATM   19  O2  UNL     1      -3.690  -0.319   0.568  1.00  0.00    -0.352 OA
HETATM   20  C15 UNL     1      -4.784   0.594   0.565  1.00  0.00     0.210 C 
ENDBRANCH  10  19
TORSDOF 3
