REMARK  8 active torsions:
REMARK  status: ('A' for Active; 'I' for Inactive)
REMARK    1  A    between atoms: O1_2  and  C2_3 
REMARK    2  A    between atoms: C4_5  and  C5_6 
REMARK    3  A    between atoms: C5_6  and  C6_7 
REMARK    4  A    between atoms: C6_7  and  C7_8 
REMARK    5  A    between atoms: C11_12  and  C12_13 
REMARK    6  A    between atoms: N1_19  and  C15_20 
REMARK    7  A    between atoms: C17_23  and  C18_24 
REMARK    8  A    between atoms: C18_24  and  N3_25 
ROOT
HETATM    1  C2  UNL     1      -2.201  -1.306  -0.415  1.00  0.00     0.077 A 
HETATM    2  C3  UNL     1      -1.178  -0.638  -0.897  1.00  0.00     0.051 A 
HETATM    3  C4  UNL     1      -0.603   0.530  -0.225  1.00  0.00    -0.008 A 
HETATM    4  C14 UNL     1      -1.177   1.001   1.052  1.00  0.00     0.068 A 
HETATM    5  N1  UNL     1      -1.101   1.838   1.955  1.00  0.00    -0.242 NA
HETATM    6  C16 UNL     1      -2.330   0.194   1.532  1.00  0.00     0.044 A 
HETATM    7  C17 UNL     1      -2.789  -0.869   0.840  1.00  0.00     0.005 A 
ENDROOT
BRANCH   3   8
HETATM    8  C5  UNL     1       0.389   1.299  -0.547  1.00  0.00    -0.012 C 
BRANCH   8   9
HETATM    9  C6  UNL     1       1.438   2.265  -0.709  1.00  0.00     0.036 C 
BRANCH   9  10
HETATM   10  C7  UNL     1       2.834   1.609  -0.765  1.00  0.00     0.016 A 
HETATM   11  C8  UNL     1       2.887   0.680  -1.903  1.00  0.00    -0.021 A 
HETATM   12  C9  UNL     1       3.178  -0.603  -2.006  1.00  0.00    -0.003 A 
HETATM   13  C10 UNL     1       3.520  -1.265  -0.756  1.00  0.00     0.011 A 
HETATM   14  C11 UNL     1       3.484  -0.462   0.291  1.00  0.00     0.026 A 
HETATM   15  C13 UNL     1       3.179   0.967   0.534  1.00  0.00     0.052 A 
BRANCH  14  16
HETATM   16  C12 UNL     1       3.825  -1.079   1.609  1.00  0.00     0.413 C 
HETATM   17  F1  UNL     1       2.726  -0.941   2.460  1.00  0.00    -0.166 F 
HETATM   18  F2  UNL     1       4.058  -2.435   1.518  1.00  0.00    -0.166 F 
HETATM   19  F3  UNL     1       4.957  -0.502   2.153  1.00  0.00    -0.166 F 
ENDBRANCH  14  16
ENDBRANCH   9  10
ENDBRANCH   8   9
ENDBRANCH   3   8
BRANCH   1  20
HETATM   20  O1  UNL     1      -2.603  -2.376  -1.187  1.00  0.00    -0.355 OA
HETATM   21  C1  UNL     1      -2.815  -2.317  -2.575  1.00  0.00     0.210 C 
ENDBRANCH   1  20
BRANCH   5  22
HETATM   22  C15 UNL     1      -0.261   2.901   2.171  1.00  0.00     0.224 C 
HETATM   23  N2  UNL     1      -0.973   3.993   2.284  1.00  0.00    -0.293 NA
HETATM   24  H15 UNL     1      -2.014   3.918   2.202  1.00  0.00     0.187 HD
ENDBRANCH   5  22
BRANCH   7  25
HETATM   25  C18 UNL     1      -3.940  -1.769   1.206  1.00  0.00     0.308 C 
BRANCH  25  26
HETATM   26  N3  UNL     1      -4.962  -1.753   0.205  1.00  0.00     0.082 N 
HETATM   27  H19 UNL     1      -5.711  -1.083   0.501  1.00  0.00     0.313 HD
HETATM   28  H20 UNL     1      -5.412  -2.696   0.142  1.00  0.00     0.313 HD
ENDBRANCH  25  26
ENDBRANCH   7  25
TORSDOF 8
