REMARK  5 active torsions:
REMARK  status: ('A' for Active; 'I' for Inactive)
REMARK    1  A    between atoms: O1_2  and  C2_3 
REMARK    2  A    between atoms: C6_9  and  C7_10 
REMARK    3  A    between atoms: C7_10  and  N3_11 
REMARK    4  A    between atoms: N3_11  and  C8_12 
REMARK    5  A    between atoms: C16_20  and  O2_21 
ROOT
HETATM    1  C2  UNL     1       3.819  -0.295   0.659  1.00  0.00     0.102 C 
HETATM    2  C3  UNL     1       3.785   1.083   0.721  1.00  0.00     0.059 C 
HETATM    3  C4  UNL     1       3.128   1.880  -0.199  1.00  0.00     0.121 C 
HETATM    4  N1  UNL     1       1.963   1.954  -0.885  1.00  0.00    -0.254 NA
HETATM    5  C5  UNL     1       1.351   0.956  -1.508  1.00  0.00     0.232 C 
HETATM    6  N2  UNL     1       0.440   1.211  -0.540  1.00  0.00    -0.245 NA
HETATM    7  C6  UNL     1      -0.056   0.030  -0.017  1.00  0.00     0.053 C 
HETATM    8  C14 UNL     1       0.603  -1.191   0.106  1.00  0.00     0.032 C 
HETATM    9  C15 UNL     1       1.684  -1.577   0.892  1.00  0.00     0.041 C 
HETATM   10  C16 UNL     1       3.072  -1.432   0.946  1.00  0.00     0.099 C 
ENDROOT
BRANCH   7  11
HETATM   11  C7  UNL     1      -1.440   0.173   0.435  1.00  0.00     0.179 C 
BRANCH  11  12
HETATM   12  N3  UNL     1      -2.370  -0.140  -0.649  1.00  0.00    -0.384 N 
HETATM   13  H9  UNL     1      -1.998  -0.420  -1.587  1.00  0.00     0.160 HD
BRANCH  12  14
HETATM   14  C8  UNL     1      -3.767  -0.076  -0.462  1.00  0.00     0.028 A 
HETATM   15  C9  UNL     1      -4.658  -0.372  -1.485  1.00  0.00     0.029 A 
HETATM   16  C10 UNL     1      -6.027  -0.290  -1.239  1.00  0.00     0.002 A 
HETATM   17  C11 UNL     1      -6.550   0.076  -0.013  1.00  0.00     0.000 A 
HETATM   18  C12 UNL     1      -5.628   0.361   0.975  1.00  0.00     0.002 A 
HETATM   19  C13 UNL     1      -4.266   0.290   0.765  1.00  0.00     0.029 A 
ENDBRANCH  12  14
ENDBRANCH  11  12
ENDBRANCH   7  11
BRANCH  10  20
HETATM   20  O2  UNL     1       3.784  -2.525   1.321  1.00  0.00    -0.358 OA
HETATM   21  H17 UNL     1       3.781  -2.978   2.228  1.00  0.00     0.217 HD
ENDBRANCH  10  20
BRANCH   1  22
HETATM   22  O1  UNL     1       5.080  -0.484   0.103  1.00  0.00    -0.353 OA
HETATM   23  C1  UNL     1       5.949   0.546  -0.241  1.00  0.00     0.210 C 
ENDBRANCH   1  22
TORSDOF 5
