REMARK  5 active torsions:
REMARK  status: ('A' for Active; 'I' for Inactive)
REMARK    1  A    between atoms: C2_2  and  O1_3 
REMARK    2  A    between atoms: O1_3  and  C3_4 
REMARK    3  A    between atoms: N3_11  and  C8_12 
REMARK    4  A    between atoms: C9_13  and  C10_14 
REMARK    5  A    between atoms: C16_23  and  O2_24 
ROOT
HETATM    1  C3  UNL     1       2.142  -0.321   0.423  1.00  0.00     0.105 C 
HETATM    2  C4  UNL     1       1.983  -1.609   0.155  1.00  0.00     0.073 C 
HETATM    3  C5  UNL     1       0.575  -1.975  -0.099  1.00  0.00     0.088 C 
HETATM    4  N1  UNL     1       0.388  -3.245  -0.367  1.00  0.00    -0.240 NA
HETATM    5  C6  UNL     1      -0.863  -3.906  -0.657  1.00  0.00     0.229 C 
HETATM    6  N2  UNL     1      -2.067  -3.567  -0.341  1.00  0.00    -0.263 NA
HETATM    7  C7  UNL     1      -2.538  -2.418   0.402  1.00  0.00     0.280 C 
HETATM    8  N3  UNL     1      -1.911  -1.180   0.029  1.00  0.00    -0.328 N 
HETATM    9  C14 UNL     1      -0.494  -0.958  -0.043  1.00  0.00     0.079 C 
HETATM   10  C15 UNL     1      -0.140   0.306  -0.060  1.00  0.00     0.045 C 
HETATM   11  C16 UNL     1       1.034   0.630   0.460  1.00  0.00     0.115 C 
ENDROOT
BRANCH   8  12
HETATM   12  C8  UNL     1      -2.684  -0.016  -0.317  1.00  0.00     0.032 A 
HETATM   13  C9  UNL     1      -3.436   0.783   0.430  1.00  0.00     0.070 A 
HETATM   14  C11 UNL     1      -3.993   1.815  -0.441  1.00  0.00     0.014 A 
HETATM   15  C12 UNL     1      -3.569   1.618  -1.682  1.00  0.00    -0.020 A 
HETATM   16  C13 UNL     1      -2.681   0.420  -1.737  1.00  0.00     0.085 A 
BRANCH  13  17
HETATM   17  C10 UNL     1      -3.772   0.796   1.871  1.00  0.00     0.419 C 
HETATM   18  F1  UNL     1      -5.133   0.677   2.053  1.00  0.00    -0.166 F 
HETATM   19  F2  UNL     1      -3.439   2.054   2.365  1.00  0.00    -0.166 F 
HETATM   20  F3  UNL     1      -3.042  -0.106   2.594  1.00  0.00    -0.166 F 
ENDBRANCH  13  17
ENDBRANCH   8  12
BRANCH  11  21
HETATM   21  O2  UNL     1       1.160   1.886   1.031  1.00  0.00    -0.352 OA
HETATM   22  C17 UNL     1       2.140   2.818   0.692  1.00  0.00     0.210 C 
ENDBRANCH  11  21
BRANCH   1  23
HETATM   23  O1  UNL     1       3.420   0.095   0.669  1.00  0.00    -0.349 OA
BRANCH  23  24
HETATM   24  C2  UNL     1       4.453   0.135  -0.296  1.00  0.00     0.171 C 
HETATM   25  C1  UNL     1       5.714   0.651   0.364  1.00  0.00     0.034 C 
ENDBRANCH  23  24
ENDBRANCH   1  23
TORSDOF 5
