REMARK  6 active torsions:
REMARK  status: ('A' for Active; 'I' for Inactive)
REMARK    1  A    between atoms: N1_2  and  C2_3 
REMARK    2  A    between atoms: C2_3  and  O1_24 
REMARK    3  A    between atoms: C3_4  and  C4_5 
REMARK    4  A    between atoms: C8_11  and  N4_12 
REMARK    5  A    between atoms: N4_12  and  C10_14 
REMARK    6  A    between atoms: C14_18  and  C15_19 
ROOT
HETATM    1  C4  UNL     1       0.745   1.142  -1.033  1.00  0.00     0.038 A 
HETATM    2  C5  UNL     1       1.028   2.493  -0.992  1.00  0.00     0.046 A 
HETATM    3  C6  UNL     1       2.340   3.036  -0.618  1.00  0.00     0.071 C 
HETATM    4  N2  UNL     1       0.103   3.408  -1.310  1.00  0.00    -0.246 NA
HETATM    5  C7  UNL     1      -1.128   3.060  -1.680  1.00  0.00     0.235 A 
HETATM    6  N3  UNL     1      -1.441   1.773  -1.734  1.00  0.00    -0.223 NA
HETATM    7  C8  UNL     1      -0.553   0.784  -1.425  1.00  0.00     0.143 A 
ENDROOT
BRANCH   7   8
HETATM    8  N4  UNL     1      -0.964  -0.597  -1.518  1.00  0.00    -0.335 N 
HETATM    9  C9  UNL     1      -0.495  -1.665  -2.398  1.00  0.00     0.158 C 
BRANCH   8  10
HETATM   10  C10 UNL     1      -1.993  -1.012  -0.598  1.00  0.00     0.036 A 
HETATM   11  C11 UNL     1      -2.455  -2.300  -0.576  1.00  0.00     0.029 A 
HETATM   12  C12 UNL     1      -3.439  -2.782   0.271  1.00  0.00     0.003 A 
HETATM   13  C13 UNL     1      -3.996  -1.866   1.170  1.00  0.00     0.016 A 
HETATM   14  C14 UNL     1      -3.560  -0.560   1.181  1.00  0.00     0.050 A 
HETATM   15  C16 UNL     1      -2.573  -0.134   0.312  1.00  0.00     0.045 A 
BRANCH  14  16
HETATM   16  C15 UNL     1      -4.183   0.381   2.160  1.00  0.00     0.417 C 
HETATM   17  F1  UNL     1      -3.518   0.363   3.361  1.00  0.00    -0.166 F 
HETATM   18  F2  UNL     1      -5.482  -0.052   2.436  1.00  0.00    -0.166 F 
HETATM   19  F3  UNL     1      -4.261   1.628   1.580  1.00  0.00    -0.166 F 
ENDBRANCH  14  16
ENDBRANCH   8  10
ENDBRANCH   7   8
BRANCH   1  20
HETATM   20  C3  UNL     1       1.709   0.148  -0.668  1.00  0.00     0.073 C 
HETATM   21  C2  UNL     1       2.586  -0.028   0.284  1.00  0.00     0.138 C 
BRANCH  21  22
HETATM   22  N1  UNL     1       2.864   0.842   1.373  1.00  0.00    -0.375 N 
HETATM   23  C1  UNL     1       4.204   0.964   1.963  1.00  0.00     0.148 C 
HETATM   24  H4  UNL     1       2.136   1.447   1.821  1.00  0.00     0.161 HD
ENDBRANCH  21  22
BRANCH  21  25
HETATM   25  O1  UNL     1       3.371  -1.152   0.313  1.00  0.00    -0.341 OA
HETATM   26  C17 UNL     1       2.965  -2.477   0.400  1.00  0.00     0.211 C 
ENDBRANCH  21  25
ENDBRANCH   1  20
TORSDOF 6
