REMARK  4 active torsions:
REMARK  status: ('A' for Active; 'I' for Inactive)
REMARK    1  A    between atoms: C6_6  and  C7_7 
REMARK    2  A    between atoms: C8_11  and  C9_12 
REMARK    3  A    between atoms: C14_19  and  O1_20 
REMARK    4  A    between atoms: C16_22  and  O2_23 
ROOT
HETATM    1  C9  UNL     1       1.759  -0.431  -1.010  1.00  0.00     0.100 C 
HETATM    2  C10 UNL     1       0.981   0.616  -1.629  1.00  0.00     0.052 A 
HETATM    3  N1  UNL     1       1.615   1.527  -2.436  1.00  0.00    -0.245 NA
HETATM    4  C11 UNL     1       0.809   2.444  -3.004  1.00  0.00     0.234 A 
HETATM    5  N2  UNL     1      -0.544   2.534  -2.844  1.00  0.00    -0.241 NA
HETATM    6  C12 UNL     1      -1.176   1.633  -2.044  1.00  0.00     0.073 A 
HETATM    7  C13 UNL     1      -2.537   1.669  -1.841  1.00  0.00     0.072 A 
HETATM    8  C14 UNL     1      -3.192   0.765  -1.036  1.00  0.00     0.103 A 
HETATM    9  C16 UNL     1      -2.421  -0.200  -0.425  1.00  0.00     0.102 A 
HETATM   10  C18 UNL     1      -1.057  -0.239  -0.625  1.00  0.00     0.055 A 
HETATM   11  C19 UNL     1      -0.412   0.662  -1.427  1.00  0.00     0.021 A 
ENDROOT
BRANCH   1  12
HETATM   12  C8  UNL     1       2.151  -0.453   0.364  1.00  0.00    -0.032 A 
HETATM   13  C2  UNL     1       2.762  -1.786   0.653  1.00  0.00    -0.039 A 
HETATM   14  C1  UNL     1       2.918  -2.755  -0.271  1.00  0.00     0.024 C 
HETATM   15  C3  UNL     1       3.274  -2.258   1.934  1.00  0.00     0.007 A 
HETATM   16  C4  UNL     1       3.176  -1.401   2.929  1.00  0.00    -0.021 A 
HETATM   17  C5  UNL     1       2.608  -0.046   2.860  1.00  0.00     0.071 A 
HETATM   18  C6  UNL     1       2.155   0.228   1.474  1.00  0.00     0.036 A 
BRANCH  18  19
HETATM   19  C7  UNL     1       1.668   1.586   1.524  1.00  0.00     0.414 C 
HETATM   20  F1  UNL     1       1.331   2.254   0.416  1.00  0.00    -0.166 F 
HETATM   21  F2  UNL     1       0.656   1.700   2.515  1.00  0.00    -0.166 F 
HETATM   22  F3  UNL     1       2.705   2.381   2.097  1.00  0.00    -0.166 F 
ENDBRANCH  18  19
ENDBRANCH   1  12
BRANCH   9  23
HETATM   23  O2  UNL     1      -3.033  -1.148   0.407  1.00  0.00    -0.353 OA
HETATM   24  C17 UNL     1      -2.261  -2.148   1.045  1.00  0.00     0.210 C 
ENDBRANCH   9  23
BRANCH   8  25
HETATM   25  O1  UNL     1      -4.548   0.749  -0.794  1.00  0.00    -0.353 OA
HETATM   26  C15 UNL     1      -5.488   1.642  -1.322  1.00  0.00     0.210 C 
ENDBRANCH   8  25
TORSDOF 4
