REMARK  8 active torsions:
REMARK  status: ('A' for Active; 'I' for Inactive)
REMARK    1  A    between atoms: O1_2  and  C2_3 
REMARK    2  A    between atoms: C6_9  and  N3_10 
REMARK    3  A    between atoms: N3_10  and  C8_12 
REMARK    4  A    between atoms: C8_12  and  P1_13 
REMARK    5  A    between atoms: C8_12  and  C9_14 
REMARK    6  A    between atoms: C10_15  and  C12_17 
REMARK    7  A    between atoms: C12_17  and  C13_18 
REMARK    8  A    between atoms: C16_24  and  O2_25 
ROOT
HETATM    1  C2  UNL     1       4.329   0.432   0.689  1.00  0.00     0.103 A 
HETATM    2  C3  UNL     1       3.862   1.703   0.353  1.00  0.00     0.072 A 
HETATM    3  C4  UNL     1       2.543   1.815  -0.076  1.00  0.00     0.075 A 
HETATM    4  N1  UNL     1       1.990   3.002  -0.427  1.00  0.00    -0.241 NA
HETATM    5  C5  UNL     1       0.696   3.074  -0.842  1.00  0.00     0.236 A 
HETATM    6  N2  UNL     1      -0.051   1.949  -0.907  1.00  0.00    -0.224 NA
HETATM    7  C6  UNL     1       0.455   0.732  -0.566  1.00  0.00     0.140 A 
HETATM    8  C14 UNL     1       1.768   0.676  -0.148  1.00  0.00     0.041 A 
HETATM    9  C15 UNL     1       2.246  -0.565   0.188  1.00  0.00     0.057 A 
HETATM   10  C16 UNL     1       3.550  -0.707   0.617  1.00  0.00     0.102 A 
ENDROOT
BRANCH   7  11
HETATM   11  N3  UNL     1      -0.449  -0.361  -0.685  1.00  0.00    -0.358 N 
HETATM   12  C7  UNL     1      -0.229  -1.508  -1.547  1.00  0.00     0.152 C 
BRANCH  11  13
HETATM   13  C8  UNL     1      -1.679  -0.347   0.098  1.00  0.00     0.131 C 
BRANCH  13  14
HETATM   14  P1  UNL     1      -1.674  -1.827   1.204  1.00  0.00    -0.113 P 
HETATM   15  H10 UNL     1      -2.729  -2.721   0.775  1.00  0.00     0.057 HD
HETATM   16  H11 UNL     1      -1.888  -1.505   2.581  1.00  0.00     0.057 HD
ENDBRANCH  13  14
BRANCH  13  17
HETATM   17  C9  UNL     1      -2.824  -0.390  -0.845  1.00  0.00     0.005 C 
HETATM   18  C10 UNL     1      -4.083  -0.201  -0.431  1.00  0.00    -0.077 C 
HETATM   19  C11 UNL     1      -5.247  -0.245  -1.392  1.00  0.00     0.043 C 
BRANCH  18  20
HETATM   20  C12 UNL     1      -4.422   0.062   0.987  1.00  0.00     0.151 C 
BRANCH  20  21
HETATM   21  C13 UNL     1      -5.116   1.393   1.169  1.00  0.00     0.391 C 
HETATM   22  F1  UNL     1      -4.324   2.438   0.742  1.00  0.00    -0.171 F 
HETATM   23  F2  UNL     1      -6.266   1.420   0.375  1.00  0.00    -0.171 F 
HETATM   24  F3  UNL     1      -5.517   1.561   2.469  1.00  0.00    -0.171 F 
ENDBRANCH  20  21
ENDBRANCH  18  20
ENDBRANCH  13  17
ENDBRANCH  11  13
ENDBRANCH   7  11
BRANCH  10  25
HETATM   25  O2  UNL     1       4.104  -1.934   0.974  1.00  0.00    -0.353 OA
HETATM   26  C17 UNL     1       3.272  -3.078   0.885  1.00  0.00     0.210 C 
ENDBRANCH  10  25
BRANCH   1  27
HETATM   27  O1  UNL     1       5.643   0.288   1.121  1.00  0.00    -0.353 OA
HETATM   28  C1  UNL     1       6.469   1.432   1.208  1.00  0.00     0.210 C 
ENDBRANCH   1  27
TORSDOF 8
