REMARK  2 active torsions:
REMARK  status: ('A' for Active; 'I' for Inactive)
REMARK    1  A    between atoms: C9_14  and  N6_15 
REMARK    2  A    between atoms: N6_15  and  C10_16 
ROOT
HETATM    1  N1  UNL     1      -1.918   3.812   1.147  1.00  0.00    -0.192 NA
HETATM    2  C1  UNL     1      -2.468   2.999   0.563  1.00  0.00     0.088 C 
HETATM    3  C2  UNL     1      -3.143   2.017  -0.172  1.00  0.00     0.107 C 
HETATM    4  C3  UNL     1      -2.724   0.861  -0.539  1.00  0.00     0.004 C 
HETATM    5  C4  UNL     1      -3.605  -0.085  -1.346  1.00  0.00     0.032 C 
HETATM    6  C5  UNL     1      -3.657  -1.454  -1.158  1.00  0.00     0.107 C 
HETATM    7  N2  UNL     1      -2.894  -2.252  -0.167  1.00  0.00    -0.199 N 
HETATM    8  C6  UNL     1      -1.538  -1.929   0.332  1.00  0.00     0.720 C 
HETATM    9  N3  UNL     1      -1.792  -2.044   1.641  1.00  0.00     0.043 NA
HETATM   10  N4  UNL     1      -1.537  -1.062   2.710  1.00  0.00    -0.127 NA
HETATM   11  C7  UNL     1      -1.564   0.298   2.472  1.00  0.00     0.258 C 
HETATM   12  N5  UNL     1      -1.621   1.155   1.219  1.00  0.00    -0.240 NA
HETATM   13  C8  UNL     1      -1.351   0.620   0.023  1.00  0.00     0.089 C 
HETATM   14  C9  UNL     1      -0.084  -0.049  -0.491  1.00  0.00     0.253 C 
HETATM   15  N7  UNL     1      -0.262  -1.524  -0.292  1.00  0.00    -0.196 N 
HETATM   16  H4  UNL     1      -3.140  -3.070   0.356  1.00  0.00     0.183 HD
HETATM   17  H12 UNL     1       0.580  -2.041  -0.645  1.00  0.00     0.180 HD
ENDROOT
BRANCH  14  18
HETATM   18  N6  UNL     1       1.064   0.461   0.157  1.00  0.00    -0.363 N 
HETATM   19  H7  UNL     1       0.866   1.093   0.991  1.00  0.00     0.162 HD
BRANCH  18  20
HETATM   20  C10 UNL     1       2.428   0.252  -0.140  1.00  0.00     0.031 A 
HETATM   21  C11 UNL     1       2.900  -0.494  -1.198  1.00  0.00     0.029 A 
HETATM   22  C12 UNL     1       4.230  -0.712  -1.489  1.00  0.00     0.004 A 
HETATM   23  C13 UNL     1       5.160  -0.135  -0.651  1.00  0.00     0.024 A 
HETATM   24  C14 UNL     1       4.757   0.625   0.426  1.00  0.00     0.036 A 
HETATM   25 CL1  UNL     1       5.927   1.380   1.522  1.00  0.00    -0.084 Cl
HETATM   26  C15 UNL     1       3.413   0.800   0.657  1.00  0.00     0.053 A 
ENDBRANCH  18  20
ENDBRANCH  14  18
TORSDOF 2
