REMARK  8 active torsions:
REMARK  status: ('A' for Active; 'I' for Inactive)
REMARK    1  A    between atoms: O1_2  and  C2_3 
REMARK    2  A    between atoms: C3_4  and  O2_5 
REMARK    3  A    between atoms: C5_7  and  O3_8 
REMARK    4  A    between atoms: O3_8  and  C6_9 
REMARK    5  A    between atoms: C6_9  and  N1_10 
REMARK    6  A    between atoms: N1_10  and  C7_11 
REMARK    7  A    between atoms: C11_17  and  O4_18 
REMARK    8  A    between atoms: C13_20  and  O5_21 
ROOT
HETATM    1  C7  UNL     1       1.074   0.027  -0.802  1.00  0.00     0.139 A 
HETATM    2  N2  UNL     1       0.470  -1.144  -1.068  1.00  0.00    -0.224 NA
HETATM    3  C8  UNL     1       1.078  -2.319  -1.218  1.00  0.00     0.235 A 
HETATM    4  N3  UNL     1       2.418  -2.355  -1.096  1.00  0.00    -0.241 NA
HETATM    5  C9  UNL     1       3.125  -1.241  -0.830  1.00  0.00     0.075 A 
HETATM    6  C10 UNL     1       4.510  -1.247  -0.698  1.00  0.00     0.072 A 
HETATM    7  C11 UNL     1       5.176  -0.074  -0.426  1.00  0.00     0.103 A 
HETATM    8  C13 UNL     1       4.505   1.132  -0.276  1.00  0.00     0.102 A 
HETATM    9  C15 UNL     1       3.134   1.096  -0.414  1.00  0.00     0.057 A 
HETATM   10  C16 UNL     1       2.441  -0.054  -0.685  1.00  0.00     0.041 A 
ENDROOT
BRANCH   1  11
HETATM   11  N1  UNL     1       0.291   1.213  -0.668  1.00  0.00    -0.353 N 
HETATM   12  H10 UNL     1       0.673   2.158  -0.464  1.00  0.00     0.163 HD
BRANCH  11  13
HETATM   13  C6  UNL     1      -1.155   1.115  -0.824  1.00  0.00     0.293 C 
BRANCH  13  14
HETATM   14  O3  UNL     1      -1.617   0.236   0.148  1.00  0.00    -0.356 OA
BRANCH  14  15
HETATM   15  C5  UNL     1      -2.975   0.047   0.116  1.00  0.00     0.212 A 
HETATM   16  C3  UNL     1      -3.706   0.379   1.336  1.00  0.00     0.112 A 
HETATM   17  C2  UNL     1      -4.474  -0.622   1.737  1.00  0.00     0.100 A 
HETATM   18  C19 UNL     1      -4.273  -1.696   0.760  1.00  0.00     0.045 A 
HETATM   19  C17 UNL     1      -3.407  -1.334  -0.193  1.00  0.00    -0.046 A 
HETATM   20  C18 UNL     1      -2.969  -2.170  -1.340  1.00  0.00     0.046 C 
BRANCH  16  21
HETATM   21  O2  UNL     1      -3.496   1.634   1.866  1.00  0.00    -0.354 OA
HETATM   22  C4  UNL     1      -4.170   2.730   1.249  1.00  0.00     0.209 C 
ENDBRANCH  16  21
BRANCH  17  23
HETATM   23  O1  UNL     1      -5.331  -0.763   2.821  1.00  0.00    -0.353 OA
HETATM   24  C1  UNL     1      -6.554  -1.469   2.738  1.00  0.00     0.210 C 
ENDBRANCH  17  23
ENDBRANCH  14  15
ENDBRANCH  13  14
ENDBRANCH  11  13
ENDBRANCH   1  11
BRANCH   8  25
HETATM   25  O5  UNL     1       5.343   2.181  -0.009  1.00  0.00    -0.353 OA
HETATM   26  C14 UNL     1       4.849   3.475   0.177  1.00  0.00     0.210 C 
ENDBRANCH   8  25
BRANCH   7  27
HETATM   27  O4  UNL     1       6.540  -0.210  -0.319  1.00  0.00    -0.353 OA
HETATM   28  C12 UNL     1       7.206  -1.432  -0.471  1.00  0.00     0.210 C 
ENDBRANCH   7  27
TORSDOF 8
