REMARK  4 active torsions:
REMARK  status: ('A' for Active; 'I' for Inactive)
REMARK    1  A    between atoms: C3_3  and  O1_4 
REMARK    2  A    between atoms: C9_12  and  N3_13 
REMARK    3  A    between atoms: N3_13  and  C11_15 
REMARK    4  A    between atoms: C15_19  and  C16_20 
ROOT
HETATM    1  C1  UNL     1       3.966   2.090   1.768  1.00  0.00     0.028 C 
HETATM    2  C2  UNL     1       3.124   1.318   1.074  1.00  0.00     0.018 A 
HETATM    3  C3  UNL     1       3.261  -0.027   0.500  1.00  0.00     0.081 A 
HETATM    4  C5  UNL     1       2.103  -0.290  -0.082  1.00  0.00     0.055 A 
HETATM    5  C6  UNL     1       1.179   0.803   0.063  1.00  0.00     0.043 A 
HETATM    6  C7  UNL     1       1.782   1.831   0.782  1.00  0.00     0.084 A 
HETATM    7  N1  UNL     1       1.072   2.959   1.028  1.00  0.00    -0.240 NA
HETATM    8  C8  UNL     1      -0.198   3.103   0.592  1.00  0.00     0.236 A 
HETATM    9  N2  UNL     1      -0.785   2.112  -0.103  1.00  0.00    -0.223 NA
HETATM   10  C9  UNL     1      -0.115   0.977  -0.368  1.00  0.00     0.144 A 
ENDROOT
BRANCH  10  11
HETATM   11  N3  UNL     1      -0.767  -0.051  -1.107  1.00  0.00    -0.335 N 
HETATM   12  C10 UNL     1      -0.304  -0.577  -2.387  1.00  0.00     0.158 C 
BRANCH  11  13
HETATM   13  C11 UNL     1      -1.962  -0.629  -0.584  1.00  0.00     0.036 A 
HETATM   14  C12 UNL     1      -2.612  -1.626  -1.281  1.00  0.00     0.029 A 
HETATM   15  C13 UNL     1      -3.767  -2.198  -0.794  1.00  0.00     0.003 A 
HETATM   16  C14 UNL     1      -4.296  -1.776   0.412  1.00  0.00     0.016 A 
HETATM   17  C15 UNL     1      -3.665  -0.779   1.130  1.00  0.00     0.050 A 
HETATM   18  C17 UNL     1      -2.505  -0.214   0.626  1.00  0.00     0.045 A 
BRANCH  17  19
HETATM   19  C16 UNL     1      -4.231  -0.323   2.426  1.00  0.00     0.417 C 
HETATM   20  F1  UNL     1      -4.667  -1.411   3.164  1.00  0.00    -0.166 F 
HETATM   21  F2  UNL     1      -5.324   0.493   2.270  1.00  0.00    -0.166 F 
HETATM   22  F3  UNL     1      -3.253   0.385   3.107  1.00  0.00    -0.166 F 
ENDBRANCH  17  19
ENDBRANCH  11  13
ENDBRANCH  10  11
BRANCH   3  23
HETATM   23  O1  UNL     1       4.481  -0.654   0.690  1.00  0.00    -0.355 OA
HETATM   24  C4  UNL     1       5.310  -0.986  -0.406  1.00  0.00     0.210 C 
ENDBRANCH   3  23
TORSDOF 4
