REMARK  7 active torsions:
REMARK  status: ('A' for Active; 'I' for Inactive)
REMARK    1  A    between atoms: O1_2  and  C2_3 
REMARK    2  A    between atoms: C5_6  and  N1_7 
REMARK    3  A    between atoms: C8_11  and  N3_12 
REMARK    4  A    between atoms: N3_12  and  C10_14 
REMARK    5  A    between atoms: C10_14  and  C11_15 
REMARK    6  A    between atoms: C11_15  and  B1_16 
REMARK    7  A    between atoms: B1_16  and  C12_17 
ROOT
HETATM    1  C2  UNL     1      -2.503   1.069   0.977  1.00  0.00     0.050 C 
HETATM    2  C3  UNL     1      -2.939  -0.012   0.349  1.00  0.00     0.048 C 
HETATM    3  C4  UNL     1      -2.129  -1.069  -0.190  1.00  0.00     0.021 A 
HETATM    4  C5  UNL     1      -2.558  -2.212  -0.690  1.00  0.00     0.035 A 
HETATM    5  C6  UNL     1      -1.434  -3.064  -1.153  1.00  0.00     0.206 A 
HETATM    6  N2  UNL     1      -0.287  -2.232  -0.843  1.00  0.00    -0.281 NA
HETATM    7  C7  UNL     1      -0.665  -1.120  -0.307  1.00  0.00     0.090 A 
HETATM    8  C8  UNL     1       0.289  -0.073   0.115  1.00  0.00     0.060 C 
HETATM    9  C13 UNL     1      -0.018   1.025   0.800  1.00  0.00     0.012 C 
HETATM   10  C14 UNL     1      -1.219   1.605   1.353  1.00  0.00     0.094 C 
ENDROOT
BRANCH   8  11
HETATM   11  N3  UNL     1       1.618  -0.345  -0.287  1.00  0.00    -0.354 N 
HETATM   12  C9  UNL     1       2.402  -1.417   0.326  1.00  0.00     0.156 C 
BRANCH  11  13
HETATM   13  C10 UNL     1       2.406   0.296  -1.272  1.00  0.00     0.126 C 
BRANCH  13  14
HETATM   14  C11 UNL     1       3.643   0.682  -1.054  1.00  0.00    -0.204 C 
BRANCH  14  15
HETATM   15  B1  UNL     1       5.329   1.112  -0.800  1.00  0.00     0.272 B 
BRANCH  15  16
HETATM   16  C12 UNL     1       7.049   1.226  -0.290  1.00  0.00     0.174 C 
HETATM   17  F1  UNL     1       7.117   1.202   1.091  1.00  0.00    -0.265 F 
ENDBRANCH  15  16
ENDBRANCH  14  15
ENDBRANCH  13  14
ENDBRANCH  11  13
ENDBRANCH   8  11
BRANCH   4  18
HETATM   18  N1  UNL     1      -3.923  -2.591  -0.777  1.00  0.00    -0.400 N 
HETATM   19  H5  UNL     1      -4.510  -2.494   0.088  1.00  0.00     0.156 HD
HETATM   20  H6  UNL     1      -4.528  -2.970  -1.549  1.00  0.00     0.156 HD
ENDBRANCH   4  18
BRANCH   1  21
HETATM   21  O1  UNL     1      -3.582   1.863   1.352  1.00  0.00    -0.360 OA
HETATM   22  C1  UNL     1      -3.932   3.044   0.654  1.00  0.00     0.209 C 
ENDBRANCH   1  21
TORSDOF 7
