REMARK  4 active torsions:
REMARK  status: ('A' for Active; 'I' for Inactive)
REMARK    1  A    between atoms: C2_2  and  N1_4 
REMARK    2  A    between atoms: C10_13  and  N4_14 
REMARK    3  A    between atoms: N4_14  and  C11_15 
REMARK    4  A    between atoms: C19_26  and  O2_27 
ROOT
HETATM    1  N1  UNL     1      -3.137   0.583  -0.004  1.00  0.00    -0.354 N 
HETATM    2  C4  UNL     1      -2.916   1.056   1.396  1.00  0.00     0.169 C 
HETATM    3  C5  UNL     1      -1.907  -0.014   1.820  1.00  0.00     0.025 C 
HETATM    4  C6  UNL     1      -2.334  -1.300   1.832  1.00  0.00     0.003 C 
HETATM    5  C7  UNL     1      -1.984  -1.615   0.395  1.00  0.00     0.112 C 
HETATM    6  C8  UNL     1      -0.498  -1.834   0.232  1.00  0.00     0.078 A 
HETATM    7  N2  UNL     1      -0.230  -2.902  -0.574  1.00  0.00    -0.243 NA
HETATM    8  C9  UNL     1       1.029  -3.279  -0.840  1.00  0.00     0.235 A 
HETATM    9  N3  UNL     1       2.106  -2.633  -0.330  1.00  0.00    -0.222 NA
HETATM   10  C10 UNL     1       1.989  -1.568   0.476  1.00  0.00     0.158 A 
HETATM   11  C17 UNL     1       0.702  -1.244   0.699  1.00  0.00     0.107 A 
HETATM   12  N5  UNL     1       0.632  -0.090   1.579  1.00  0.00    -0.318 N 
HETATM   13  C18 UNL     1      -0.560   0.565   2.104  1.00  0.00     0.253 C 
HETATM   14  O1  UNL     1      -0.613   1.595   2.789  1.00  0.00    -0.268 OA
HETATM   15  C19 UNL     1      -2.590  -0.646  -0.529  1.00  0.00     0.234 C 
HETATM   16  H16 UNL     1       1.469   0.407   1.938  1.00  0.00     0.169 HD
ENDROOT
BRANCH  10  17
HETATM   17  N4  UNL     1       3.025  -0.818   1.084  1.00  0.00    -0.339 N 
HETATM   18  H11 UNL     1       3.006  -0.890   2.123  1.00  0.00     0.167 HD
BRANCH  17  19
HETATM   19  C11 UNL     1       4.028  -0.031   0.442  1.00  0.00     0.035 A 
HETATM   20  C12 UNL     1       4.842   0.774   1.211  1.00  0.00     0.029 A 
HETATM   21  C13 UNL     1       5.836   1.532   0.631  1.00  0.00     0.004 A 
HETATM   22  C14 UNL     1       6.033   1.496  -0.739  1.00  0.00     0.019 A 
HETATM   23  C15 UNL     1       5.215   0.685  -1.532  1.00  0.00     0.013 A 
HETATM   24 BR1  UNL     1       5.438   0.595  -3.437  1.00  0.00    -0.051 Br
HETATM   25  C16 UNL     1       4.211  -0.077  -0.920  1.00  0.00     0.048 A 
ENDBRANCH  17  19
ENDBRANCH  10  17
BRANCH  15  26
HETATM   26  O2  UNL     1      -3.677  -1.294  -1.166  1.00  0.00    -0.376 OA
HETATM   27  H18 UNL     1      -4.285  -1.586  -0.411  1.00  0.00     0.212 HD
ENDBRANCH  15  26
BRANCH   1  28
HETATM   28  C2  UNL     1      -3.914   1.371  -0.893  1.00  0.00    -0.004 C 
HETATM   29  C1  UNL     1      -4.764   2.211  -0.366  1.00  0.00     0.037 C 
HETATM   30  C3  UNL     1      -3.785   1.282  -2.365  1.00  0.00     0.067 C 
ENDBRANCH   1  28
TORSDOF 4
