REMARK  2 active torsions:
REMARK  status: ('A' for Active; 'I' for Inactive)
REMARK    1  A    between atoms: O1_2  and  C2_3 
REMARK    2  A    between atoms: C12_16  and  C13_17 
ROOT
HETATM    1  C2  UNL     1      -0.611   1.534  -0.032  1.00  0.00     0.105 C 
HETATM    2  C3  UNL     1      -1.875   1.178  -0.316  1.00  0.00     0.057 C 
HETATM    3  C4  UNL     1      -2.563  -0.108  -0.106  1.00  0.00     0.037 A 
HETATM    4  C5  UNL     1      -3.931  -0.020  -0.313  1.00  0.00     0.046 A 
HETATM    5  C6  UNL     1      -4.557   1.266  -0.702  1.00  0.00     0.071 C 
HETATM    6  N1  UNL     1      -4.623  -1.160  -0.138  1.00  0.00    -0.246 NA
HETATM    7  C7  UNL     1      -4.042  -2.316   0.214  1.00  0.00     0.235 A 
HETATM    8  N2  UNL     1      -2.709  -2.443   0.425  1.00  0.00    -0.223 NA
HETATM    9  C8  UNL     1      -1.968  -1.319   0.260  1.00  0.00     0.143 A 
HETATM   10  N3  UNL     1      -0.577  -1.610   0.518  1.00  0.00    -0.333 N 
HETATM   11  C9  UNL     1      -0.237  -2.990   0.842  1.00  0.00     0.158 C 
HETATM   12  C10 UNL     1       0.476  -0.653   0.479  1.00  0.00     0.073 C 
HETATM   13  C11 UNL     1       1.666  -1.331   0.314  1.00  0.00     0.048 C 
HETATM   14  C12 UNL     1       2.914  -0.971  -0.150  1.00  0.00     0.050 C 
HETATM   15  C14 UNL     1       3.959  -0.290   0.448  1.00  0.00     0.016 C 
HETATM   16  C15 UNL     1       3.964   1.006   0.922  1.00  0.00     0.003 C 
HETATM   17  C16 UNL     1       3.230   1.554   1.948  1.00  0.00     0.025 C 
HETATM   18  C17 UNL     1       1.931   1.223   2.284  1.00  0.00     0.142 C 
HETATM   19  O2  UNL     1       1.295   1.498   1.175  1.00  0.00    -0.318 OA
HETATM   20  C18 UNL     1       0.452   0.723   0.576  1.00  0.00     0.135 C 
ENDROOT
BRANCH  14  21
HETATM   21  C13 UNL     1       3.229  -1.372  -1.547  1.00  0.00     0.417 C 
HETATM   22  F1  UNL     1       3.526  -0.223  -2.277  1.00  0.00    -0.166 F 
HETATM   23  F2  UNL     1       2.221  -2.046  -2.167  1.00  0.00    -0.166 F 
HETATM   24  F3  UNL     1       4.366  -2.161  -1.628  1.00  0.00    -0.166 F 
ENDBRANCH  14  21
BRANCH   1  25
HETATM   25  O1  UNL     1      -0.284   2.852  -0.368  1.00  0.00    -0.353 OA
HETATM   26  C1  UNL     1      -0.032   3.245  -1.701  1.00  0.00     0.210 C 
ENDBRANCH   1  25
TORSDOF 2
