REMARK  3 active torsions:
REMARK  status: ('A' for Active; 'I' for Inactive)
REMARK    1  A    between atoms: C10_11  and  C11_12 
REMARK    2  A    between atoms: C16_21  and  C17_22 
REMARK    3  A    between atoms: C17_22  and  O1_23 
ROOT
HETATM    1  C1  UNL     1      -4.545  -0.711   0.592  1.00  0.00     0.048 C 
HETATM    2  C2  UNL     1      -3.100  -0.383   0.733  1.00  0.00    -0.057 C 
HETATM    3  C3  UNL     1      -2.324  -1.366   0.299  1.00  0.00    -0.012 C 
HETATM    4  C4  UNL     1      -0.857  -1.217   0.350  1.00  0.00     0.038 C 
HETATM    5  C5  UNL     1      -0.197  -2.512   0.661  1.00  0.00     0.123 C 
HETATM    6  N1  UNL     1       1.183  -2.557   0.166  1.00  0.00    -0.420 N 
HETATM    7  C6  UNL     1       1.915  -2.610  -1.047  1.00  0.00     0.061 C 
HETATM    8  C7  UNL     1       2.540  -1.435  -1.357  1.00  0.00     0.069 A 
HETATM    9  C8  UNL     1       3.406  -0.831  -2.400  1.00  0.00     0.002 A 
HETATM   10  C9  UNL     1       3.117   0.087  -1.444  1.00  0.00     0.012 A 
HETATM   11  C10 UNL     1       3.547   1.587  -1.303  1.00  0.00     0.076 C 
HETATM   12  C12 UNL     1       2.774   1.637  -0.117  1.00  0.00     0.193 C 
HETATM   13  N2  UNL     1       1.912   0.946   0.813  1.00  0.00    -0.296 NA
HETATM   14  C13 UNL     1       0.697   0.657   0.321  1.00  0.00     0.093 C 
HETATM   15  C14 UNL     1      -0.343  -0.056   1.135  1.00  0.00     0.058 C 
HETATM   16  C15 UNL     1      -1.349   0.942   1.531  1.00  0.00    -0.006 C 
HETATM   17  C16 UNL     1      -2.671   0.848   1.375  1.00  0.00    -0.032 C 
HETATM   18  H8  UNL     1       1.915  -2.521   0.947  1.00  0.00     0.153 HD
ENDROOT
BRANCH  11  19
HETATM   19  C11 UNL     1       3.966   3.052  -1.166  1.00  0.00     0.394 C 
HETATM   20  F1  UNL     1       2.875   3.872  -1.142  1.00  0.00    -0.171 F 
HETATM   21  F2  UNL     1       4.697   3.403  -2.293  1.00  0.00    -0.171 F 
HETATM   22  F3  UNL     1       4.699   3.222  -0.024  1.00  0.00    -0.171 F 
ENDBRANCH  11  19
BRANCH  17  23
HETATM   23  C17 UNL     1      -3.671   1.858   1.757  1.00  0.00     0.203 C 
BRANCH  23  24
HETATM   24  O1  UNL     1      -4.364   2.245   0.580  1.00  0.00    -0.396 OA
HETATM   25  H19 UNL     1      -4.060   1.722  -0.207  1.00  0.00     0.209 HD
ENDBRANCH  23  24
ENDBRANCH  17  23
TORSDOF 3
