REMARK  2 active torsions:
REMARK  status: ('A' for Active; 'I' for Inactive)
REMARK    1  A    between atoms: B1_1  and  C1_2 
REMARK    2  A    between atoms: C1_2  and  C2_4 
ROOT
HETATM    1  C2  UNL     1       2.785  -1.331  -0.334  1.00  0.00    -0.001 C 
HETATM    2  C3  UNL     1       1.882  -2.066   0.022  1.00  0.00     0.104 C 
HETATM    3  F2  UNL     1       1.877  -3.354  -0.350  1.00  0.00    -0.210 F 
HETATM    4  C4  UNL     1       0.731  -2.121   0.919  1.00  0.00     0.097 C 
HETATM    5  C5  UNL     1      -0.600  -2.139   0.147  1.00  0.00     0.182 C 
HETATM    6  O1  UNL     1      -0.974  -0.956  -0.300  1.00  0.00    -0.352 OA
HETATM    7  C6  UNL     1      -1.695  -0.062  -0.896  1.00  0.00     0.078 C 
HETATM    8  C7  UNL     1      -1.917   0.450  -2.136  1.00  0.00     0.168 A 
HETATM    9  C8  UNL     1      -2.805   1.565  -2.540  1.00  0.00     0.140 A 
HETATM   10  N1  UNL     1      -2.632   1.713  -1.313  1.00  0.00    -0.354 N 
HETATM   11  C9  UNL     1      -3.099   2.690  -0.413  1.00  0.00     0.201 C 
HETATM   12  N2  UNL     1      -2.080   2.978   0.373  1.00  0.00    -0.271 NA
HETATM   13  C10 UNL     1      -0.773   2.445   0.356  1.00  0.00     0.149 C 
HETATM   14  B2  UNL     1      -0.662   1.343   1.772  1.00  0.00     0.215 B 
HETATM   15  C11 UNL     1      -1.960   0.025   1.590  1.00  0.00    -0.035 A 
HETATM   16  C12 UNL     1      -2.452   0.292   0.366  1.00  0.00    -0.019 A 
HETATM   17  O2  UNL     1      -3.168   0.624   1.593  1.00  0.00     0.000 OA
HETATM   18  C13 UNL     1      -4.467  -0.040   1.689  1.00  0.00     0.000 C 
HETATM   19  N3  UNL     1       0.228   3.424   0.668  1.00  0.00    -0.385 N 
HETATM   20  C14 UNL     1       1.537   3.038   0.174  1.00  0.00     0.084 C 
HETATM   21  C15 UNL     1       2.074   1.863  -0.040  1.00  0.00     0.017 C 
HETATM   22  C16 UNL     1       3.295   1.216  -0.505  1.00  0.00     0.002 C 
HETATM   23  C17 UNL     1       3.564  -0.057  -0.620  1.00  0.00     0.012 C 
HETATM   24  H15 UNL     1      -0.085   4.230   1.189  1.00  0.00     0.160 HD
ENDROOT
BRANCH   1  25
HETATM   25  C1  UNL     1       3.517  -2.383  -1.077  1.00  0.00     0.148 C 
HETATM   26  F1  UNL     1       4.789  -1.990  -1.473  1.00  0.00    -0.257 F 
BRANCH  25  27
HETATM   27  B1  UNL     1       3.796  -3.686  -0.184  1.00  0.00     0.184 B 
HETATM   28  H1  UNL     1       3.598  -3.719   0.958  1.00  0.00    -0.028 HD
HETATM   29  H2  UNL     1       4.300  -4.642  -0.686  1.00  0.00    -0.028 HD
ENDBRANCH  25  27
ENDBRANCH   1  25
TORSDOF 2
