REMARK  8 active torsions:
REMARK  status: ('A' for Active; 'I' for Inactive)
REMARK    1  A    between atoms: O1_2  and  C2_3 
REMARK    2  A    between atoms: C3_4  and  C4_5 
REMARK    3  A    between atoms: C5_6  and  C6_7 
REMARK    4  A    between atoms: C6_7  and  O2_8 
REMARK    5  A    between atoms: C9_13  and  N3_14 
REMARK    6  A    between atoms: C11_16  and  O3_17 
REMARK    7  A    between atoms: C13_19  and  O4_20 
REMARK    8  A    between atoms: C15_22  and  O5_23 
ROOT
HETATM    1  C4  UNL     1       1.964  -0.299   1.102  1.00  0.00     0.039 A 
HETATM    2  C5  UNL     1       3.189  -0.454   1.651  1.00  0.00     0.073 A 
HETATM    3  N1  UNL     1       3.273  -1.412   2.629  1.00  0.00    -0.243 NA
HETATM    4  C8  UNL     1       2.176  -2.114   2.968  1.00  0.00     0.235 A 
HETATM    5  N2  UNL     1       0.989  -1.905   2.375  1.00  0.00    -0.223 NA
HETATM    6  C9  UNL     1       0.824  -0.985   1.410  1.00  0.00     0.148 A 
ENDROOT
BRANCH   6   7
HETATM    7  N3  UNL     1      -0.399  -0.707   0.742  1.00  0.00    -0.305 N 
HETATM    8  C10 UNL     1      -1.102   0.336   1.425  1.00  0.00     0.134 A 
HETATM    9  C11 UNL     1      -2.293   0.768   0.971  1.00  0.00     0.097 A 
HETATM   10  C13 UNL     1      -2.937   0.204  -0.234  1.00  0.00     0.237 A 
HETATM   11  C15 UNL     1      -2.123  -0.858  -0.849  1.00  0.00     0.103 A 
HETATM   12  C17 UNL     1      -0.955  -1.297  -0.424  1.00  0.00     0.046 A 
HETATM   13  C18 UNL     1      -0.124  -2.349  -1.013  1.00  0.00     0.071 C 
BRANCH   9  14
HETATM   14  O3  UNL     1      -3.089   1.774   1.533  1.00  0.00    -0.356 OA
HETATM   15  C12 UNL     1      -2.478   2.743   2.385  1.00  0.00     0.209 C 
ENDBRANCH   9  14
BRANCH  10  16
HETATM   16  O4  UNL     1      -4.230  -0.264   0.032  1.00  0.00    -0.377 OA
HETATM   17  C14 UNL     1      -5.174   0.420  -0.749  1.00  0.00     0.203 C 
ENDBRANCH  10  16
BRANCH  11  18
HETATM   18  O5  UNL     1      -2.617  -1.473  -1.994  1.00  0.00    -0.355 OA
HETATM   19  C16 UNL     1      -3.428  -2.634  -1.752  1.00  0.00     0.209 C 
ENDBRANCH  11  18
ENDBRANCH   6   7
BRANCH   1  20
HETATM   20  C3  UNL     1       1.850   0.760   0.154  1.00  0.00     0.041 C 
HETATM   21  C2  UNL     1       2.352   1.764  -0.500  1.00  0.00     0.135 C 
BRANCH  21  22
HETATM   22  O1  UNL     1       2.239   2.779  -1.411  1.00  0.00    -0.368 OA
HETATM   23  C1  UNL     1       1.583   2.657  -2.679  1.00  0.00     0.208 C 
ENDBRANCH  21  22
ENDBRANCH   1  20
BRANCH   2  24
HETATM   24  C6  UNL     1       4.527   0.106   1.414  1.00  0.00     0.227 C 
BRANCH  24  25
HETATM   25  O2  UNL     1       5.227  -0.551   0.473  1.00  0.00    -0.390 OA
HETATM   26  C7  UNL     1       4.703  -0.615  -0.777  1.00  0.00     0.201 C 
ENDBRANCH  24  25
ENDBRANCH   2  24
TORSDOF 8
