REMARK  9 active torsions:
REMARK  status: ('A' for Active; 'I' for Inactive)
REMARK    1  A    between atoms: O1_2  and  C2_3 
REMARK    2  A    between atoms: C2_3  and  C3_4 
REMARK    3  A    between atoms: C4_5  and  O2_6 
REMARK    4  A    between atoms: O2_6  and  C5_7 
REMARK    5  A    between atoms: C5_7  and  O3_8 
REMARK    6  A    between atoms: C8_13  and  N3_14 
REMARK    7  A    between atoms: N3_14  and  C9_15 
REMARK    8  A    between atoms: C11_17  and  O4_18 
REMARK    9  A    between atoms: C14_21  and  O5_22 
ROOT
HETATM    1  C3  UNL     1      -2.507   0.615   0.315  1.00  0.00     0.018 A 
HETATM    2  C4  UNL     1      -3.452  -0.308   0.370  1.00  0.00     0.110 A 
HETATM    3  C6  UNL     1      -2.463  -1.210   0.942  1.00  0.00     0.107 A 
HETATM    4  N1  UNL     1      -2.207  -2.450   1.431  1.00  0.00    -0.238 NA
HETATM    5  C7  UNL     1      -0.986  -2.787   1.876  1.00  0.00     0.236 A 
HETATM    6  N2  UNL     1       0.005  -1.881   1.838  1.00  0.00    -0.223 NA
HETATM    7  C8  UNL     1      -0.221  -0.646   1.358  1.00  0.00     0.142 A 
HETATM    8  C17 UNL     1      -1.461  -0.232   0.884  1.00  0.00     0.053 A 
ENDROOT
BRANCH   7   9
HETATM    9  N3  UNL     1       0.747   0.390   1.229  1.00  0.00    -0.340 N 
HETATM   10  H10 UNL     1       0.564   1.348   1.578  1.00  0.00     0.167 HD
BRANCH   9  11
HETATM   11  C9  UNL     1       2.001   0.114   0.603  1.00  0.00     0.038 A 
HETATM   12  C10 UNL     1       2.383  -1.142   0.183  1.00  0.00     0.066 A 
HETATM   13  C11 UNL     1       3.574  -1.467  -0.442  1.00  0.00     0.073 A 
HETATM   14  C13 UNL     1       4.467  -0.413  -0.665  1.00  0.00     0.073 A 
HETATM   15  C14 UNL     1       4.113   0.859  -0.257  1.00  0.00     0.073 A 
HETATM   16  C16 UNL     1       2.909   1.106   0.362  1.00  0.00     0.066 A 
BRANCH  13  17
HETATM   17  O4  UNL     1       3.897  -2.753  -0.834  1.00  0.00    -0.356 OA
HETATM   18  C12 UNL     1       3.010  -3.826  -0.609  1.00  0.00     0.210 C 
ENDBRANCH  13  17
BRANCH  15  19
HETATM   19  O5  UNL     1       5.103   1.782  -0.556  1.00  0.00    -0.356 OA
HETATM   20  C15 UNL     1       4.972   3.131  -0.242  1.00  0.00     0.210 C 
ENDBRANCH  15  19
ENDBRANCH   9  11
ENDBRANCH   7   9
BRANCH   1  21
HETATM   21  C2  UNL     1      -2.373   2.030  -0.123  1.00  0.00     0.209 C 
BRANCH  21  22
HETATM   22  O1  UNL     1      -3.630   2.427  -0.594  1.00  0.00    -0.391 OA
HETATM   23  C1  UNL     1      -3.472   3.772  -0.999  1.00  0.00     0.201 C 
ENDBRANCH  21  22
ENDBRANCH   1  21
BRANCH   2  24
HETATM   24  O2  UNL     1      -4.800  -0.476   0.061  1.00  0.00    -0.323 OA
BRANCH  24  25
HETATM   25  C5  UNL     1      -5.286  -1.691  -0.487  1.00  0.00     0.341 C 
BRANCH  25  26
HETATM   26  O3  UNL     1      -6.591  -1.458  -0.912  1.00  0.00    -0.377 OA
HETATM   27  H8  UNL     1      -6.636  -1.477  -1.920  1.00  0.00     0.212 HD
ENDBRANCH  25  26
ENDBRANCH  24  25
ENDBRANCH   2  24
TORSDOF 9
