REMARK  7 active torsions:
REMARK  status: ('A' for Active; 'I' for Inactive)
REMARK    1  A    between atoms: O1_2  and  C2_3 
REMARK    2  A    between atoms: C4_5  and  N1_6 
REMARK    3  A    between atoms: N1_6  and  C5_7 
REMARK    4  A    between atoms: C9_13  and  O2_14 
REMARK    5  A    between atoms: C11_16  and  O3_17 
REMARK    6  A    between atoms: C16_22  and  O4_23 
REMARK    7  A    between atoms: C16_22  and  O5_25 
ROOT
HETATM    1  C5  UNL     1       0.803   0.484  -0.201  1.00  0.00     0.142 A 
HETATM    2  N2  UNL     1       0.237   1.619  -0.650  1.00  0.00    -0.224 NA
HETATM    3  C6  UNL     1       1.058   2.677  -0.918  1.00  0.00     0.236 A 
HETATM    4  N3  UNL     1       2.406   2.584  -0.737  1.00  0.00    -0.241 NA
HETATM    5  C7  UNL     1       2.948   1.428  -0.284  1.00  0.00     0.075 A 
HETATM    6  C8  UNL     1       4.296   1.302  -0.091  1.00  0.00     0.072 A 
HETATM    7  C9  UNL     1       4.911   0.156   0.367  1.00  0.00     0.103 A 
HETATM    8  C11 UNL     1       4.107  -0.929   0.647  1.00  0.00     0.102 A 
HETATM    9  C13 UNL     1       2.735  -0.818   0.457  1.00  0.00     0.057 A 
HETATM   10  C14 UNL     1       2.162   0.342  -0.002  1.00  0.00     0.042 A 
ENDROOT
BRANCH   1  11
HETATM   11  N1  UNL     1      -0.068  -0.581   0.065  1.00  0.00    -0.340 N 
HETATM   12  H5  UNL     1       0.046  -1.540   0.404  1.00  0.00     0.167 HD
BRANCH  11  13
HETATM   13  C4  UNL     1      -1.475  -0.416  -0.147  1.00  0.00     0.038 A 
HETATM   14  C3  UNL     1      -2.403  -1.128  -1.019  1.00  0.00     0.067 A 
HETATM   15  C2  UNL     1      -3.634  -0.624  -0.883  1.00  0.00     0.114 A 
HETATM   16  C16 UNL     1      -3.652   0.505   0.116  1.00  0.00     0.236 A 
HETATM   17  C15 UNL     1      -2.198   0.515   0.497  1.00  0.00     0.077 A 
BRANCH  15  18
HETATM   18  O1  UNL     1      -4.579  -1.271  -1.701  1.00  0.00    -0.354 OA
HETATM   19  C1  UNL     1      -4.806  -2.674  -1.585  1.00  0.00     0.209 C 
ENDBRANCH  15  18
BRANCH  16  20
HETATM   20  O4  UNL     1      -4.453   0.248   1.204  1.00  0.00    -0.351 OA
HETATM   21  C17 UNL     1      -5.783   0.213   0.806  1.00  0.00     0.206 C 
ENDBRANCH  16  20
BRANCH  16  22
HETATM   22  O5  UNL     1      -3.926   1.704  -0.504  1.00  0.00    -0.351 OA
HETATM   23  C18 UNL     1      -3.757   2.767   0.357  1.00  0.00     0.206 C 
ENDBRANCH  16  22
ENDBRANCH  11  13
ENDBRANCH   1  11
BRANCH   8  24
HETATM   24  O3  UNL     1       4.674  -2.108   1.111  1.00  0.00    -0.353 OA
HETATM   25  C12 UNL     1       3.862  -3.228   1.402  1.00  0.00     0.210 C 
ENDBRANCH   8  24
BRANCH   7  26
HETATM   26  O2  UNL     1       6.275   0.005   0.570  1.00  0.00    -0.353 OA
HETATM   27  C10 UNL     1       7.185   1.081   0.305  1.00  0.00     0.210 C 
ENDBRANCH   7  26
TORSDOF 7
