REMARK  3 active torsions:
REMARK  status: ('A' for Active; 'I' for Inactive)
REMARK    1  A    between atoms: O1_2  and  C2_3 
REMARK    2  A    between atoms: C6_7  and  O2_8 
REMARK    3  A    between atoms: C9_11  and  O3_12 
ROOT
HETATM    1  C2  UNL     1       2.883   0.131  -0.376  1.00  0.00     0.137 A 
HETATM    2  C3  UNL     1       2.617   0.012  -1.650  1.00  0.00    -0.013 C 
HETATM    3  C4  UNL     1       1.746  -0.973  -1.804  1.00  0.00    -0.009 C 
HETATM    4  C5  UNL     1       0.383  -0.530  -1.891  1.00  0.00     0.092 C 
HETATM    5  C6  UNL     1      -0.433  -1.618  -1.169  1.00  0.00     0.051 C 
HETATM    6  C8  UNL     1      -1.544  -1.539  -0.403  1.00  0.00     0.069 C 
HETATM    7  C9  UNL     1      -2.622  -0.794   0.235  1.00  0.00     0.066 C 
HETATM    8  C11 UNL     1      -2.960   0.513   0.220  1.00  0.00     0.011 C 
HETATM    9  C12 UNL     1      -2.698   1.912  -0.262  1.00  0.00     0.052 C 
HETATM   10  C13 UNL     1      -2.321   2.759   0.891  1.00  0.00     0.154 C 
HETATM   11  N1  UNL     1      -2.097   4.139   0.651  1.00  0.00    -0.285 NA
HETATM   12  C14 UNL     1      -1.215   4.552  -0.175  1.00  0.00     0.190 C 
HETATM   13  N2  UNL     1      -0.431   3.570  -0.876  1.00  0.00    -0.383 NA
HETATM   14  C15 UNL     1       0.414   2.831  -0.282  1.00  0.00     0.282 C 
HETATM   15  C16 UNL     1       1.349   2.034   0.459  1.00  0.00     0.008 C 
HETATM   16  C17 UNL     1       1.922   1.173  -0.359  1.00  0.00     0.049 A 
HETATM   17  O4  UNL     1       2.440   0.988   0.949  1.00  0.00     0.000 OA
HETATM   18  C18 UNL     1       1.930   0.181   1.980  1.00  0.00     0.000 C 
ENDROOT
BRANCH   1  19
HETATM   19  O1  UNL     1       3.830  -0.843  -0.221  1.00  0.00    -0.375 OA
HETATM   20  C1  UNL     1       5.116  -0.747  -0.825  1.00  0.00     0.203 C 
ENDBRANCH   1  19
BRANCH   5  21
HETATM   21  O2  UNL     1       0.152  -2.833  -1.413  1.00  0.00    -0.360 OA
HETATM   22  C7  UNL     1      -0.201  -4.067  -0.852  1.00  0.00     0.209 C 
ENDBRANCH   5  21
BRANCH   7  23
HETATM   23  O3  UNL     1      -3.517  -1.526   1.036  1.00  0.00    -0.356 OA
HETATM   24  C10 UNL     1      -3.014  -2.296   2.083  1.00  0.00     0.210 C 
ENDBRANCH   7  23
TORSDOF 3
