REMARK  7 active torsions:
REMARK  status: ('A' for Active; 'I' for Inactive)
REMARK    1  A    between atoms: O1_2  and  C2_3 
REMARK    2  A    between atoms: C2_3  and  C3_4 
REMARK    3  A    between atoms: C6_7  and  N1_8 
REMARK    4  A    between atoms: N1_8  and  C7_9 
REMARK    5  A    between atoms: C11_13  and  O2_14 
REMARK    6  A    between atoms: C17_23  and  N4_24 
REMARK    7  A    between atoms: N4_24  and  O4_25 
ROOT
HETATM    1  C3  UNL     1      -3.069  -0.012  -0.333  1.00  0.00    -0.005 A 
HETATM    2  C4  UNL     1      -1.694   0.056  -0.243  1.00  0.00     0.029 A 
HETATM    3  C5  UNL     1      -1.001  -1.046   0.214  1.00  0.00     0.039 A 
HETATM    4  C6  UNL     1       0.366  -0.898   0.275  1.00  0.00     0.142 A 
HETATM    5  N2  UNL     1       1.087  -1.949   0.716  1.00  0.00    -0.224 NA
HETATM    6  C14 UNL     1       0.522  -3.110   1.089  1.00  0.00     0.236 A 
HETATM    7  N3  UNL     1      -0.824  -3.239   1.023  1.00  0.00    -0.241 NA
HETATM    8  C15 UNL     1      -1.602  -2.228   0.592  1.00  0.00     0.074 A 
HETATM    9  C16 UNL     1      -2.972  -2.269   0.492  1.00  0.00     0.064 A 
HETATM   10  C17 UNL     1      -3.709  -1.193   0.041  1.00  0.00     0.065 A 
ENDROOT
BRANCH   4  11
HETATM   11  N1  UNL     1       1.135   0.246  -0.075  1.00  0.00    -0.340 N 
HETATM   12  H7  UNL     1       0.817   1.166  -0.435  1.00  0.00     0.167 HD
BRANCH  11  13
HETATM   13  C7  UNL     1       2.562   0.333   0.013  1.00  0.00     0.032 A 
HETATM   14  C8  UNL     1       3.306  -0.657  -0.459  1.00  0.00     0.008 A 
HETATM   15  C9  UNL     1       4.775  -0.795  -0.482  1.00  0.00     0.076 A 
HETATM   16  C10 UNL     1       5.402   0.403   0.135  1.00  0.00     0.038 A 
HETATM   17  C11 UNL     1       6.511   1.031   0.483  1.00  0.00     0.193 A 
HETATM   18  C12 UNL     1       4.594   1.514   0.665  1.00  0.00     0.091 A 
HETATM   19  O3  UNL     1       5.807   2.111   1.001  1.00  0.00    -0.287 OA
HETATM   20  C13 UNL     1       3.287   1.470   0.603  1.00  0.00     0.067 A 
BRANCH  17  21
HETATM   21  O2  UNL     1       7.859   0.664   0.341  1.00  0.00    -0.340 OA
HETATM   22  H11 UNL     1       8.430   1.202  -0.298  1.00  0.00     0.220 HD
ENDBRANCH  17  21
ENDBRANCH  11  13
ENDBRANCH   4  11
BRANCH   1  23
HETATM   23  C2  UNL     1      -3.833   1.180  -0.828  1.00  0.00     0.208 C 
BRANCH  23  24
HETATM   24  O1  UNL     1      -2.965   2.200  -1.125  1.00  0.00    -0.391 OA
HETATM   25  C1  UNL     1      -3.714   3.284  -1.580  1.00  0.00     0.201 C 
ENDBRANCH  23  24
ENDBRANCH   1  23
BRANCH  10  26
HETATM   26  N4  UNL     1      -5.130  -1.273  -0.049  1.00  0.00    -0.269 N 
HETATM   27  H15 UNL     1      -5.260  -1.631  -1.020  1.00  0.00     0.194 HD
BRANCH  26  28
HETATM   28  O4  UNL     1      -5.547  -0.842   1.168  1.00  0.00    -0.289 OA
HETATM   29  H16 UNL     1      -6.529  -0.741   1.209  1.00  0.00     0.244 HD
ENDBRANCH  26  28
ENDBRANCH  10  26
TORSDOF 7
