REMARK  3 active torsions:
REMARK  status: ('A' for Active; 'I' for Inactive)
REMARK    1  A    between atoms: O1_1  and  C1_2 
REMARK    2  A    between atoms: N3_9  and  C6_10 
REMARK    3  A    between atoms: C6_10  and  C7_11 
ROOT
HETATM    1  C1  UNL     1      -0.895   3.011   2.365  1.00  0.00     0.074 C 
HETATM    2  C2  UNL     1      -1.813   3.513   1.532  1.00  0.00     0.056 C 
HETATM    3  C3  UNL     1      -2.767   3.697   0.418  1.00  0.00     0.120 C 
HETATM    4  N1  UNL     1      -2.358   2.540   0.183  1.00  0.00    -0.254 NA
HETATM    5  C4  UNL     1      -2.689   1.636  -0.840  1.00  0.00     0.228 C 
HETATM    6  N2  UNL     1      -2.576   0.409  -1.032  1.00  0.00    -0.253 NA
HETATM    7  C5  UNL     1      -2.010  -0.630  -0.194  1.00  0.00     0.422 C 
HETATM    8  N3  UNL     1      -0.568  -0.708  -0.370  1.00  0.00     0.112 N 
HETATM    9  C13 UNL     1       0.164  -0.704   0.876  1.00  0.00     0.285 C 
HETATM   10  C14 UNL     1       0.052   0.527   1.702  1.00  0.00     0.061 A 
HETATM   11  C15 UNL     1      -0.261   1.711   2.208  1.00  0.00    -0.009 A 
HETATM   12  O2  UNL     1       0.682   1.118   3.035  1.00  0.00     0.000 OA
HETATM   13  H16 UNL     1       1.291   1.735   3.567  1.00  0.00     0.000 HD
ENDROOT
BRANCH   8  14
HETATM   14  C6  UNL     1      -0.307  -2.052  -0.938  1.00  0.00     0.313 C 
BRANCH  14  15
HETATM   15  C7  UNL     1       1.074  -2.247  -1.362  1.00  0.00    -0.030 A 
HETATM   16  C8  UNL     1       2.115  -2.773  -0.627  1.00  0.00     0.010 A 
HETATM   17  C9  UNL     1       3.410  -2.883  -1.184  1.00  0.00     0.024 A 
HETATM   18  C10 UNL     1       3.622  -2.453  -2.486  1.00  0.00     0.034 A 
HETATM   19 CL1  UNL     1       5.243  -2.587  -3.172  1.00  0.00    -0.084 Cl
HETATM   20  C11 UNL     1       2.588  -1.920  -3.242  1.00  0.00     0.024 A 
HETATM   21  C12 UNL     1       1.309  -1.816  -2.681  1.00  0.00     0.010 A 
ENDBRANCH  14  15
ENDBRANCH   8  14
BRANCH   1  22
HETATM   22  O1  UNL     1      -0.292   3.530   3.549  1.00  0.00    -0.360 OA
HETATM   23  H1  UNL     1      -0.038   4.494   3.542  1.00  0.00     0.217 HD
ENDBRANCH   1  22
TORSDOF 3
