REMARK  4 active torsions:
REMARK  status: ('A' for Active; 'I' for Inactive)
REMARK    1  A    between atoms: O1_2  and  C2_3 
REMARK    2  A    between atoms: C6_10  and  N3_11 
REMARK    3  A    between atoms: N3_11  and  C8_13 
REMARK    4  A    between atoms: C16_22  and  O2_23 
ROOT
HETATM    1  C2  UNL     1       3.705  -0.710  -0.193  1.00  0.00     0.089 A 
HETATM    2  C3  UNL     1       3.068  -1.118  -1.305  1.00  0.00    -0.012 A 
HETATM    3  B1  UNL     1       1.556  -1.437  -1.488  1.00  0.00     0.333 B 
HETATM    4  N1  UNL     1       0.827  -1.148  -2.808  1.00  0.00    -0.428 N 
HETATM    5  C4  UNL     1      -0.467  -0.510  -2.850  1.00  0.00     0.187 C 
HETATM    6  N2  UNL     1      -1.013  -0.179  -1.754  1.00  0.00    -0.249 NA
HETATM    7  C5  UNL     1      -0.496  -0.364  -0.449  1.00  0.00     0.052 C 
HETATM    8  C6  UNL     1      -1.087   0.318   0.523  1.00  0.00     0.117 C 
HETATM    9  C14 UNL     1       0.633  -1.260  -0.185  1.00  0.00     0.054 A 
HETATM   10  C15 UNL     1       1.535  -0.810   0.903  1.00  0.00     0.016 A 
HETATM   11  C16 UNL     1       2.823  -0.563   0.965  1.00  0.00     0.096 A 
HETATM   12  H5  UNL     1       1.377  -1.466  -3.660  1.00  0.00     0.139 HD
ENDROOT
BRANCH   8  13
HETATM   13  N3  UNL     1      -2.173   1.184   0.291  1.00  0.00    -0.359 N 
HETATM   14  C7  UNL     1      -1.971   2.615   0.287  1.00  0.00     0.156 C 
BRANCH  13  15
HETATM   15  C8  UNL     1      -3.489   0.696   0.055  1.00  0.00     0.033 A 
HETATM   16  C9  UNL     1      -4.502   1.609  -0.164  1.00  0.00     0.031 A 
HETATM   17  C10 UNL     1      -5.800   1.143  -0.397  1.00  0.00     0.026 A 
HETATM   18  C11 UNL     1      -6.036  -0.231  -0.402  1.00  0.00     0.034 A 
HETATM   19 CL1  UNL     1      -7.689  -0.743  -0.701  1.00  0.00    -0.084 Cl
HETATM   20  C12 UNL     1      -5.025  -1.139  -0.183  1.00  0.00     0.026 A 
HETATM   21  C13 UNL     1      -3.750  -0.672   0.045  1.00  0.00     0.031 A 
ENDBRANCH  13  15
ENDBRANCH   8  13
BRANCH  11  22
HETATM   22  O2  UNL     1       3.364  -0.146   2.174  1.00  0.00    -0.353 OA
HETATM   23  C17 UNL     1       4.003   1.104   2.366  1.00  0.00     0.210 C 
ENDBRANCH  11  22
BRANCH   1  24
HETATM   24  O1  UNL     1       5.042  -0.452  -0.122  1.00  0.00    -0.354 OA
HETATM   25  C1  UNL     1       5.995  -1.291   0.491  1.00  0.00     0.210 C 
ENDBRANCH   1  24
TORSDOF 4
