REMARK  5 active torsions:
REMARK  status: ('A' for Active; 'I' for Inactive)
REMARK    1  A    between atoms: C2_2  and  C3_3 
REMARK    2  A    between atoms: C6_6  and  N1_7 
REMARK    3  A    between atoms: C9_10  and  O1_11 
REMARK    4  A    between atoms: C13_15  and  O2_16 
REMARK    5  A    between atoms: C18_23  and  O3_24 
ROOT
HETATM    1  C3  UNL     1      -2.673   0.283  -0.694  1.00  0.00    -0.024 A 
HETATM    2  C4  UNL     1      -1.402   0.118  -0.200  1.00  0.00     0.027 A 
HETATM    3  C5  UNL     1      -1.096   0.449   1.084  1.00  0.00     0.040 A 
HETATM    4  C6  UNL     1       0.222   0.237   1.412  1.00  0.00     0.147 A 
HETATM    5  N2  UNL     1       0.522   0.592   2.690  1.00  0.00    -0.223 NA
HETATM    6  C15 UNL     1      -0.377   1.097   3.547  1.00  0.00     0.236 A 
HETATM    7  N3  UNL     1      -1.673   1.280   3.157  1.00  0.00    -0.241 NA
HETATM    8  C16 UNL     1      -2.054   0.961   1.924  1.00  0.00     0.074 A 
HETATM    9  C17 UNL     1      -3.324   1.121   1.416  1.00  0.00     0.070 A 
HETATM   10  C18 UNL     1      -3.691   0.799   0.116  1.00  0.00     0.076 A 
ENDROOT
BRANCH   4  11
HETATM   11  N1  UNL     1       1.311  -0.336   0.721  1.00  0.00    -0.314 N 
HETATM   12  C7  UNL     1       2.582   0.223   1.174  1.00  0.00     0.101 C 
HETATM   13  C8  UNL     1       3.862   0.309   0.762  1.00  0.00     0.054 C 
HETATM   14  C9  UNL     1       4.521  -0.195  -0.446  1.00  0.00     0.066 C 
HETATM   15  C11 UNL     1       4.058  -0.756  -1.551  1.00  0.00     0.016 C 
HETATM   16  C12 UNL     1       2.850  -1.206  -2.269  1.00  0.00     0.095 C 
HETATM   17  C13 UNL     1       1.769  -1.710  -1.393  1.00  0.00     0.062 C 
HETATM   18  C14 UNL     1       1.195  -1.365  -0.255  1.00  0.00     0.130 C 
BRANCH  14  19
HETATM   19  O1  UNL     1       5.901  -0.049  -0.413  1.00  0.00    -0.356 OA
HETATM   20  C10 UNL     1       6.623   0.805   0.412  1.00  0.00     0.210 C 
ENDBRANCH  14  19
BRANCH  17  21
HETATM   21  O2  UNL     1       1.156  -2.878  -1.866  1.00  0.00    -0.363 OA
HETATM   22  H15 UNL     1       1.403  -3.188  -2.796  1.00  0.00     0.217 HD
ENDBRANCH  17  21
ENDBRANCH   4  11
BRANCH   1  23
HETATM   23  C2  UNL     1      -3.092  -0.057  -2.095  1.00  0.00     0.037 C 
HETATM   24  C1  UNL     1      -3.875  -1.351  -2.046  1.00  0.00     0.010 C 
ENDBRANCH   1  23
BRANCH  10  25
HETATM   25  O3  UNL     1      -4.969   0.973  -0.357  1.00  0.00    -0.355 OA
HETATM   26  C19 UNL     1      -6.041   1.489   0.416  1.00  0.00     0.210 C 
ENDBRANCH  10  25
TORSDOF 5
