REMARK  7 active torsions:
REMARK  status: ('A' for Active; 'I' for Inactive)
REMARK    1  A    between atoms: O1_2  and  C2_3 
REMARK    2  A    between atoms: C3_4  and  O2_5 
REMARK    3  A    between atoms: C5_7  and  O3_8 
REMARK    4  A    between atoms: C7_10  and  N1_11 
REMARK    5  A    between atoms: N1_11  and  C8_12 
REMARK    6  A    between atoms: C12_18  and  O4_19 
REMARK    7  A    between atoms: C14_21  and  O5_22 
ROOT
HETATM    1  C8  UNL     1       0.823   1.358  -1.229  1.00  0.00     0.140 C 
HETATM    2  N2  UNL     1       0.572   2.677  -1.337  1.00  0.00    -0.224 NA
HETATM    3  C9  UNL     1       1.356   3.753  -1.156  1.00  0.00     0.234 C 
HETATM    4  N3  UNL     1       2.523   3.825  -0.492  1.00  0.00    -0.253 NA
HETATM    5  C10 UNL     1       3.254   2.862   0.098  1.00  0.00     0.133 C 
HETATM    6  C11 UNL     1       3.110   1.487  -0.086  1.00  0.00     0.032 A 
HETATM    7  C12 UNL     1       3.973   0.451   0.255  1.00  0.00     0.114 A 
HETATM    8  C14 UNL     1       3.399  -0.744  -0.125  1.00  0.00     0.103 A 
HETATM    9  C16 UNL     1       2.152  -0.553  -0.725  1.00  0.00     0.056 A 
HETATM   10  C17 UNL     1       1.974   0.813  -0.702  1.00  0.00     0.027 A 
ENDROOT
BRANCH   1  11
HETATM   11  N1  UNL     1      -0.246   0.571  -1.731  1.00  0.00    -0.341 N 
HETATM   12  H10 UNL     1      -0.289   0.221  -2.732  1.00  0.00     0.167 HD
BRANCH  11  13
HETATM   13  C7  UNL     1      -1.376   0.155  -0.979  1.00  0.00     0.053 A 
HETATM   14  C5  UNL     1      -2.075  -0.954  -0.855  1.00  0.00     0.127 A 
HETATM   15  C3  UNL     1      -3.183  -0.788   0.111  1.00  0.00     0.133 A 
HETATM   16  C2  UNL     1      -3.126   0.459   0.566  1.00  0.00     0.087 A 
HETATM   17  C18 UNL     1      -1.986   1.168  -0.074  1.00  0.00     0.127 A 
BRANCH  14  18
HETATM   18  O3  UNL     1      -1.733  -2.081  -1.586  1.00  0.00    -0.351 OA
HETATM   19  C6  UNL     1      -2.688  -2.900  -2.212  1.00  0.00     0.210 C 
ENDBRANCH  14  18
BRANCH  15  20
HETATM   20  O2  UNL     1      -4.091  -1.779   0.451  1.00  0.00    -0.351 OA
HETATM   21  C4  UNL     1      -4.255  -2.294   1.748  1.00  0.00     0.210 C 
ENDBRANCH  15  20
BRANCH  16  22
HETATM   22  O1  UNL     1      -3.829   1.250   1.454  1.00  0.00    -0.357 OA
HETATM   23  C1  UNL     1      -4.718   2.277   1.076  1.00  0.00     0.209 C 
ENDBRANCH  16  22
ENDBRANCH  11  13
ENDBRANCH   1  11
BRANCH   7  24
HETATM   24  O4  UNL     1       5.184   0.693   0.873  1.00  0.00    -0.352 OA
HETATM   25  C13 UNL     1       5.238   0.724   2.288  1.00  0.00     0.210 C 
ENDBRANCH   7  24
BRANCH   8  26
HETATM   26  O5  UNL     1       4.045  -1.952   0.095  1.00  0.00    -0.353 OA
HETATM   27  C15 UNL     1       3.538  -3.205  -0.259  1.00  0.00     0.210 C 
ENDBRANCH   8  26
TORSDOF 7
