REMARK  2 active torsions:
REMARK  status: ('A' for Active; 'I' for Inactive)
REMARK    1  A    between atoms: O1_2  and  C2_3 
REMARK    2  A    between atoms: C10_14  and  O2_15 
ROOT
HETATM    1  C2  UNL     1       2.614  -0.618   0.231  1.00  0.00     0.101 C 
HETATM    2  C3  UNL     1       2.672  -1.941   0.429  1.00  0.00     0.033 C 
HETATM    3  C4  UNL     1       1.604  -2.783  -0.204  1.00  0.00     0.159 C 
HETATM    4  N1  UNL     1       0.863  -2.016  -1.162  1.00  0.00    -0.345 N 
HETATM    5  C5  UNL     1      -0.551  -2.184  -1.189  1.00  0.00     0.205 C 
HETATM    6  N2  UNL     1      -1.053  -1.693  -0.080  1.00  0.00    -0.265 NA
HETATM    7  C6  UNL     1      -2.514  -1.804   0.018  1.00  0.00     0.273 C 
HETATM    8  N3  UNL     1      -3.071  -0.514   0.454  1.00  0.00    -0.377 N 
HETATM    9  C7  UNL     1      -4.523  -0.494   0.552  1.00  0.00     0.150 C 
HETATM   10  C8  UNL     1      -2.277   0.615   0.763  1.00  0.00     0.085 C 
HETATM   11  C9  UNL     1      -1.605   1.492   1.471  1.00  0.00     0.025 C 
HETATM   12  C10 UNL     1      -0.891   2.665   0.840  1.00  0.00     0.167 C 
HETATM   13  C11 UNL     1       0.139   2.238  -0.109  1.00  0.00     0.040 C 
HETATM   14  C12 UNL     1       0.979   1.962  -1.073  1.00  0.00     0.049 C 
HETATM   15  C13 UNL     1       0.430   2.797  -2.152  1.00  0.00     0.076 C 
HETATM   16  O3  UNL     1       2.102   1.195  -1.326  1.00  0.00    -0.311 OA
HETATM   17  C14 UNL     1       2.169  -0.163  -1.106  1.00  0.00     0.124 C 
HETATM   18  C15 UNL     1       1.928  -1.284  -1.808  1.00  0.00     0.132 C 
ENDROOT
BRANCH   1  19
HETATM   19  O1  UNL     1       2.972   0.243   1.281  1.00  0.00    -0.353 OA
HETATM   20  C1  UNL     1       3.893  -0.243   2.221  1.00  0.00     0.210 C 
ENDBRANCH   1  19
BRANCH  12  21
HETATM   21  O2  UNL     1      -1.887   3.444   0.199  1.00  0.00    -0.388 OA
HETATM   22  H16 UNL     1      -1.514   4.277  -0.137  1.00  0.00     0.210 HD
ENDBRANCH  12  21
TORSDOF 2
