REMARK  3 active torsions:
REMARK  status: ('A' for Active; 'I' for Inactive)
REMARK    1  A    between atoms: N1_2  and  C2_3 
REMARK    2  A    between atoms: C10_12  and  C11_13 
REMARK    3  A    between atoms: C11_13  and  C12_14 
ROOT
HETATM    1  C12 UNL     1      -4.660   0.676   0.551  1.00  0.00    -0.013 C 
HETATM    2  C13 UNL     1      -5.673   0.974  -0.251  1.00  0.00     0.160 C 
HETATM    3 BR1  UNL     1      -7.226   1.369  -1.325  1.00  0.00    -0.172 Br
ENDROOT
BRANCH   1   4
HETATM    4  C11 UNL     1      -3.262   0.898   0.088  1.00  0.00     0.089 C 
BRANCH   4   5
HETATM    5  C10 UNL     1      -2.575  -0.421   0.110  1.00  0.00     0.070 A 
HETATM    6  C9  UNL     1      -1.241  -0.551  -0.279  1.00  0.00     0.107 A 
HETATM    7  N2  UNL     1      -0.683   0.684  -0.672  1.00  0.00    -0.380 N 
HETATM    8  C15 UNL     1      -0.610  -1.766  -0.257  1.00  0.00     0.200 A 
HETATM    9  C8  UNL     1       0.531   1.063  -1.314  1.00  0.00     0.161 C 
HETATM   10  H8  UNL     1      -1.256   1.532  -0.464  1.00  0.00     0.160 HD
HETATM   11  C6  UNL     1       1.687   0.170  -1.017  1.00  0.00    -0.004 A 
HETATM   12  C5  UNL     1       1.781  -1.183  -0.710  1.00  0.00     0.086 A 
HETATM   13  C7  UNL     1       2.906   0.846  -1.060  1.00  0.00     0.043 A 
HETATM   14  C4  UNL     1       3.002  -1.777  -0.472  1.00  0.00     0.040 A 
HETATM   15  O1  UNL     1       0.703  -2.057  -0.611  1.00  0.00    -0.289 OA
HETATM   16  C3  UNL     1       4.189  -1.039  -0.532  1.00  0.00     0.034 A 
HETATM   17  C2  UNL     1       4.150   0.305  -0.832  1.00  0.00     0.056 A 
HETATM   18  N4  UNL     1      -1.247  -2.899   0.142  1.00  0.00    -0.215 NA
HETATM   19  C14 UNL     1      -2.542  -2.717   0.510  1.00  0.00     0.236 A 
HETATM   20  N3  UNL     1      -3.173  -1.543   0.495  1.00  0.00    -0.244 NA
BRANCH  17  21
HETATM   21  N1  UNL     1       5.302   1.128  -0.913  1.00  0.00    -0.272 NA
HETATM   22  C1  UNL     1       5.806   1.528   0.225  1.00  0.00     0.149 C 
ENDBRANCH  17  21
ENDBRANCH   4   5
ENDBRANCH   1   4
TORSDOF 3
