REMARK  6 active torsions:
REMARK  status: ('A' for Active; 'I' for Inactive)
REMARK    1  A    between atoms: C2_2  and  C4_5 
REMARK    2  A    between atoms: C4_5  and  O2_19 
REMARK    3  A    between atoms: C5_6  and  C6_7 
REMARK    4  A    between atoms: C8_11  and  N3_12 
REMARK    5  A    between atoms: N3_12  and  C10_14 
REMARK    6  A    between atoms: C10_14  and  C11_15 
ROOT
HETATM    1  C6  UNL     1       0.118   1.237  -0.721  1.00  0.00     0.082 A 
HETATM    2  N1  UNL     1       1.103   2.013  -0.480  1.00  0.00    -0.243 NA
HETATM    3  C7  UNL     1       0.732   3.149   0.237  1.00  0.00     0.230 A 
HETATM    4  N2  UNL     1      -0.512   3.104   0.462  1.00  0.00    -0.251 NA
HETATM    5  C8  UNL     1      -1.052   1.860  -0.128  1.00  0.00     0.258 A 
ENDROOT
BRANCH   1   6
HETATM    6  C5  UNL     1       0.542   0.076  -1.466  1.00  0.00     0.068 C 
HETATM    7  C4  UNL     1       1.659  -0.401  -1.950  1.00  0.00     0.077 C 
BRANCH   7   8
HETATM    8  C2  UNL     1       2.982   0.191  -1.857  1.00  0.00    -0.015 A 
HETATM    9  C1  UNL     1       4.072  -0.391  -2.405  1.00  0.00     0.047 A 
HETATM   10  O1  UNL     1       4.120   0.935  -1.640  1.00  0.00     0.000 OA
HETATM   11  C3  UNL     1       4.519   1.213  -0.295  1.00  0.00     0.000 C 
ENDBRANCH   7   8
BRANCH   7  12
HETATM   12  O2  UNL     1       1.623  -1.609  -2.639  1.00  0.00    -0.355 OA
HETATM   13  C14 UNL     1       1.792  -2.794  -1.891  1.00  0.00     0.210 C 
ENDBRANCH   7  12
ENDBRANCH   1   6
BRANCH   5  14
HETATM   14  N3  UNL     1      -1.696   1.113   0.895  1.00  0.00    -0.386 N 
HETATM   15  C9  UNL     1      -2.879   1.658   1.460  1.00  0.00     0.146 C 
BRANCH  14  16
HETATM   16  C10 UNL     1      -1.789  -0.304   0.729  1.00  0.00     0.169 C 
BRANCH  16  17
HETATM   17  C11 UNL     1      -2.508  -0.911   1.916  1.00  0.00     0.025 C 
HETATM   18 CL1  UNL     1      -1.790  -0.664   3.499  1.00  0.00    -0.088 Cl
HETATM   19  C12 UNL     1      -3.635  -1.596   1.769  1.00  0.00    -0.010 C 
HETATM   20  C13 UNL     1      -4.351  -2.198   2.930  1.00  0.00     0.037 C 
ENDBRANCH  16  17
ENDBRANCH  14  16
ENDBRANCH   5  14
TORSDOF 6
