REMARK  7 active torsions:
REMARK  status: ('A' for Active; 'I' for Inactive)
REMARK    1  A    between atoms: C2_2  and  C3_3 
REMARK    2  A    between atoms: C2_2  and  P1_6 
REMARK    3  A    between atoms: C3_3  and  O1_4 
REMARK    4  A    between atoms: P1_6  and  C5_7 
REMARK    5  A    between atoms: C5_7  and  C6_8 
REMARK    6  A    between atoms: C6_8  and  C7_9 
REMARK    7  A    between atoms: C11_15  and  O2_16 
ROOT
HETATM    1  C7  UNL     1      -1.558   1.641  -0.322  1.00  0.00     0.038 A 
HETATM    2  C8  UNL     1      -1.919   2.029   0.950  1.00  0.00     0.141 A 
HETATM    3  N1  UNL     1      -2.487   3.242   0.933  1.00  0.00    -0.224 NA
HETATM    4  C9  UNL     1      -2.628   3.892  -0.265  1.00  0.00     0.235 A 
HETATM    5  N2  UNL     1      -2.251   3.439  -1.498  1.00  0.00    -0.242 NA
HETATM    6  C10 UNL     1      -1.676   2.236  -1.595  1.00  0.00     0.089 A 
HETATM    7  C11 UNL     1      -1.277   1.228  -2.665  1.00  0.00     0.237 C 
HETATM    8  C12 UNL     1      -2.061   0.069  -2.212  1.00  0.00    -0.138 C 
HETATM    9  C13 UNL     1      -2.721  -0.888  -1.813  1.00  0.00     0.024 C 
HETATM   10  C14 UNL     1      -3.505  -2.011  -1.318  1.00  0.00     0.087 C 
HETATM   11  C15 UNL     1      -3.380  -1.656  -0.030  1.00  0.00    -0.018 C 
HETATM   12  C16 UNL     1      -2.907  -0.811   1.012  1.00  0.00     0.013 C 
HETATM   13  C17 UNL     1      -2.531  -0.114   2.023  1.00  0.00     0.089 C 
HETATM   14  N3  UNL     1      -1.727   1.077   1.977  1.00  0.00    -0.350 N 
HETATM   15  H18 UNL     1      -0.972   1.563   2.453  1.00  0.00     0.166 HD
ENDROOT
BRANCH   1  16
HETATM   16  C6  UNL     1      -0.646   0.465  -0.262  1.00  0.00     0.018 C 
BRANCH  16  17
HETATM   17  C5  UNL     1       0.144  -0.548  -0.428  1.00  0.00     0.009 C 
BRANCH  17  18
HETATM   18  P1  UNL     1       1.240  -1.961  -0.217  1.00  0.00    -0.075 P 
HETATM   19  H8  UNL     1       0.628  -2.976   0.643  1.00  0.00     0.066 HD
BRANCH  18  20
HETATM   20  C2  UNL     1       2.877  -1.466   0.462  1.00  0.00    -0.038 C 
HETATM   21  C1  UNL     1       3.431  -0.629  -0.403  1.00  0.00     0.022 C 
BRANCH  20  22
HETATM   22  C3  UNL     1       3.299  -2.011   1.770  1.00  0.00     0.205 C 
BRANCH  22  23
HETATM   23  O1  UNL     1       4.520  -1.591   2.231  1.00  0.00    -0.391 OA
HETATM   24  C4  UNL     1       5.575  -1.946   1.419  1.00  0.00     0.201 C 
ENDBRANCH  22  23
ENDBRANCH  20  22
ENDBRANCH  18  20
ENDBRANCH  17  18
ENDBRANCH  16  17
ENDBRANCH   1  16
BRANCH   7  25
HETATM   25  O2  UNL     1      -1.672   1.670  -3.883  1.00  0.00    -0.378 OA
HETATM   26  H13 UNL     1      -1.107   1.280  -4.597  1.00  0.00     0.211 HD
ENDBRANCH   7  25
TORSDOF 7
