REMARK  6 active torsions:
REMARK  status: ('A' for Active; 'I' for Inactive)
REMARK    1  A    between atoms: C2_2  and  N1_3 
REMARK    2  A    between atoms: N1_3  and  P1_4 
REMARK    3  A    between atoms: N1_3  and  C13_19 
REMARK    4  A    between atoms: P1_4  and  C3_5 
REMARK    5  A    between atoms: C7_11  and  O1_12 
REMARK    6  A    between atoms: C9_14  and  O2_15 
ROOT
HETATM    1  C3  UNL     1      -0.139   0.280  -1.586  1.00  0.00     0.092 A 
HETATM    2  N2  UNL     1      -0.427  -0.173  -2.830  1.00  0.00    -0.239 NA
HETATM    3  C4  UNL     1       0.508  -0.712  -3.638  1.00  0.00     0.234 A 
HETATM    4  N3  UNL     1       1.814  -0.847  -3.278  1.00  0.00    -0.241 NA
HETATM    5  C5  UNL     1       2.165  -0.415  -2.052  1.00  0.00     0.073 A 
HETATM    6  C6  UNL     1       3.469  -0.516  -1.612  1.00  0.00     0.072 A 
HETATM    7  C7  UNL     1       3.870  -0.085  -0.362  1.00  0.00     0.103 A 
HETATM    8  C9  UNL     1       2.908   0.465   0.458  1.00  0.00     0.102 A 
HETATM    9  C11 UNL     1       1.594   0.563   0.005  1.00  0.00     0.055 A 
HETATM   10  C12 UNL     1       1.190   0.137  -1.235  1.00  0.00     0.026 A 
ENDROOT
BRANCH   1  11
HETATM   11  P1  UNL     1      -1.400   1.001  -0.512  1.00  0.00     0.028 P 
HETATM   12  H6  UNL     1      -0.870   1.993   0.404  1.00  0.00     0.087 HD
BRANCH  11  13
HETATM   13  N1  UNL     1      -2.415  -0.204   0.328  1.00  0.00    -0.356 N 
BRANCH  13  14
HETATM   14  C2  UNL     1      -2.595  -1.596   0.643  1.00  0.00     0.123 C 
HETATM   15  C1  UNL     1      -1.491  -2.453   0.033  1.00  0.00     0.027 C 
ENDBRANCH  13  14
BRANCH  13  16
HETATM   16  C13 UNL     1      -3.493   0.505   0.941  1.00  0.00     0.014 A 
HETATM   17  C14 UNL     1      -3.515   1.080   2.138  1.00  0.00     0.025 A 
HETATM   18  C15 UNL     1      -4.830   1.697   2.360  1.00  0.00    -0.002 A 
HETATM   19  C16 UNL     1      -5.557   1.463   1.271  1.00  0.00    -0.021 A 
HETATM   20  C17 UNL     1      -4.805   0.686   0.247  1.00  0.00     0.084 A 
ENDBRANCH  13  16
ENDBRANCH  11  13
ENDBRANCH   1  11
BRANCH   8  21
HETATM   21  O2  UNL     1       3.290   0.901   1.709  1.00  0.00    -0.353 OA
HETATM   22  C10 UNL     1       2.402   1.480   2.638  1.00  0.00     0.210 C 
ENDBRANCH   8  21
BRANCH   7  23
HETATM   23  O1  UNL     1       5.176  -0.180   0.095  1.00  0.00    -0.353 OA
HETATM   24  C8  UNL     1       6.173  -0.742  -0.736  1.00  0.00     0.210 C 
ENDBRANCH   7  23
TORSDOF 6
