REMARK  6 active torsions:
REMARK  status: ('A' for Active; 'I' for Inactive)
REMARK    1  A    between atoms: O1_2  and  C2_3 
REMARK    2  A    between atoms: C6_9  and  N3_10 
REMARK    3  A    between atoms: N3_10  and  C8_12 
REMARK    4  A    between atoms: C9_13  and  C10_15 
REMARK    5  A    between atoms: C11_16  and  C12_17 
REMARK    6  A    between atoms: C12_17  and  O2_18 
ROOT
HETATM    1  C2  UNL     1       3.718   1.572  -0.003  1.00  0.00     0.076 A 
HETATM    2  C3  UNL     1       3.424   1.109   1.257  1.00  0.00     0.070 A 
HETATM    3  C4  UNL     1       2.302   0.339   1.475  1.00  0.00     0.074 A 
HETATM    4  N1  UNL     1       2.098  -0.070   2.756  1.00  0.00    -0.241 NA
HETATM    5  C5  UNL     1       1.000  -0.836   3.028  1.00  0.00     0.236 A 
HETATM    6  N2  UNL     1       0.158  -1.162   2.030  1.00  0.00    -0.223 NA
HETATM    7  C6  UNL     1       0.319  -0.781   0.749  1.00  0.00     0.143 A 
HETATM    8  C13 UNL     1       1.428  -0.003   0.458  1.00  0.00     0.040 A 
HETATM    9  C14 UNL     1       1.724   0.461  -0.806  1.00  0.00     0.027 A 
HETATM   10  C15 UNL     1       2.856   1.245  -1.057  1.00  0.00    -0.028 A 
HETATM   11  C16 UNL     1       3.026   1.665  -2.493  1.00  0.00     0.051 C 
ENDROOT
BRANCH   7  12
HETATM   12  N3  UNL     1      -0.568  -1.126  -0.308  1.00  0.00    -0.344 N 
HETATM   13  C7  UNL     1      -0.269  -1.894  -1.527  1.00  0.00     0.157 C 
BRANCH  12  14
HETATM   14  C8  UNL     1      -1.945  -0.786  -0.389  1.00  0.00     0.116 C 
HETATM   15  C9  UNL     1      -2.996  -1.470   0.015  1.00  0.00     0.049 C 
HETATM   16 CL1  UNL     1      -2.838  -3.035   0.776  1.00  0.00    -0.083 Cl
BRANCH  15  17
HETATM   17  C10 UNL     1      -4.305  -0.866  -0.178  1.00  0.00     0.023 C 
HETATM   18  C11 UNL     1      -5.389  -1.527   0.210  1.00  0.00     0.000 C 
BRANCH  18  19
HETATM   19  C12 UNL     1      -6.761  -1.038   0.076  1.00  0.00     0.191 C 
BRANCH  19  20
HETATM   20  O2  UNL     1      -7.315  -0.966   1.372  1.00  0.00    -0.397 OA
HETATM   21  H14 UNL     1      -6.924  -0.190   1.846  1.00  0.00     0.209 HD
ENDBRANCH  19  20
ENDBRANCH  18  19
ENDBRANCH  15  17
ENDBRANCH  12  14
ENDBRANCH   7  12
BRANCH   1  22
HETATM   22  O1  UNL     1       4.764   2.348  -0.474  1.00  0.00    -0.355 OA
HETATM   23  C1  UNL     1       5.742   2.778   0.447  1.00  0.00     0.210 C 
ENDBRANCH   1  22
TORSDOF 6
