REMARK  3 active torsions:
REMARK  status: ('A' for Active; 'I' for Inactive)
REMARK    1  A    between atoms: C9_12  and  N4_13 
REMARK    2  A    between atoms: N4_13  and  C10_14 
REMARK    3  A    between atoms: C10_14  and  C11_15 
ROOT
HETATM    1  C1  UNL     1      -3.734  -0.752   1.299  1.00  0.00     0.073 C 
HETATM    2  C2  UNL     1      -3.350   0.093   0.129  1.00  0.00     0.062 A 
HETATM    3  N1  UNL     1      -4.258   0.555  -0.755  1.00  0.00    -0.244 NA
HETATM    4  C3  UNL     1      -3.904   1.315  -1.804  1.00  0.00     0.236 A 
HETATM    5  N2  UNL     1      -2.611   1.646  -2.014  1.00  0.00    -0.215 NA
HETATM    6  C4  UNL     1      -1.640   1.216  -1.163  1.00  0.00     0.200 A 
HETATM    7  C5  UNL     1      -2.025   0.435  -0.088  1.00  0.00     0.106 A 
HETATM    8  N3  UNL     1      -1.180  -0.115   0.913  1.00  0.00    -0.380 N 
HETATM    9  C6  UNL     1       0.166   0.345   1.257  1.00  0.00     0.161 C 
HETATM   10  C7  UNL     1       1.042   0.388   0.071  1.00  0.00    -0.004 A 
HETATM   11  C8  UNL     1       2.237  -0.263   0.307  1.00  0.00     0.044 A 
HETATM   12  C9  UNL     1       3.194  -0.332  -0.684  1.00  0.00     0.067 A 
HETATM   13  C12 UNL     1       2.982   0.241  -1.922  1.00  0.00     0.035 A 
HETATM   14  C13 UNL     1       1.783   0.901  -2.179  1.00  0.00     0.040 A 
HETATM   15  C14 UNL     1       0.825   0.965  -1.172  1.00  0.00     0.086 A 
HETATM   16  O2  UNL     1      -0.349   1.651  -1.525  1.00  0.00    -0.289 OA
HETATM   17  H5  UNL     1      -1.577  -0.931   1.448  1.00  0.00     0.160 HD
ENDROOT
BRANCH  12  18
HETATM   18  N4  UNL     1       4.465  -0.963  -0.592  1.00  0.00    -0.202 NA
BRANCH  18  19
HETATM   19  C10 UNL     1       4.835  -1.615   0.414  1.00  0.00     0.044 C 
BRANCH  19  20
HETATM   20  C11 UNL     1       5.151  -2.453   1.352  1.00  0.00     0.295 C 
HETATM   21  O1  UNL     1       5.813  -3.027   2.213  1.00  0.00    -0.272 OA
ENDBRANCH  19  20
ENDBRANCH  18  19
ENDBRANCH  12  18
TORSDOF 3
