REMARK  2 active torsions:
REMARK  status: ('A' for Active; 'I' for Inactive)
REMARK    1  A    between atoms: O1_2  and  S1_3 
REMARK    2  A    between atoms: C5_9  and  N3_10 
ROOT
HETATM    1  S1  UNL     1       4.046   0.586  -0.636  1.00  0.00    -0.064 SA
HETATM    2  C2  UNL     1       2.916   1.237   0.353  1.00  0.00     0.094 C 
HETATM    3  C3  UNL     1       1.443   1.075   0.596  1.00  0.00     0.077 A 
HETATM    4  N1  UNL     1       1.114   2.342   0.889  1.00  0.00    -0.241 NA
HETATM    5  C4  UNL     1      -0.086   2.863   1.172  1.00  0.00     0.236 A 
HETATM    6  N2  UNL     1      -1.111   2.007   1.165  1.00  0.00    -0.224 NA
HETATM    7  C5  UNL     1      -0.764   0.711   0.865  1.00  0.00     0.142 A 
HETATM    8  C14 UNL     1       0.487   0.094   0.555  1.00  0.00     0.041 A 
HETATM    9  C15 UNL     1       0.129  -1.322   0.312  1.00  0.00     0.212 C 
HETATM   10  O2  UNL     1       0.271  -1.876  -0.917  1.00  0.00    -0.386 OA
HETATM   11  C16 UNL     1       1.494  -2.313  -1.382  1.00  0.00     0.168 C 
HETATM   12  C17 UNL     1       2.395  -1.244  -1.172  1.00  0.00     0.038 C 
HETATM   13  C18 UNL     1       3.829  -1.159  -1.363  1.00  0.00     0.098 C 
ENDROOT
BRANCH   7  14
HETATM   14  N3  UNL     1      -2.091   0.082   0.996  1.00  0.00    -0.330 N 
HETATM   15  C6  UNL     1      -2.744  -0.783   1.955  1.00  0.00     0.135 C 
HETATM   16  C7  UNL     1      -3.656  -1.627   1.112  1.00  0.00     0.061 C 
HETATM   17  C8  UNL     1      -4.063  -0.707   0.029  1.00  0.00    -0.030 A 
HETATM   18  C9  UNL     1      -5.126  -0.690  -0.851  1.00  0.00     0.009 A 
HETATM   19  C13 UNL     1      -3.113   0.282  -0.008  1.00  0.00     0.042 A 
HETATM   20  C10 UNL     1      -5.279   0.304  -1.792  1.00  0.00     0.001 A 
HETATM   21  C11 UNL     1      -4.332   1.315  -1.851  1.00  0.00     0.002 A 
HETATM   22  C12 UNL     1      -3.274   1.289  -0.967  1.00  0.00     0.030 A 
ENDBRANCH   7  14
BRANCH   1  23
HETATM   23  O1  UNL     1       5.683   1.131  -0.559  1.00  0.00    -0.332 OA
HETATM   24  C1  UNL     1       6.082   1.715   0.621  1.00  0.00     0.219 C 
ENDBRANCH   1  23
TORSDOF 2
