REMARK  9 active torsions:
REMARK  status: ('A' for Active; 'I' for Inactive)
REMARK    1  A    between atoms: O1_2  and  C2_3 
REMARK    2  A    between atoms: C3_4  and  C4_5 
REMARK    3  A    between atoms: N1_6  and  O2_7 
REMARK    4  A    between atoms: C6_9  and  N2_10 
REMARK    5  A    between atoms: C6_9  and  C16_23 
REMARK    6  A    between atoms: N2_10  and  C7_11 
REMARK    7  A    between atoms: N3_12  and  C8_13 
REMARK    8  A    between atoms: C8_13  and  N4_14 
REMARK    9  A    between atoms: N4_14  and  C10_16 
ROOT
HETATM    1  C7  UNL     1      -0.571   1.241  -0.883  1.00  0.00     0.225 C 
HETATM    2  N3  UNL     1       0.443   1.409  -0.096  1.00  0.00    -0.264 NA
ENDROOT
BRANCH   1   3
HETATM    3  N2  UNL     1      -1.119  -0.014  -0.750  1.00  0.00    -0.247 NA
BRANCH   3   4
HETATM    4  C6  UNL     1      -2.484  -0.256  -0.668  1.00  0.00     0.187 A 
HETATM    5  N1  UNL     1      -3.074  -1.701  -0.517  1.00  0.00    -0.125 NA
HETATM    6  C4  UNL     1      -3.734  -0.805  -0.566  1.00  0.00     0.072 A 
BRANCH   5   7
HETATM    7  O2  UNL     1      -1.909  -2.328  -0.513  1.00  0.00    -0.301 OA
HETATM    8  C5  UNL     1      -1.478  -3.206  -1.526  1.00  0.00     0.230 C 
ENDBRANCH   5   7
BRANCH   6   9
HETATM    9  C3  UNL     1      -4.343   0.058  -0.615  1.00  0.00    -0.006 A 
HETATM   10  C2  UNL     1      -4.980   1.002  -0.670  1.00  0.00     0.133 A 
HETATM   11  C16 UNL     1      -3.390   1.046  -0.741  1.00  0.00     0.116 A 
BRANCH  10  12
HETATM   12  O1  UNL     1      -5.008   2.350  -0.785  1.00  0.00    -0.376 OA
HETATM   13  C1  UNL     1      -6.254   3.002  -0.788  1.00  0.00     0.203 C 
ENDBRANCH  10  12
ENDBRANCH   6   9
ENDBRANCH   3   4
ENDBRANCH   1   3
BRANCH   2  14
HETATM   14  C8  UNL     1       0.832   0.317   0.760  1.00  0.00     0.274 C 
BRANCH  14  15
HETATM   15  N4  UNL     1       2.172  -0.133   0.452  1.00  0.00    -0.367 N 
HETATM   16  C9  UNL     1       2.340  -0.590  -0.921  1.00  0.00     0.151 C 
BRANCH  15  17
HETATM   17  C10 UNL     1       3.315  -0.183   1.302  1.00  0.00     0.031 A 
HETATM   18  C11 UNL     1       4.540  -0.647   0.851  1.00  0.00     0.031 A 
HETATM   19  C12 UNL     1       5.624  -0.680   1.700  1.00  0.00     0.026 A 
HETATM   20  C13 UNL     1       5.564  -0.266   3.017  1.00  0.00     0.034 A 
HETATM   21 CL1  UNL     1       7.043  -0.375   3.960  1.00  0.00    -0.084 Cl
HETATM   22  C14 UNL     1       4.355   0.197   3.480  1.00  0.00     0.026 A 
HETATM   23  C15 UNL     1       3.277   0.224   2.617  1.00  0.00     0.031 A 
ENDBRANCH  15  17
ENDBRANCH  14  15
ENDBRANCH   2  14
TORSDOF 9
