REMARK  4 active torsions:
REMARK  status: ('A' for Active; 'I' for Inactive)
REMARK    1  A    between atoms: O1_2  and  C2_3 
REMARK    2  A    between atoms: C4_5  and  N1_6 
REMARK    3  A    between atoms: N1_6  and  C6_8 
REMARK    4  A    between atoms: C15_20  and  O2_21 
ROOT
HETATM    1  C2  UNL     1      -1.879   0.723  -0.879  1.00  0.00     0.103 A 
HETATM    2  C3  UNL     1      -0.976   0.327  -1.761  1.00  0.00     0.073 A 
HETATM    3  C4  UNL     1      -0.282  -0.727  -1.184  1.00  0.00     0.182 A 
HETATM    4  N2  UNL     1       0.003  -2.028  -1.828  1.00  0.00    -0.242 NA
HETATM    5  C12 UNL     1       0.069  -3.010  -0.876  1.00  0.00     0.230 C 
HETATM    6  N3  UNL     1      -0.111  -3.150   0.555  1.00  0.00    -0.254 NA
HETATM    7  C13 UNL     1      -0.533  -2.056   1.184  1.00  0.00     0.132 C 
HETATM    8  C14 UNL     1      -0.768  -1.069   0.123  1.00  0.00     0.050 A 
HETATM    9  C15 UNL     1      -1.759  -0.142   0.287  1.00  0.00     0.113 A 
ENDROOT
BRANCH   3  10
HETATM   10  N1  UNL     1       1.186  -0.246  -1.037  1.00  0.00    -0.350 N 
HETATM   11  C5  UNL     1       1.719  -0.225  -2.414  1.00  0.00     0.153 C 
BRANCH  10  12
HETATM   12  C6  UNL     1       2.031   0.203  -0.002  1.00  0.00     0.032 A 
HETATM   13  C7  UNL     1       1.699   0.458   1.301  1.00  0.00     0.031 A 
HETATM   14  C8  UNL     1       2.546   0.845   2.312  1.00  0.00     0.026 A 
HETATM   15  C9  UNL     1       3.845   0.970   1.901  1.00  0.00     0.034 A 
HETATM   16 CL1  UNL     1       5.067   1.455   3.055  1.00  0.00    -0.084 Cl
HETATM   17  C10 UNL     1       4.256   0.733   0.611  1.00  0.00     0.026 A 
HETATM   18  C11 UNL     1       3.351   0.347  -0.349  1.00  0.00     0.031 A 
ENDBRANCH  10  12
ENDBRANCH   3  10
BRANCH   1  19
HETATM   19  O1  UNL     1      -2.699   1.787  -1.218  1.00  0.00    -0.353 OA
HETATM   20  C1  UNL     1      -3.376   2.607  -0.287  1.00  0.00     0.210 C 
ENDBRANCH   1  19
BRANCH   9  21
HETATM   21  O2  UNL     1      -2.683   0.171   1.311  1.00  0.00    -0.352 OA
HETATM   22  C16 UNL     1      -3.871  -0.628   1.404  1.00  0.00     0.210 C 
ENDBRANCH   9  21
TORSDOF 4
