REMARK  10 active torsions:
REMARK  status: ('A' for Active; 'I' for Inactive)
REMARK    1  A    between atoms: C1_1  and  C15_21 
REMARK    2  A    between atoms: C3_3  and  C4_4 
REMARK    3  A    between atoms: C5_5  and  C6_6 
REMARK    4  A    between atoms: C6_6  and  C7_7 
REMARK    5  A    between atoms: C7_7  and  N1_8 
REMARK    6  A    between atoms: N1_8  and  C8_9 
REMARK    7  A    between atoms: C8_9  and  O1_10 
REMARK    8  A    between atoms: O1_10  and  C9_11 
REMARK    9  A    between atoms: C9_11  and  O2_12 
REMARK   10  A    between atoms: O2_12  and  C10_13 
ROOT
HETATM    1  O1  UNL     1      -0.490  -0.980   2.313  1.00  0.00    -0.337 OA
ENDROOT
BRANCH   1   2
HETATM    2  C8  UNL     1       0.679  -0.832   1.526  1.00  0.00     0.439 C 
BRANCH   2   3
HETATM    3  N1  UNL     1       0.922   0.576   1.450  1.00  0.00     0.106 N 
HETATM    4  H8  UNL     1       0.930   1.061   2.359  1.00  0.00     0.318 HD
BRANCH   3   5
HETATM    5  C7  UNL     1       2.083   0.853   0.646  1.00  0.00     0.273 C 
BRANCH   5   6
HETATM    6  C6  UNL     1       3.314   0.392   1.345  1.00  0.00     0.046 C 
BRANCH   6   7
HETATM    7  C5  UNL     1       4.553   0.611   0.644  1.00  0.00     0.006 A 
HETATM    8  C4  UNL     1       4.401  -0.544  -0.409  1.00  0.00     0.038 A 
HETATM    9  C15 UNL     1       5.359   0.406  -0.157  1.00  0.00    -0.060 A 
BRANCH   8  10
HETATM   10  C3  UNL     1       5.493  -0.854  -1.525  1.00  0.00     0.033 A 
HETATM   11  C2  UNL     1       6.865  -0.041  -1.716  1.00  0.00     0.033 A 
HETATM   12  C1  UNL     1       6.091   0.199  -0.905  1.00  0.00    -0.065 A 
ENDBRANCH   8  10
ENDBRANCH   6   7
ENDBRANCH   5   6
ENDBRANCH   3   5
ENDBRANCH   2   3
ENDBRANCH   1   2
BRANCH   1  13
HETATM   13  C9  UNL     1      -1.566  -0.333   1.727  1.00  0.00     0.348 C 
BRANCH  13  14
HETATM   14  O2  UNL     1      -1.852  -0.848   0.440  1.00  0.00    -0.310 OA
BRANCH  14  15
HETATM   15  C10 UNL     1      -2.969  -0.370  -0.214  1.00  0.00     0.142 C 
HETATM   16  C11 UNL     1      -3.678  -1.419  -0.618  1.00  0.00     0.075 C 
HETATM   17  C12 UNL     1      -4.928  -1.582  -1.344  1.00  0.00     0.122 C 
HETATM   18  N2  UNL     1      -5.736  -0.744  -1.946  1.00  0.00    -0.254 NA
HETATM   19  C13 UNL     1      -5.713   0.672  -2.132  1.00  0.00     0.228 C 
HETATM   20  N3  UNL     1      -5.122   1.643  -1.577  1.00  0.00    -0.263 NA
HETATM   21  C14 UNL     1      -4.196   1.995  -0.533  1.00  0.00     0.273 C 
HETATM   22  N4  UNL     1      -3.145   1.023  -0.328  1.00  0.00    -0.353 N 
HETATM   23  H18 UNL     1      -2.190   1.477  -0.227  1.00  0.00     0.163 HD
ENDBRANCH  14  15
ENDBRANCH  13  14
ENDBRANCH   1  13
TORSDOF 10
