REMARK  3 active torsions:
REMARK  status: ('A' for Active; 'I' for Inactive)
REMARK    1  A    between atoms: O1_2  and  C2_3 
REMARK    2  A    between atoms: C6_9  and  N3_10 
REMARK    3  A    between atoms: C16_21  and  O3_22 
ROOT
HETATM    1  C2  UNL     1      -3.180   0.414  -0.031  1.00  0.00     0.103 A 
HETATM    2  C3  UNL     1      -2.783   1.010  -1.220  1.00  0.00     0.072 A 
HETATM    3  C4  UNL     1      -1.467   0.883  -1.692  1.00  0.00     0.075 A 
HETATM    4  N1  UNL     1      -1.062   1.435  -2.836  1.00  0.00    -0.241 NA
HETATM    5  C5  UNL     1       0.214   1.264  -3.241  1.00  0.00     0.236 A 
HETATM    6  N2  UNL     1       1.026   0.526  -2.450  1.00  0.00    -0.221 NA
HETATM    7  C6  UNL     1       0.646  -0.041  -1.294  1.00  0.00     0.169 A 
HETATM    8  C14 UNL     1      -0.660   0.126  -0.863  1.00  0.00     0.044 A 
HETATM    9  C15 UNL     1      -1.012  -0.472   0.307  1.00  0.00     0.057 A 
HETATM   10  C16 UNL     1      -2.309  -0.330   0.745  1.00  0.00     0.102 A 
ENDROOT
BRANCH   7  11
HETATM   11  N3  UNL     1       1.599  -0.808  -0.571  1.00  0.00    -0.202 N 
HETATM   12  O2  UNL     1       1.729  -2.137  -0.376  1.00  0.00    -0.267 OA
HETATM   13  C7  UNL     1       2.579  -2.302   0.701  1.00  0.00     0.243 C 
HETATM   14  C8  UNL     1       3.314  -1.022   0.884  1.00  0.00    -0.003 A 
HETATM   15  C9  UNL     1       4.411  -0.763   1.678  1.00  0.00     0.012 A 
HETATM   16  C13 UNL     1       2.666  -0.107   0.080  1.00  0.00     0.073 A 
HETATM   17  C10 UNL     1       4.932   0.518   1.693  1.00  0.00     0.001 A 
HETATM   18  C11 UNL     1       4.304   1.453   0.899  1.00  0.00     0.002 A 
HETATM   19  C12 UNL     1       3.207   1.165   0.114  1.00  0.00     0.033 A 
ENDBRANCH   7  11
BRANCH  10  20
HETATM   20  O3  UNL     1      -2.945  -0.813   1.867  1.00  0.00    -0.353 OA
HETATM   21  C17 UNL     1      -2.247  -1.606   2.799  1.00  0.00     0.210 C 
ENDBRANCH  10  20
BRANCH   1  22
HETATM   22  O1  UNL     1      -4.514   0.654   0.266  1.00  0.00    -0.353 OA
HETATM   23  C1  UNL     1      -5.353   1.410  -0.539  1.00  0.00     0.210 C 
ENDBRANCH   1  22
TORSDOF 3
