REMARK  3 active torsions:
REMARK  status: ('A' for Active; 'I' for Inactive)
REMARK    1  A    between atoms: C6_8  and  N3_9 
REMARK    2  A    between atoms: C17_20  and  C18_21 
REMARK    3  A    between atoms: C18_21  and  O1_22 
ROOT
HETATM    1  C1  UNL     1       5.106   0.152   0.126  1.00  0.00     0.049 C 
HETATM    2  C2  UNL     1       3.678  -0.202   0.114  1.00  0.00    -0.051 A 
HETATM    3  C3  UNL     1       3.243  -1.319   0.827  1.00  0.00     0.040 A 
HETATM    4  C4  UNL     1       1.901  -1.695   0.847  1.00  0.00     0.072 A 
HETATM    5  N1  UNL     1       1.488  -2.770   1.537  1.00  0.00    -0.241 NA
HETATM    6  C5  UNL     1       0.185  -3.094   1.528  1.00  0.00     0.236 A 
HETATM    7  N2  UNL     1      -0.727  -2.377   0.849  1.00  0.00    -0.223 NA
HETATM    8  C6  UNL     1      -0.392  -1.269   0.122  1.00  0.00     0.144 A 
HETATM    9  C15 UNL     1       0.953  -0.972   0.158  1.00  0.00     0.040 A 
HETATM   10  C16 UNL     1       1.411   0.120  -0.534  1.00  0.00     0.027 A 
HETATM   11  C17 UNL     1       2.724   0.533  -0.585  1.00  0.00    -0.028 A 
ENDROOT
BRANCH   8  12
HETATM   12  N3  UNL     1      -1.375  -0.531  -0.594  1.00  0.00    -0.330 N 
HETATM   13  C7  UNL     1      -1.714  -0.147  -1.975  1.00  0.00     0.135 C 
HETATM   14  C8  UNL     1      -3.227  -0.237  -2.010  1.00  0.00     0.061 C 
HETATM   15  C9  UNL     1      -3.560   0.283  -0.655  1.00  0.00    -0.030 A 
HETATM   16  C10 UNL     1      -4.721   0.848  -0.232  1.00  0.00     0.009 A 
HETATM   17  C14 UNL     1      -2.428   0.083   0.142  1.00  0.00     0.042 A 
HETATM   18  C11 UNL     1      -4.825   1.267   1.078  1.00  0.00     0.001 A 
HETATM   19  C12 UNL     1      -3.749   1.103   1.927  1.00  0.00     0.002 A 
HETATM   20  C13 UNL     1      -2.597   0.525   1.445  1.00  0.00     0.030 A 
ENDBRANCH   8  12
BRANCH  11  21
HETATM   21  C18 UNL     1       3.194   1.705  -1.331  1.00  0.00     0.203 C 
BRANCH  21  22
HETATM   22  O1  UNL     1       2.119   2.340  -1.981  1.00  0.00    -0.396 OA
HETATM   23  H17 UNL     1       1.468   2.649  -1.317  1.00  0.00     0.209 HD
ENDBRANCH  21  22
ENDBRANCH  11  21
TORSDOF 3
