REMARK  4 active torsions:
REMARK  status: ('A' for Active; 'I' for Inactive)
REMARK    1  A    between atoms: N1_2  and  C2_3 
REMARK    2  A    between atoms: C2_3  and  N2_4 
REMARK    3  A    between atoms: C13_17  and  O1_18 
REMARK    4  A    between atoms: C15_20  and  O2_21 
ROOT
HETATM    1  C2  UNL     1       0.092   0.709   0.268  1.00  0.00     0.183 C 
HETATM    2  C11 UNL     1      -0.780   1.059   1.360  1.00  0.00     0.149 C 
HETATM    3  N3  UNL     1      -2.021   1.312   1.730  1.00  0.00    -0.270 NA
HETATM    4  C12 UNL     1      -3.116   1.268   0.760  1.00  0.00     0.155 C 
HETATM    5  C13 UNL     1      -3.148   0.466  -0.327  1.00  0.00     0.118 C 
HETATM    6  C15 UNL     1      -2.052  -0.480  -0.665  1.00  0.00     0.103 C 
HETATM    7  C17 UNL     1      -0.754  -0.385  -0.427  1.00  0.00     0.074 C 
ENDROOT
BRANCH   1   8
HETATM    8  N1  UNL     1       0.221   1.538  -0.865  1.00  0.00    -0.271 NA
HETATM    9  C1  UNL     1       0.419   1.217  -2.062  1.00  0.00     0.146 C 
ENDBRANCH   1   8
BRANCH   1  10
HETATM   10  N2  UNL     1       1.246  -0.082   0.658  1.00  0.00    -0.339 N 
HETATM   11  C3  UNL     1       1.763  -1.426   0.964  1.00  0.00     0.131 C 
HETATM   12  C4  UNL     1       3.061  -1.939   0.694  1.00  0.00     0.048 C 
HETATM   13  C5  UNL     1       4.307  -1.224   0.262  1.00  0.00    -0.006 C 
HETATM   14  C6  UNL     1       4.372   0.074   0.429  1.00  0.00     0.003 C 
HETATM   15  C7  UNL     1       4.682   1.294  -0.322  1.00  0.00     0.018 C 
HETATM   16  S1  UNL     1       3.585   0.852   2.014  1.00  0.00    -0.073 SA
HETATM   17  C8  UNL     1       3.785   2.331  -0.412  1.00  0.00     0.004 C 
HETATM   18  C9  UNL     1       2.382   2.204   0.170  1.00  0.00     0.037 C 
HETATM   19  C10 UNL     1       2.108   1.054   0.751  1.00  0.00     0.075 C 
ENDBRANCH   1  10
BRANCH   6  20
HETATM   20  O2  UNL     1      -2.458  -1.651  -1.342  1.00  0.00    -0.353 OA
HETATM   21  C16 UNL     1      -2.970  -2.786  -0.711  1.00  0.00     0.210 C 
ENDBRANCH   6  20
BRANCH   5  22
HETATM   22  O1  UNL     1      -4.194   0.460  -1.206  1.00  0.00    -0.352 OA
HETATM   23  C14 UNL     1      -5.525   0.625  -0.759  1.00  0.00     0.210 C 
ENDBRANCH   5  22
TORSDOF 4
