REMARK  6 active torsions:
REMARK  status: ('A' for Active; 'I' for Inactive)
REMARK    1  A    between atoms: O1_2  and  C2_3 
REMARK    2  A    between atoms: C3_4  and  C4_5 
REMARK    3  A    between atoms: C4_5  and  N2_17 
REMARK    4  A    between atoms: C7_8  and  O2_9 
REMARK    5  A    between atoms: C9_11  and  O3_12 
REMARK    6  A    between atoms: N2_17  and  C14_19 
ROOT
HETATM    1  C4  UNL     1       0.791   0.595  -0.968  1.00  0.00     0.104 C 
HETATM    2  C5  UNL     1      -0.431   0.188  -0.651  1.00  0.00     0.031 A 
HETATM    3  C6  UNL     1      -0.709  -1.174  -0.236  1.00  0.00     0.056 A 
HETATM    4  C7  UNL     1      -1.956  -1.564   0.081  1.00  0.00     0.102 A 
HETATM    5  C9  UNL     1      -3.068  -0.594   0.008  1.00  0.00     0.103 A 
HETATM    6  C11 UNL     1      -2.830   0.652  -0.369  1.00  0.00     0.071 A 
HETATM    7  C12 UNL     1      -1.509   1.171  -0.733  1.00  0.00     0.064 A 
HETATM    8  N1  UNL     1      -1.364   2.410  -1.092  1.00  0.00    -0.299 NA
HETATM    9  H12 UNL     1      -2.173   3.035  -1.123  1.00  0.00     0.187 HD
ENDROOT
BRANCH   1  10
HETATM   10  C3  UNL     1       1.094   1.950  -1.385  1.00  0.00    -0.017 C 
HETATM   11  C2  UNL     1       1.327   3.079  -1.741  1.00  0.00     0.060 C 
BRANCH  11  12
HETATM   12  O1  UNL     1       1.581   4.363  -2.135  1.00  0.00    -0.308 OA
HETATM   13  C1  UNL     1       1.672   5.367  -1.164  1.00  0.00     0.223 C 
ENDBRANCH  11  12
ENDBRANCH   1  10
BRANCH   1  14
HETATM   14  N2  UNL     1       1.913  -0.285  -0.921  1.00  0.00    -0.344 N 
HETATM   15  C13 UNL     1       2.480  -0.680  -2.208  1.00  0.00     0.157 C 
BRANCH  14  16
HETATM   16  C14 UNL     1       2.449  -0.751   0.293  1.00  0.00     0.034 A 
HETATM   17  C15 UNL     1       1.939  -0.398   1.545  1.00  0.00     0.029 A 
HETATM   18  C16 UNL     1       2.549  -0.919   2.691  1.00  0.00     0.002 A 
HETATM   19  C17 UNL     1       3.629  -1.763   2.649  1.00  0.00     0.000 A 
HETATM   20  C18 UNL     1       4.137  -2.113   1.401  1.00  0.00     0.002 A 
HETATM   21  C19 UNL     1       3.536  -1.600   0.259  1.00  0.00     0.029 A 
ENDBRANCH  14  16
ENDBRANCH   1  14
BRANCH   4  22
HETATM   22  O2  UNL     1      -2.089  -2.878   0.458  1.00  0.00    -0.353 OA
HETATM   23  C8  UNL     1      -2.933  -3.346   1.494  1.00  0.00     0.210 C 
ENDBRANCH   4  22
BRANCH   5  24
HETATM   24  O3  UNL     1      -4.339  -1.042   0.344  1.00  0.00    -0.353 OA
HETATM   25  C10 UNL     1      -5.272  -0.207   1.003  1.00  0.00     0.210 C 
ENDBRANCH   5  24
TORSDOF 6
