REMARK  4 active torsions:
REMARK  status: ('A' for Active; 'I' for Inactive)
REMARK    1  A    between atoms: O1_2  and  C2_3 
REMARK    2  A    between atoms: C6_9  and  N3_10 
REMARK    3  A    between atoms: C11_15  and  O2_16 
REMARK    4  A    between atoms: C15_20  and  O3_21 
ROOT
HETATM    1  C2  UNL     1      -2.859  -0.289   1.051  1.00  0.00     0.079 C 
HETATM    2  C3  UNL     1      -2.599  -1.572   1.247  1.00  0.00     0.054 C 
HETATM    3  C4  UNL     1      -1.858  -2.458   0.377  1.00  0.00     0.120 C 
HETATM    4  N1  UNL     1      -1.367  -2.030  -0.726  1.00  0.00    -0.254 NA
HETATM    5  C5  UNL     1      -0.646  -2.931  -1.555  1.00  0.00     0.234 C 
HETATM    6  N2  UNL     1       0.020  -1.853  -1.566  1.00  0.00    -0.225 NA
HETATM    7  C6  UNL     1      -0.250  -0.650  -0.914  1.00  0.00     0.130 C 
HETATM    8  C14 UNL     1      -0.938   0.313  -0.351  1.00  0.00     0.062 C 
HETATM    9  C15 UNL     1      -2.399   0.450  -0.150  1.00  0.00     0.204 C 
ENDROOT
BRANCH   7  10
HETATM   10  N3  UNL     1       1.188  -0.526  -0.975  1.00  0.00    -0.339 N 
HETATM   11  C7  UNL     1       1.655   0.272  -2.085  1.00  0.00     0.092 C 
HETATM   12  C8  UNL     1       2.836   0.817  -2.428  1.00  0.00     0.017 C 
HETATM   13  C9  UNL     1       4.050   0.682  -1.619  1.00  0.00    -0.000 C 
HETATM   14  C10 UNL     1       4.224   0.320  -0.358  1.00  0.00     0.006 C 
HETATM   15  C11 UNL     1       3.076  -0.047   0.529  1.00  0.00     0.162 C 
HETATM   16  C13 UNL     1       2.196  -1.086  -0.083  1.00  0.00     0.166 C 
BRANCH  15  17
HETATM   17  O2  UNL     1       3.455  -0.413   1.797  1.00  0.00    -0.385 OA
HETATM   18  C12 UNL     1       2.934   0.539   2.697  1.00  0.00     0.202 C 
ENDBRANCH  15  17
ENDBRANCH   7  10
BRANCH   9  19
HETATM   19  O3  UNL     1      -2.999  -0.006  -1.316  1.00  0.00    -0.380 OA
HETATM   20  C16 UNL     1      -3.717   0.934  -2.009  1.00  0.00     0.202 C 
ENDBRANCH   9  19
BRANCH   1  21
HETATM   21  O1  UNL     1      -3.597   0.405   2.011  1.00  0.00    -0.357 OA
HETATM   22  C1  UNL     1      -3.105   1.558   2.657  1.00  0.00     0.209 C 
ENDBRANCH   1  21
TORSDOF 4
