REMARK  5 active torsions:
REMARK  status: ('A' for Active; 'I' for Inactive)
REMARK    1  A    between atoms: O1_2  and  C2_3 
REMARK    2  A    between atoms: C3_5  and  N2_6 
REMARK    3  A    between atoms: N2_6  and  C5_8 
REMARK    4  A    between atoms: C13_16  and  O2_17 
REMARK    5  A    between atoms: C15_19  and  O3_20 
ROOT
HETATM    1  C2  UNL     1      -0.224   2.082   1.855  1.00  0.00     0.270 A 
HETATM    2  N1  UNL     1       0.657   1.645   0.955  1.00  0.00    -0.188 NA
HETATM    3  C3  UNL     1       0.372   0.782  -0.029  1.00  0.00     0.147 A 
HETATM    4  C11 UNL     1      -0.904   0.315  -0.124  1.00  0.00     0.042 A 
HETATM    5  C12 UNL     1      -1.220  -0.574  -1.130  1.00  0.00     0.057 A 
HETATM    6  C13 UNL     1      -2.538  -1.012  -1.171  1.00  0.00     0.102 A 
HETATM    7  C15 UNL     1      -3.510  -0.610  -0.280  1.00  0.00     0.103 A 
HETATM    8  C17 UNL     1      -3.117   0.280   0.696  1.00  0.00     0.072 A 
HETATM    9  C18 UNL     1      -1.828   0.760   0.802  1.00  0.00     0.078 A 
HETATM   10  N3  UNL     1      -1.492   1.629   1.774  1.00  0.00    -0.206 NA
ENDROOT
BRANCH   3  11
HETATM   11  N2  UNL     1       1.430   0.418  -0.906  1.00  0.00    -0.335 N 
HETATM   12  C4  UNL     1       1.400   0.658  -2.356  1.00  0.00     0.158 C 
BRANCH  11  13
HETATM   13  C5  UNL     1       2.581  -0.214  -0.356  1.00  0.00     0.035 A 
HETATM   14  C6  UNL     1       2.712  -0.483   0.971  1.00  0.00     0.029 A 
HETATM   15  C7  UNL     1       3.811  -1.094   1.550  1.00  0.00     0.002 A 
HETATM   16  C8  UNL     1       4.863  -1.468   0.746  1.00  0.00     0.000 A 
HETATM   17  C9  UNL     1       4.762  -1.206  -0.621  1.00  0.00     0.002 A 
HETATM   18  C10 UNL     1       3.644  -0.594  -1.151  1.00  0.00     0.029 A 
ENDBRANCH  11  13
ENDBRANCH   3  11
BRANCH   1  19
HETATM   19  O1  UNL     1       0.077   2.975   2.870  1.00  0.00    -0.324 OA
HETATM   20  C1  UNL     1       1.370   3.510   3.045  1.00  0.00     0.213 C 
ENDBRANCH   1  19
BRANCH   6  21
HETATM   21  O2  UNL     1      -2.853  -1.906  -2.183  1.00  0.00    -0.353 OA
HETATM   22  C14 UNL     1      -1.874  -2.331  -3.105  1.00  0.00     0.210 C 
ENDBRANCH   6  21
BRANCH   7  23
HETATM   23  O3  UNL     1      -4.777  -1.129  -0.445  1.00  0.00    -0.353 OA
HETATM   24  C16 UNL     1      -5.833  -0.780   0.411  1.00  0.00     0.210 C 
ENDBRANCH   7  23
TORSDOF 5
