REMARK  5 active torsions:
REMARK  status: ('A' for Active; 'I' for Inactive)
REMARK    1  A    between atoms: O1_2  and  C2_3 
REMARK    2  A    between atoms: C5_6  and  N1_7 
REMARK    3  A    between atoms: N1_7  and  C7_9 
REMARK    4  A    between atoms: C13_16  and  O2_17 
REMARK    5  A    between atoms: C17_22  and  O4_23 
ROOT
HETATM    1  C2  UNL     1       2.261  -0.979   0.965  1.00  0.00     0.102 C 
HETATM    2  C3  UNL     1       0.968  -0.745   0.865  1.00  0.00     0.053 C 
HETATM    3  C4  UNL     1       0.676   0.557   0.297  1.00  0.00     0.024 C 
HETATM    4  C5  UNL     1      -0.550   1.031   0.203  1.00  0.00     0.144 C 
HETATM    5  N2  UNL     1      -0.930   2.395  -0.083  1.00  0.00    -0.184 NA
HETATM    6  C13 UNL     1       0.031   3.280  -0.252  1.00  0.00     0.289 C 
HETATM    7  O3  UNL     1       1.354   2.789  -0.108  1.00  0.00    -0.300 OA
HETATM    8  C15 UNL     1       1.647   1.477  -0.332  1.00  0.00     0.195 C 
HETATM    9  C16 UNL     1       3.033   1.100  -0.095  1.00  0.00     0.050 C 
HETATM   10  C17 UNL     1       3.284  -0.054   0.501  1.00  0.00     0.100 C 
ENDROOT
BRANCH   4  11
HETATM   11  N1  UNL     1      -1.721   0.329   0.618  1.00  0.00    -0.336 N 
HETATM   12  C6  UNL     1      -2.276   0.407   1.970  1.00  0.00     0.158 C 
BRANCH  11  13
HETATM   13  C7  UNL     1      -2.392  -0.495  -0.334  1.00  0.00     0.035 A 
HETATM   14  C8  UNL     1      -1.914  -0.613  -1.643  1.00  0.00     0.029 A 
HETATM   15  C9  UNL     1      -2.540  -1.402  -2.588  1.00  0.00     0.002 A 
HETATM   16  C10 UNL     1      -3.689  -2.108  -2.232  1.00  0.00     0.000 A 
HETATM   17  C11 UNL     1      -4.162  -1.993  -0.941  1.00  0.00     0.002 A 
HETATM   18  C12 UNL     1      -3.523  -1.199  -0.009  1.00  0.00     0.029 A 
ENDBRANCH  11  13
ENDBRANCH   4  11
BRANCH   6  19
HETATM   19  O2  UNL     1      -0.144   4.634  -0.545  1.00  0.00    -0.320 OA
HETATM   20  C14 UNL     1      -1.503   5.083  -0.576  1.00  0.00     0.214 C 
ENDBRANCH   6  19
BRANCH   1  21
HETATM   21  O1  UNL     1       2.556  -2.210   1.533  1.00  0.00    -0.353 OA
HETATM   22  C1  UNL     1       1.955  -3.339   0.884  1.00  0.00     0.210 C 
ENDBRANCH   1  21
BRANCH  10  23
HETATM   23  O4  UNL     1       4.605  -0.429   0.709  1.00  0.00    -0.353 OA
HETATM   24  C18 UNL     1       5.194  -1.612   0.244  1.00  0.00     0.210 C 
ENDBRANCH  10  23
TORSDOF 5
