REMARK  8 active torsions:
REMARK  status: ('A' for Active; 'I' for Inactive)
REMARK    1  A    between atoms: O1_2  and  C2_3 
REMARK    2  A    between atoms: N2_7  and  O2_8 
REMARK    3  A    between atoms: O2_8  and  C5_9 
REMARK    4  A    between atoms: C5_9  and  N3_10 
REMARK    5  A    between atoms: C6_11  and  C7_12 
REMARK    6  A    between atoms: C7_12  and  C8_13 
REMARK    7  A    between atoms: C8_13  and  C9_14 
REMARK    8  A    between atoms: C18_23  and  O3_24 
ROOT
HETATM    1  C2  UNL     1      -3.858   0.123  -1.474  1.00  0.00     0.080 A 
HETATM    2  C3  UNL     1      -3.407  -0.886  -0.748  1.00  0.00     0.069 A 
HETATM    3  C4  UNL     1      -2.118  -0.714  -0.090  1.00  0.00     0.092 A 
HETATM    4  N1  UNL     1      -1.556  -1.585   0.636  1.00  0.00    -0.145 NA
HETATM    5  N2  UNL     1      -0.317  -1.378   1.249  1.00  0.00    -0.140 N 
HETATM    6  C6  UNL     1       0.460  -0.154   1.126  1.00  0.00     0.062 A 
HETATM    7  C15 UNL     1      -0.141   0.718   0.378  1.00  0.00     0.043 A 
HETATM    8  C16 UNL     1      -1.426   0.550  -0.280  1.00  0.00    -0.004 A 
HETATM    9  C17 UNL     1      -1.924   1.513  -1.011  1.00  0.00     0.025 A 
HETATM   10  C18 UNL     1      -3.217   1.438  -1.717  1.00  0.00     0.198 A 
ENDROOT
BRANCH   6  11
HETATM   11  C7  UNL     1       1.687  -0.250   1.870  1.00  0.00     0.066 C 
BRANCH  11  12
HETATM   12  C8  UNL     1       2.680   0.822   1.882  1.00  0.00     0.044 C 
BRANCH  12  13
HETATM   13  C9  UNL     1       3.334   1.236   0.656  1.00  0.00    -0.058 A 
HETATM   14  C10 UNL     1       3.132   2.243  -0.262  1.00  0.00     0.007 A 
HETATM   15  C11 UNL     1       3.874   2.449  -1.403  1.00  0.00     0.001 A 
HETATM   16  C12 UNL     1       4.921   1.602  -1.698  1.00  0.00     0.000 A 
HETATM   17  C13 UNL     1       5.189   0.567  -0.829  1.00  0.00     0.001 A 
HETATM   18  C14 UNL     1       4.414   0.410   0.297  1.00  0.00     0.007 A 
ENDBRANCH  12  13
ENDBRANCH  11  12
ENDBRANCH   6  11
BRANCH   5  19
HETATM   19  O2  UNL     1       0.049  -2.488   1.973  1.00  0.00    -0.237 OA
BRANCH  19  20
HETATM   20  C5  UNL     1       0.440  -3.425   1.020  1.00  0.00     0.319 C 
BRANCH  20  21
HETATM   21  N3  UNL     1       0.862  -4.671   1.629  1.00  0.00    -0.409 N 
HETATM   22  H7  UNL     1       0.773  -5.481   1.009  1.00  0.00     0.152 HD
HETATM   23  H8  UNL     1       1.733  -4.593   2.181  1.00  0.00     0.152 HD
ENDBRANCH  20  21
ENDBRANCH  19  20
ENDBRANCH   5  19
BRANCH  10  24
HETATM   24  O3  UNL     1      -4.060   2.504  -1.422  1.00  0.00    -0.385 OA
HETATM   25  H21 UNL     1      -4.479   2.813  -2.263  1.00  0.00     0.210 HD
ENDBRANCH  10  24
BRANCH   1  26
HETATM   26  O1  UNL     1      -5.079   0.032  -2.131  1.00  0.00    -0.357 OA
HETATM   27  C1  UNL     1      -6.309   0.346  -1.484  1.00  0.00     0.209 C 
ENDBRANCH   1  26
TORSDOF 8
