REMARK  3 active torsions:
REMARK  status: ('A' for Active; 'I' for Inactive)
REMARK    1  A    between atoms: C2_2  and  C3_3 
REMARK    2  A    between atoms: C3_3  and  N1_4 
REMARK    3  A    between atoms: N1_4  and  C4_5 
ROOT
HETATM    1  C4  UNL     1       1.280   0.575   0.611  1.00  0.00     0.041 C 
HETATM    2  C5  UNL     1       0.702   1.652   0.267  1.00  0.00     0.101 C 
HETATM    3  C6  UNL     1       0.750   2.307  -1.090  1.00  0.00     0.037 C 
HETATM    4  C7  UNL     1      -0.292   3.027  -1.602  1.00  0.00    -0.004 C 
HETATM    5  C8  UNL     1      -1.652   3.215  -1.014  1.00  0.00     0.159 C 
HETATM    6  N2  UNL     1      -2.185   2.122  -0.458  1.00  0.00    -0.318 N 
HETATM    7  C9  UNL     1      -3.284   1.322  -0.855  1.00  0.00     0.104 C 
HETATM    8  C10 UNL     1      -2.927   0.691   0.232  1.00  0.00    -0.014 C 
HETATM    9  C11 UNL     1      -2.818   0.350   1.715  1.00  0.00     0.193 C 
HETATM   10  N3  UNL     1      -1.411   1.094   1.827  1.00  0.00    -0.246 NA
HETATM   11  C12 UNL     1      -1.503   1.811   0.768  1.00  0.00     0.249 C 
HETATM   12  O1  UNL     1      -0.216   2.400   1.294  1.00  0.00    -0.276 OA
HETATM   13  C13 UNL     1      -1.870  -0.429  -0.196  1.00  0.00    -0.019 C 
HETATM   14  C14 UNL     1      -2.398  -1.075  -1.288  1.00  0.00     0.059 C 
HETATM   15  S1  UNL     1      -1.920  -2.445  -2.412  1.00  0.00    -0.113 SA
HETATM   16  C15 UNL     1      -0.929  -3.447  -1.243  1.00  0.00     0.047 C 
HETATM   17  C16 UNL     1      -0.533  -2.509  -0.365  1.00  0.00     0.007 C 
HETATM   18  C17 UNL     1      -0.517  -1.106   0.093  1.00  0.00     0.070 C 
HETATM   19 BR1  UNL     1      -0.277  -1.266   2.036  1.00  0.00    -0.075 Br
HETATM   20  C18 UNL     1       0.569  -0.225  -0.509  1.00  0.00     0.090 C 
ENDROOT
BRANCH   1  21
HETATM   21  N1  UNL     1       1.951  -0.608   0.870  1.00  0.00    -0.387 N 
HETATM   22  H6  UNL     1       2.722   0.118   0.674  1.00  0.00     0.159 HD
BRANCH  21  23
HETATM   23  C3  UNL     1       2.622  -1.795   1.130  1.00  0.00     0.146 C 
BRANCH  23  24
HETATM   24  C2  UNL     1       4.077  -1.726   0.740  1.00  0.00    -0.018 C 
HETATM   25  C1  UNL     1       5.022  -0.956   0.233  1.00  0.00     0.008 C 
ENDBRANCH  23  24
ENDBRANCH  21  23
ENDBRANCH   1  21
TORSDOF 3
