REMARK  6 active torsions:
REMARK  status: ('A' for Active; 'I' for Inactive)
REMARK    1  A    between atoms: C5_5  and  O1_6 
REMARK    2  A    between atoms: O1_6  and  N1_7 
REMARK    3  A    between atoms: C7_9  and  C8_10 
REMARK    4  A    between atoms: C8_10  and  N4_14 
REMARK    5  A    between atoms: N2_11  and  C9_12 
REMARK    6  A    between atoms: N4_14  and  C11_16 
ROOT
HETATM    1  C8  UNL     1      -0.172  -0.358   0.688  1.00  0.00     0.142 C 
HETATM    2  N2  UNL     1      -0.580   0.074   1.819  1.00  0.00    -0.224 NA
ENDROOT
BRANCH   1   3
HETATM    3  C7  UNL     1       1.086  -0.499  -0.010  1.00  0.00     0.019 A 
HETATM    4  C2  UNL     1       1.142  -1.063  -1.338  1.00  0.00    -0.032 A 
HETATM    5  C1  UNL     1       0.102  -1.484  -2.008  1.00  0.00     0.024 C 
HETATM    6  C3  UNL     1       2.435  -1.179  -1.990  1.00  0.00     0.010 A 
HETATM    7  C4  UNL     1       3.467  -0.745  -1.285  1.00  0.00     0.011 A 
HETATM    8  C5  UNL     1       3.490  -0.159   0.073  1.00  0.00     0.192 A 
HETATM    9  C6  UNL     1       2.145  -0.083   0.644  1.00  0.00     0.027 A 
BRANCH   8  10
HETATM   10  O1  UNL     1       4.266  -0.996   0.905  1.00  0.00    -0.295 OA
BRANCH  10  11
HETATM   11  N1  UNL     1       5.364  -0.330   1.330  1.00  0.00    -0.214 NA
HETATM   12  H6  UNL     1       5.187   0.694   1.341  1.00  0.00     0.150 HD
HETATM   13  H7  UNL     1       6.090  -0.488   0.582  1.00  0.00     0.150 HD
ENDBRANCH  10  11
ENDBRANCH   8  10
ENDBRANCH   1   3
BRANCH   1  14
HETATM   14  N4  UNL     1      -1.534  -0.645   0.413  1.00  0.00    -0.335 N 
HETATM   15  C10 UNL     1      -2.162  -1.937   0.744  1.00  0.00     0.158 C 
BRANCH  14  16
HETATM   16  C11 UNL     1      -2.409   0.319  -0.215  1.00  0.00     0.035 A 
HETATM   17  C12 UNL     1      -3.720  -0.035  -0.448  1.00  0.00     0.029 A 
HETATM   18  C13 UNL     1      -4.497   0.956  -1.059  1.00  0.00     0.002 A 
HETATM   19  C14 UNL     1      -3.995   2.196  -1.403  1.00  0.00     0.000 A 
HETATM   20  C15 UNL     1      -2.671   2.497  -1.145  1.00  0.00     0.002 A 
HETATM   21  C16 UNL     1      -1.869   1.545  -0.543  1.00  0.00     0.029 A 
ENDBRANCH  14  16
ENDBRANCH   1  14
BRANCH   2  22
HETATM   22  C9  UNL     1       0.195   0.618   2.860  1.00  0.00     0.225 C 
HETATM   23  N3  UNL     1       0.131   1.904   2.774  1.00  0.00    -0.293 NA
HETATM   24  H10 UNL     1      -0.411   2.401   2.045  1.00  0.00     0.187 HD
ENDBRANCH   2  22
TORSDOF 6
