REMARK  3 active torsions:
REMARK  status: ('A' for Active; 'I' for Inactive)
REMARK    1  A    between atoms: C2_2  and  C3_3 
REMARK       I    between atoms: C3_3  and  N1_5 
REMARK    2  A    between atoms: N1_5  and  C4_6 
REMARK    3  A    between atoms: N5_19  and  C14_20 
ROOT
HETATM    1  C4  UNL     1       3.519  -0.552  -0.282  1.00  0.00     0.035 A 
HETATM    2  C5  UNL     1       3.516  -1.103  -1.556  1.00  0.00     0.032 A 
HETATM    3  C6  UNL     1       2.317  -1.240  -2.190  1.00  0.00     0.040 A 
HETATM    4  C7  UNL     1       1.126  -0.849  -1.602  1.00  0.00     0.086 A 
HETATM    5  C8  UNL     1       1.156  -0.295  -0.313  1.00  0.00     0.006 A 
HETATM    6  C9  UNL     1       2.355  -0.143   0.355  1.00  0.00     0.041 A 
HETATM    7  C10 UNL     1       0.037   0.193   0.515  1.00  0.00     0.314 C 
HETATM    8  N2  UNL     1      -1.137   0.541  -0.158  1.00  0.00     0.120 NA
HETATM    9  C11 UNL     1      -1.851  -0.489  -0.850  1.00  0.00     0.421 A 
HETATM   10  C12 UNL     1      -1.328  -0.636  -2.265  1.00  0.00     0.202 A 
HETATM   11  N3  UNL     1      -1.924  -0.418  -3.392  1.00  0.00    -0.216 NA
HETATM   12  C13 UNL     1      -3.289   0.030  -3.345  1.00  0.00     0.257 A 
HETATM   13  N4  UNL     1      -3.875   0.192  -2.206  1.00  0.00    -0.163 NA
HETATM   14  N5  UNL     1      -3.226  -0.057  -0.989  1.00  0.00    -0.228 N 
HETATM   15  O2  UNL     1      -0.008  -1.071  -2.413  1.00  0.00    -0.291 OA
HETATM   16  H10 UNL     1      -1.797   1.029   0.470  1.00  0.00     0.319 HD
ENDROOT
BRANCH  14  17
HETATM   17  C14 UNL     1      -4.035   0.144   0.167  1.00  0.00     0.057 A 
HETATM   18  C15 UNL     1      -3.673  -0.281   1.430  1.00  0.00     0.031 A 
HETATM   19  C16 UNL     1      -4.419  -0.099   2.565  1.00  0.00     0.004 A 
HETATM   20  C17 UNL     1      -5.638   0.561   2.461  1.00  0.00     0.019 A 
HETATM   21  C18 UNL     1      -6.059   1.010   1.233  1.00  0.00     0.013 A 
HETATM   22 BR1  UNL     1      -7.729   1.921   1.052  1.00  0.00    -0.051 Br
HETATM   23  C19 UNL     1      -5.255   0.788   0.148  1.00  0.00     0.050 A 
ENDBRANCH  14  17
BRANCH   1  24
HETATM   24  N1  UNL     1       4.750  -0.380   0.441  1.00  0.00    -0.324 N 
HETATM   25  C3  UNL     1       5.396   0.854   0.239  1.00  0.00     0.244 C 
HETATM   26  O1  UNL     1       5.007   1.780  -0.487  1.00  0.00    -0.268 OA
HETATM   27  H4  UNL     1       5.122  -1.130   1.066  1.00  0.00     0.169 HD
BRANCH  25  28
HETATM   28  C2  UNL     1       6.644   1.096   0.938  1.00  0.00     0.064 C 
HETATM   29  C1  UNL     1       7.194   0.223   1.743  1.00  0.00     0.017 C 
ENDBRANCH  25  28
ENDBRANCH   1  24
TORSDOF 3
