REMARK  6 active torsions:
REMARK  status: ('A' for Active; 'I' for Inactive)
REMARK    1  A    between atoms: O1_2  and  C2_3 
REMARK    2  A    between atoms: N1_6  and  C5_7 
REMARK    3  A    between atoms: C5_7  and  N2_8 
REMARK    4  A    between atoms: C6_9  and  N3_10 
REMARK    5  A    between atoms: C7_11  and  N4_12 
REMARK    6  A    between atoms: N4_12  and  C9_14 
ROOT
HETATM    1  N2  UNL     1       1.177  -1.917  -0.799  1.00  0.00    -0.263 NA
HETATM    2  C6  UNL     1      -0.011  -2.399  -0.946  1.00  0.00     0.229 C 
ENDROOT
BRANCH   2   3
HETATM    3  N3  UNL     1      -0.841  -2.183   0.213  1.00  0.00    -0.237 NA
HETATM    4  C7  UNL     1      -2.031  -1.703  -0.054  1.00  0.00     0.211 C 
BRANCH   4   5
HETATM    5  N4  UNL     1      -3.059  -1.232  -0.919  1.00  0.00    -0.346 N 
HETATM    6  C8  UNL     1      -3.568  -2.052  -2.024  1.00  0.00     0.157 C 
BRANCH   5   7
HETATM    7  C9  UNL     1      -3.541   0.090  -0.617  1.00  0.00     0.036 A 
HETATM    8  C10 UNL     1      -4.475   0.313   0.304  1.00  0.00    -0.053 A 
HETATM    9  C11 UNL     1      -5.261  -0.545   1.227  1.00  0.00     0.046 C 
HETATM   10  C12 UNL     1      -4.764   1.778   0.388  1.00  0.00     0.063 A 
HETATM   11  C13 UNL     1      -3.828   2.318  -0.642  1.00  0.00    -0.020 A 
HETATM   12  C14 UNL     1      -3.122   1.347  -1.224  1.00  0.00     0.026 A 
ENDBRANCH   5   7
ENDBRANCH   4   5
ENDBRANCH   2   3
BRANCH   1  13
HETATM   13  C5  UNL     1       1.478  -1.259   0.457  1.00  0.00     0.274 C 
BRANCH  13  14
HETATM   14  N1  UNL     1       2.599  -0.350   0.334  1.00  0.00    -0.369 N 
HETATM   15  C4  UNL     1       3.875  -0.902  -0.081  1.00  0.00     0.154 A 
HETATM   16  C3  UNL     1       4.930   0.111  -0.170  1.00  0.00     0.029 A 
HETATM   17  C2  UNL     1       4.756   1.396   0.096  1.00  0.00     0.067 A 
HETATM   18  C16 UNL     1       3.424   1.869   0.510  1.00  0.00     0.053 A 
HETATM   19  C15 UNL     1       2.420   1.011   0.614  1.00  0.00     0.090 A 
BRANCH  17  20
HETATM   20  O1  UNL     1       5.729   2.383   0.023  1.00  0.00    -0.356 OA
HETATM   21  C1  UNL     1       7.011   2.079   0.532  1.00  0.00     0.210 C 
ENDBRANCH  17  20
ENDBRANCH  13  14
ENDBRANCH   1  13
TORSDOF 6
