REMARK  6 active torsions:
REMARK  status: ('A' for Active; 'I' for Inactive)
REMARK    1  A    between atoms: O1_2  and  C2_3 
REMARK    2  A    between atoms: C3_5  and  C4_6 
REMARK    3  A    between atoms: C4_6  and  N2_7 
REMARK    4  A    between atoms: C13_16  and  N3_17 
REMARK    5  A    between atoms: N3_17  and  O2_18 
REMARK    6  A    between atoms: C14_19  and  O3_20 
ROOT
HETATM    1  C2  UNL     1      -1.361   2.955  -0.044  1.00  0.00     0.269 A 
HETATM    2  N1  UNL     1      -0.127   2.740  -0.536  1.00  0.00    -0.209 NA
HETATM    3  C3  UNL     1       0.301   1.481  -0.844  1.00  0.00     0.069 A 
HETATM    4  C11 UNL     1      -0.548   0.388  -0.651  1.00  0.00     0.022 A 
HETATM    5  C12 UNL     1      -0.195  -0.908  -0.934  1.00  0.00     0.050 A 
HETATM    6  C13 UNL     1      -1.148  -1.877  -0.686  1.00  0.00     0.088 A 
HETATM    7  C14 UNL     1      -2.409  -1.628  -0.180  1.00  0.00     0.099 A 
HETATM    8  C16 UNL     1      -2.738  -0.310   0.097  1.00  0.00     0.071 A 
HETATM    9  C17 UNL     1      -1.804   0.683  -0.142  1.00  0.00     0.076 A 
HETATM   10  N4  UNL     1      -2.205   1.930   0.155  1.00  0.00    -0.206 NA
ENDROOT
BRANCH   3  11
HETATM   11  C4  UNL     1       1.656   1.242  -1.390  1.00  0.00     0.177 C 
BRANCH  11  12
HETATM   12  N2  UNL     1       2.572   0.697  -0.465  1.00  0.00    -0.401 N 
HETATM   13  C5  UNL     1       3.902   0.456  -0.923  1.00  0.00     0.145 C 
HETATM   14  C6  UNL     1       4.106  -1.028  -0.932  1.00  0.00    -0.008 C 
HETATM   15  C7  UNL     1       3.841  -1.817   0.116  1.00  0.00    -0.003 C 
HETATM   16  C8  UNL     1       3.319  -1.416   1.439  1.00  0.00    -0.003 C 
HETATM   17  C9  UNL     1       2.743  -0.228   1.694  1.00  0.00    -0.008 C 
HETATM   18  C10 UNL     1       2.419   1.018   0.908  1.00  0.00     0.145 C 
ENDBRANCH  11  12
ENDBRANCH   3  11
BRANCH   1  19
HETATM   19  O1  UNL     1      -1.730   4.255   0.247  1.00  0.00    -0.324 OA
HETATM   20  C1  UNL     1      -3.033   4.511   0.768  1.00  0.00     0.213 C 
ENDBRANCH   1  19
BRANCH   6  21
HETATM   21  N3  UNL     1      -0.842  -3.236  -0.959  1.00  0.00    -0.267 N 
HETATM   22  H15 UNL     1      -1.013  -3.742  -1.871  1.00  0.00     0.194 HD
BRANCH  21  23
HETATM   23  O2  UNL     1      -0.282  -3.853   0.112  1.00  0.00    -0.289 OA
HETATM   24  H16 UNL     1      -0.970  -4.061   0.799  1.00  0.00     0.244 HD
ENDBRANCH  21  23
ENDBRANCH   6  21
BRANCH   7  25
HETATM   25  O3  UNL     1      -3.312  -2.673   0.041  1.00  0.00    -0.354 OA
HETATM   26  C15 UNL     1      -4.577  -2.345   0.555  1.00  0.00     0.210 C 
ENDBRANCH   7  25
TORSDOF 6
