REMARK  3 active torsions:
REMARK  status: ('A' for Active; 'I' for Inactive)
REMARK    1  A    between atoms: O1_2  and  C2_3 
REMARK    2  A    between atoms: C7_10  and  N3_11 
REMARK    3  A    between atoms: N3_11  and  C9_13 
ROOT
HETATM    1  C2  UNL     1       3.077  -0.284  -0.135  1.00  0.00     0.069 A 
HETATM    2  C3  UNL     1       3.656   0.894   0.351  1.00  0.00     0.039 A 
HETATM    3  C4  UNL     1       2.809   1.984   0.575  1.00  0.00     0.035 A 
HETATM    4  C5  UNL     1       1.467   1.963   0.350  1.00  0.00     0.072 A 
HETATM    5  N1  UNL     1       0.674   3.021   0.572  1.00  0.00    -0.241 NA
HETATM    6  C6  UNL     1      -0.670   2.951   0.330  1.00  0.00     0.236 A 
HETATM    7  N2  UNL     1      -1.236   1.802  -0.143  1.00  0.00    -0.224 NA
HETATM    8  C7  UNL     1      -0.481   0.698  -0.387  1.00  0.00     0.141 A 
HETATM    9  C14 UNL     1       0.871   0.792  -0.136  1.00  0.00     0.041 A 
HETATM   10  C15 UNL     1       1.717  -0.285  -0.356  1.00  0.00     0.054 A 
ENDROOT
BRANCH   8  11
HETATM   11  N3  UNL     1      -1.066  -0.499  -0.880  1.00  0.00    -0.345 N 
HETATM   12  C8  UNL     1      -0.770  -1.204  -2.128  1.00  0.00     0.154 C 
BRANCH  11  13
HETATM   13  C9  UNL     1      -2.101  -1.120  -0.042  1.00  0.00     0.208 A 
HETATM   14  C10 UNL     1      -3.397  -1.213  -0.759  1.00  0.00     0.019 A 
HETATM   15  C11 UNL     1      -4.541  -0.713  -0.320  1.00  0.00     0.001 A 
HETATM   16  C12 UNL     1      -4.569  -0.014   0.957  1.00  0.00     0.017 A 
HETATM   17  C13 UNL     1      -3.497   0.153   1.718  1.00  0.00     0.085 A 
HETATM   18  N4  UNL     1      -2.303  -0.410   1.183  1.00  0.00    -0.375 N 
HETATM   19  H15 UNL     1      -1.393  -0.346   1.684  1.00  0.00     0.161 HD
ENDBRANCH  11  13
ENDBRANCH   8  11
BRANCH   1  20
HETATM   20  O1  UNL     1       3.833  -1.422  -0.390  1.00  0.00    -0.356 OA
HETATM   21  C1  UNL     1       5.234  -1.379  -0.147  1.00  0.00     0.210 C 
ENDBRANCH   1  20
TORSDOF 3
