REMARK  1 active torsions:
REMARK  status: ('A' for Active; 'I' for Inactive)
REMARK    1  A    between atoms: O1_2  and  C2_3 
ROOT
HETATM    1  C2  UNL     1       2.215  -0.245   0.815  1.00  0.00     0.069 C 
HETATM    2  C3  UNL     1       2.802   0.976   1.132  1.00  0.00     0.038 C 
HETATM    3  C4  UNL     1       2.697   2.302   0.727  1.00  0.00     0.022 C 
HETATM    4  C5  UNL     1       2.815   2.954  -0.502  1.00  0.00     0.118 C 
HETATM    5  N1  UNL     1       1.572   3.442  -0.839  1.00  0.00    -0.254 NA
HETATM    6  C6  UNL     1       0.739   2.464  -1.266  1.00  0.00     0.234 C 
HETATM    7  N2  UNL     1       0.786   1.182  -0.808  1.00  0.00    -0.223 NA
HETATM    8  C7  UNL     1      -0.262   0.474  -0.439  1.00  0.00     0.142 A 
HETATM    9  C8  UNL     1      -0.162  -0.555   0.432  1.00  0.00     0.025 A 
HETATM   10  C9  UNL     1       1.039  -0.938   0.997  1.00  0.00     0.053 C 
HETATM   11  C10 UNL     1      -1.400  -1.133   0.654  1.00  0.00     0.005 A 
HETATM   12  C11 UNL     1      -1.865  -2.181   1.424  1.00  0.00     0.014 A 
HETATM   13  C12 UNL     1      -3.211  -2.491   1.402  1.00  0.00     0.001 A 
HETATM   14  C13 UNL     1      -4.063  -1.745   0.609  1.00  0.00     0.002 A 
HETATM   15  C14 UNL     1      -3.648  -0.688  -0.179  1.00  0.00     0.030 A 
HETATM   16  C15 UNL     1      -2.297  -0.403  -0.135  1.00  0.00     0.046 A 
HETATM   17  N3  UNL     1      -1.574   0.545  -0.769  1.00  0.00    -0.335 N 
HETATM   18  C16 UNL     1      -2.097   1.549  -1.708  1.00  0.00     0.158 C 
ENDROOT
BRANCH   1  19
HETATM   19  O1  UNL     1       3.156  -0.938   0.087  1.00  0.00    -0.356 OA
HETATM   20  C1  UNL     1       3.046  -2.209  -0.458  1.00  0.00     0.210 C 
ENDBRANCH   1  19
TORSDOF 1
