REMARK  3 active torsions:
REMARK  status: ('A' for Active; 'I' for Inactive)
REMARK    1  A    between atoms: O1_2  and  C2_3 
REMARK    2  A    between atoms: C7_8  and  O2_9 
REMARK    3  A    between atoms: N3_14  and  C10_15 
ROOT
HETATM    1  C2  UNL     1       2.772  -1.073  -0.101  1.00  0.00     0.102 A 
HETATM    2  C3  UNL     1       1.397  -1.154  -0.189  1.00  0.00     0.054 A 
HETATM    3  C4  UNL     1       0.584  -0.106   0.193  1.00  0.00     0.013 A 
HETATM    4  C5  UNL     1       1.246   1.032   0.672  1.00  0.00     0.091 A 
HETATM    5  C6  UNL     1       2.616   1.111   0.758  1.00  0.00     0.074 A 
HETATM    6  C7  UNL     1       3.412   0.053   0.371  1.00  0.00     0.103 A 
HETATM    7  N1  UNL     1       0.716   2.131   1.092  1.00  0.00    -0.177 NA
HETATM    8  N2  UNL     1      -0.646   2.438   1.166  1.00  0.00    -0.295 N 
HETATM    9  C9  UNL     1      -1.776   1.550   1.326  1.00  0.00     0.271 C 
HETATM   10  N3  UNL     1      -1.832   0.518   0.343  1.00  0.00    -0.338 N 
HETATM   11  C16 UNL     1      -0.709  -0.287   0.070  1.00  0.00     0.107 C 
HETATM   12  H9  UNL     1      -0.813   3.487   1.089  1.00  0.00     0.184 HD
ENDROOT
BRANCH  10  13
HETATM   13  C10 UNL     1      -2.997   0.225  -0.409  1.00  0.00     0.035 A 
HETATM   14  C11 UNL     1      -4.254   0.719  -0.136  1.00  0.00     0.029 A 
HETATM   15  C12 UNL     1      -5.401   0.459  -0.856  1.00  0.00     0.002 A 
HETATM   16  C13 UNL     1      -5.299  -0.369  -1.955  1.00  0.00     0.000 A 
HETATM   17  C14 UNL     1      -4.063  -0.891  -2.272  1.00  0.00     0.002 A 
HETATM   18  C15 UNL     1      -2.952  -0.594  -1.513  1.00  0.00     0.029 A 
ENDBRANCH  10  13
BRANCH   1  19
HETATM   19  O1  UNL     1       3.578  -2.136  -0.489  1.00  0.00    -0.353 OA
HETATM   20  C1  UNL     1       3.066  -3.357  -0.994  1.00  0.00     0.210 C 
ENDBRANCH   1  19
BRANCH   6  21
HETATM   21  O2  UNL     1       4.782   0.118   0.453  1.00  0.00    -0.353 OA
HETATM   22  C8  UNL     1       5.363   1.325   0.955  1.00  0.00     0.210 C 
ENDBRANCH   6  21
TORSDOF 3
