REMARK  7 active torsions:
REMARK  status: ('A' for Active; 'I' for Inactive)
REMARK    1  A    between atoms: C3_3  and  C4_4 
REMARK    2  A    between atoms: C4_4  and  C5_5 
REMARK    3  A    between atoms: C5_5  and  C6_6 
REMARK    4  A    between atoms: C6_6  and  N1_7 
REMARK    5  A    between atoms: N1_7  and  C8_9 
REMARK    6  A    between atoms: C12_15  and  O1_16 
REMARK    7  A    between atoms: C14_18  and  O2_19 
ROOT
HETATM    1  C1  UNL     1       7.391   0.536   0.231  1.00  0.00     0.096 C 
HETATM    2  C2  UNL     1       6.325  -0.176   0.528  1.00  0.00    -0.155 C 
HETATM    3  C3  UNL     1       5.146  -0.687   0.804  1.00  0.00     0.050 C 
ENDROOT
BRANCH   3   4
HETATM    4  C4  UNL     1       3.967   0.093   0.597  1.00  0.00     0.005 C 
BRANCH   4   5
HETATM    5  C5  UNL     1       2.833  -0.534   0.330  1.00  0.00    -0.007 C 
BRANCH   5   6
HETATM    6  C6  UNL     1       1.503   0.136   0.087  1.00  0.00     0.151 C 
BRANCH   6   7
HETATM    7  N1  UNL     1       0.994  -0.186  -1.236  1.00  0.00    -0.366 N 
HETATM    8  C7  UNL     1       1.768   0.390  -2.345  1.00  0.00     0.151 C 
BRANCH   7   9
HETATM    9  C8  UNL     1      -0.181  -1.012  -1.252  1.00  0.00     0.139 A 
HETATM   10  N2  UNL     1      -0.069  -2.224  -1.789  1.00  0.00    -0.224 NA
HETATM   11  C9  UNL     1      -1.082  -3.106  -1.854  1.00  0.00     0.236 A 
HETATM   12  N3  UNL     1      -2.278  -2.738  -1.344  1.00  0.00    -0.241 NA
HETATM   13  C10 UNL     1      -2.428  -1.516  -0.792  1.00  0.00     0.075 A 
HETATM   14  C11 UNL     1      -3.661  -1.135  -0.268  1.00  0.00     0.072 A 
HETATM   15  C17 UNL     1      -1.385  -0.616  -0.728  1.00  0.00     0.041 A 
HETATM   16  C12 UNL     1      -3.810   0.128   0.298  1.00  0.00     0.103 A 
HETATM   17  C14 UNL     1      -2.721   0.995   0.332  1.00  0.00     0.102 A 
HETATM   18  C16 UNL     1      -1.475   0.647  -0.180  1.00  0.00     0.057 A 
BRANCH  16  19
HETATM   19  O1  UNL     1      -5.054   0.476   0.811  1.00  0.00    -0.353 OA
HETATM   20  C13 UNL     1      -6.079  -0.487   0.721  1.00  0.00     0.210 C 
ENDBRANCH  16  19
BRANCH  17  21
HETATM   21  O2  UNL     1      -2.981   2.211   0.911  1.00  0.00    -0.353 OA
HETATM   22  C15 UNL     1      -2.062   3.250   1.066  1.00  0.00     0.210 C 
ENDBRANCH  17  21
ENDBRANCH   7   9
ENDBRANCH   6   7
ENDBRANCH   5   6
ENDBRANCH   4   5
ENDBRANCH   3   4
TORSDOF 7
