REMARK  5 active torsions:
REMARK  status: ('A' for Active; 'I' for Inactive)
REMARK    1  A    between atoms: N1_1  and  C1_2 
REMARK    2  A    between atoms: N2_6  and  C5_7 
REMARK    3  A    between atoms: C18_23  and  O1_24 
REMARK    4  A    between atoms: O1_24  and  C19_25 
REMARK    5  A    between atoms: C19_25  and  C20_26 
ROOT
HETATM    1  C1  UNL     1      -0.976  -3.709  -0.184  1.00  0.00     0.121 A 
HETATM    2  C2  UNL     1      -0.714  -2.548   0.339  1.00  0.00     0.057 A 
HETATM    3  C3  UNL     1       0.326  -1.588  -0.124  1.00  0.00     0.092 A 
HETATM    4  C4  UNL     1      -0.396  -0.350  -0.581  1.00  0.00     0.160 C 
HETATM    5  N2  UNL     1      -1.123   0.291   0.500  1.00  0.00    -0.376 N 
HETATM    6  C12 UNL     1      -0.291   0.448   1.643  1.00  0.00     0.084 C 
HETATM    7  C13 UNL     1       0.765  -0.272   1.883  1.00  0.00     0.017 C 
HETATM    8  C14 UNL     1       1.263  -1.363   1.009  1.00  0.00     0.112 A 
HETATM    9  C15 UNL     1       1.347  -2.566   1.898  1.00  0.00     0.116 A 
HETATM   10  F1  UNL     1       0.297  -3.163   2.526  1.00  0.00    -0.209 F 
HETATM   11  C16 UNL     1       2.614  -3.004   2.011  1.00  0.00     0.042 A 
HETATM   12  C17 UNL     1       3.464  -2.107   1.194  1.00  0.00     0.036 A 
HETATM   13  C18 UNL     1       2.664  -1.180   0.634  1.00  0.00     0.068 A 
HETATM   14  N5  UNL     1       1.009  -2.147  -1.282  1.00  0.00    -0.368 N 
HETATM   15  C24 UNL     1       0.670  -3.427  -1.804  1.00  0.00     0.205 A 
HETATM   16  N6  UNL     1      -0.244  -4.142  -1.295  1.00  0.00    -0.228 NA
HETATM   17  H32 UNL     1       1.768  -1.599  -1.745  1.00  0.00     0.161 HD
ENDROOT
BRANCH  13  18
HETATM   18  O1  UNL     1       3.406  -0.306  -0.149  1.00  0.00    -0.351 OA
BRANCH  18  19
HETATM   19  C19 UNL     1       3.343   1.076   0.009  1.00  0.00     0.207 C 
BRANCH  19  20
HETATM   20  C20 UNL     1       4.278   1.837  -0.921  1.00  0.00     0.145 C 
HETATM   21  C21 UNL     1       5.708   1.457  -0.716  1.00  0.00     0.036 C 
HETATM   22  C22 UNL     1       6.469   2.738  -0.622  1.00  0.00     0.029 C 
HETATM   23  C23 UNL     1       5.421   3.774  -0.956  1.00  0.00     0.168 C 
HETATM   24  O2  UNL     1       4.196   3.195  -0.750  1.00  0.00    -0.384 OA
ENDBRANCH  19  20
ENDBRANCH  18  19
ENDBRANCH  13  18
BRANCH   1  25
HETATM   25  N1  UNL     1      -2.019  -4.470   0.422  1.00  0.00    -0.384 N 
HETATM   26  H1  UNL     1      -1.802  -5.193   1.158  1.00  0.00     0.157 HD
HETATM   27  H2  UNL     1      -2.951  -4.181   0.015  1.00  0.00     0.157 HD
ENDBRANCH   1  25
BRANCH   5  28
HETATM   28  C5  UNL     1      -2.483   0.696   0.362  1.00  0.00     0.062 C 
HETATM   29  C6  UNL     1      -3.104   1.246   1.625  1.00  0.00     0.300 C 
HETATM   30  N3  UNL     1      -4.463   0.713   1.827  1.00  0.00     0.087 N 
HETATM   31  C7  UNL     1      -5.432   1.572   1.232  1.00  0.00     0.288 C 
HETATM   32  H8  UNL     1      -4.627   0.733   2.858  1.00  0.00     0.316 HD
HETATM   33  C8  UNL     1      -5.945   1.058  -0.099  1.00  0.00     0.144 C 
HETATM   34  N4  UNL     1      -5.088   1.379  -1.184  1.00  0.00    -0.415 N 
HETATM   35  C9  UNL     1      -3.850   0.726  -1.294  1.00  0.00     0.081 C 
HETATM   36  H13 UNL     1      -5.607   1.501  -2.074  1.00  0.00     0.153 HD
HETATM   37  C10 UNL     1      -3.459  -0.253  -0.247  1.00  0.00     0.057 C 
HETATM   38  C11 UNL     1      -2.766   1.646  -0.781  1.00  0.00     0.057 C 
ENDBRANCH   5  28
TORSDOF 5
