REMARK  3 active torsions:
REMARK  status: ('A' for Active; 'I' for Inactive)
REMARK    1  A    between atoms: C7_9  and  O2_10 
REMARK    2  A    between atoms: O2_10  and  C8_11 
REMARK    3  A    between atoms: C8_11  and  C9_12 
ROOT
HETATM    1  O1  UNL     1       3.540   2.419   1.529  1.00  0.00    -0.273 OA
HETATM    2  C1  UNL     1       3.848   2.469   0.357  1.00  0.00     0.220 C 
HETATM    3  C2  UNL     1       3.545   3.743  -0.235  1.00  0.00     0.110 C 
HETATM    4  C3  UNL     1       2.288   4.365   0.356  1.00  0.00     0.079 C 
HETATM    5  C4  UNL     1       1.142   3.483   0.354  1.00  0.00     0.094 C 
HETATM    6  F1  UNL     1       1.124   2.926  -0.879  1.00  0.00    -0.211 F 
HETATM    7  C5  UNL     1       0.088   2.740   0.495  1.00  0.00     0.040 C 
HETATM    8  C6  UNL     1      -1.016   1.828   0.370  1.00  0.00     0.035 C 
HETATM    9  C7  UNL     1      -1.357   1.041  -0.631  1.00  0.00     0.050 C 
HETATM   10  C13 UNL     1      -0.990   0.601  -2.014  1.00  0.00     0.105 C 
HETATM   11  C14 UNL     1      -0.360  -0.766  -1.896  1.00  0.00    -0.021 A 
HETATM   12  C15 UNL     1       1.005  -0.645  -1.582  1.00  0.00     0.101 A 
HETATM   13  N1  UNL     1       1.608  -1.871  -1.382  1.00  0.00    -0.335 N 
HETATM   14  C16 UNL     1       0.626  -2.741  -1.580  1.00  0.00     0.143 A 
HETATM   15  N2  UNL     1       0.685  -4.068  -1.510  1.00  0.00    -0.223 NA
HETATM   16  C17 UNL     1      -0.493  -4.722  -1.763  1.00  0.00     0.234 A 
HETATM   17  N3  UNL     1      -1.677  -4.107  -2.071  1.00  0.00    -0.253 NA
HETATM   18  C18 UNL     1      -1.749  -2.743  -2.146  1.00  0.00     0.134 A 
HETATM   19  C19 UNL     1      -0.567  -2.125  -1.890  1.00  0.00     0.036 A 
HETATM   20  C20 UNL     1       3.036  -1.869  -0.983  1.00  0.00     0.102 A 
HETATM   21  C21 UNL     1       3.602  -1.786   0.309  1.00  0.00     0.018 A 
HETATM   22  C22 UNL     1       3.424  -1.033   1.553  1.00  0.00     0.027 C 
HETATM   23  C23 UNL     1       4.383   0.130   1.743  1.00  0.00     0.126 C 
HETATM   24  N4  UNL     1       4.267   1.120   0.634  1.00  0.00    -0.352 N 
HETATM   25  C24 UNL     1       4.614   0.168  -0.450  1.00  0.00     0.132 C 
HETATM   26  C25 UNL     1       3.384  -0.561  -0.663  1.00  0.00     0.033 A 
ENDROOT
BRANCH   9  27
HETATM   27  O2  UNL     1      -2.500   0.331  -0.306  1.00  0.00    -0.353 OA
BRANCH  27  28
HETATM   28  C8  UNL     1      -3.539   0.687   0.529  1.00  0.00     0.207 C 
BRANCH  28  29
HETATM   29  C9  UNL     1      -4.707  -0.279   0.485  1.00  0.00     0.145 C 
HETATM   30  C10 UNL     1      -5.721   0.084   1.579  1.00  0.00     0.036 C 
HETATM   31  C11 UNL     1      -6.393  -1.232   1.922  1.00  0.00     0.029 C 
HETATM   32  C12 UNL     1      -5.486  -2.227   1.243  1.00  0.00     0.168 C 
HETATM   33  O3  UNL     1      -4.329  -1.564   0.865  1.00  0.00    -0.384 OA
ENDBRANCH  28  29
ENDBRANCH  27  28
ENDBRANCH   9  27
TORSDOF 3
