REMARK  6 active torsions:
REMARK  status: ('A' for Active; 'I' for Inactive)
REMARK    1  A    between atoms: C2_3  and  N2_4 
REMARK    2  A    between atoms: N2_4  and  C3_5 
REMARK    3  A    between atoms: C6_8  and  O1_9 
REMARK    4  A    between atoms: O1_9  and  C7_10 
REMARK    5  A    between atoms: C7_10  and  C8_11 
REMARK    6  A    between atoms: C14_18  and  C15_19 
ROOT
HETATM    1  C3  UNL     1       1.407  -0.961   1.020  1.00  0.00     0.120 A 
HETATM    2  C4  UNL     1       1.803   0.148   2.042  1.00  0.00     0.046 A 
HETATM    3  C5  UNL     1       0.600  -0.141   2.536  1.00  0.00     0.024 A 
HETATM    4  C6  UNL     1      -0.108   0.158   1.094  1.00  0.00     0.059 A 
HETATM    5  C12 UNL     1       1.059   0.468   0.510  1.00  0.00     0.065 A 
HETATM    6  C13 UNL     1       2.497   0.560   0.004  1.00  0.00    -0.000 A 
HETATM    7  C14 UNL     1       3.092   0.351   1.335  1.00  0.00    -0.038 A 
ENDROOT
BRANCH   4   8
HETATM    8  O1  UNL     1      -1.029   0.324   0.059  1.00  0.00    -0.352 OA
BRANCH   8   9
HETATM    9  C7  UNL     1      -2.119   1.234   0.354  1.00  0.00     0.207 C 
BRANCH   9  10
HETATM   10  C8  UNL     1      -2.203   2.277  -0.711  1.00  0.00     0.145 C 
HETATM   11  C9  UNL     1      -2.504   1.611  -2.047  1.00  0.00     0.036 C 
HETATM   12  C10 UNL     1      -4.007   1.489  -1.925  1.00  0.00     0.029 C 
HETATM   13  C11 UNL     1      -4.294   2.854  -1.285  1.00  0.00     0.168 C 
HETATM   14  O2  UNL     1      -3.230   3.180  -0.489  1.00  0.00    -0.384 OA
ENDBRANCH   9  10
ENDBRANCH   8   9
ENDBRANCH   4   8
BRANCH   1  15
HETATM   15  N2  UNL     1       2.455  -1.632   0.367  1.00  0.00    -0.377 N 
HETATM   16  H5  UNL     1       3.509  -1.477   0.459  1.00  0.00     0.160 HD
BRANCH  15  17
HETATM   17  C2  UNL     1       2.127  -2.672  -0.562  1.00  0.00     0.196 C 
HETATM   18  N1  UNL     1       1.279  -3.591  -0.131  1.00  0.00    -0.290 NA
HETATM   19  C1  UNL     1       0.980  -4.630  -1.129  1.00  0.00     0.179 C 
ENDBRANCH  15  17
ENDBRANCH   1  15
BRANCH   7  20
HETATM   20  C15 UNL     1       4.295   0.458   2.162  1.00  0.00     0.257 C 
HETATM   21  F1  UNL     1       4.096   1.236   3.283  1.00  0.00    -0.251 F 
ENDBRANCH   7  20
TORSDOF 6
