REMARK  7 active torsions:
REMARK  status: ('A' for Active; 'I' for Inactive)
REMARK       I    between atoms: N1_2  and  C2_3 
REMARK    1  A    between atoms: C2_3  and  C3_5 
REMARK    2  A    between atoms: C6_8  and  N2_9 
REMARK    3  A    between atoms: N2_9  and  C7_10 
REMARK    4  A    between atoms: C7_10  and  C8_11 
REMARK    5  A    between atoms: C10_13  and  O2_14 
REMARK    6  A    between atoms: C13_17  and  O3_18 
REMARK    7  A    between atoms: C16_21  and  O4_22 
ROOT
HETATM    1  C3  UNL     1       3.293  -0.601  -0.130  1.00  0.00     0.042 A 
HETATM    2  C4  UNL     1       2.419   0.382  -0.073  1.00  0.00     0.028 A 
HETATM    3  C5  UNL     1       1.020   0.128   0.246  1.00  0.00    -0.021 A 
HETATM    4  C6  UNL     1       0.126   1.092   0.310  1.00  0.00     0.094 C 
HETATM    5  C14 UNL     1       0.567  -1.233   0.509  1.00  0.00     0.011 A 
HETATM    6  C15 UNL     1       1.530  -2.136   0.423  1.00  0.00     0.010 A 
HETATM    7  C16 UNL     1       2.959  -2.026   0.116  1.00  0.00     0.179 A 
ENDROOT
BRANCH   4   8
HETATM    8  N2  UNL     1      -1.258   0.959   0.611  1.00  0.00    -0.394 N 
HETATM    9  H7  UNL     1      -1.338   1.249   1.623  1.00  0.00     0.159 HD
BRANCH   8  10
HETATM   10  C7  UNL     1      -2.200   0.508  -0.389  1.00  0.00     0.160 C 
BRANCH  10  11
HETATM   11  C8  UNL     1      -3.576   0.438   0.116  1.00  0.00    -0.005 A 
HETATM   12  C9  UNL     1      -4.083   0.730   1.365  1.00  0.00     0.048 A 
HETATM   13  C10 UNL     1      -5.430   0.592   1.629  1.00  0.00     0.066 A 
HETATM   14  C11 UNL     1      -6.318   0.159   0.657  1.00  0.00     0.039 A 
HETATM   15  C12 UNL     1      -5.829  -0.135  -0.591  1.00  0.00     0.040 A 
HETATM   16  C13 UNL     1      -4.466   0.002  -0.867  1.00  0.00     0.073 A 
BRANCH  13  17
HETATM   17  O2  UNL     1      -5.723   0.942   2.959  1.00  0.00    -0.361 OA
HETATM   18  H11 UNL     1      -5.683   1.939   3.223  1.00  0.00     0.217 HD
ENDBRANCH  13  17
BRANCH  16  19
HETATM   19  O3  UNL     1      -4.143  -0.341  -2.187  1.00  0.00    -0.360 OA
HETATM   20  H14 UNL     1      -3.213  -0.630  -2.436  1.00  0.00     0.217 HD
ENDBRANCH  16  19
ENDBRANCH  10  11
ENDBRANCH   8  10
ENDBRANCH   4   8
BRANCH   1  21
HETATM   21  C2  UNL     1       4.683  -0.305  -0.452  1.00  0.00     0.250 C 
HETATM   22  N1  UNL     1       5.216   0.985  -0.723  1.00  0.00    -0.361 N 
HETATM   23  C1  UNL     1       6.607   1.208  -1.036  1.00  0.00     0.149 C 
HETATM   24  H4  UNL     1       4.577   1.805  -0.693  1.00  0.00     0.162 HD
HETATM   25  O1  UNL     1       5.578  -1.203  -0.525  1.00  0.00    -0.268 OA
ENDBRANCH   1  21
BRANCH   7  26
HETATM   26  O4  UNL     1       3.797  -2.597   1.071  1.00  0.00    -0.387 OA
HETATM   27  H18 UNL     1       4.019  -3.515   0.745  1.00  0.00     0.210 HD
ENDBRANCH   7  26
TORSDOF 7
