REMARK  0 active torsions:
REMARK  status: ('A' for Active; 'I' for Inactive)
ROOT
HETATM    1  C1  UNL     1       3.871  -0.141  -1.712  1.00  0.00     0.045 C 
HETATM    2  C2  UNL     1       3.452  -0.772  -0.447  1.00  0.00    -0.062 C 
HETATM    3  C3  UNL     1       3.069  -2.063  -0.477  1.00  0.00     0.137 C 
HETATM    4  O1  UNL     1       2.616  -2.989   0.485  1.00  0.00    -0.354 OA
HETATM    5  C4  UNL     1       1.587  -3.869   0.211  1.00  0.00     0.162 C 
HETATM    6  C5  UNL     1       0.273  -3.935   0.568  1.00  0.00     0.028 C 
HETATM    7  C6  UNL     1      -1.098  -4.394   0.679  1.00  0.00     0.034 C 
HETATM    8  C7  UNL     1      -2.024  -3.316   0.231  1.00  0.00    -0.029 C 
HETATM    9  C8  UNL     1      -2.445  -2.154  -0.194  1.00  0.00    -0.011 C 
HETATM   10  C9  UNL     1      -3.524  -1.240  -0.607  1.00  0.00     0.146 C 
HETATM   11  N1  UNL     1      -3.594  -0.133   0.311  1.00  0.00    -0.396 N 
HETATM   12  C10 UNL     1      -4.505   0.779  -0.280  1.00  0.00     0.079 C 
HETATM   13  C11 UNL     1      -4.401   2.114  -0.426  1.00  0.00    -0.010 C 
HETATM   14  C12 UNL     1      -3.190   2.729   0.102  1.00  0.00     0.033 C 
HETATM   15  C13 UNL     1      -1.982   2.473  -0.767  1.00  0.00     0.084 C 
HETATM   16  C14 UNL     1      -0.825   3.208  -0.129  1.00  0.00     0.351 A 
HETATM   17  O2  UNL     1      -0.095   4.017   0.486  1.00  0.00    -0.151 OA
HETATM   18  N2  UNL     1       0.534   2.809  -0.125  1.00  0.00     0.086 N 
HETATM   19  C15 UNL     1       1.785   3.332   0.387  1.00  0.00     0.275 C 
HETATM   20  C16 UNL     1       2.898   2.271   0.128  1.00  0.00     0.031 C 
HETATM   21  C17 UNL     1       2.533   1.068   0.973  1.00  0.00     0.006 C 
HETATM   22  C18 UNL     1       3.414  -0.112   0.856  1.00  0.00     0.036 C 
HETATM   23  H13 UNL     1      -3.413   0.443   1.142  1.00  0.00     0.159 HD
HETATM   24  H20 UNL     1       0.595   1.879  -0.647  1.00  0.00     0.322 HD
ENDROOT
TORSDOF 0
