REMARK  8 active torsions:
REMARK  status: ('A' for Active; 'I' for Inactive)
REMARK    1  A    between atoms: C1_2  and  O2_3 
REMARK    2  A    between atoms: C1_2  and  C2_4 
REMARK    3  A    between atoms: C4_6  and  N1_7 
REMARK    4  A    between atoms: N1_7  and  C5_8 
REMARK    5  A    between atoms: C5_8  and  C6_9 
REMARK    6  A    between atoms: C8_11  and  O3_12 
REMARK    7  A    between atoms: C11_15  and  O4_16 
REMARK    8  A    between atoms: C14_19  and  O5_20 
ROOT
HETATM    1  N1  UNL     1      -0.151   0.116   0.038  1.00  0.00    -0.389 N 
HETATM    2  H3  UNL     1      -0.541  -0.743   0.456  1.00  0.00     0.159 HD
ENDROOT
BRANCH   1   3
HETATM    3  C4  UNL     1       1.248   0.165  -0.231  1.00  0.00     0.029 A 
HETATM    4  C3  UNL     1       2.077  -0.918   0.061  1.00  0.00     0.050 A 
HETATM    5  C2  UNL     1       3.419  -0.835  -0.211  1.00  0.00     0.072 A 
HETATM    6  C14 UNL     1       3.993   0.291  -0.771  1.00  0.00     0.082 A 
HETATM    7  C13 UNL     1       3.191   1.369  -1.065  1.00  0.00     0.040 A 
HETATM    8  C12 UNL     1       1.849   1.273  -0.787  1.00  0.00     0.032 A 
BRANCH   5   9
HETATM    9  C1  UNL     1       4.218  -2.008   0.123  1.00  0.00     0.179 C 
HETATM   10  O1  UNL     1       3.798  -3.087   0.636  1.00  0.00    -0.646 OA
BRANCH   9  11
HETATM   11  O2  UNL     1       5.569  -2.135  -0.066  1.00  0.00    -0.773 OA
HETATM   12  H1  UNL     1       6.224  -2.613   0.518  1.00  0.00     0.167 HD
ENDBRANCH   9  11
ENDBRANCH   5   9
BRANCH   6  13
HETATM   13  O5  UNL     1       5.364   0.318  -1.025  1.00  0.00    -0.360 OA
HETATM   14  H15 UNL     1       5.658   0.270  -1.993  1.00  0.00     0.217 HD
ENDBRANCH   6  13
ENDBRANCH   1   3
BRANCH   1  15
HETATM   15  C5  UNL     1      -0.946   1.257  -0.284  1.00  0.00     0.131 C 
BRANCH  15  16
HETATM   16  C6  UNL     1      -2.411   1.111   0.037  1.00  0.00     0.066 A 
HETATM   17  C7  UNL     1      -2.680   0.862   1.478  1.00  0.00     0.077 A 
HETATM   18  C8  UNL     1      -3.562  -0.316   1.619  1.00  0.00     0.044 A 
HETATM   19  C9  UNL     1      -4.151  -1.176   0.810  1.00  0.00     0.034 A 
HETATM   20  C10 UNL     1      -3.880  -0.923  -0.597  1.00  0.00     0.035 A 
HETATM   21  C11 UNL     1      -3.095   0.120  -0.784  1.00  0.00     0.049 A 
BRANCH  18  22
HETATM   22  O3  UNL     1      -3.776  -0.496   2.986  1.00  0.00    -0.365 OA
HETATM   23  H9  UNL     1      -4.670  -0.667   3.399  1.00  0.00     0.217 HD
ENDBRANCH  18  22
BRANCH  21  24
HETATM   24  O4  UNL     1      -2.786   0.429  -2.122  1.00  0.00    -0.365 OA
HETATM   25  H12 UNL     1      -2.268  -0.234  -2.716  1.00  0.00     0.217 HD
ENDBRANCH  21  24
ENDBRANCH  15  16
ENDBRANCH   1  15
TORSDOF 8
