REMARK  7 active torsions:
REMARK  status: ('A' for Active; 'I' for Inactive)
REMARK    1  A    between atoms: C2_2  and  O1_3 
REMARK    2  A    between atoms: C4_6  and  N1_7 
REMARK    3  A    between atoms: N1_7  and  C5_8 
REMARK    4  A    between atoms: C5_8  and  C6_9 
REMARK    5  A    between atoms: C8_11  and  O3_12 
REMARK    6  A    between atoms: C11_15  and  O4_16 
REMARK    7  A    between atoms: C14_19  and  O5_20 
ROOT
HETATM    1  N1  UNL     1       0.664   0.215   0.406  1.00  0.00    -0.387 N 
HETATM    2  H7  UNL     1       1.055   0.709   1.238  1.00  0.00     0.159 HD
ENDROOT
BRANCH   1   3
HETATM    3  C4  UNL     1      -0.767   0.074   0.411  1.00  0.00     0.029 C 
HETATM    4  C3  UNL     1      -1.543  -0.238  -0.819  1.00  0.00     0.228 C 
HETATM    5  O2  UNL     1      -2.570   0.707  -0.878  1.00  0.00    -0.344 OA
HETATM    6  C2  UNL     1      -3.777   0.254  -0.380  1.00  0.00     0.208 C 
HETATM    7  C1  UNL     1      -4.813   1.313  -0.751  1.00  0.00     0.087 C 
HETATM    8  C14 UNL     1      -3.803   0.164   1.105  1.00  0.00     0.104 C 
HETATM    9  C13 UNL     1      -2.801   0.151   1.974  1.00  0.00     0.040 C 
HETATM   10  C12 UNL     1      -1.390   0.228   1.594  1.00  0.00     0.029 C 
BRANCH   6  11
HETATM   11  O1  UNL     1      -4.150  -0.935  -0.999  1.00  0.00    -0.360 OA
HETATM   12  H4  UNL     1      -4.834  -1.425  -0.509  1.00  0.00     0.213 HD
ENDBRANCH   6  11
BRANCH   8  13
HETATM   13  O5  UNL     1      -5.100   0.085   1.595  1.00  0.00    -0.359 OA
HETATM   14  H17 UNL     1      -5.354  -0.846   1.947  1.00  0.00     0.217 HD
ENDBRANCH   8  13
ENDBRANCH   1   3
BRANCH   1  15
HETATM   15  C5  UNL     1       1.337  -0.340  -0.735  1.00  0.00     0.161 C 
BRANCH  15  16
HETATM   16  C6  UNL     1       2.807  -0.216  -0.713  1.00  0.00    -0.005 A 
HETATM   17  C7  UNL     1       3.614   0.676  -1.422  1.00  0.00     0.048 A 
HETATM   18  C8  UNL     1       4.985   0.619  -1.254  1.00  0.00     0.066 A 
HETATM   19  C9  UNL     1       5.593  -0.286  -0.410  1.00  0.00     0.039 A 
HETATM   20  C10 UNL     1       4.801  -1.180   0.305  1.00  0.00     0.040 A 
HETATM   21  C11 UNL     1       3.451  -1.123   0.138  1.00  0.00     0.073 A 
BRANCH  18  22
HETATM   22  O3  UNL     1       5.741   1.542  -1.993  1.00  0.00    -0.361 OA
HETATM   23  H11 UNL     1       6.473   2.004  -1.449  1.00  0.00     0.217 HD
ENDBRANCH  18  22
BRANCH  21  24
HETATM   24  O4  UNL     1       2.748  -2.059   0.895  1.00  0.00    -0.360 OA
HETATM   25  H14 UNL     1       2.545  -1.772   1.855  1.00  0.00     0.217 HD
ENDBRANCH  21  24
ENDBRANCH  15  16
ENDBRANCH   1  15
TORSDOF 7
