REMARK  6 active torsions:
REMARK  status: ('A' for Active; 'I' for Inactive)
REMARK    1  A    between atoms: C2_2  and  N1_3 
REMARK       I    between atoms: N1_3  and  C3_4 
REMARK    2  A    between atoms: C3_4  and  C4_6 
REMARK    3  A    between atoms: N2_8  and  C6_9 
REMARK    4  A    between atoms: C6_9  and  C7_10 
REMARK    5  A    between atoms: C11_15  and  O3_16 
REMARK    6  A    between atoms: C14_19  and  O4_20 
ROOT
HETATM    1  C4  UNL     1       1.935  -1.226  -0.139  1.00  0.00     0.080 C 
HETATM    2  C5  UNL     1       0.869  -0.455  -0.336  1.00  0.00     0.105 C 
HETATM    3  N2  UNL     1      -0.554  -0.687  -0.339  1.00  0.00    -0.383 N 
HETATM    4  C12 UNL     1      -0.871  -1.995   0.145  1.00  0.00     0.152 C 
HETATM    5  C13 UNL     1       0.333  -2.846   0.338  1.00  0.00     0.030 C 
HETATM    6  C14 UNL     1       1.619  -2.604   0.241  1.00  0.00     0.080 C 
ENDROOT
BRANCH   3   7
HETATM    7  C6  UNL     1      -1.281   0.431  -0.835  1.00  0.00     0.162 C 
BRANCH   7   8
HETATM    8  C7  UNL     1      -2.097   1.283   0.076  1.00  0.00     0.201 A 
HETATM    9  O2  UNL     1      -2.645   2.320  -0.773  1.00  0.00    -0.349 OA
HETATM   10  C8  UNL     1      -3.936   2.666  -0.912  1.00  0.00     0.136 A 
HETATM   11  C9  UNL     1      -4.908   2.086  -0.223  1.00  0.00     0.026 A 
HETATM   12  C10 UNL     1      -4.463   1.026   0.705  1.00  0.00     0.036 A 
HETATM   13  C11 UNL     1      -3.173   0.662   0.842  1.00  0.00     0.074 A 
BRANCH  13  14
HETATM   14  O3  UNL     1      -3.282  -0.327   1.809  1.00  0.00    -0.362 OA
HETATM   15  H12 UNL     1      -3.679  -1.225   1.574  1.00  0.00     0.217 HD
ENDBRANCH  13  14
ENDBRANCH   7   8
ENDBRANCH   3   7
BRANCH   1  16
HETATM   16  C3  UNL     1       3.330  -0.831  -0.178  1.00  0.00     0.256 C 
HETATM   17  N1  UNL     1       3.808   0.478  -0.421  1.00  0.00    -0.350 N 
HETATM   18  H4  UNL     1       3.156   1.245  -0.589  1.00  0.00     0.163 HD
HETATM   19  O1  UNL     1       4.211  -1.691   0.013  1.00  0.00    -0.268 OA
BRANCH  17  20
HETATM   20  C2  UNL     1       5.230   0.450  -0.379  1.00  0.00     0.107 C 
HETATM   21  C1  UNL     1       5.637   1.722  -0.617  1.00  0.00     0.029 C 
ENDBRANCH  17  20
ENDBRANCH   1  16
BRANCH   6  22
HETATM   22  O4  UNL     1       2.557  -3.592   0.486  1.00  0.00    -0.360 OA
HETATM   23  H16 UNL     1       2.501  -4.406  -0.118  1.00  0.00     0.217 HD
ENDBRANCH   6  22
TORSDOF 6
