REMARK  2 active torsions:
REMARK  status: ('A' for Active; 'I' for Inactive)
REMARK    1  A    between atoms: C5_6  and  N1_7 
REMARK    2  A    between atoms: N1_7  and  C6_8 
ROOT
HETATM    1  C6  UNL     1       0.159   0.238  -0.719  1.00  0.00     0.174 C 
HETATM    2  C7  UNL     1       1.269   0.900  -1.520  1.00  0.00     0.092 C 
HETATM    3  S1  UNL     1       1.765   2.157  -0.638  1.00  0.00    -0.078 SA
HETATM    4  C8  UNL     1       3.398   1.894   0.011  1.00  0.00     0.059 C 
HETATM    5  C9  UNL     1       3.963   0.793   0.560  1.00  0.00     0.008 C 
HETATM    6  C10 UNL     1       3.533  -0.600   0.888  1.00  0.00     0.008 C 
HETATM    7  C11 UNL     1       2.239  -0.998   1.052  1.00  0.00    -0.051 C 
HETATM    8  C12 UNL     1       0.990  -0.422   1.677  1.00  0.00     0.037 C 
HETATM    9  C13 UNL     1       0.645   0.507   0.713  1.00  0.00     0.069 C 
HETATM   10  N2  UNL     1       0.680   1.977   0.729  1.00  0.00    -0.332 N 
HETATM   11  C14 UNL     1       2.429  -2.311   0.306  1.00  0.00     0.091 C 
HETATM   12  P1  UNL     1       1.369  -2.174  -1.233  1.00  0.00    -0.028 P 
HETATM   13  N3  UNL     1       0.021  -1.087  -1.094  1.00  0.00    -0.365 N 
HETATM   14  H10 UNL     1       0.632   3.021   0.833  1.00  0.00     0.174 HD
HETATM   15  H13 UNL     1       0.852  -3.523  -1.439  1.00  0.00     0.080 HD
HETATM   16  H14 UNL     1      -0.716  -1.282  -1.763  1.00  0.00     0.161 HD
ENDROOT
BRANCH   1  17
HETATM   17  N1  UNL     1      -1.080   0.926  -0.999  1.00  0.00    -0.355 N 
HETATM   18  H4  UNL     1      -1.083   1.745  -1.646  1.00  0.00     0.163 HD
BRANCH  17  19
HETATM   19  C5  UNL     1      -2.319   0.547  -0.434  1.00  0.00     0.032 A 
HETATM   20  C4  UNL     1      -2.478  -0.513   0.429  1.00  0.00     0.029 A 
HETATM   21  C3  UNL     1      -3.672  -0.891   0.986  1.00  0.00     0.004 A 
HETATM   22  C2  UNL     1      -4.818  -0.180   0.680  1.00  0.00     0.024 A 
HETATM   23  C1  UNL     1      -4.721   0.889  -0.177  1.00  0.00     0.036 A 
HETATM   24 CL1  UNL     1      -6.149   1.824  -0.597  1.00  0.00    -0.084 Cl
HETATM   25  C15 UNL     1      -3.485   1.223  -0.709  1.00  0.00     0.053 A 
ENDBRANCH  17  19
ENDBRANCH   1  17
TORSDOF 2
