REMARK  5 active torsions:
REMARK  status: ('A' for Active; 'I' for Inactive)
REMARK    1  A    between atoms: C8_10  and  O1_11 
REMARK    2  A    between atoms: C10_13  and  C11_14 
REMARK    3  A    between atoms: C11_14  and  C12_15 
REMARK    4  A    between atoms: C12_15  and  C13_16 
REMARK    5  A    between atoms: N3_32  and  N4_33 
ROOT
HETATM    1  C1  UNL     1      -1.991  -4.481  -0.992  1.00  0.00     0.071 C 
HETATM    2  C2  UNL     1      -3.094  -3.571  -0.647  1.00  0.00     0.042 A 
HETATM    3  N1  UNL     1      -4.222  -4.292  -0.531  1.00  0.00    -0.246 NA
HETATM    4  C3  UNL     1      -5.392  -3.695  -0.248  1.00  0.00     0.235 A 
HETATM    5  N2  UNL     1      -5.371  -2.358  -0.091  1.00  0.00    -0.223 NA
HETATM    6  C4  UNL     1      -4.243  -1.639  -0.208  1.00  0.00     0.149 A 
HETATM    7  C5  UNL     1      -3.016  -2.203  -0.495  1.00  0.00     0.014 A 
HETATM    8  C6  UNL     1      -1.732  -1.530  -0.640  1.00  0.00     0.060 C 
HETATM    9  C7  UNL     1      -1.008  -1.194   0.640  1.00  0.00     0.076 A 
HETATM   10  C8  UNL     1      -0.244  -2.357   1.195  1.00  0.00     0.052 A 
HETATM   11  C9  UNL     1       1.068  -2.066   1.283  1.00  0.00     0.040 A 
HETATM   12  C10 UNL     1       1.293  -0.703   0.807  1.00  0.00    -0.052 A 
HETATM   13  C19 UNL     1       0.110  -0.225   0.452  1.00  0.00    -0.063 A 
HETATM   14  C20 UNL     1      -0.252   1.159  -0.066  1.00  0.00     0.036 C 
HETATM   15  C21 UNL     1      -0.933   1.845   1.065  1.00  0.00     0.009 C 
HETATM   16  C22 UNL     1      -1.538   3.164   0.857  1.00  0.00    -0.010 C 
HETATM   17  C23 UNL     1      -1.711   3.740  -0.500  1.00  0.00     0.005 C 
HETATM   18  C24 UNL     1      -3.023   4.342   0.030  1.00  0.00     0.005 C 
HETATM   19  C25 UNL     1      -3.088   3.107   0.931  1.00  0.00    -0.009 C 
HETATM   20  C26 UNL     1      -3.620   1.970   0.137  1.00  0.00     0.026 C 
HETATM   21  C27 UNL     1      -4.292   0.864   0.910  1.00  0.00     0.145 C 
HETATM   22  N3  UNL     1      -4.605  -0.251  -0.013  1.00  0.00    -0.298 N 
ENDROOT
BRANCH  12  23
HETATM   23  C11 UNL     1       2.599   0.045   0.723  1.00  0.00     0.042 C 
BRANCH  23  24
HETATM   24  C12 UNL     1       3.509  -0.726  -0.192  1.00  0.00     0.042 C 
BRANCH  24  25
HETATM   25  C13 UNL     1       4.832  -0.077  -0.357  1.00  0.00     0.062 C 
HETATM   26  C14 UNL     1       5.760  -0.844  -1.278  1.00  0.00     0.040 C 
HETATM   27  C15 UNL     1       6.618   0.259  -1.858  1.00  0.00     0.035 C 
HETATM   28  C16 UNL     1       6.119   1.460  -1.085  1.00  0.00     0.122 C 
HETATM   29  C17 UNL     1       6.518   1.375   0.356  1.00  0.00     0.035 C 
HETATM   30  O2  UNL     1       4.752   1.160  -1.024  1.00  0.00    -0.375 OA
HETATM   31  C18 UNL     1       5.540   0.319   0.893  1.00  0.00     0.040 C 
ENDBRANCH  24  25
ENDBRANCH  23  24
ENDBRANCH  12  23
BRANCH  10  32
HETATM   32  O1  UNL     1      -0.490  -3.649   1.650  1.00  0.00    -0.364 OA
HETATM   33  H8  UNL     1      -0.117  -4.482   1.232  1.00  0.00     0.217 HD
ENDBRANCH  10  32
BRANCH  22  34
HETATM   34  N4  UNL     1      -5.519   0.263  -0.975  1.00  0.00    -0.246 NA
HETATM   35  H37 UNL     1      -4.974   0.781  -1.670  1.00  0.00     0.143 HD
HETATM   36  H38 UNL     1      -6.312   0.733  -0.531  1.00  0.00     0.143 HD
ENDBRANCH  22  34
TORSDOF 5
