REMARK  7 active torsions:
REMARK  status: ('A' for Active; 'I' for Inactive)
REMARK    1  A    between atoms: S1_2  and  O3_4 
REMARK    2  A    between atoms: S1_2  and  C1_5 
REMARK    3  A    between atoms: C5_9  and  N1_10 
REMARK    4  A    between atoms: N1_10  and  C6_11 
REMARK    5  A    between atoms: C6_11  and  C7_12 
REMARK    6  A    between atoms: C9_14  and  O4_15 
REMARK    7  A    between atoms: C12_18  and  O5_19 
ROOT
HETATM    1  N1  UNL     1       0.043   0.073   1.808  1.00  0.00    -0.386 N 
HETATM    2  H5  UNL     1       0.229   0.816   2.512  1.00  0.00     0.160 HD
ENDROOT
BRANCH   1   3
HETATM    3  C5  UNL     1       0.993  -0.150   0.783  1.00  0.00     0.029 A 
HETATM    4  C4  UNL     1       0.868  -1.117  -0.189  1.00  0.00     0.029 A 
HETATM    5  C3  UNL     1       1.823  -1.299  -1.170  1.00  0.00     0.004 A 
HETATM    6  C2  UNL     1       2.950  -0.508  -1.212  1.00  0.00     0.025 A 
HETATM    7  C1  UNL     1       3.113   0.459  -0.270  1.00  0.00     0.074 A 
HETATM    8  C13 UNL     1       2.142   0.622   0.705  1.00  0.00     0.054 A 
BRANCH   7   9
HETATM    9  S1  UNL     1       4.519   1.510  -0.231  1.00  0.00     0.129 S 
HETATM   10  O1  UNL     1       5.761   0.765  -0.573  1.00  0.00    -0.598 OA
HETATM   11  O2  UNL     1       4.690   2.073   1.173  1.00  0.00    -0.598 OA
BRANCH   9  12
HETATM   12  O3  UNL     1       4.290   2.847  -1.249  1.00  0.00    -0.292 OA
HETATM   13  H1  UNL     1       4.612   2.591  -2.134  1.00  0.00     0.232 HD
ENDBRANCH   9  12
ENDBRANCH   7   9
ENDBRANCH   1   3
BRANCH   1  14
HETATM   14  C6  UNL     1      -1.167  -0.695   1.900  1.00  0.00     0.161 C 
BRANCH  14  15
HETATM   15  C7  UNL     1      -2.091  -0.479   0.757  1.00  0.00    -0.005 A 
HETATM   16  C8  UNL     1      -1.781   0.505  -0.148  1.00  0.00     0.048 A 
HETATM   17  C9  UNL     1      -2.582   0.777  -1.228  1.00  0.00     0.066 A 
HETATM   18  C10 UNL     1      -3.749   0.062  -1.452  1.00  0.00     0.039 A 
HETATM   19  C11 UNL     1      -4.029  -0.923  -0.517  1.00  0.00     0.040 A 
HETATM   20  C12 UNL     1      -3.240  -1.221   0.584  1.00  0.00     0.073 A 
BRANCH  17  21
HETATM   21  O4  UNL     1      -2.299   1.776  -2.177  1.00  0.00    -0.361 OA
HETATM   22  H9  UNL     1      -3.041   2.286  -2.638  1.00  0.00     0.217 HD
ENDBRANCH  17  21
BRANCH  20  23
HETATM   23  O5  UNL     1      -3.572  -2.221   1.488  1.00  0.00    -0.360 OA
HETATM   24  H12 UNL     1      -3.295  -3.182   1.296  1.00  0.00     0.217 HD
ENDBRANCH  20  23
ENDBRANCH  14  15
ENDBRANCH   1  14
TORSDOF 7
