REMARK  8 active torsions:
REMARK  status: ('A' for Active; 'I' for Inactive)
REMARK    1  A    between atoms: N2_12  and  C11_13 
REMARK    2  A    between atoms: C13_17  and  N5_18 
REMARK    3  A    between atoms: C14_19  and  C15_20 
REMARK    4  A    between atoms: C15_20  and  C16_21 
REMARK    5  A    between atoms: C16_21  and  C18_23 
REMARK    6  A    between atoms: C19_24  and  O1_25 
REMARK    7  A    between atoms: O1_25  and  C20_26 
REMARK    8  A    between atoms: C20_26  and  C21_27 
ROOT
HETATM    1  C11 UNL     1      -2.110  -1.609  -1.547  1.00  0.00     0.141 A 
HETATM    2  N3  UNL     1      -2.139  -1.614  -2.913  1.00  0.00    -0.224 NA
HETATM    3  C12 UNL     1      -1.148  -2.127  -3.663  1.00  0.00     0.237 A 
HETATM    4  N4  UNL     1      -0.049  -2.677  -3.075  1.00  0.00    -0.224 NA
HETATM    5  C13 UNL     1       0.004  -2.685  -1.711  1.00  0.00     0.132 A 
HETATM    6  C14 UNL     1      -1.008  -2.162  -0.954  1.00  0.00     0.034 A 
ENDROOT
BRANCH   6   7
HETATM    7  C15 UNL     1      -0.965  -2.193   0.501  1.00  0.00     0.054 C 
BRANCH   7   8
HETATM    8  C16 UNL     1      -0.593  -0.849   1.056  1.00  0.00     0.010 C 
HETATM    9  C17 UNL     1      -0.563  -0.958   2.596  1.00  0.00     0.014 C 
BRANCH   8  10
HETATM   10  C18 UNL     1       0.770  -0.429   0.649  1.00  0.00     0.002 C 
HETATM   11  C19 UNL     1       1.478   0.506   0.037  1.00  0.00     0.131 C 
BRANCH  11  12
HETATM   12  O1  UNL     1       2.851   0.551  -0.162  1.00  0.00    -0.360 OA
BRANCH  12  13
HETATM   13  C20 UNL     1       3.729   1.240   0.696  1.00  0.00     0.212 C 
BRANCH  13  14
HETATM   14  C21 UNL     1       5.169   1.066   0.324  1.00  0.00     0.083 C 
HETATM   15  C22 UNL     1       5.537   1.477  -1.056  1.00  0.00     0.043 C 
HETATM   16  C23 UNL     1       6.728   0.557  -1.344  1.00  0.00     0.035 C 
HETATM   17  C24 UNL     1       6.899  -0.133  -0.019  1.00  0.00     0.122 C 
HETATM   18  C25 UNL     1       7.393   0.845   0.994  1.00  0.00     0.035 C 
HETATM   19  O2  UNL     1       5.555  -0.294   0.361  1.00  0.00    -0.373 OA
HETATM   20  C26 UNL     1       6.123   1.646   1.315  1.00  0.00     0.043 C 
ENDBRANCH  13  14
ENDBRANCH  12  13
ENDBRANCH  11  12
ENDBRANCH   8  10
ENDBRANCH   7   8
ENDBRANCH   6   7
BRANCH   1  21
HETATM   21  N2  UNL     1      -3.292  -1.016  -1.045  1.00  0.00    -0.329 N 
HETATM   22  C2  UNL     1      -3.192   0.403  -1.316  1.00  0.00     0.037 C 
HETATM   23  C1  UNL     1      -2.066   0.832  -1.857  1.00  0.00     0.041 C 
HETATM   24  C3  UNL     1      -3.871   1.705  -1.259  1.00  0.00     0.273 C 
HETATM   25  C4  UNL     1      -3.110   2.707  -0.420  1.00  0.00     0.072 C 
HETATM   26  N1  UNL     1      -4.982   1.760  -0.328  1.00  0.00     0.099 N 
HETATM   27  C5  UNL     1      -4.513   3.122  -0.002  1.00  0.00     0.276 C 
HETATM   28  C6  UNL     1      -4.785   0.934   0.819  1.00  0.00     0.278 C 
HETATM   29  C7  UNL     1      -5.549  -0.337   0.738  1.00  0.00     0.018 C 
HETATM   30  C8  UNL     1      -5.703  -0.936  -0.616  1.00  0.00     0.032 C 
HETATM   31  C10 UNL     1      -4.554  -1.457   1.050  1.00  0.00     0.032 C 
HETATM   32  C9  UNL     1      -4.402  -1.690  -0.405  1.00  0.00     0.092 C 
ENDBRANCH   1  21
BRANCH   5  33
HETATM   33  N5  UNL     1       1.112  -3.238  -1.017  1.00  0.00    -0.383 N 
HETATM   34  H17 UNL     1       2.055  -2.838  -0.829  1.00  0.00     0.157 HD
HETATM   35  H18 UNL     1       1.359  -4.115  -0.516  1.00  0.00     0.157 HD
ENDBRANCH   5  33
TORSDOF 8
