REMARK  5 active torsions:
REMARK  status: ('A' for Active; 'I' for Inactive)
REMARK    1  A    between atoms: O1_2  and  C2_3 
REMARK    2  A    between atoms: C2_3  and  C4_5 
REMARK    3  A    between atoms: C10_13  and  C11_14 
REMARK    4  A    between atoms: C11_14  and  O4_16 
REMARK    5  A    between atoms: C13_18  and  O5_19 
ROOT
HETATM    1  C4  UNL     1      -0.955  -0.170  -0.302  1.00  0.00    -0.014 C 
HETATM    2  C5  UNL     1      -0.787  -1.455  -0.331  1.00  0.00     0.094 C 
HETATM    3  N1  UNL     1       0.098  -2.529  -0.451  1.00  0.00    -0.377 N 
HETATM    4  C6  UNL     1       1.264  -3.284  -0.077  1.00  0.00     0.291 C 
HETATM    5  O2  UNL     1       2.470  -2.749  -0.532  1.00  0.00    -0.358 OA
HETATM    6  C7  UNL     1       2.553  -1.531   0.034  1.00  0.00     0.186 C 
HETATM    7  C8  UNL     1       1.944  -0.513  -0.902  1.00  0.00     0.025 C 
HETATM    8  C9  UNL     1       2.155   0.664  -0.337  1.00  0.00     0.014 C 
HETATM    9  C10 UNL     1       1.000   1.589  -0.325  1.00  0.00     0.051 C 
HETATM   10  C12 UNL     1      -0.231   1.095  -0.307  1.00  0.00     0.030 C 
HETATM   11  C13 UNL     1       3.470   0.992   0.305  1.00  0.00     0.087 C 
HETATM   12  P1  UNL     1       4.270  -0.690  -0.061  1.00  0.00     0.015 P 
HETATM   13  H9  UNL     1      -0.189  -3.144  -1.295  1.00  0.00     0.161 HD
ENDROOT
BRANCH   1  14
HETATM   14  C2  UNL     1      -2.414   0.215  -0.122  1.00  0.00     0.151 C 
HETATM   15  C3  UNL     1      -2.827   1.123  -1.274  1.00  0.00     0.045 C 
BRANCH  14  16
HETATM   16  O1  UNL     1      -3.266  -0.828   0.010  1.00  0.00    -0.386 OA
HETATM   17  C1  UNL     1      -3.984  -0.846   1.198  1.00  0.00     0.202 C 
ENDBRANCH  14  16
ENDBRANCH   1  14
BRANCH   9  18
HETATM   18  C11 UNL     1       1.248   3.002  -0.350  1.00  0.00     0.177 C 
HETATM   19  O3  UNL     1       0.427   3.937  -0.353  1.00  0.00    -0.646 OA
BRANCH  18  20
HETATM   20  O4  UNL     1       2.469   3.609  -0.378  1.00  0.00    -0.773 OA
HETATM   21  H14 UNL     1       2.779   4.382   0.161  1.00  0.00     0.167 HD
ENDBRANCH  18  20
ENDBRANCH   9  18
BRANCH  11  22
HETATM   22  O5  UNL     1       4.026   2.074   0.955  1.00  0.00    -0.359 OA
HETATM   23  H16 UNL     1       4.873   2.442   0.570  1.00  0.00     0.217 HD
ENDBRANCH  11  22
TORSDOF 5
