REMARK  5 active torsions:
REMARK  status: ('A' for Active; 'I' for Inactive)
REMARK    1  A    between atoms: N1_1  and  C1_2 
REMARK    2  A    between atoms: C4_7  and  C5_8 
REMARK    3  A    between atoms: C9_12  and  O1_13 
REMARK    4  A    between atoms: O1_13  and  C10_14 
REMARK    5  A    between atoms: C10_14  and  C11_15 
ROOT
HETATM    1  C5  UNL     1       2.800   1.551  -0.259  1.00  0.00    -0.024 A 
HETATM    2  C6  UNL     1       2.564   2.890  -0.494  1.00  0.00     0.012 A 
HETATM    3  C7  UNL     1       1.252   3.373  -0.571  1.00  0.00     0.004 A 
HETATM    4  C8  UNL     1       0.159   2.558  -0.420  1.00  0.00     0.037 A 
HETATM    5  C9  UNL     1       0.401   1.224  -0.186  1.00  0.00     0.069 A 
HETATM    6  C17 UNL     1       1.700   0.769  -0.114  1.00  0.00     0.048 A 
ENDROOT
BRANCH   1   7
HETATM    7  C4  UNL     1       4.188   1.107  -0.189  1.00  0.00    -0.006 A 
HETATM    8  C3  UNL     1       5.318   1.788  -0.315  1.00  0.00     0.074 A 
HETATM    9  N3  UNL     1       5.928   0.522  -0.096  1.00  0.00    -0.237 NA
HETATM   10  C2  UNL     1       5.970  -0.817   0.139  1.00  0.00     0.183 A 
HETATM   11  C18 UNL     1       4.739  -0.186   0.028  1.00  0.00     0.143 A 
HETATM   12  N2  UNL     1       5.514  -1.982   0.275  1.00  0.00    -0.259 NA
HETATM   13  C1  UNL     1       4.203  -1.461  -0.003  1.00  0.00     0.368 C 
BRANCH  13  14
HETATM   14  N1  UNL     1       3.629  -1.989  -1.258  1.00  0.00     0.105 N 
HETATM   15  H1  UNL     1       4.164  -2.863  -1.453  1.00  0.00     0.315 HD
HETATM   16  H2  UNL     1       2.611  -2.213  -1.134  1.00  0.00     0.315 HD
ENDBRANCH  13  14
ENDBRANCH   1   7
BRANCH   5  17
HETATM   17  O1  UNL     1      -0.647   0.316  -0.019  1.00  0.00    -0.348 OA
BRANCH  17  18
HETATM   18  C10 UNL     1      -1.968   0.790  -0.094  1.00  0.00     0.213 C 
BRANCH  18  19
HETATM   19  C11 UNL     1      -2.986  -0.296   0.104  1.00  0.00     0.083 C 
HETATM   20  C12 UNL     1      -2.837  -1.053   1.383  1.00  0.00     0.043 C 
HETATM   21  C13 UNL     1      -3.503  -2.388   1.025  1.00  0.00     0.035 C 
HETATM   22  C14 UNL     1      -3.930  -2.134  -0.392  1.00  0.00     0.122 C 
HETATM   23  C15 UNL     1      -5.082  -1.181  -0.406  1.00  0.00     0.035 C 
HETATM   24  O2  UNL     1      -2.881  -1.306  -0.849  1.00  0.00    -0.373 OA
HETATM   25  C16 UNL     1      -4.391   0.156  -0.105  1.00  0.00     0.043 C 
ENDBRANCH  18  19
ENDBRANCH  17  18
ENDBRANCH   5  17
TORSDOF 5
