REMARK  3 active torsions:
REMARK  status: ('A' for Active; 'I' for Inactive)
REMARK    1  A    between atoms: C4_5  and  C5_6 
REMARK    2  A    between atoms: C5_6  and  N2_7 
REMARK    3  A    between atoms: C10_13  and  N4_14 
ROOT
HETATM    1  C5  UNL     1      -0.806   1.007  -0.370  1.00  0.00     0.218 C 
HETATM    2  C6  UNL     1       0.040   1.519   0.736  1.00  0.00     0.168 C 
HETATM    3  N3  UNL     1       1.376   1.092   0.969  1.00  0.00    -0.373 N 
HETATM    4  C7  UNL     1       2.005   0.852  -0.301  1.00  0.00     0.099 C 
HETATM    5  C8  UNL     1       2.850  -0.213  -0.017  1.00  0.00     0.002 C 
HETATM    6  C9  UNL     1       3.545   0.325   1.099  1.00  0.00     0.028 A 
HETATM    7  C10 UNL     1       4.709   0.537   1.630  1.00  0.00     0.130 A 
HETATM    8  N5  UNL     1       4.325   1.286   2.804  1.00  0.00    -0.245 NA
HETATM    9  C11 UNL     1       3.049   1.437   2.935  1.00  0.00     0.122 A 
HETATM   10  C12 UNL     1       2.327   0.796   1.926  1.00  0.00     0.162 A 
HETATM   11  C13 UNL     1       2.898  -1.482  -0.725  1.00  0.00    -0.021 A 
HETATM   12  C14 UNL     1       3.908  -2.376  -0.606  1.00  0.00     0.012 A 
HETATM   13  C15 UNL     1       3.396  -3.489  -1.254  1.00  0.00     0.004 A 
HETATM   14  C16 UNL     1       2.149  -3.584  -1.849  1.00  0.00     0.037 A 
HETATM   15  C17 UNL     1       1.123  -2.698  -1.977  1.00  0.00     0.069 A 
HETATM   16  C18 UNL     1       1.684  -1.626  -1.330  1.00  0.00     0.049 A 
HETATM   17  O1  UNL     1      -0.000  -2.092  -2.251  1.00  0.00    -0.350 OA
HETATM   18  C19 UNL     1      -0.658  -0.930  -2.018  1.00  0.00     0.195 C 
HETATM   19  C20 UNL     1      -1.079  -0.416  -0.659  1.00  0.00     0.081 C 
HETATM   20  C21 UNL     1      -2.620  -0.705  -0.666  1.00  0.00     0.022 C 
HETATM   21  C22 UNL     1      -3.118  -1.236   0.654  1.00  0.00     0.002 C 
HETATM   22  C23 UNL     1      -2.797  -2.691   0.712  1.00  0.00     0.007 C 
HETATM   23  C24 UNL     1      -1.408  -2.761   0.096  1.00  0.00     0.079 C 
HETATM   24  C25 UNL     1      -0.682  -1.446   0.344  1.00  0.00     0.140 C 
HETATM   25  O2  UNL     1       0.032  -1.620   1.322  1.00  0.00    -0.297 OA
ENDROOT
BRANCH   1  26
HETATM   26  C4  UNL     1      -1.976   1.973  -0.346  1.00  0.00     0.266 C 
HETATM   27  C2  UNL     1      -3.021   2.085   0.611  1.00  0.00     0.045 C 
HETATM   28  C1  UNL     1      -2.811   3.095   1.771  1.00  0.00     0.014 C 
HETATM   29  C3  UNL     1      -3.679   2.918  -0.523  1.00  0.00     0.276 C 
HETATM   30  N1  UNL     1      -2.785   2.215  -1.483  1.00  0.00     0.091 N 
HETATM   31  H7  UNL     1      -2.465   2.855  -2.241  1.00  0.00     0.316 HD
ENDBRANCH   1  26
BRANCH   1  32
HETATM   32  N2  UNL     1      -0.193   1.548  -1.611  1.00  0.00     0.093 N 
HETATM   33  H9  UNL     1      -0.875   1.722  -2.357  1.00  0.00     0.314 HD
HETATM   34  H10 UNL     1       0.171   2.517  -1.356  1.00  0.00     0.314 HD
ENDBRANCH   1  32
BRANCH   7  35
HETATM   35  N4  UNL     1       5.921   0.139   1.013  1.00  0.00    -0.383 N 
HETATM   36  H14 UNL     1       6.298   0.829   0.307  1.00  0.00     0.157 HD
HETATM   37  H15 UNL     1       6.071  -0.772   1.480  1.00  0.00     0.157 HD
ENDBRANCH   7  35
TORSDOF 3
