REMARK  4 active torsions:
REMARK  status: ('A' for Active; 'I' for Inactive)
REMARK    1  A    between atoms: C4_5  and  C5_6 
REMARK    2  A    between atoms: C8_10  and  N3_11 
REMARK    3  A    between atoms: N3_11  and  C9_12 
REMARK    4  A    between atoms: C13_16  and  N4_17 
ROOT
HETATM    1  N3  UNL     1       0.199   0.046   0.015  1.00  0.00    -0.188 N 
HETATM    2  H6  UNL     1       0.110  -0.433  -0.927  1.00  0.00     0.184 HD
ENDROOT
BRANCH   1   3
HETATM    3  C8  UNL     1      -0.998   0.266   0.741  1.00  0.00     0.727 A 
HETATM    4  N2  UNL     1      -1.108   0.846   1.933  1.00  0.00    -0.075 NA
HETATM    5  C7  UNL     1      -2.222   1.058   2.624  1.00  0.00     0.139 A 
HETATM    6  C6  UNL     1      -3.404   0.637   2.057  1.00  0.00     0.053 A 
HETATM    7  C5  UNL     1      -3.324   0.033   0.824  1.00  0.00     0.089 A 
HETATM    8  N6  UNL     1      -2.161  -0.133   0.214  1.00  0.00    -0.062 NA
BRANCH   7   9
HETATM    9  C4  UNL     1      -4.532  -0.440   0.161  1.00  0.00     0.011 A 
HETATM   10  C3  UNL     1      -5.815  -0.344   0.657  1.00  0.00     0.130 A 
HETATM   11  N1  UNL     1      -6.891  -0.799  -0.001  1.00  0.00    -0.272 NA
HETATM   12  C2  UNL     1      -6.778  -1.378  -1.192  1.00  0.00     0.116 A 
HETATM   13  C1  UNL     1      -5.553  -1.534  -1.797  1.00  0.00     0.020 A 
HETATM   14  C18 UNL     1      -4.476  -1.051  -1.082  1.00  0.00     0.017 A 
ENDBRANCH   7   9
ENDBRANCH   1   3
BRANCH   1  15
HETATM   15  C9  UNL     1       1.521   0.389   0.389  1.00  0.00     0.051 A 
HETATM   16  C10 UNL     1       1.885   1.014   1.559  1.00  0.00     0.030 A 
HETATM   17  C11 UNL     1       3.173   1.344   1.918  1.00  0.00     0.004 A 
HETATM   18  C12 UNL     1       4.200   1.038   1.058  1.00  0.00     0.030 A 
HETATM   19  C13 UNL     1       3.889   0.410  -0.129  1.00  0.00     0.042 A 
HETATM   20  C17 UNL     1       2.581   0.105  -0.432  1.00  0.00     0.060 A 
BRANCH  19  21
HETATM   21  N4  UNL     1       4.926   0.078  -1.043  1.00  0.00    -0.315 N 
HETATM   22  C14 UNL     1       5.592   0.615  -2.084  1.00  0.00     0.117 A 
HETATM   23  C15 UNL     1       6.514  -0.317  -2.512  1.00  0.00     0.135 A 
HETATM   24  N5  UNL     1       6.407  -1.425  -1.726  1.00  0.00    -0.254 NA
HETATM   25  C16 UNL     1       5.431  -1.169  -0.831  1.00  0.00     0.214 A 
ENDBRANCH  19  21
ENDBRANCH   1  15
TORSDOF 4
