REMARK  5 active torsions:
REMARK  status: ('A' for Active; 'I' for Inactive)
REMARK    1  A    between atoms: N1_1  and  C1_2 
REMARK    2  A    between atoms: C2_3  and  C3_4 
REMARK    3  A    between atoms: C6_8  and  N3_9 
REMARK    4  A    between atoms: N3_9  and  C7_10 
REMARK    5  A    between atoms: C11_14  and  N4_15 
ROOT
HETATM    1  C3  UNL     1       4.378   0.187   0.151  1.00  0.00     0.012 C 
HETATM    2  C4  UNL     1       3.140   0.076  -0.297  1.00  0.00    -0.013 C 
HETATM    3  C5  UNL     1       2.298  -1.094  -0.075  1.00  0.00     0.123 C 
HETATM    4  N2  UNL     1       1.223  -1.262  -0.769  1.00  0.00    -0.247 NA
HETATM    5  C6  UNL     1       0.799  -0.321  -1.784  1.00  0.00     0.446 C 
HETATM    6  N6  UNL     1       1.892   0.529  -2.220  1.00  0.00     0.131 N 
HETATM    7  C16 UNL     1       2.499   1.166  -1.081  1.00  0.00     0.314 C 
HETATM    8  H16 UNL     1       1.572   1.224  -2.896  1.00  0.00     0.321 HD
ENDROOT
BRANCH   5   9
HETATM    9  N3  UNL     1      -0.298   0.459  -1.246  1.00  0.00    -0.343 N 
HETATM   10  H8  UNL     1      -0.256   1.496  -1.143  1.00  0.00     0.163 HD
BRANCH   9  11
HETATM   11  C7  UNL     1      -1.483  -0.195  -0.839  1.00  0.00     0.033 A 
HETATM   12  C8  UNL     1      -1.666  -1.558  -0.933  1.00  0.00     0.029 A 
HETATM   13  C9  UNL     1      -2.814  -2.231  -0.543  1.00  0.00     0.004 A 
HETATM   14  C10 UNL     1      -3.863  -1.488  -0.017  1.00  0.00     0.030 A 
HETATM   15  C11 UNL     1      -3.728  -0.120   0.097  1.00  0.00     0.042 A 
HETATM   16  C15 UNL     1      -2.557   0.484  -0.311  1.00  0.00     0.059 A 
BRANCH  15  17
HETATM   17  N4  UNL     1      -4.847   0.544   0.642  1.00  0.00    -0.315 N 
HETATM   18  C12 UNL     1      -5.296   0.952   1.850  1.00  0.00     0.117 A 
HETATM   19  C13 UNL     1      -6.516   1.570   1.703  1.00  0.00     0.135 A 
HETATM   20  N5  UNL     1      -6.815   1.536   0.376  1.00  0.00    -0.254 NA
HETATM   21  C14 UNL     1      -5.786   0.907  -0.253  1.00  0.00     0.214 A 
ENDBRANCH  15  17
ENDBRANCH   9  11
ENDBRANCH   5   9
BRANCH   1  22
HETATM   22  C2  UNL     1       5.035  -0.857   0.920  1.00  0.00     0.017 C 
HETATM   23  C1  UNL     1       6.272  -0.697   1.344  1.00  0.00     0.080 C 
BRANCH  23  24
HETATM   24  N1  UNL     1       6.946   0.529   1.028  1.00  0.00    -0.408 N 
HETATM   25  H1  UNL     1       7.380   1.458   1.285  1.00  0.00     0.155 HD
HETATM   26  H2  UNL     1       7.092   0.497  -0.011  1.00  0.00     0.155 HD
ENDBRANCH  23  24
ENDBRANCH   1  22
TORSDOF 5
