REMARK  7 active torsions:
REMARK  status: ('A' for Active; 'I' for Inactive)
REMARK    1  A    between atoms: C4_5  and  O2_6 
REMARK    2  A    between atoms: O2_6  and  C5_7 
REMARK    3  A    between atoms: C9_11  and  C10_12 
REMARK    4  A    between atoms: N1_14  and  C12_15 
REMARK    5  A    between atoms: C14_17  and  C15_18 
REMARK    6  A    between atoms: C15_18  and  N2_19 
REMARK    7  A    between atoms: C22_28  and  N5_29 
ROOT
HETATM    1  C10 UNL     1      -0.083  -0.846  -0.407  1.00  0.00     0.008 A 
HETATM    2  C11 UNL     1       1.210  -0.326  -0.534  1.00  0.00     0.106 A 
HETATM    3  N1  UNL     1       2.118  -1.084   0.105  1.00  0.00    -0.335 N 
HETATM    4  C20 UNL     1       1.432  -2.115   0.662  1.00  0.00     0.146 A 
HETATM    5  N3  UNL     1       1.762  -3.184   1.404  1.00  0.00    -0.223 NA
HETATM    6  C21 UNL     1       0.805  -4.037   1.796  1.00  0.00     0.237 A 
HETATM    7  N4  UNL     1      -0.496  -3.904   1.496  1.00  0.00    -0.224 NA
HETATM    8  C22 UNL     1      -0.897  -2.847   0.750  1.00  0.00     0.137 A 
HETATM    9  C23 UNL     1       0.096  -1.978   0.355  1.00  0.00     0.068 A 
ENDROOT
BRANCH   1  10
HETATM   10  C9  UNL     1      -1.193  -0.138  -1.020  1.00  0.00    -0.021 A 
HETATM   11  C8  UNL     1      -1.061   0.164  -2.364  1.00  0.00     0.012 A 
HETATM   12  C7  UNL     1      -2.047   0.845  -3.047  1.00  0.00     0.004 A 
HETATM   13  C6  UNL     1      -3.203   1.255  -2.423  1.00  0.00     0.037 A 
HETATM   14  C5  UNL     1      -3.343   0.954  -1.063  1.00  0.00     0.072 A 
HETATM   15  C24 UNL     1      -2.349   0.274  -0.401  1.00  0.00     0.049 A 
BRANCH  14  16
HETATM   16  O2  UNL     1      -4.520   1.389  -0.493  1.00  0.00    -0.320 OA
BRANCH  16  17
HETATM   17  C4  UNL     1      -4.914   1.224   0.839  1.00  0.00     0.270 C 
HETATM   18  O1  UNL     1      -5.260   2.474   1.324  1.00  0.00    -0.360 OA
HETATM   19  C3  UNL     1      -6.596   2.693   1.153  1.00  0.00     0.175 C 
HETATM   20  C2  UNL     1      -7.193   1.512   0.443  1.00  0.00     0.014 C 
HETATM   21  C1  UNL     1      -8.592   1.183   0.868  1.00  0.00     0.012 C 
HETATM   22  C25 UNL     1      -6.201   0.419   0.821  1.00  0.00     0.043 C 
HETATM   23  C26 UNL     1      -6.146  -0.662  -0.235  1.00  0.00     0.015 C 
ENDBRANCH  16  17
ENDBRANCH  14  16
ENDBRANCH   1  10
BRANCH   3  24
HETATM   24  C12 UNL     1       3.543  -0.887   0.208  1.00  0.00     0.092 C 
HETATM   25  C13 UNL     1       3.977   0.208   1.158  1.00  0.00     0.032 C 
HETATM   26  C14 UNL     1       5.043   0.580   0.151  1.00  0.00     0.018 C 
HETATM   27  C19 UNL     1       4.196  -0.105  -0.902  1.00  0.00     0.032 C 
BRANCH  26  28
HETATM   28  C15 UNL     1       6.329  -0.172   0.449  1.00  0.00     0.277 C 
BRANCH  28  29
HETATM   29  N2  UNL     1       7.357   0.182  -0.516  1.00  0.00     0.088 N 
HETATM   30  C16 UNL     1       7.794   1.542  -0.372  1.00  0.00     0.274 C 
HETATM   31  C17 UNL     1       9.109   1.108   0.197  1.00  0.00     0.060 C 
HETATM   32  C18 UNL     1       8.660  -0.275  -0.138  1.00  0.00     0.274 C 
ENDBRANCH  28  29
ENDBRANCH  26  28
ENDBRANCH   3  24
BRANCH   8  33
HETATM   33  N5  UNL     1      -2.266  -2.669   0.398  1.00  0.00    -0.383 N 
HETATM   34  H27 UNL     1      -2.607  -2.246   1.312  1.00  0.00     0.157 HD
HETATM   35  H28 UNL     1      -2.189  -3.055  -0.574  1.00  0.00     0.157 HD
ENDBRANCH   8  33
TORSDOF 7
