REMARK  1 active torsions:
REMARK  status: ('A' for Active; 'I' for Inactive)
REMARK    1  A    between atoms: C6_6  and  N1_7 
ROOT
HETATM    1  C1  UNL     1      -2.259  -3.724  -0.155  1.00  0.00     0.139 C 
HETATM    2  C2  UNL     1      -0.762  -3.768  -0.352  1.00  0.00    -0.005 C 
HETATM    3  C3  UNL     1      -0.388  -2.480  -0.217  1.00  0.00     0.026 C 
HETATM    4  C4  UNL     1       1.079  -2.181  -0.365  1.00  0.00     0.036 C 
HETATM    5  C5  UNL     1       1.887  -1.151  -0.314  1.00  0.00     0.026 C 
HETATM    6  C6  UNL     1       2.520   0.135  -0.201  1.00  0.00     0.019 C 
HETATM    7  C10 UNL     1       2.278   1.394   0.033  1.00  0.00     0.044 C 
HETATM    8  C11 UNL     1       1.201   2.286   0.329  1.00  0.00     0.112 C 
HETATM    9  N3  UNL     1       0.978   3.531   0.558  1.00  0.00    -0.298 NA
HETATM   10  C12 UNL     1      -0.365   3.980   0.823  1.00  0.00     0.175 C 
HETATM   11  C13 UNL     1      -1.221   2.810   1.001  1.00  0.00    -0.003 C 
HETATM   12  C14 UNL     1      -2.270   2.192   0.539  1.00  0.00     0.030 C 
HETATM   13  C15 UNL     1      -3.261   1.153   0.481  1.00  0.00     0.077 A 
HETATM   14  C16 UNL     1      -4.599   1.333   0.569  1.00  0.00     0.052 A 
HETATM   15  C17 UNL     1      -5.284   0.138   0.462  1.00  0.00     0.139 A 
HETATM   16  N4  UNL     1      -4.644  -1.027   0.293  1.00  0.00    -0.075 NA
HETATM   17  C18 UNL     1      -3.311  -1.133   0.214  1.00  0.00     0.722 A 
HETATM   18  N5  UNL     1      -2.593   0.028   0.315  1.00  0.00    -0.063 NA
HETATM   19  N6  UNL     1      -2.787  -2.426   0.032  1.00  0.00    -0.222 N 
HETATM   20  H18 UNL     1      -2.466  -2.088  -0.913  1.00  0.00     0.177 HD
ENDROOT
BRANCH   6  21
HETATM   21  N1  UNL     1       3.893  -0.083  -0.513  1.00  0.00    -0.319 N 
HETATM   22  C7  UNL     1       4.795   0.899  -0.829  1.00  0.00     0.117 A 
HETATM   23  C8  UNL     1       6.076   0.456  -1.038  1.00  0.00     0.135 A 
HETATM   24  N2  UNL     1       5.986  -0.886  -0.844  1.00  0.00    -0.254 NA
HETATM   25  C9  UNL     1       4.715  -1.151  -0.544  1.00  0.00     0.213 A 
ENDBRANCH   6  21
TORSDOF 1
