REMARK  3 active torsions:
REMARK  status: ('A' for Active; 'I' for Inactive)
REMARK    1  A    between atoms: C4_5  and  C5_6 
REMARK    2  A    between atoms: C8_10  and  N3_11 
REMARK    3  A    between atoms: N3_11  and  C9_12 
ROOT
HETATM    1  C5  UNL     1       2.497   0.052  -0.337  1.00  0.00     0.089 A 
HETATM    2  C6  UNL     1       2.888   0.805  -1.401  1.00  0.00     0.053 A 
HETATM    3  C7  UNL     1       2.208   1.902  -1.871  1.00  0.00     0.139 A 
HETATM    4  N2  UNL     1       1.078   2.214  -1.191  1.00  0.00    -0.075 NA
HETATM    5  C8  UNL     1       0.647   1.501  -0.129  1.00  0.00     0.727 A 
HETATM    6  N5  UNL     1       1.358   0.414   0.300  1.00  0.00    -0.062 NA
ENDROOT
BRANCH   5   7
HETATM    7  N3  UNL     1      -0.552   2.040   0.379  1.00  0.00    -0.188 N 
HETATM    8  H6  UNL     1      -0.342   2.919   0.899  1.00  0.00     0.184 HD
BRANCH   7   9
HETATM    9  C9  UNL     1      -1.899   1.592   0.287  1.00  0.00     0.051 A 
HETATM   10  C10 UNL     1      -2.932   2.388   0.743  1.00  0.00     0.031 A 
HETATM   11  C11 UNL     1      -4.222   1.881   0.649  1.00  0.00     0.013 A 
HETATM   12  C12 UNL     1      -4.559   0.651   0.140  1.00  0.00    -0.014 A 
HETATM   13  C13 UNL     1      -3.439  -0.030  -0.273  1.00  0.00     0.038 A 
HETATM   14  C15 UNL     1      -5.506  -0.409  -0.232  1.00  0.00     0.160 A 
HETATM   15  C14 UNL     1      -2.110   0.326  -0.250  1.00  0.00     0.059 A 
HETATM   16  N4  UNL     1      -4.318  -1.108  -0.650  1.00  0.00    -0.385 N 
HETATM   17  H10 UNL     1      -4.253  -2.060  -1.067  1.00  0.00     0.160 HD
ENDBRANCH   7   9
ENDBRANCH   5   7
BRANCH   1  18
HETATM   18  C4  UNL     1       3.213  -1.098   0.193  1.00  0.00     0.011 A 
HETATM   19  C3  UNL     1       4.355  -1.465  -0.464  1.00  0.00     0.130 A 
HETATM   20  N1  UNL     1       5.039  -2.529   0.033  1.00  0.00    -0.272 NA
HETATM   21  C2  UNL     1       4.594  -3.173   1.119  1.00  0.00     0.116 A 
HETATM   22  C1  UNL     1       3.459  -2.863   1.828  1.00  0.00     0.020 A 
HETATM   23  C16 UNL     1       2.766  -1.769   1.309  1.00  0.00     0.017 A 
ENDBRANCH   1  18
TORSDOF 3
