REMARK  1 active torsions:
REMARK  status: ('A' for Active; 'I' for Inactive)
REMARK    1  A    between atoms: C3_4  and  C4_5 
ROOT
HETATM    1  C1  UNL     1       1.134  -3.370  -1.498  1.00  0.00     0.101 C 
HETATM    2  C2  UNL     1       1.992  -2.636  -0.807  1.00  0.00     0.118 C 
HETATM    3  N1  UNL     1       1.615  -1.713   0.192  1.00  0.00    -0.386 N 
HETATM    4  C3  UNL     1       1.560  -0.319   0.567  1.00  0.00     0.153 C 
HETATM    5  C9  UNL     1       0.830   0.486  -0.424  1.00  0.00     0.695 C 
HETATM    6  N3  UNL     1       0.052   1.140  -1.231  1.00  0.00     0.048 NA
HETATM    7  C10 UNL     1      -1.379   1.008  -1.084  1.00  0.00     0.327 C 
HETATM    8  C11 UNL     1      -1.651   0.471   0.300  1.00  0.00     0.057 C 
HETATM    9  C12 UNL     1      -2.704  -0.222   0.691  1.00  0.00     0.031 C 
HETATM   10  C13 UNL     1      -4.131   0.059   0.774  1.00  0.00     0.029 C 
HETATM   11  C14 UNL     1      -4.829   1.074   0.291  1.00  0.00     0.003 C 
HETATM   12  C15 UNL     1      -4.521   2.241  -0.524  1.00  0.00     0.017 C 
HETATM   13  C16 UNL     1      -3.350   2.698  -0.994  1.00  0.00     0.085 C 
HETATM   14  N4  UNL     1      -2.009   2.285  -1.271  1.00  0.00    -0.368 N 
HETATM   15  N5  UNL     1      -2.492  -1.531   1.134  1.00  0.00    -0.365 N 
HETATM   16  C17 UNL     1      -1.582  -2.474   0.602  1.00  0.00     0.107 C 
HETATM   17  C18 UNL     1      -0.684  -2.764  -0.317  1.00  0.00     0.134 C 
HETATM   18  N6  UNL     1       0.184  -3.818  -0.732  1.00  0.00    -0.256 NA
HETATM   19  H2  UNL     1       1.290  -2.409   0.898  1.00  0.00     0.159 HD
HETATM   20  H15 UNL     1      -1.427   3.069  -1.674  1.00  0.00     0.161 HD
HETATM   21  H16 UNL     1      -3.072  -1.831   1.933  1.00  0.00     0.165 HD
ENDROOT
BRANCH   4  22
HETATM   22  C4  UNL     1       2.938   0.264   0.679  1.00  0.00    -0.016 A 
HETATM   23  C5  UNL     1       3.919   0.112  -0.275  1.00  0.00     0.012 A 
HETATM   24  C6  UNL     1       5.182   0.648  -0.158  1.00  0.00     0.020 A 
HETATM   25  C7  UNL     1       5.513   1.380   0.961  1.00  0.00     0.116 A 
HETATM   26  N2  UNL     1       4.576   1.539   1.897  1.00  0.00    -0.273 NA
HETATM   27  C8  UNL     1       3.343   1.016   1.782  1.00  0.00     0.125 A 
ENDBRANCH   4  22
TORSDOF 1
