REMARK  5 active torsions:
REMARK  status: ('A' for Active; 'I' for Inactive)
REMARK    1  A    between atoms: N1_1  and  C1_2 
REMARK    2  A    between atoms: C6_8  and  C7_9 
REMARK    3  A    between atoms: N3_10  and  C8_11 
REMARK    4  A    between atoms: C8_11  and  N4_12 
REMARK    5  A    between atoms: N4_12  and  C9_13 
ROOT
HETATM    1  C8  UNL     1      -0.268  -0.239  -0.351  1.00  0.00     0.270 C 
ENDROOT
BRANCH   1   2
HETATM    2  N3  UNL     1       0.873  -0.849   0.253  1.00  0.00    -0.282 NA
HETATM    3  C7  UNL     1       2.026  -0.237   0.130  1.00  0.00     0.113 C 
BRANCH   3   4
HETATM    4  C6  UNL     1       3.244  -0.814   0.731  1.00  0.00     0.030 C 
HETATM    5  C5  UNL     1       4.408  -0.197   0.607  1.00  0.00    -0.003 A 
HETATM    6  C1  UNL     1       4.493   1.084  -0.142  1.00  0.00     0.276 A 
HETATM    7  C4  UNL     1       5.584  -0.803   1.218  1.00  0.00     0.125 A 
HETATM    8  C2  UNL     1       5.946   1.480  -0.070  1.00  0.00     0.032 A 
HETATM    9  C3  UNL     1       6.997   0.907   0.495  1.00  0.00     0.114 A 
HETATM   10  N2  UNL     1       6.768  -0.319   1.179  1.00  0.00    -0.273 NA
BRANCH   6  11
HETATM   11  N1  UNL     1       4.217   0.897  -1.553  1.00  0.00     0.090 N 
HETATM   12  H1  UNL     1       3.668   1.662  -1.987  1.00  0.00     0.314 HD
HETATM   13  H2  UNL     1       3.915  -0.049  -1.816  1.00  0.00     0.314 HD
ENDBRANCH   6  11
ENDBRANCH   3   4
ENDBRANCH   1   2
BRANCH   1  14
HETATM   14  N4  UNL     1      -1.398  -0.488   0.552  1.00  0.00    -0.370 N 
HETATM   15  H11 UNL     1      -1.487  -0.989   1.471  1.00  0.00     0.161 HD
BRANCH  14  16
HETATM   16  C9  UNL     1      -2.763  -0.106   0.440  1.00  0.00     0.058 C 
HETATM   17  C10 UNL     1      -3.022   1.170   0.702  1.00  0.00     0.031 C 
HETATM   18  C11 UNL     1      -4.357   1.791   0.650  1.00  0.00    -0.000 C 
HETATM   19  C12 UNL     1      -5.405   1.343  -0.017  1.00  0.00    -0.007 C 
HETATM   20  C13 UNL     1      -5.677   0.176  -0.896  1.00  0.00     0.157 C 
HETATM   21  N5  UNL     1      -4.883  -0.971  -0.501  1.00  0.00    -0.335 N 
HETATM   22  C14 UNL     1      -5.362  -2.234  -0.684  1.00  0.00     0.210 A 
HETATM   23  C16 UNL     1      -3.675  -1.176   0.054  1.00  0.00     0.080 A 
HETATM   24  N6  UNL     1      -4.502  -3.166  -0.266  1.00  0.00    -0.254 NA
HETATM   25  C15 UNL     1      -3.424  -2.523   0.207  1.00  0.00     0.149 A 
ENDBRANCH  14  16
ENDBRANCH   1  14
TORSDOF 5
