REMARK  6 active torsions:
REMARK  status: ('A' for Active; 'I' for Inactive)
REMARK    1  A    between atoms: C2_2  and  N1_3 
REMARK    2  A    between atoms: C3_4  and  N2_5 
REMARK    3  A    between atoms: N2_5  and  C4_6 
REMARK    4  A    between atoms: C8_10  and  N3_11 
REMARK       I    between atoms: N3_11  and  C9_12 
REMARK       I    between atoms: C9_12  and  N4_13 
REMARK    5  A    between atoms: N5_15  and  C11_16 
REMARK    6  A    between atoms: C11_16  and  C13_18 
ROOT
HETATM    1  N3  UNL     1       0.449  -0.928   0.563  1.00  0.00    -0.188 N 
HETATM    2  C9  UNL     1      -0.942  -1.125   0.767  1.00  0.00     0.726 C 
HETATM    3  N4  UNL     1      -1.390  -1.893   1.905  1.00  0.00    -0.086 NA
HETATM    4  C10 UNL     1      -1.042  -3.123   2.080  1.00  0.00     0.169 C 
HETATM    5  N5  UNL     1      -1.750  -0.585  -0.115  1.00  0.00    -0.067 NA
HETATM    6  H9  UNL     1       1.081  -1.766   0.723  1.00  0.00     0.184 HD
ENDROOT
BRANCH   1   7
HETATM    7  C8  UNL     1       1.000   0.316   0.170  1.00  0.00     0.051 A 
HETATM    8  C7  UNL     1       0.319   1.476   0.030  1.00  0.00     0.030 A 
HETATM    9  C6  UNL     1       0.889   2.668  -0.363  1.00  0.00     0.004 A 
HETATM   10  C5  UNL     1       2.242   2.633  -0.619  1.00  0.00     0.029 A 
HETATM   11  C4  UNL     1       3.043   1.491  -0.506  1.00  0.00     0.035 A 
HETATM   12  C18 UNL     1       2.368   0.373  -0.111  1.00  0.00     0.059 A 
BRANCH  11  13
HETATM   13  N2  UNL     1       4.421   1.583  -0.803  1.00  0.00    -0.351 N 
HETATM   14  H5  UNL     1       4.803   2.515  -1.138  1.00  0.00     0.166 HD
BRANCH  13  15
HETATM   15  C3  UNL     1       5.318   0.487  -0.681  1.00  0.00     0.206 C 
HETATM   16  N1  UNL     1       5.199  -0.214   0.422  1.00  0.00    -0.260 NA
BRANCH  16  17
HETATM   17  C2  UNL     1       6.091  -1.313   0.556  1.00  0.00     0.091 C 
HETATM   18  C1  UNL     1       6.605  -2.332  -0.115  1.00  0.00     0.052 C 
ENDBRANCH  16  17
ENDBRANCH  13  15
ENDBRANCH  11  13
ENDBRANCH   1   7
BRANCH   5  19
HETATM   19  C11 UNL     1      -3.135  -0.785   0.092  1.00  0.00     0.065 C 
HETATM   20  C12 UNL     1      -3.408  -2.094   0.239  1.00  0.00     0.067 C 
BRANCH  19  21
HETATM   21  C13 UNL     1      -4.190   0.218   0.151  1.00  0.00     0.007 A 
HETATM   22  C14 UNL     1      -4.040   1.579   0.012  1.00  0.00     0.016 A 
HETATM   23  C15 UNL     1      -5.093   2.462   0.082  1.00  0.00     0.020 A 
HETATM   24  C16 UNL     1      -6.338   1.931   0.302  1.00  0.00     0.116 A 
HETATM   25  N6  UNL     1      -6.519   0.606   0.443  1.00  0.00    -0.272 NA
HETATM   26  C17 UNL     1      -5.475  -0.233   0.370  1.00  0.00     0.129 A 
ENDBRANCH  19  21
ENDBRANCH   5  19
TORSDOF 6
