REMARK  2 active torsions:
REMARK  status: ('A' for Active; 'I' for Inactive)
REMARK    1  A    between atoms: N1_3  and  C3_4 
REMARK    2  A    between atoms: C3_4  and  C4_5 
ROOT
HETATM    1  C4  UNL     1       1.220   0.247   0.473  1.00  0.00     0.133 C 
HETATM    2  N2  UNL     1       0.890   1.317   1.102  1.00  0.00    -0.267 NA
HETATM    3  C5  UNL     1      -0.341   1.972   0.800  1.00  0.00     0.192 C 
HETATM    4  C6  UNL     1      -1.485   1.601   1.668  1.00  0.00    -0.011 A 
HETATM    5  C7  UNL     1      -1.936   1.667   2.923  1.00  0.00     0.013 A 
HETATM    6  C8  UNL     1      -3.135   0.956   2.451  1.00  0.00     0.031 A 
HETATM    7  C9  UNL     1      -2.677   0.896   1.210  1.00  0.00     0.057 A 
HETATM    8  N3  UNL     1      -2.837   0.497  -0.137  1.00  0.00    -0.188 N 
HETATM    9  C10 UNL     1      -2.410  -0.562  -0.967  1.00  0.00     0.727 A 
HETATM   10  N4  UNL     1      -3.415  -1.476  -1.098  1.00  0.00    -0.075 NA
HETATM   11  C11 UNL     1      -3.251  -2.587  -1.847  1.00  0.00     0.138 A 
HETATM   12  C12 UNL     1      -2.018  -2.735  -2.461  1.00  0.00     0.048 A 
HETATM   13  C13 UNL     1      -1.019  -1.793  -2.308  1.00  0.00     0.063 A 
HETATM   14  N5  UNL     1      -1.176  -0.662  -1.551  1.00  0.00    -0.067 NA
HETATM   15  C14 UNL     1       0.342  -1.505  -2.688  1.00  0.00     0.074 C 
HETATM   16  C15 UNL     1       1.253  -1.372  -3.632  1.00  0.00    -0.013 C 
HETATM   17  C16 UNL     1       2.416  -1.022  -2.774  1.00  0.00     0.014 C 
HETATM   18  C17 UNL     1       2.339  -0.919  -1.431  1.00  0.00     0.089 C 
HETATM   19  N6  UNL     1       1.677  -0.958  -0.180  1.00  0.00    -0.350 N 
HETATM   20  H9  UNL     1      -3.444   1.184  -0.628  1.00  0.00     0.184 HD
HETATM   21  H16 UNL     1       1.486  -1.844   0.332  1.00  0.00     0.166 HD
ENDROOT
BRANCH   1  22
HETATM   22  C3  UNL     1       2.355   0.455   1.393  1.00  0.00     0.110 C 
BRANCH  22  23
HETATM   23  N1  UNL     1       3.009   1.084   2.329  1.00  0.00    -0.281 NA
HETATM   24  C2  UNL     1       2.371   2.251   2.833  1.00  0.00     0.095 A 
HETATM   25  C1  UNL     1       2.673   1.490   3.888  1.00  0.00     0.117 A 
ENDBRANCH  22  23
ENDBRANCH   1  22
TORSDOF 2
