REMARK  4 active torsions:
REMARK  status: ('A' for Active; 'I' for Inactive)
REMARK    1  A    between atoms: C6_8  and  C7_9 
REMARK    2  A    between atoms: C7_9  and  C8_10 
REMARK    3  A    between atoms: C9_11  and  C10_12 
REMARK    4  A    between atoms: C10_12  and  N3_13 
ROOT
HETATM    1  C1  UNL     1       3.831  -0.609   1.310  1.00  0.00     0.037 A 
HETATM    2  C2  UNL     1       4.761  -1.693   1.605  1.00  0.00     0.011 A 
HETATM    3  C3  UNL     1       4.034  -1.258   2.722  1.00  0.00     0.037 A 
HETATM    4  C4  UNL     1       2.954  -0.167   2.827  1.00  0.00     0.091 C 
HETATM    5  N1  UNL     1       2.160   0.758   2.464  1.00  0.00    -0.284 NA
HETATM    6  C5  UNL     1       1.735   1.499   1.390  1.00  0.00     0.301 C 
HETATM    7  N2  UNL     1       1.156   0.919   0.196  1.00  0.00    -0.174 N 
HETATM    8  C6  UNL     1       0.222   0.538  -0.746  1.00  0.00     0.309 A 
HETATM    9  C14 UNL     1       1.079  -0.129  -1.653  1.00  0.00     0.299 A 
HETATM   10  N5  UNL     1       1.833   0.281  -0.718  1.00  0.00     0.086 N 
HETATM   11  C15 UNL     1       2.431  -0.409  -1.742  1.00  0.00     0.258 A 
HETATM   12  C16 UNL     1       3.879  -0.768  -1.936  1.00  0.00     0.196 C 
HETATM   13  N6  UNL     1       4.634  -1.383  -1.014  1.00  0.00    -0.302 NA
HETATM   14  C17 UNL     1       5.039  -1.765   0.104  1.00  0.00     0.094 C 
ENDROOT
BRANCH   8  15
HETATM   15  C7  UNL     1      -1.101   0.775  -0.725  1.00  0.00     0.041 C 
BRANCH  15  16
HETATM   16  C8  UNL     1      -2.061   0.358  -1.734  1.00  0.00    -0.002 C 
HETATM   17  C9  UNL     1      -3.357   0.565  -1.762  1.00  0.00    -0.007 C 
BRANCH  17  18
HETATM   18  C10 UNL     1      -4.177   1.277  -0.767  1.00  0.00     0.156 C 
BRANCH  18  19
HETATM   19  N3  UNL     1      -5.203   0.400  -0.201  1.00  0.00    -0.347 N 
HETATM   20  C11 UNL     1      -6.454   0.258  -0.724  1.00  0.00     0.111 A 
HETATM   21  C12 UNL     1      -7.114  -0.636   0.071  1.00  0.00     0.135 A 
HETATM   22  N4  UNL     1      -6.314  -1.045   1.063  1.00  0.00    -0.255 NA
HETATM   23  C13 UNL     1      -5.148  -0.400   0.879  1.00  0.00     0.209 A 
ENDBRANCH  18  19
ENDBRANCH  17  18
ENDBRANCH  15  16
ENDBRANCH   8  15
TORSDOF 4
