REMARK  2 active torsions:
REMARK  status: ('A' for Active; 'I' for Inactive)
REMARK    1  A    between atoms: B1_1  and  C1_2 
REMARK    2  A    between atoms: C10_14  and  C11_15 
ROOT
HETATM    1  C1  UNL     1      -2.653   0.755  -0.194  1.00  0.00     0.146 C 
HETATM    2  N1  UNL     1      -3.830   0.403   0.572  1.00  0.00    -0.262 NA
HETATM    3  C2  UNL     1      -4.192  -0.856   0.716  1.00  0.00     0.116 C 
HETATM    4  C3  UNL     1      -3.294  -1.941   0.223  1.00  0.00     0.049 C 
HETATM    5  C4  UNL     1      -2.165  -1.451  -0.343  1.00  0.00     0.043 C 
HETATM    6  N2  UNL     1      -2.570  -0.344  -1.239  1.00  0.00    -0.355 N 
HETATM    7  C5  UNL     1      -0.783  -1.940   0.037  1.00  0.00     0.009 A 
HETATM    8  C6  UNL     1      -0.770  -2.879   1.019  1.00  0.00     0.130 A 
HETATM    9  N3  UNL     1       0.432  -2.797   1.620  1.00  0.00    -0.271 NA
HETATM   10  C7  UNL     1       1.396  -1.920   1.267  1.00  0.00     0.128 A 
HETATM   11  C8  UNL     1       0.951  -1.174   0.236  1.00  0.00    -0.008 A 
HETATM   12  C9  UNL     1      -0.089  -0.968  -0.591  1.00  0.00     0.029 A 
HETATM   13  C10 UNL     1       1.725   0.081   0.005  1.00  0.00    -0.027 C 
HETATM   14  C14 UNL     1       0.946   1.205  -0.030  1.00  0.00     0.004 C 
HETATM   15  C15 UNL     1      -0.469   1.663   0.091  1.00  0.00     0.145 C 
HETATM   16  N4  UNL     1      -1.412   0.677   0.508  1.00  0.00    -0.385 N 
HETATM   17  H5  UNL     1      -2.740  -0.350  -2.255  1.00  0.00     0.163 HD
HETATM   18  H17 UNL     1      -1.452   0.505   1.513  1.00  0.00     0.156 HD
ENDROOT
BRANCH   1  19
HETATM   19  B1  UNL     1      -2.824   2.146  -0.922  1.00  0.00     0.227 B 
HETATM   20  H1  UNL     1      -2.556   2.279  -2.066  1.00  0.00    -0.025 HD
HETATM   21  H2  UNL     1      -2.951   3.084  -0.207  1.00  0.00    -0.025 HD
ENDBRANCH   1  19
BRANCH  13  22
HETATM   22  C11 UNL     1       3.151   0.092  -0.112  1.00  0.00     0.007 C 
HETATM   23  C12 UNL     1       3.881   1.169  -0.267  1.00  0.00    -0.030 C 
HETATM   24  C13 UNL     1       5.370   1.152  -0.389  1.00  0.00     0.036 C 
ENDBRANCH  13  22
TORSDOF 2
