REMARK  5 active torsions:
REMARK  status: ('A' for Active; 'I' for Inactive)
REMARK    1  A    between atoms: C5_5  and  C6_6 
REMARK    2  A    between atoms: C6_6  and  C7_8 
REMARK    3  A    between atoms: C14_15  and  N1_16 
REMARK    4  A    between atoms: N1_16  and  C15_17 
REMARK    5  A    between atoms: C18_21  and  C19_22 
ROOT
HETATM    1  C1  UNL     1      -0.227  -5.256   0.014  1.00  0.00     0.050 C 
HETATM    2  C2  UNL     1      -0.817  -3.940   0.353  1.00  0.00    -0.035 A 
HETATM    3  C3  UNL     1      -2.001  -3.883   1.004  1.00  0.00     0.010 A 
HETATM    4  C4  UNL     1      -2.549  -2.634   1.318  1.00  0.00     0.016 A 
HETATM    5  C5  UNL     1      -1.927  -1.424   0.989  1.00  0.00     0.017 A 
HETATM    6  C13 UNL     1      -0.737  -1.617   0.336  1.00  0.00     0.046 A 
HETATM    7  C14 UNL     1      -0.118  -2.790  -0.017  1.00  0.00     0.056 A 
ENDROOT
BRANCH   7   8
HETATM    8  N1  UNL     1       1.107  -2.845  -0.717  1.00  0.00    -0.188 N 
HETATM    9  H12 UNL     1       1.361  -3.839  -1.017  1.00  0.00     0.184 HD
BRANCH   8  10
HETATM   10  C15 UNL     1       2.051  -1.850  -1.094  1.00  0.00     0.727 A 
HETATM   11  N2  UNL     1       3.089  -2.205  -1.909  1.00  0.00    -0.075 NA
HETATM   12  C16 UNL     1       4.013  -1.313  -2.276  1.00  0.00     0.139 A 
HETATM   13  C17 UNL     1       3.885  -0.030  -1.806  1.00  0.00     0.053 A 
HETATM   14  C18 UNL     1       2.861   0.367  -0.987  1.00  0.00     0.089 A 
HETATM   15  N4  UNL     1       1.978  -0.581  -0.665  1.00  0.00    -0.062 NA
BRANCH  14  16
HETATM   16  C19 UNL     1       2.747   1.717  -0.469  1.00  0.00     0.011 A 
HETATM   17  C20 UNL     1       1.699   2.052   0.396  1.00  0.00     0.017 A 
HETATM   18  C21 UNL     1       1.681   3.378   0.836  1.00  0.00     0.020 A 
HETATM   19  C22 UNL     1       2.584   4.382   0.508  1.00  0.00     0.116 A 
HETATM   20  N3  UNL     1       3.593   4.004  -0.344  1.00  0.00    -0.272 NA
HETATM   21  C23 UNL     1       3.618   2.727  -0.773  1.00  0.00     0.130 A 
ENDBRANCH  14  16
ENDBRANCH   8  10
ENDBRANCH   7   8
BRANCH   5  22
HETATM   22  C6  UNL     1      -2.604  -0.202   1.365  1.00  0.00     0.192 C 
HETATM   23  O1  UNL     1      -3.229  -0.451   2.462  1.00  0.00    -0.287 OA
BRANCH  22  24
HETATM   24  C7  UNL     1      -2.714   1.121   0.801  1.00  0.00     0.015 A 
HETATM   25  C8  UNL     1      -1.962   1.805  -0.111  1.00  0.00     0.015 A 
HETATM   26  C9  UNL     1      -2.171   3.070  -0.606  1.00  0.00     0.001 A 
HETATM   27  C10 UNL     1      -3.292   3.709  -0.100  1.00  0.00     0.000 A 
HETATM   28  C11 UNL     1      -4.122   3.124   0.821  1.00  0.00     0.001 A 
HETATM   29  C12 UNL     1      -3.816   1.867   1.240  1.00  0.00     0.015 A 
ENDBRANCH  22  24
ENDBRANCH   5  22
TORSDOF 5
