REMARK  1 active torsions:
REMARK  status: ('A' for Active; 'I' for Inactive)
REMARK    1  A    between atoms: C12_17  and  C13_18 
ROOT
HETATM    1  C1  UNL     1       0.959   0.579   0.307  1.00  0.00     0.063 C 
HETATM    2  C2  UNL     1      -0.328   0.838   0.671  1.00  0.00     0.058 C 
HETATM    3  C3  UNL     1      -0.436   2.318   0.466  1.00  0.00     0.174 C 
HETATM    4  N1  UNL     1      -1.798   2.832   0.577  1.00  0.00    -0.403 N 
HETATM    5  C4  UNL     1      -2.413   1.766  -0.204  1.00  0.00     0.057 A 
HETATM    6  C5  UNL     1      -1.983   1.686  -1.493  1.00  0.00     0.036 A 
HETATM    7  C6  UNL     1      -2.591   0.486  -1.347  1.00  0.00     0.055 A 
HETATM    8  C7  UNL     1      -3.224  -0.040  -0.278  1.00  0.00    -0.055 A 
HETATM    9  C8  UNL     1      -3.633   0.112   1.019  1.00  0.00     0.003 A 
HETATM   10  C9  UNL     1      -3.027   1.350   0.942  1.00  0.00     0.005 A 
HETATM   11  C10 UNL     1      -3.439  -1.530  -0.499  1.00  0.00     0.158 C 
HETATM   12  N2  UNL     1      -2.505  -2.196   0.450  1.00  0.00    -0.349 N 
HETATM   13  C11 UNL     1      -1.259  -1.453   0.319  1.00  0.00     0.268 C 
HETATM   14  N3  UNL     1      -0.985  -0.395   1.066  1.00  0.00    -0.210 NA
HETATM   15  O1  UNL     1      -0.343  -1.907  -0.644  1.00  0.00    -0.174 OA
HETATM   16  N4  UNL     1       1.041  -1.696  -0.623  1.00  0.00    -0.124 NA
HETATM   17  C12 UNL     1       1.672  -0.600  -0.264  1.00  0.00     0.098 C 
HETATM   18  H4  UNL     1      -1.966   3.733   1.124  1.00  0.00     0.154 HD
HETATM   19  H11 UNL     1      -2.494  -2.996   1.140  1.00  0.00     0.163 HD
ENDROOT
BRANCH  17  20
HETATM   20  C13 UNL     1       3.092  -0.633  -0.470  1.00  0.00     0.012 A 
HETATM   21  C14 UNL     1       3.602  -1.792  -1.013  1.00  0.00     0.017 A 
HETATM   22  C15 UNL     1       4.973  -1.866  -1.228  1.00  0.00     0.020 A 
HETATM   23  C16 UNL     1       5.871  -0.862  -0.939  1.00  0.00     0.116 A 
HETATM   24  N5  UNL     1       5.323   0.252  -0.410  1.00  0.00    -0.272 NA
HETATM   25  C17 UNL     1       3.999   0.352  -0.190  1.00  0.00     0.130 A 
ENDBRANCH  17  20
TORSDOF 1
