REMARK  3 active torsions:
REMARK  status: ('A' for Active; 'I' for Inactive)
REMARK    1  A    between atoms: C4_5  and  N1_6 
REMARK    2  A    between atoms: N1_6  and  C5_7 
REMARK    3  A    between atoms: C17_24  and  B1_25 
ROOT
HETATM    1  C5  UNL     1       0.727   0.440   0.192  1.00  0.00     0.160 A 
HETATM    2  N2  UNL     1       1.353   1.520   0.664  1.00  0.00    -0.222 NA
HETATM    3  C6  UNL     1       0.829   2.641   1.111  1.00  0.00     0.238 A 
HETATM    4  N3  UNL     1      -0.502   2.776   1.119  1.00  0.00    -0.215 NA
HETATM    5  C7  UNL     1      -1.221   1.749   0.667  1.00  0.00     0.202 A 
HETATM    6  C8  UNL     1      -0.646   0.559   0.193  1.00  0.00     0.129 A 
HETATM    7  N4  UNL     1      -1.371  -0.588  -0.283  1.00  0.00    -0.379 N 
HETATM    8  C9  UNL     1      -2.619  -0.568  -1.063  1.00  0.00     0.161 C 
HETATM    9  C10 UNL     1      -3.652   0.083  -0.207  1.00  0.00    -0.005 A 
HETATM   10  C11 UNL     1      -4.839  -0.631  -0.228  1.00  0.00     0.035 A 
HETATM   11  C12 UNL     1      -5.993  -0.285   0.469  1.00  0.00     0.034 A 
HETATM   12 CL1  UNL     1      -7.441  -1.268   0.365  1.00  0.00    -0.084 Cl
HETATM   13  C13 UNL     1      -5.950   0.862   1.244  1.00  0.00     0.026 A 
HETATM   14  C14 UNL     1      -4.788   1.602   1.292  1.00  0.00     0.039 A 
HETATM   15  C15 UNL     1      -3.653   1.232   0.586  1.00  0.00     0.086 A 
HETATM   16  O1  UNL     1      -2.578   2.118   0.770  1.00  0.00    -0.289 OA
HETATM   17  H5  UNL     1      -0.819  -1.439   0.054  1.00  0.00     0.160 HD
ENDROOT
BRANCH   1  18
HETATM   18  N1  UNL     1       1.321  -0.751  -0.285  1.00  0.00    -0.339 N 
HETATM   19  H3  UNL     1       0.833  -1.550  -0.723  1.00  0.00     0.167 HD
BRANCH  18  20
HETATM   20  C4  UNL     1       2.697  -1.090  -0.295  1.00  0.00     0.033 A 
HETATM   21  C3  UNL     1       3.237  -2.350  -0.504  1.00  0.00     0.032 A 
HETATM   22  C2  UNL     1       4.581  -2.634  -0.512  1.00  0.00     0.044 A 
HETATM   23  C1  UNL     1       5.492  -1.626  -0.302  1.00  0.00     0.113 A 
HETATM   24  F1  UNL     1       6.802  -1.961  -0.320  1.00  0.00    -0.207 F 
HETATM   25  C17 UNL     1       4.997  -0.343  -0.087  1.00  0.00    -0.042 A 
HETATM   26  C16 UNL     1       3.647  -0.127  -0.091  1.00  0.00     0.028 A 
BRANCH  25  27
HETATM   27  B1  UNL     1       6.090   0.742   0.140  1.00  0.00     0.306 B 
HETATM   28 CL2  UNL     1       5.708   2.441  -0.470  1.00  0.00    -0.209 Cl
HETATM   29  H12 UNL     1       7.090   0.490   0.693  1.00  0.00    -0.002 HD
ENDBRANCH  25  27
ENDBRANCH  18  20
ENDBRANCH   1  18
TORSDOF 3
