REMARK  5 active torsions:
REMARK  status: ('A' for Active; 'I' for Inactive)
REMARK       I    between atoms: C1_2  and  N1_3 
REMARK    1  A    between atoms: C1_2  and  C18_24 
REMARK    2  A    between atoms: N1_3  and  C2_4 
REMARK    3  A    between atoms: C6_8  and  N2_9 
REMARK    4  A    between atoms: N2_9  and  C7_10 
REMARK    5  A    between atoms: C11_15  and  C12_16 
ROOT
HETATM    1  C2  UNL     1       2.374  -1.392  -0.517  1.00  0.00     0.037 A 
HETATM    2  C3  UNL     1       2.511  -2.738  -0.787  1.00  0.00     0.029 A 
HETATM    3  C4  UNL     1       1.390  -3.507  -0.782  1.00  0.00     0.004 A 
HETATM    4  C5  UNL     1       0.167  -2.931  -0.511  1.00  0.00     0.029 A 
HETATM    5  C6  UNL     1      -0.030  -1.598  -0.235  1.00  0.00     0.032 A 
HETATM    6  C17 UNL     1       1.131  -0.858  -0.251  1.00  0.00     0.058 A 
ENDROOT
BRANCH   5   7
HETATM    7  N2  UNL     1      -1.292  -1.017   0.038  1.00  0.00    -0.363 N 
HETATM    8  H5  UNL     1      -1.276   0.028   0.242  1.00  0.00     0.162 HD
BRANCH   7   9
HETATM    9  C7  UNL     1      -2.547  -1.729   0.054  1.00  0.00     0.248 C 
HETATM   10  C8  UNL     1      -2.866  -2.314  -1.298  1.00  0.00     0.137 C 
HETATM   11  N3  UNL     1      -3.254  -1.773  -2.405  1.00  0.00    -0.273 NA
HETATM   12  C9  UNL     1      -3.478  -0.352  -2.558  1.00  0.00     0.118 C 
HETATM   13  C10 UNL     1      -3.892   0.504  -1.605  1.00  0.00     0.051 C 
HETATM   14  C11 UNL     1      -4.198   0.159  -0.220  1.00  0.00     0.067 C 
HETATM   15  N5  UNL     1      -3.592  -0.802   0.435  1.00  0.00    -0.258 NA
BRANCH  14  16
HETATM   16  C12 UNL     1      -5.227   0.922   0.492  1.00  0.00     0.010 A 
HETATM   17  C13 UNL     1      -5.965   1.958  -0.032  1.00  0.00     0.017 A 
HETATM   18  C14 UNL     1      -6.910   2.600   0.749  1.00  0.00     0.020 A 
HETATM   19  C15 UNL     1      -7.144   2.230   2.063  1.00  0.00     0.116 A 
HETATM   20  N4  UNL     1      -6.399   1.202   2.552  1.00  0.00    -0.272 NA
HETATM   21  C16 UNL     1      -5.477   0.571   1.801  1.00  0.00     0.130 A 
ENDBRANCH  14  16
ENDBRANCH   7   9
ENDBRANCH   5   7
BRANCH   1  22
HETATM   22  N1  UNL     1       3.501  -0.498  -0.500  1.00  0.00    -0.323 N 
HETATM   23  C1  UNL     1       4.290  -0.202   0.641  1.00  0.00     0.256 C 
HETATM   24  O1  UNL     1       4.083  -0.701   1.780  1.00  0.00    -0.267 OA
HETATM   25  H1  UNL     1       3.677  -0.085  -1.426  1.00  0.00     0.169 HD
BRANCH  23  26
HETATM   26  C18 UNL     1       5.417   0.722   0.556  1.00  0.00     0.032 A 
HETATM   27  C19 UNL     1       6.162   0.986   1.686  1.00  0.00     0.017 A 
HETATM   28  C20 UNL     1       7.257   1.857   1.697  1.00  0.00     0.001 A 
HETATM   29  C21 UNL     1       7.620   2.490   0.525  1.00  0.00     0.000 A 
HETATM   30  C22 UNL     1       6.871   2.230  -0.626  1.00  0.00     0.001 A 
HETATM   31  C23 UNL     1       5.810   1.373  -0.594  1.00  0.00     0.017 A 
ENDBRANCH  23  26
ENDBRANCH   1  22
TORSDOF 5
