REMARK  3 active torsions:
REMARK  status: ('A' for Active; 'I' for Inactive)
REMARK    1  A    between atoms: N2_5  and  C4_6 
REMARK    2  A    between atoms: C6_8  and  N3_9 
REMARK       I    between atoms: N3_9  and  C7_10 
REMARK    3  A    between atoms: C7_10  and  C8_12 
ROOT
HETATM    1  C4  UNL     1      -1.794  -0.956   0.155  1.00  0.00     0.061 A 
HETATM    2  C5  UNL     1      -0.596  -0.242   0.123  1.00  0.00     0.061 A 
HETATM    3  C6  UNL     1       0.521  -0.717   0.763  1.00  0.00     0.037 A 
HETATM    4  C14 UNL     1       0.372  -1.926   1.426  1.00  0.00     0.030 A 
HETATM    5  C15 UNL     1      -0.773  -2.669   1.491  1.00  0.00     0.011 A 
HETATM    6  C16 UNL     1      -1.886  -2.161   0.832  1.00  0.00    -0.034 A 
HETATM    7  C17 UNL     1      -3.185  -2.878   0.833  1.00  0.00     0.050 C 
ENDROOT
BRANCH   3   8
HETATM    8  N3  UNL     1       1.754  -0.008   0.746  1.00  0.00    -0.323 N 
HETATM    9  C7  UNL     1       2.785  -0.155  -0.221  1.00  0.00     0.256 C 
HETATM   10  O1  UNL     1       2.677  -0.963  -1.180  1.00  0.00    -0.267 OA
HETATM   11  H7  UNL     1       1.846   0.663   1.539  1.00  0.00     0.169 HD
BRANCH   9  12
HETATM   12  C8  UNL     1       4.019   0.618  -0.157  1.00  0.00     0.032 A 
HETATM   13  C9  UNL     1       4.972   0.418  -1.132  1.00  0.00     0.017 A 
HETATM   14  C10 UNL     1       6.193   1.100  -1.176  1.00  0.00     0.001 A 
HETATM   15  C11 UNL     1       6.472   2.027  -0.194  1.00  0.00     0.000 A 
HETATM   16  C12 UNL     1       5.511   2.227   0.789  1.00  0.00     0.001 A 
HETATM   17  C13 UNL     1       4.310   1.544   0.815  1.00  0.00     0.017 A 
ENDBRANCH   9  12
ENDBRANCH   3   8
BRANCH   1  18
HETATM   18  N2  UNL     1      -2.878  -0.356  -0.549  1.00  0.00    -0.271 N 
HETATM   19  C3  UNL     1      -3.667  -0.859  -1.677  1.00  0.00     0.299 A 
HETATM   20  N1  UNL     1      -4.596   0.234  -1.901  1.00  0.00    -0.255 NA
HETATM   21  C2  UNL     1      -4.410   1.193  -1.084  1.00  0.00     0.111 A 
HETATM   22  C1  UNL     1      -5.252   2.433  -1.125  1.00  0.00     0.092 C 
HETATM   23  N4  UNL     1      -3.357   0.922  -0.196  1.00  0.00    -0.284 N 
HETATM   24  H18 UNL     1      -2.993   1.548   0.583  1.00  0.00     0.188 HD
ENDBRANCH   1  18
TORSDOF 3
