REMARK  6 active torsions:
REMARK  status: ('A' for Active; 'I' for Inactive)
REMARK    1  A    between atoms: O1_2  and  C2_3 
REMARK    2  A    between atoms: C7_8  and  C8_9 
REMARK       I    between atoms: C8_9  and  N1_11 
REMARK    3  A    between atoms: N1_11  and  C9_12 
REMARK    4  A    between atoms: C14_17  and  N2_18 
REMARK    5  A    between atoms: N2_18  and  C15_19 
REMARK    6  A    between atoms: C18_23  and  C19_24 
ROOT
HETATM    1  C9  UNL     1      -1.018   0.767   2.557  1.00  0.00     0.040 A 
HETATM    2  C10 UNL     1      -0.951   1.790   3.384  1.00  0.00     0.028 A 
HETATM    3  C11 UNL     1       0.244   2.586   3.179  1.00  0.00     0.007 A 
HETATM    4  C12 UNL     1       0.883   1.967   2.171  1.00  0.00    -0.055 A 
HETATM    5  C13 UNL     1       2.176   2.443   1.618  1.00  0.00     0.046 C 
HETATM    6  C14 UNL     1       0.182   0.745   1.644  1.00  0.00     0.178 A 
ENDROOT
BRANCH   6   7
HETATM    7  N2  UNL     1       0.971  -0.437   1.833  1.00  0.00    -0.209 N 
HETATM    8  H15 UNL     1       0.654  -1.057   2.640  1.00  0.00     0.179 HD
BRANCH   7   9
HETATM    9  C15 UNL     1       2.097  -0.889   1.111  1.00  0.00     0.723 A 
HETATM   10  N3  UNL     1       2.734  -2.026   1.459  1.00  0.00    -0.075 NA
HETATM   11  C16 UNL     1       3.792  -2.491   0.786  1.00  0.00     0.139 A 
HETATM   12  C17 UNL     1       4.255  -1.786  -0.306  1.00  0.00     0.053 A 
HETATM   13  C18 UNL     1       3.631  -0.621  -0.694  1.00  0.00     0.089 A 
HETATM   14  N5  UNL     1       2.582  -0.243   0.047  1.00  0.00    -0.062 NA
BRANCH  13  15
HETATM   15  C19 UNL     1       4.121   0.115  -1.858  1.00  0.00     0.011 A 
HETATM   16  C20 UNL     1       5.203  -0.315  -2.585  1.00  0.00     0.017 A 
HETATM   17  C21 UNL     1       5.482   0.520  -3.638  1.00  0.00     0.020 A 
HETATM   18  C22 UNL     1       4.822   1.686  -4.019  1.00  0.00     0.116 A 
HETATM   19  N4  UNL     1       3.765   2.011  -3.220  1.00  0.00    -0.272 NA
HETATM   20  C23 UNL     1       3.407   1.251  -2.155  1.00  0.00     0.130 A 
ENDBRANCH  13  15
ENDBRANCH   7   9
ENDBRANCH   6   7
BRANCH   1  21
HETATM   21  N1  UNL     1      -2.080  -0.177   2.541  1.00  0.00    -0.324 N 
HETATM   22  C8  UNL     1      -2.808  -0.230   1.375  1.00  0.00     0.258 C 
HETATM   23  O2  UNL     1      -2.492   0.551   0.403  1.00  0.00    -0.267 OA
HETATM   24  H8  UNL     1      -2.583  -0.906   3.074  1.00  0.00     0.169 HD
BRANCH  22  25
HETATM   25  C7  UNL     1      -3.747  -0.564   0.387  1.00  0.00     0.065 A 
HETATM   26  C2  UNL     1      -4.659  -0.889  -0.568  1.00  0.00     0.084 A 
HETATM   27  C3  UNL     1      -5.726  -1.665  -0.824  1.00  0.00     0.038 A 
HETATM   28  C4  UNL     1      -6.151  -2.489   0.193  1.00  0.00     0.003 A 
HETATM   29  C5  UNL     1      -5.411  -2.420   1.392  1.00  0.00     0.001 A 
HETATM   30  C6  UNL     1      -4.291  -1.503   1.438  1.00  0.00     0.020 A 
BRANCH  26  31
HETATM   31  O1  UNL     1      -3.956   0.065  -1.368  1.00  0.00    -0.355 OA
HETATM   32  C1  UNL     1      -4.268   0.398  -2.670  1.00  0.00     0.210 C 
ENDBRANCH  26  31
ENDBRANCH  22  25
ENDBRANCH   1  21
TORSDOF 6
