REMARK  2 active torsions:
REMARK  status: ('A' for Active; 'I' for Inactive)
REMARK       I    between atoms: C1_2  and  N1_3 
REMARK    1  A    between atoms: C1_2  and  C16_22 
REMARK    2  A    between atoms: N1_3  and  C2_4 
ROOT
HETATM    1  C2  UNL     1      -0.722  -0.680   0.640  1.00  0.00     0.039 C 
HETATM    2  C3  UNL     1      -0.785  -1.965   0.376  1.00  0.00     0.027 C 
HETATM    3  C4  UNL     1      -0.758  -3.393   0.038  1.00  0.00    -0.002 C 
HETATM    4  C5  UNL     1       0.114  -4.192  -0.547  1.00  0.00    -0.020 C 
HETATM    5  C6  UNL     1       1.481  -4.314  -1.199  1.00  0.00     0.098 C 
HETATM    6  C7  UNL     1       2.104  -2.965  -0.999  1.00  0.00     0.077 A 
HETATM    7  N2  UNL     1       1.363  -2.069  -1.731  1.00  0.00    -0.288 NA
HETATM    8  C8  UNL     1       1.667  -0.772  -1.591  1.00  0.00     0.271 A 
HETATM    9  C9  UNL     1       2.697  -0.625  -0.706  1.00  0.00    -0.003 A 
HETATM   10  C10 UNL     1       3.483  -1.443   0.048  1.00  0.00     0.082 A 
HETATM   11  N3  UNL     1       3.126  -2.752  -0.137  1.00  0.00    -0.240 NA
HETATM   12  C11 UNL     1       4.563  -1.325   0.969  1.00  0.00     0.148 C 
HETATM   13  N4  UNL     1       5.227  -0.213   0.923  1.00  0.00    -0.271 NA
HETATM   14  C12 UNL     1       4.696   1.122   1.073  1.00  0.00     0.114 C 
HETATM   15  C13 UNL     1       3.673   1.438   0.269  1.00  0.00     0.020 C 
HETATM   16  C14 UNL     1       2.636   0.850  -0.609  1.00  0.00     0.125 C 
HETATM   17  N5  UNL     1       1.336   1.067   0.118  1.00  0.00    -0.425 NA
HETATM   18  C15 UNL     1       0.497   0.090   0.252  1.00  0.00     0.347 C 
ENDROOT
BRANCH   1  19
HETATM   19  N1  UNL     1      -1.730   0.136   1.311  1.00  0.00    -0.324 N 
HETATM   20  C1  UNL     1      -2.172   1.043   0.327  1.00  0.00     0.256 C 
HETATM   21  O1  UNL     1      -1.531   0.805  -0.756  1.00  0.00    -0.267 OA
HETATM   22  H1  UNL     1      -2.265   0.327   2.218  1.00  0.00     0.169 HD
BRANCH  20  23
HETATM   23  C16 UNL     1      -3.128   2.127   0.240  1.00  0.00     0.032 A 
HETATM   24  C17 UNL     1      -3.418   2.621  -1.031  1.00  0.00     0.017 A 
HETATM   25  C18 UNL     1      -4.302   3.667  -1.120  1.00  0.00     0.001 A 
HETATM   26  C19 UNL     1      -4.919   4.262  -0.066  1.00  0.00     0.000 A 
HETATM   27  C20 UNL     1      -4.574   3.707   1.177  1.00  0.00     0.001 A 
HETATM   28  C21 UNL     1      -3.682   2.637   1.379  1.00  0.00     0.017 A 
ENDBRANCH  20  23
ENDBRANCH   1  19
TORSDOF 2
