REMARK  5 active torsions:
REMARK  status: ('A' for Active; 'I' for Inactive)
REMARK    1  A    between atoms: O1_2  and  C2_3 
REMARK    2  A    between atoms: C7_8  and  C8_9 
REMARK       I    between atoms: C8_9  and  N1_11 
REMARK    3  A    between atoms: N1_11  and  C9_12 
REMARK    4  A    between atoms: C11_14  and  N2_15 
REMARK    5  A    between atoms: N2_15  and  C12_16 
ROOT
HETATM    1  C9  UNL     1       0.333  -1.636   0.741  1.00  0.00     0.197 C 
HETATM    2  C10 UNL     1      -0.928  -0.811   1.106  1.00  0.00     0.050 C 
HETATM    3  C11 UNL     1      -2.093  -0.933   0.382  1.00  0.00     0.060 C 
HETATM    4  C19 UNL     1      -1.914  -1.924  -0.712  1.00  0.00     0.074 A 
HETATM    5  C20 UNL     1      -2.450  -3.239  -0.521  1.00  0.00     0.014 A 
HETATM    6  C21 UNL     1      -1.816  -3.815  -1.696  1.00  0.00     0.049 A 
HETATM    7  C22 UNL     1      -1.103  -2.707  -2.245  1.00  0.00     0.028 A 
HETATM    8  C23 UNL     1      -0.507  -1.550  -2.596  1.00  0.00     0.146 A 
HETATM    9  N3  UNL     1      -1.136  -1.071  -1.466  1.00  0.00    -0.280 NA
HETATM   10  C24 UNL     1      -0.479  -3.340  -0.918  1.00  0.00     0.288 A 
HETATM   11  N4  UNL     1       0.007  -2.790   0.095  1.00  0.00    -0.419 NA
ENDROOT
BRANCH   1  12
HETATM   12  N1  UNL     1       1.132  -0.724  -0.009  1.00  0.00    -0.333 N 
HETATM   13  C8  UNL     1       2.461  -0.379   0.177  1.00  0.00     0.256 C 
HETATM   14  O2  UNL     1       3.019  -1.015   1.161  1.00  0.00    -0.268 OA
HETATM   15  H8  UNL     1       1.133  -0.048  -0.827  1.00  0.00     0.165 HD
BRANCH  13  16
HETATM   16  C7  UNL     1       3.800   0.151   0.163  1.00  0.00     0.065 A 
HETATM   17  C2  UNL     1       4.978   0.621   0.149  1.00  0.00     0.084 A 
HETATM   18  C3  UNL     1       5.743   1.541  -0.461  1.00  0.00     0.038 A 
HETATM   19  C4  UNL     1       5.197   2.345  -1.454  1.00  0.00     0.003 A 
HETATM   20  C5  UNL     1       3.825   2.074  -1.702  1.00  0.00     0.001 A 
HETATM   21  C6  UNL     1       3.223   1.036  -0.916  1.00  0.00     0.020 A 
BRANCH  17  22
HETATM   22  O1  UNL     1       5.279  -0.324   1.182  1.00  0.00    -0.355 OA
HETATM   23  C1  UNL     1       6.539  -0.402   1.731  1.00  0.00     0.210 C 
ENDBRANCH  17  22
ENDBRANCH  13  16
ENDBRANCH   1  12
BRANCH   3  24
HETATM   24  N2  UNL     1      -2.957  -0.023   1.044  1.00  0.00    -0.354 N 
HETATM   25  H11 UNL     1      -3.272  -0.307   2.007  1.00  0.00     0.166 HD
BRANCH  24  26
HETATM   26  C12 UNL     1      -3.559   1.231   0.796  1.00  0.00     0.038 A 
HETATM   27  C13 UNL     1      -2.657   2.281   0.976  1.00  0.00     0.030 A 
HETATM   28  C14 UNL     1      -3.169   3.568   0.769  1.00  0.00     0.002 A 
HETATM   29  C15 UNL     1      -4.494   3.729   0.410  1.00  0.00     0.001 A 
HETATM   30  C16 UNL     1      -5.333   2.636   0.249  1.00  0.00     0.009 A 
HETATM   31  C17 UNL     1      -4.871   1.354   0.442  1.00  0.00    -0.035 A 
HETATM   32  C18 UNL     1      -5.615   0.070   0.318  1.00  0.00     0.050 C 
ENDBRANCH  24  26
ENDBRANCH   3  24
TORSDOF 5
