REMARK  4 active torsions:
REMARK  status: ('A' for Active; 'I' for Inactive)
REMARK       I    between atoms: C1_2  and  N1_3 
REMARK    1  A    between atoms: C1_2  and  C17_23 
REMARK    2  A    between atoms: N1_3  and  C2_4 
REMARK    3  A    between atoms: C6_8  and  N2_9 
REMARK    4  A    between atoms: N2_9  and  C7_10 
ROOT
HETATM    1  C2  UNL     1       2.343  -1.629  -0.329  1.00  0.00     0.037 A 
HETATM    2  C3  UNL     1       1.883  -2.408   0.732  1.00  0.00     0.029 A 
HETATM    3  C4  UNL     1       0.562  -2.291   1.113  1.00  0.00     0.004 A 
HETATM    4  C5  UNL     1      -0.199  -1.396   0.396  1.00  0.00     0.030 A 
HETATM    5  C6  UNL     1       0.204  -0.607  -0.653  1.00  0.00     0.051 A 
HETATM    6  C16 UNL     1       1.537  -0.746  -1.015  1.00  0.00     0.059 A 
ENDROOT
BRANCH   5   7
HETATM    7  N2  UNL     1      -0.638   0.314  -1.332  1.00  0.00    -0.188 N 
HETATM    8  H5  UNL     1      -0.309   0.697  -2.242  1.00  0.00     0.184 HD
BRANCH   7   9
HETATM    9  C7  UNL     1      -1.881   0.699  -0.779  1.00  0.00     0.727 A 
HETATM   10  N3  UNL     1      -1.667   1.928  -0.282  1.00  0.00    -0.075 NA
HETATM   11  C8  UNL     1      -2.618   2.662   0.351  1.00  0.00     0.139 A 
HETATM   12  C9  UNL     1      -3.868   2.111   0.487  1.00  0.00     0.053 A 
HETATM   13  C10 UNL     1      -4.098   0.854  -0.016  1.00  0.00     0.089 A 
HETATM   14  C11 UNL     1      -5.364   0.163   0.091  1.00  0.00     0.011 A 
HETATM   15  N5  UNL     1      -3.105   0.184  -0.634  1.00  0.00    -0.062 NA
HETATM   16  C12 UNL     1      -6.391   0.827   0.714  1.00  0.00     0.017 A 
HETATM   17  C15 UNL     1      -5.636  -1.107  -0.358  1.00  0.00     0.130 A 
HETATM   18  C13 UNL     1      -7.629   0.255   0.884  1.00  0.00     0.020 A 
HETATM   19  C14 UNL     1      -7.843  -1.036   0.407  1.00  0.00     0.116 A 
HETATM   20  N4  UNL     1      -6.837  -1.702  -0.211  1.00  0.00    -0.272 NA
ENDBRANCH   7   9
ENDBRANCH   5   7
BRANCH   1  21
HETATM   21  N1  UNL     1       3.707  -1.645  -0.790  1.00  0.00    -0.323 N 
HETATM   22  C1  UNL     1       4.257  -0.546  -0.020  1.00  0.00     0.257 C 
HETATM   23  O1  UNL     1       3.343  -0.067   0.696  1.00  0.00    -0.267 OA
HETATM   24  H1  UNL     1       4.423  -2.103  -1.420  1.00  0.00     0.169 HD
BRANCH  22  25
HETATM   25  C17 UNL     1       5.609   0.001   0.005  1.00  0.00     0.049 A 
HETATM   26  C18 UNL     1       5.669   1.172   0.746  1.00  0.00     0.020 A 
HETATM   27  C19 UNL     1       6.909   1.811   0.852  1.00  0.00     0.020 A 
HETATM   28  C20 UNL     1       7.993   1.238   0.217  1.00  0.00     0.116 A 
HETATM   29  N6  UNL     1       7.845   0.101  -0.479  1.00  0.00    -0.272 NA
HETATM   30  C21 UNL     1       6.683  -0.569  -0.625  1.00  0.00     0.133 A 
ENDBRANCH  22  25
ENDBRANCH   1  21
TORSDOF 4
