REMARK  4 active torsions:
REMARK  status: ('A' for Active; 'I' for Inactive)
REMARK       I    between atoms: C1_2  and  N1_3 
REMARK    1  A    between atoms: C1_2  and  C16_22 
REMARK    2  A    between atoms: N1_3  and  C2_4 
REMARK    3  A    between atoms: C6_8  and  N2_9 
REMARK    4  A    between atoms: N2_9  and  C7_10 
ROOT
HETATM    1  C2  UNL     1       2.142  -0.441  -0.110  1.00  0.00     0.037 A 
HETATM    2  C3  UNL     1       1.736  -1.774  -0.007  1.00  0.00     0.029 A 
HETATM    3  C4  UNL     1       0.403  -2.148  -0.094  1.00  0.00     0.004 A 
HETATM    4  C5  UNL     1      -0.493  -1.118  -0.289  1.00  0.00     0.030 A 
HETATM    5  C6  UNL     1      -0.186   0.220  -0.402  1.00  0.00     0.051 A 
HETATM    6  C15 UNL     1       1.174   0.520  -0.304  1.00  0.00     0.059 A 
ENDROOT
BRANCH   5   7
HETATM    7  N2  UNL     1      -1.187   1.212  -0.602  1.00  0.00    -0.188 N 
HETATM    8  H5  UNL     1      -0.873   2.187  -0.676  1.00  0.00     0.184 HD
BRANCH   7   9
HETATM    9  C7  UNL     1      -2.522   0.726  -0.678  1.00  0.00     0.727 A 
HETATM   10  N3  UNL     1      -2.887   0.413  -1.936  1.00  0.00    -0.074 NA
HETATM   11  C8  UNL     1      -4.124  -0.073  -2.246  1.00  0.00     0.151 A 
HETATM   12  C9  UNL     1      -5.037  -0.247  -1.218  1.00  0.00     0.025 A 
HETATM   13  C10 UNL     1      -4.640   0.081   0.066  1.00  0.00     0.070 A 
HETATM   14  C14 UNL     1      -6.311  -0.772  -1.705  1.00  0.00     0.131 C 
HETATM   15  N4  UNL     1      -3.398   0.561   0.335  1.00  0.00    -0.066 NA
HETATM   16  C11 UNL     1      -5.392  -0.001   1.343  1.00  0.00     0.089 C 
HETATM   17  C12 UNL     1      -6.851  -0.024   1.147  1.00  0.00    -0.002 C 
HETATM   18  C13 UNL     1      -7.736  -0.329   0.212  1.00  0.00     0.112 C 
HETATM   19  N5  UNL     1      -7.448  -0.809  -1.109  1.00  0.00    -0.272 NA
ENDBRANCH   7   9
ENDBRANCH   5   7
BRANCH   1  20
HETATM   20  N1  UNL     1       3.497  -0.092  -0.019  1.00  0.00    -0.323 N 
HETATM   21  C1  UNL     1       4.473   0.275   0.938  1.00  0.00     0.257 C 
HETATM   22  O1  UNL     1       4.028   0.320   2.131  1.00  0.00    -0.267 OA
HETATM   23  H1  UNL     1       3.685  -0.177  -1.037  1.00  0.00     0.169 HD
BRANCH  21  24
HETATM   24  C16 UNL     1       5.824   0.553   0.486  1.00  0.00     0.049 A 
HETATM   25  C17 UNL     1       6.333   0.510  -0.793  1.00  0.00     0.020 A 
HETATM   26  C18 UNL     1       7.667   0.817  -0.989  1.00  0.00     0.020 A 
HETATM   27  C19 UNL     1       8.493   1.165   0.079  1.00  0.00     0.116 A 
HETATM   28  N6  UNL     1       7.990   1.205   1.324  1.00  0.00    -0.272 NA
HETATM   29  C20 UNL     1       6.675   0.903   1.525  1.00  0.00     0.133 A 
ENDBRANCH  21  24
ENDBRANCH   1  20
TORSDOF 4
