REMARK  1 active torsions:
REMARK  status: ('A' for Active; 'I' for Inactive)
REMARK    1  A    between atoms: C11_15  and  C12_16 
ROOT
HETATM    1 CL1  UNL     1       5.450   3.020  -0.017  1.00  0.00    -0.084 Cl
HETATM    2  C1  UNL     1       4.350   1.669  -0.098  1.00  0.00     0.034 A 
HETATM    3  C2  UNL     1       4.891   0.449  -0.449  1.00  0.00     0.026 A 
HETATM    4  C3  UNL     1       4.040  -0.629  -0.519  1.00  0.00     0.039 A 
HETATM    5  C4  UNL     1       2.696  -0.498  -0.249  1.00  0.00     0.086 A 
HETATM    6  C5  UNL     1       2.113   0.702   0.106  1.00  0.00    -0.005 A 
HETATM    7  C6  UNL     1       2.987   1.792   0.174  1.00  0.00     0.035 A 
HETATM    8  C7  UNL     1       0.808   1.268   0.459  1.00  0.00     0.161 C 
HETATM    9  N1  UNL     1      -0.221   0.267   0.652  1.00  0.00    -0.380 N 
HETATM   10  C8  UNL     1      -0.421  -0.972  -0.065  1.00  0.00     0.112 A 
HETATM   11  C9  UNL     1       0.586  -1.854  -0.487  1.00  0.00     0.200 A 
HETATM   12  N2  UNL     1       0.187  -3.016  -1.091  1.00  0.00    -0.215 NA
HETATM   13  C10 UNL     1      -1.153  -3.243  -1.244  1.00  0.00     0.236 A 
HETATM   14  N3  UNL     1      -2.083  -2.370  -0.827  1.00  0.00    -0.239 NA
HETATM   15  C11 UNL     1      -1.767  -1.203  -0.225  1.00  0.00     0.101 A 
HETATM   16  O2  UNL     1       1.977  -1.695  -0.368  1.00  0.00    -0.289 OA
HETATM   17  H6  UNL     1      -0.994   0.307   1.399  1.00  0.00     0.160 HD
ENDROOT
BRANCH  15  18
HETATM   18  C12 UNL     1      -2.832  -0.279   0.102  1.00  0.00     0.018 C 
HETATM   19  C13 UNL     1      -4.089  -0.783   0.052  1.00  0.00     0.155 C 
HETATM   20  O1  UNL     1      -5.229  -0.026   0.341  1.00  0.00    -0.333 OA
HETATM   21  C14 UNL     1      -5.082   1.324   0.703  1.00  0.00     0.153 C 
HETATM   22  C15 UNL     1      -3.874   1.598   1.175  1.00  0.00    -0.001 C 
HETATM   23  C16 UNL     1      -2.902   1.141   0.418  1.00  0.00     0.030 C 
ENDBRANCH  15  18
TORSDOF 1
