REMARK  3 active torsions:
REMARK  status: ('A' for Active; 'I' for Inactive)
REMARK    1  A    between atoms: C2_2  and  C3_3 
REMARK    2  A    between atoms: C5_5  and  N1_7 
REMARK    3  A    between atoms: N1_7  and  C6_8 
ROOT
HETATM    1  C6  UNL     1      -0.040  -1.661  -0.361  1.00  0.00     0.112 C 
HETATM    2  C7  UNL     1      -0.023  -2.957  -0.114  1.00  0.00     0.042 C 
HETATM    3  C8  UNL     1      -1.382  -3.451   0.444  1.00  0.00     0.104 C 
HETATM    4  C9  UNL     1      -1.050  -3.227   1.923  1.00  0.00     0.010 C 
HETATM    5  C10 UNL     1      -1.278  -1.948   2.026  1.00  0.00     0.096 C 
HETATM    6  N2  UNL     1      -0.773  -1.167   0.841  1.00  0.00    -0.304 N 
HETATM    7  C11 UNL     1      -1.716  -0.044   0.562  1.00  0.00     0.107 C 
HETATM    8  C12 UNL     1      -2.839  -0.819  -0.071  1.00  0.00     0.124 C 
HETATM    9  N3  UNL     1      -4.057  -0.514  -0.609  1.00  0.00    -0.243 NA
HETATM   10  C13 UNL     1      -4.489   0.642  -1.136  1.00  0.00     0.185 C 
HETATM   11  S1  UNL     1      -4.196   2.285  -0.682  1.00  0.00    -0.007 SA
HETATM   12  N4  UNL     1      -2.958   2.940   0.251  1.00  0.00    -0.323 N 
HETATM   13  C14 UNL     1      -1.844   2.446   0.785  1.00  0.00     0.069 A 
HETATM   14  C15 UNL     1      -0.997   3.374   1.332  1.00  0.00     0.034 A 
HETATM   15  C16 UNL     1       0.187   3.024   1.912  1.00  0.00     0.022 A 
HETATM   16  C17 UNL     1       0.639   1.719   2.002  1.00  0.00     0.117 A 
HETATM   17  N5  UNL     1      -0.187   0.820   1.469  1.00  0.00    -0.256 NA
HETATM   18  C18 UNL     1      -1.369   1.197   0.893  1.00  0.00     0.113 A 
HETATM   19  S2  UNL     1      -2.766  -2.649  -0.279  1.00  0.00    -0.095 SA
HETATM   20  H12 UNL     1      -2.988   3.947   0.514  1.00  0.00     0.174 HD
ENDROOT
BRANCH   1  21
HETATM   21  N1  UNL     1       0.729  -1.528  -1.565  1.00  0.00    -0.317 N 
HETATM   22  H6  UNL     1       0.417  -1.942  -2.436  1.00  0.00     0.170 HD
BRANCH  21  23
HETATM   23  C5  UNL     1       1.895  -0.773  -1.417  1.00  0.00     0.174 A 
HETATM   24  C4  UNL     1       2.772  -0.567  -2.591  1.00  0.00     0.052 A 
HETATM   25  C3  UNL     1       3.425   0.095  -1.671  1.00  0.00     0.104 A 
HETATM   26  O1  UNL     1       2.238  -0.250  -0.308  1.00  0.00    -0.278 OA
BRANCH  25  27
HETATM   27  C2  UNL     1       4.642   0.856  -1.621  1.00  0.00     0.007 C 
HETATM   28  C1  UNL     1       4.695   1.252  -0.331  1.00  0.00     0.006 C 
ENDBRANCH  25  27
ENDBRANCH  21  23
ENDBRANCH   1  21
TORSDOF 3
