REMARK  5 active torsions:
REMARK  status: ('A' for Active; 'I' for Inactive)
REMARK       I    between atoms: C1_2  and  N1_3 
REMARK    1  A    between atoms: C1_2  and  C16_23 
REMARK    2  A    between atoms: N1_3  and  C2_4 
REMARK    3  A    between atoms: C6_8  and  N2_9 
REMARK    4  A    between atoms: N2_9  and  C7_10 
REMARK    5  A    between atoms: C9_14  and  C10_15 
ROOT
HETATM    1  C2  UNL     1       2.654   0.709  -0.098  1.00  0.00     0.037 A 
HETATM    2  C3  UNL     1       2.704   2.034  -0.480  1.00  0.00     0.029 A 
HETATM    3  C4  UNL     1       1.541   2.770  -0.560  1.00  0.00     0.004 A 
HETATM    4  C5  UNL     1       0.359   2.135  -0.249  1.00  0.00     0.030 A 
HETATM    5  C6  UNL     1       0.213   0.826   0.139  1.00  0.00     0.051 A 
HETATM    6  C15 UNL     1       1.428   0.153   0.196  1.00  0.00     0.059 A 
ENDROOT
BRANCH   5   7
HETATM    7  N2  UNL     1      -0.985   0.178   0.461  1.00  0.00    -0.189 N 
HETATM    8  H5  UNL     1      -0.938  -0.859   0.686  1.00  0.00     0.184 HD
BRANCH   7   9
HETATM    9  C7  UNL     1      -2.248   0.827   0.497  1.00  0.00     0.720 A 
HETATM   10  N3  UNL     1      -2.299   1.994   0.987  1.00  0.00    -0.115 NA
HETATM   11  C8  UNL     1      -3.453   2.838   1.127  1.00  0.00     0.119 A 
HETATM   12  B1  UNL     1      -4.730   2.096   0.569  1.00  0.00     0.244 B 
HETATM   13  C9  UNL     1      -4.564   0.665  -0.012  1.00  0.00     0.018 A 
HETATM   14  H8  UNL     1      -5.787   2.617   0.471  1.00  0.00    -0.018 HD
HETATM   15  N5  UNL     1      -3.400   0.129  -0.021  1.00  0.00    -0.080 NA
BRANCH  13  16
HETATM   16  C10 UNL     1      -5.683  -0.096  -0.550  1.00  0.00    -0.005 A 
HETATM   17  C11 UNL     1      -5.430  -1.359  -1.043  1.00  0.00     0.015 A 
HETATM   18  C12 UNL     1      -6.478  -2.101  -1.560  1.00  0.00     0.020 A 
HETATM   19  C13 UNL     1      -7.785  -1.603  -1.595  1.00  0.00     0.116 A 
HETATM   20  N4  UNL     1      -7.985  -0.353  -1.097  1.00  0.00    -0.272 NA
HETATM   21  C14 UNL     1      -6.972   0.354  -0.602  1.00  0.00     0.128 A 
ENDBRANCH  13  16
ENDBRANCH   7   9
ENDBRANCH   5   7
BRANCH   1  22
HETATM   22  N1  UNL     1       3.850  -0.056  -0.014  1.00  0.00    -0.323 N 
HETATM   23  C1  UNL     1       4.601  -0.870  -0.894  1.00  0.00     0.257 C 
HETATM   24  O1  UNL     1       4.114  -0.964  -2.061  1.00  0.00    -0.267 OA
HETATM   25  H1  UNL     1       4.063   0.160   0.985  1.00  0.00     0.169 HD
BRANCH  23  26
HETATM   26  C16 UNL     1       5.813  -1.488  -0.366  1.00  0.00     0.049 A 
HETATM   27  C17 UNL     1       6.355  -1.388   0.919  1.00  0.00     0.020 A 
HETATM   28  C18 UNL     1       7.524  -2.079   1.163  1.00  0.00     0.020 A 
HETATM   29  C19 UNL     1       8.150  -2.841   0.196  1.00  0.00     0.116 A 
HETATM   30  N6  UNL     1       7.614  -2.932  -1.053  1.00  0.00    -0.272 NA
HETATM   31  C20 UNL     1       6.458  -2.257  -1.314  1.00  0.00     0.133 A 
ENDBRANCH  23  26
ENDBRANCH   1  22
TORSDOF 5
