REMARK  4 active torsions:
REMARK  status: ('A' for Active; 'I' for Inactive)
REMARK       I    between atoms: C1_2  and  N1_3 
REMARK    1  A    between atoms: C1_2  and  C16_22 
REMARK    2  A    between atoms: N1_3  and  C2_4 
REMARK    3  A    between atoms: C6_8  and  N2_9 
REMARK    4  A    between atoms: C7_11  and  C8_12 
ROOT
HETATM    1  C2  UNL     1      -1.285  -2.038   0.419  1.00  0.00     0.037 A 
HETATM    2  C3  UNL     1      -1.403  -3.364   0.813  1.00  0.00     0.029 A 
HETATM    3  C4  UNL     1      -0.309  -3.994   1.373  1.00  0.00     0.005 A 
HETATM    4  C5  UNL     1       0.890  -3.339   1.548  1.00  0.00     0.033 A 
HETATM    5  C6  UNL     1       1.063  -2.022   1.174  1.00  0.00     0.079 A 
HETATM    6  C15 UNL     1      -0.058  -1.438   0.620  1.00  0.00     0.062 A 
ENDROOT
BRANCH   5   7
HETATM    7  N2  UNL     1       2.262  -1.283   1.320  1.00  0.00    -0.174 N 
HETATM    8  N3  UNL     1       2.305   0.050   0.891  1.00  0.00    -0.151 NA
HETATM    9  C7  UNL     1       3.349   0.794   0.985  1.00  0.00     0.092 A 
HETATM   10  C13 UNL     1       4.577   0.266   1.561  1.00  0.00     0.053 A 
HETATM   11  C14 UNL     1       4.544  -0.992   1.969  1.00  0.00     0.111 A 
HETATM   12  N5  UNL     1       3.403  -1.842   1.879  1.00  0.00    -0.289 N 
HETATM   13  H11 UNL     1       3.449  -2.806   2.215  1.00  0.00     0.188 HD
BRANCH   9  14
HETATM   14  C8  UNL     1       3.246   2.164   0.496  1.00  0.00     0.012 A 
HETATM   15  C9  UNL     1       2.047   2.589  -0.036  1.00  0.00     0.017 A 
HETATM   16  C10 UNL     1       1.808   3.856  -0.536  1.00  0.00     0.020 A 
HETATM   17  C11 UNL     1       2.913   4.709  -0.461  1.00  0.00     0.116 A 
HETATM   18  N4  UNL     1       4.098   4.333   0.049  1.00  0.00    -0.272 NA
HETATM   19  C12 UNL     1       4.282   3.073   0.530  1.00  0.00     0.130 A 
ENDBRANCH   9  14
ENDBRANCH   5   7
BRANCH   1  20
HETATM   20  N1  UNL     1      -2.360  -1.303  -0.170  1.00  0.00    -0.323 N 
HETATM   21  C1  UNL     1      -2.746  -1.141  -1.513  1.00  0.00     0.257 C 
HETATM   22  O1  UNL     1      -2.012  -1.755  -2.345  1.00  0.00    -0.267 OA
HETATM   23  H1  UNL     1      -2.836  -0.879   0.656  1.00  0.00     0.169 HD
BRANCH  21  24
HETATM   24  C16 UNL     1      -3.911  -0.314  -1.820  1.00  0.00     0.049 A 
HETATM   25  C17 UNL     1      -4.736   0.374  -0.924  1.00  0.00     0.020 A 
HETATM   26  C18 UNL     1      -5.785   1.095  -1.454  1.00  0.00     0.020 A 
HETATM   27  C19 UNL     1      -6.012   1.137  -2.812  1.00  0.00     0.116 A 
HETATM   28  N6  UNL     1      -5.236   0.488  -3.684  1.00  0.00    -0.272 NA
HETATM   29  C20 UNL     1      -4.192  -0.233  -3.184  1.00  0.00     0.133 A 
ENDBRANCH  21  24
ENDBRANCH   1  20
TORSDOF 4
