REMARK  4 active torsions:
REMARK  status: ('A' for Active; 'I' for Inactive)
REMARK    1  A    between atoms: C3_3  and  N1_4 
REMARK    2  A    between atoms: N1_4  and  C4_5 
REMARK    3  A    between atoms: C10_12  and  N3_13 
REMARK       I    between atoms: N3_13  and  C11_14 
REMARK    4  A    between atoms: C11_14  and  C12_16 
ROOT
HETATM    1  C4  UNL     1      -1.894  -0.307  -0.950  1.00  0.00     0.080 A 
HETATM    2  C5  UNL     1      -2.695  -0.504  -2.075  1.00  0.00     0.073 A 
HETATM    3  C6  UNL     1      -3.257  -1.785  -2.420  1.00  0.00     0.102 C 
HETATM    4  N2  UNL     1      -3.722  -2.822  -2.680  1.00  0.00    -0.191 NA
HETATM    5  C7  UNL     1      -2.939   0.613  -2.864  1.00  0.00     0.025 A 
HETATM    6  C8  UNL     1      -2.443   1.871  -2.596  1.00  0.00     0.004 A 
HETATM    7  C9  UNL     1      -1.655   2.049  -1.481  1.00  0.00     0.032 A 
HETATM    8  C10 UNL     1      -1.400   0.953  -0.686  1.00  0.00     0.063 A 
ENDROOT
BRANCH   1   9
HETATM    9  N1  UNL     1      -1.694  -1.506  -0.201  1.00  0.00    -0.363 N 
HETATM   10  H6  UNL     1      -0.710  -1.820  -0.216  1.00  0.00     0.165 HD
BRANCH   9  11
HETATM   11  C3  UNL     1      -2.778  -2.138   0.473  1.00  0.00     0.084 C 
HETATM   12  C2  UNL     1      -3.820  -1.618   1.075  1.00  0.00    -0.014 C 
HETATM   13  C1  UNL     1      -4.156  -0.192   1.218  1.00  0.00     0.037 C 
ENDBRANCH   9  11
ENDBRANCH   1   9
BRANCH   8  14
HETATM   14  N3  UNL     1      -0.593   1.028   0.498  1.00  0.00    -0.325 N 
HETATM   15  C11 UNL     1       0.732   0.894   0.029  1.00  0.00     0.226 C 
HETATM   16  O1  UNL     1       0.702   0.764  -1.255  1.00  0.00    -0.273 OA
HETATM   17  H10 UNL     1      -0.558   1.135   1.547  1.00  0.00     0.169 HD
BRANCH  15  18
HETATM   18  C12 UNL     1       2.096   0.866   0.612  1.00  0.00     0.078 C 
HETATM   19  C13 UNL     1       2.386  -0.312   1.472  1.00  0.00     0.014 C 
HETATM   20  C14 UNL     1       3.812  -0.186   1.988  1.00  0.00     0.001 C 
HETATM   21  C15 UNL     1       4.746  -0.459   0.817  1.00  0.00     0.000 C 
HETATM   22  C16 UNL     1       4.162  -0.071  -0.507  1.00  0.00     0.001 C 
HETATM   23  C17 UNL     1       3.144   1.031  -0.432  1.00  0.00     0.014 C 
ENDBRANCH  15  18
ENDBRANCH   8  14
TORSDOF 4
