REMARK  9 active torsions:
REMARK  status: ('A' for Active; 'I' for Inactive)
REMARK    1  A    between atoms: C2_2  and  C3_3 
REMARK    2  A    between atoms: C3_3  and  C4_4 
REMARK    3  A    between atoms: C4_4  and  C5_5 
REMARK    4  A    between atoms: C5_5  and  C6_6 
REMARK    5  A    between atoms: C6_6  and  C7_7 
REMARK    6  A    between atoms: C7_7  and  C8_8 
REMARK    7  A    between atoms: C10_10  and  N1_11 
REMARK    8  A    between atoms: C11_12  and  N2_13 
REMARK    9  A    between atoms: N2_13  and  C12_14 
ROOT
HETATM    1  C8  UNL     1       1.387  -0.759  -0.600  1.00  0.00    -0.058 A 
HETATM    2  C9  UNL     1       0.798   0.421  -0.789  1.00  0.00     0.021 A 
HETATM    3  C10 UNL     1      -0.477   0.441  -0.073  1.00  0.00     0.291 A 
HETATM    4  C11 UNL     1      -0.596  -0.899   0.578  1.00  0.00     0.063 A 
HETATM    5  C21 UNL     1       0.493  -1.533   0.244  1.00  0.00     0.035 A 
ENDROOT
BRANCH   4   6
HETATM    6  N2  UNL     1      -1.769  -1.175   1.351  1.00  0.00    -0.189 N 
HETATM    7  H20 UNL     1      -1.573  -1.937   2.069  1.00  0.00     0.184 HD
BRANCH   6   8
HETATM    8  C12 UNL     1      -2.979  -0.473   1.115  1.00  0.00     0.727 A 
HETATM    9  N3  UNL     1      -2.709   0.806   1.533  1.00  0.00    -0.075 NA
HETATM   10  C13 UNL     1      -3.667   1.777   1.448  1.00  0.00     0.139 A 
HETATM   11  C14 UNL     1      -4.888   1.403   0.930  1.00  0.00     0.053 A 
HETATM   12  C15 UNL     1      -5.169   0.119   0.507  1.00  0.00     0.089 A 
HETATM   13  C16 UNL     1      -6.456  -0.257  -0.034  1.00  0.00     0.011 A 
HETATM   14  N5  UNL     1      -4.183  -0.797   0.617  1.00  0.00    -0.062 NA
HETATM   15  C17 UNL     1      -7.432   0.688  -0.114  1.00  0.00     0.017 A 
HETATM   16  C20 UNL     1      -6.787  -1.496  -0.491  1.00  0.00     0.130 A 
HETATM   17  C18 UNL     1      -8.666   0.363  -0.635  1.00  0.00     0.020 A 
HETATM   18  C19 UNL     1      -8.987  -0.900  -1.097  1.00  0.00     0.116 A 
HETATM   19  N4  UNL     1      -8.008  -1.825  -1.010  1.00  0.00    -0.272 NA
ENDBRANCH   6   8
ENDBRANCH   4   6
BRANCH   3  20
HETATM   20  N1  UNL     1      -1.567   0.600  -1.014  1.00  0.00     0.092 N 
HETATM   21  H18 UNL     1      -1.567  -0.112  -1.749  1.00  0.00     0.314 HD
HETATM   22  H19 UNL     1      -1.606   1.555  -1.400  1.00  0.00     0.314 HD
ENDBRANCH   3  20
BRANCH   1  23
HETATM   23  C7  UNL     1       2.679  -1.113  -1.179  1.00  0.00     0.038 C 
BRANCH  23  24
HETATM   24  C6  UNL     1       3.775  -1.443  -0.239  1.00  0.00     0.005 C 
BRANCH  24  25
HETATM   25  C5  UNL     1       4.204  -0.385   0.705  1.00  0.00     0.000 C 
BRANCH  25  26
HETATM   26  C4  UNL     1       4.699   0.868   0.026  1.00  0.00     0.000 C 
BRANCH  26  27
HETATM   27  C3  UNL     1       5.842   0.672  -0.901  1.00  0.00    -0.000 C 
BRANCH  27  28
HETATM   28  C2  UNL     1       7.088   0.098  -0.319  1.00  0.00    -0.005 C 
HETATM   29  C1  UNL     1       7.679   0.930   0.795  1.00  0.00     0.005 C 
ENDBRANCH  27  28
ENDBRANCH  26  27
ENDBRANCH  25  26
ENDBRANCH  24  25
ENDBRANCH  23  24
ENDBRANCH   1  23
TORSDOF 9
