REMARK  6 active torsions:
REMARK  status: ('A' for Active; 'I' for Inactive)
REMARK    1  A    between atoms: C1_2  and  C2_3 
REMARK    2  A    between atoms: C1_2  and  C17_22 
REMARK    3  A    between atoms: C3_4  and  N2_5 
REMARK    4  A    between atoms: N3_6  and  C4_7 
REMARK    5  A    between atoms: C8_11  and  N4_12 
REMARK       I    between atoms: N4_12  and  C9_13 
REMARK    6  A    between atoms: C9_13  and  C10_15 
ROOT
HETATM    1  C4  UNL     1      -0.748   0.485  -2.561  1.00  0.00     0.081 A 
HETATM    2  C5  UNL     1      -1.273  -0.554  -3.306  1.00  0.00     0.033 A 
HETATM    3  C6  UNL     1      -0.651  -1.781  -3.209  1.00  0.00     0.005 A 
HETATM    4  C7  UNL     1       0.450  -1.966  -2.402  1.00  0.00     0.029 A 
HETATM    5  C8  UNL     1       0.993  -0.943  -1.649  1.00  0.00     0.036 A 
HETATM    6  C16 UNL     1       0.356   0.244  -1.770  1.00  0.00     0.063 A 
ENDROOT
BRANCH   1   7
HETATM    7  N3  UNL     1      -1.340   1.801  -2.606  1.00  0.00    -0.151 NA
HETATM    8  N2  UNL     1      -2.061   2.213  -1.676  1.00  0.00    -0.162 NA
BRANCH   8   9
HETATM    9  C3  UNL     1      -2.431   1.572  -0.493  1.00  0.00     0.143 C 
HETATM   10  C2  UNL     1      -3.555   1.365   0.120  1.00  0.00     0.053 C 
BRANCH  10  11
HETATM   11  C1  UNL     1      -4.862   1.802  -0.335  1.00  0.00     0.061 C 
HETATM   12  N1  UNL     1      -5.078   2.463  -1.421  1.00  0.00    -0.299 NA
HETATM   13  H1  UNL     1      -4.321   2.727  -2.047  1.00  0.00     0.187 HD
BRANCH  11  14
HETATM   14  C17 UNL     1      -6.070   1.521   0.423  1.00  0.00     0.009 A 
HETATM   15  C18 UNL     1      -6.089   0.826   1.623  1.00  0.00     0.016 A 
HETATM   16  C19 UNL     1      -7.228   0.556   2.346  1.00  0.00     0.020 A 
HETATM   17  C20 UNL     1      -8.452   0.986   1.884  1.00  0.00     0.116 A 
HETATM   18  N5  UNL     1      -8.457   1.661   0.723  1.00  0.00    -0.272 NA
HETATM   19  C21 UNL     1      -7.333   1.911   0.039  1.00  0.00     0.130 A 
ENDBRANCH  11  14
ENDBRANCH  10  11
ENDBRANCH   8   9
ENDBRANCH   1   7
BRANCH   5  20
HETATM   20  N4  UNL     1       2.125  -1.246  -0.855  1.00  0.00    -0.327 N 
HETATM   21  C9  UNL     1       2.861  -0.396  -0.006  1.00  0.00     0.226 C 
HETATM   22  O1  UNL     1       2.515   0.806   0.105  1.00  0.00    -0.273 OA
HETATM   23  H7  UNL     1       2.518  -2.214  -0.855  1.00  0.00     0.169 HD
BRANCH  21  24
HETATM   24  C10 UNL     1       4.036  -0.827   0.781  1.00  0.00     0.078 C 
HETATM   25  C11 UNL     1       5.116  -1.343  -0.147  1.00  0.00     0.014 C 
HETATM   26  C12 UNL     1       6.339  -1.781   0.577  1.00  0.00     0.001 C 
HETATM   27  C13 UNL     1       6.424  -1.428   2.013  1.00  0.00     0.000 C 
HETATM   28  C14 UNL     1       5.638  -0.269   2.479  1.00  0.00     0.001 C 
HETATM   29  C15 UNL     1       4.700   0.339   1.483  1.00  0.00     0.014 C 
ENDBRANCH  21  24
ENDBRANCH   5  20
TORSDOF 6
