REMARK  9 active torsions:
REMARK  status: ('A' for Active; 'I' for Inactive)
REMARK    1  A    between atoms: C2_2  and  C3_3 
REMARK    2  A    between atoms: C3_3  and  C4_4 
REMARK    3  A    between atoms: C4_4  and  C5_5 
REMARK    4  A    between atoms: C5_5  and  C6_6 
REMARK    5  A    between atoms: C6_6  and  C7_7 
REMARK       I    between atoms: C7_7  and  N1_9 
REMARK    6  A    between atoms: N1_9  and  C8_10 
REMARK    7  A    between atoms: C12_14  and  N2_15 
REMARK    8  A    between atoms: N2_15  and  C13_16 
REMARK    9  A    between atoms: C16_20  and  C17_21 
ROOT
HETATM    1  C8  UNL     1       1.111   0.647   0.181  1.00  0.00     0.036 A 
HETATM    2  C9  UNL     1       0.939   1.387  -0.979  1.00  0.00     0.029 A 
HETATM    3  C10 UNL     1      -0.313   1.482  -1.545  1.00  0.00     0.004 A 
HETATM    4  C11 UNL     1      -1.384   0.844  -0.963  1.00  0.00     0.030 A 
HETATM    5  C12 UNL     1      -1.218   0.113   0.181  1.00  0.00     0.051 A 
HETATM    6  C21 UNL     1       0.018   0.001   0.770  1.00  0.00     0.059 A 
ENDROOT
BRANCH   5   7
HETATM    7  N2  UNL     1      -2.316  -0.576   0.802  1.00  0.00    -0.188 N 
HETATM    8  H16 UNL     1      -2.217  -1.000   1.747  1.00  0.00     0.184 HD
BRANCH   7   9
HETATM    9  C13 UNL     1      -3.619  -0.791   0.300  1.00  0.00     0.727 A 
HETATM   10  N3  UNL     1      -3.702  -2.037  -0.252  1.00  0.00    -0.075 NA
HETATM   11  C14 UNL     1      -4.871  -2.441  -0.794  1.00  0.00     0.138 A 
HETATM   12  C15 UNL     1      -5.926  -1.586  -0.770  1.00  0.00     0.048 A 
HETATM   13  C16 UNL     1      -5.862  -0.306  -0.210  1.00  0.00     0.067 A 
HETATM   14  N5  UNL     1      -4.689   0.057   0.316  1.00  0.00    -0.066 NA
BRANCH  13  15
HETATM   15  C17 UNL     1      -7.043   0.589  -0.214  1.00  0.00     0.103 A 
HETATM   16  C18 UNL     1      -6.713   1.787  -1.066  1.00  0.00     0.009 A 
HETATM   17  C19 UNL     1      -6.747   2.864  -0.301  1.00  0.00     0.113 A 
HETATM   18  N4  UNL     1      -7.081   2.488   1.039  1.00  0.00    -0.276 NA
HETATM   19  C20 UNL     1      -7.254   1.193   1.112  1.00  0.00     0.104 A 
ENDBRANCH  13  15
ENDBRANCH   7   9
ENDBRANCH   5   7
BRANCH   1  20
HETATM   20  N1  UNL     1       2.329   0.431   0.903  1.00  0.00    -0.327 N 
HETATM   21  C7  UNL     1       3.198  -0.658   0.620  1.00  0.00     0.222 C 
HETATM   22  O1  UNL     1       2.839  -1.431  -0.307  1.00  0.00    -0.273 OA
HETATM   23  H12 UNL     1       2.364   1.212   1.597  1.00  0.00     0.169 HD
BRANCH  21  24
HETATM   24  C6  UNL     1       4.409  -0.673   1.509  1.00  0.00     0.103 C 
BRANCH  24  25
HETATM   25  C5  UNL     1       5.349  -1.763   1.167  1.00  0.00     0.010 C 
BRANCH  25  26
HETATM   26  C4  UNL     1       5.922  -1.828  -0.187  1.00  0.00     0.004 C 
BRANCH  26  27
HETATM   27  C3  UNL     1       6.754  -0.717  -0.693  1.00  0.00     0.026 C 
BRANCH  27  28
HETATM   28  C2  UNL     1       6.040   0.550  -0.785  1.00  0.00    -0.037 C 
HETATM   29  C1  UNL     1       6.363   1.733  -0.232  1.00  0.00     0.007 C 
ENDBRANCH  27  28
ENDBRANCH  26  27
ENDBRANCH  25  26
ENDBRANCH  24  25
ENDBRANCH  21  24
ENDBRANCH   1  20
TORSDOF 9
