REMARK  4 active torsions:
REMARK  status: ('A' for Active; 'I' for Inactive)
REMARK    1  A    between atoms: O1_2  and  N1_3 
REMARK    2  A    between atoms: N1_3  and  C2_4 
REMARK    3  A    between atoms: N1_3  and  C15_20 
REMARK    4  A    between atoms: C9_12  and  C10_13 
ROOT
HETATM    1  C2  UNL     1      -0.107   1.087  -0.264  1.00  0.00     0.132 C 
HETATM    2  C3  UNL     1      -0.597   1.763  -1.308  1.00  0.00     0.050 C 
HETATM    3  C4  UNL     1      -0.014   2.744  -2.211  1.00  0.00     0.001 C 
HETATM    4  C5  UNL     1       0.936   3.667  -1.994  1.00  0.00    -0.007 C 
HETATM    5  C6  UNL     1       1.789   4.141  -0.905  1.00  0.00     0.148 C 
HETATM    6  N2  UNL     1       2.573   3.152  -0.243  1.00  0.00    -0.373 N 
HETATM    7  C7  UNL     1       2.271   1.903   0.414  1.00  0.00     0.104 A 
HETATM    8  C8  UNL     1       2.980   1.146   1.268  1.00  0.00     0.052 A 
HETATM    9  C9  UNL     1       1.844   0.162   1.330  1.00  0.00     0.154 A 
HETATM   10  N4  UNL     1       1.139   1.007   0.422  1.00  0.00    -0.305 N 
HETATM   11  H9  UNL     1       3.621   3.322  -0.195  1.00  0.00     0.161 HD
ENDROOT
BRANCH   1  12
HETATM   12  N1  UNL     1      -1.054   0.220   0.330  1.00  0.00    -0.238 N 
BRANCH  12  13
HETATM   13  O1  UNL     1      -1.751   1.182   0.978  1.00  0.00    -0.281 OA
HETATM   14  C1  UNL     1      -1.055   1.734   2.037  1.00  0.00     0.238 C 
ENDBRANCH  12  13
BRANCH  12  15
HETATM   15  C15 UNL     1      -1.367  -1.200   0.376  1.00  0.00     0.116 C 
HETATM   16  C16 UNL     1      -1.663  -1.736  -0.979  1.00  0.00     0.028 C 
HETATM   17  C17 UNL     1      -2.915  -2.473  -1.194  1.00  0.00     0.002 C 
HETATM   18  C18 UNL     1      -4.033  -2.261  -0.236  1.00  0.00     0.000 C 
HETATM   19  C19 UNL     1      -3.787  -1.009   0.561  1.00  0.00     0.002 C 
HETATM   20  C20 UNL     1      -2.511  -1.323   1.350  1.00  0.00     0.028 C 
ENDBRANCH  12  15
ENDBRANCH   1  12
BRANCH   9  21
HETATM   21  C10 UNL     1       2.342  -1.133   0.802  1.00  0.00    -0.014 A 
HETATM   22  C11 UNL     1       2.957  -1.014  -0.443  1.00  0.00     0.012 A 
HETATM   23  C12 UNL     1       3.483  -2.091  -1.100  1.00  0.00     0.020 A 
HETATM   24  C13 UNL     1       3.383  -3.339  -0.475  1.00  0.00     0.116 A 
HETATM   25  N3  UNL     1       2.790  -3.445   0.721  1.00  0.00    -0.272 NA
HETATM   26  C14 UNL     1       2.271  -2.387   1.372  1.00  0.00     0.125 A 
ENDBRANCH   9  21
TORSDOF 4
