REMARK  6 active torsions:
REMARK  status: ('A' for Active; 'I' for Inactive)
REMARK       I    between atoms: C1_2  and  N1_3 
REMARK    1  A    between atoms: C1_2  and  C17_24 
REMARK    2  A    between atoms: N1_3  and  C2_4 
REMARK    3  A    between atoms: C6_8  and  N2_9 
REMARK    4  A    between atoms: N2_9  and  C7_10 
REMARK    5  A    between atoms: C7_10  and  S1_11 
REMARK    6  A    between atoms: C10_15  and  C11_16 
ROOT
HETATM    1  C2  UNL     1      -2.503  -0.450  -1.160  1.00  0.00     0.037 A 
HETATM    2  C3  UNL     1      -2.191   0.255  -2.304  1.00  0.00     0.029 A 
HETATM    3  C4  UNL     1      -1.029  -0.060  -2.976  1.00  0.00     0.004 A 
HETATM    4  C5  UNL     1      -0.223  -1.069  -2.479  1.00  0.00     0.029 A 
HETATM    5  C6  UNL     1      -0.495  -1.799  -1.343  1.00  0.00     0.030 A 
HETATM    6  C16 UNL     1      -1.663  -1.447  -0.709  1.00  0.00     0.058 A 
ENDROOT
BRANCH   5   7
HETATM    7  N2  UNL     1       0.344  -2.827  -0.851  1.00  0.00    -0.379 N 
HETATM    8  H5  UNL     1       0.021  -3.321   0.034  1.00  0.00     0.160 HD
BRANCH   7   9
HETATM    9  C7  UNL     1       1.588  -3.231  -1.471  1.00  0.00     0.231 C 
BRANCH   9  10
HETATM   10  S1  UNL     1       2.819  -1.872  -1.528  1.00  0.00     0.035 SA
HETATM   11  N3  UNL     1       3.435  -1.309  -2.907  1.00  0.00    -0.216 NA
HETATM   12  C8  UNL     1       4.389  -0.239  -2.750  1.00  0.00     0.129 A 
HETATM   13  C9  UNL     1       4.801   0.316  -1.597  1.00  0.00     0.053 A 
HETATM   14  C10 UNL     1       4.327  -0.097  -0.283  1.00  0.00     0.079 A 
HETATM   15  N5  UNL     1       3.452  -1.049  -0.088  1.00  0.00    -0.204 NA
BRANCH  14  16
HETATM   16  C11 UNL     1       4.812   0.543   0.934  1.00  0.00     0.011 A 
HETATM   17  C12 UNL     1       4.356   0.144   2.169  1.00  0.00     0.017 A 
HETATM   18  C13 UNL     1       4.799   0.734   3.340  1.00  0.00     0.020 A 
HETATM   19  C14 UNL     1       5.723   1.752   3.283  1.00  0.00     0.116 A 
HETATM   20  N4  UNL     1       6.173   2.148   2.094  1.00  0.00    -0.272 NA
HETATM   21  C15 UNL     1       5.734   1.567   0.969  1.00  0.00     0.130 A 
ENDBRANCH  14  16
ENDBRANCH   9  10
ENDBRANCH   7   9
ENDBRANCH   5   7
BRANCH   1  22
HETATM   22  N1  UNL     1      -3.700  -0.127  -0.466  1.00  0.00    -0.323 N 
HETATM   23  C1  UNL     1      -3.808   0.832   0.566  1.00  0.00     0.256 C 
HETATM   24  O1  UNL     1      -2.815   1.494   0.960  1.00  0.00    -0.267 OA
HETATM   25  H1  UNL     1      -4.519  -0.676  -0.795  1.00  0.00     0.169 HD
BRANCH  23  26
HETATM   26  C17 UNL     1      -5.075   1.109   1.232  1.00  0.00     0.035 A 
HETATM   27  C18 UNL     1      -5.122   2.056   2.234  1.00  0.00     0.036 A 
HETATM   28  C19 UNL     1      -6.338   2.295   2.847  1.00  0.00     0.117 A 
HETATM   29  N6  UNL     1      -7.495   1.671   2.540  1.00  0.00    -0.273 NA
HETATM   30  C20 UNL     1      -7.455   0.745   1.562  1.00  0.00     0.117 A 
HETATM   31  C21 UNL     1      -6.269   0.484   0.937  1.00  0.00     0.036 A 
ENDBRANCH  23  26
ENDBRANCH   1  22
TORSDOF 6
