REMARK  5 active torsions:
REMARK  status: ('A' for Active; 'I' for Inactive)
REMARK       I    between atoms: C1_2  and  N1_3 
REMARK    1  A    between atoms: C1_2  and  C17_22 
REMARK    2  A    between atoms: N1_3  and  C2_4 
REMARK    3  A    between atoms: C6_8  and  N2_9 
REMARK    4  A    between atoms: N2_9  and  C7_10 
REMARK    5  A    between atoms: C10_13  and  C11_14 
ROOT
HETATM    1  C2  UNL     1      -1.212   0.417  -1.250  1.00  0.00     0.036 A 
HETATM    2  C3  UNL     1      -0.773   1.571  -1.875  1.00  0.00     0.029 A 
HETATM    3  C4  UNL     1       0.502   1.732  -2.382  1.00  0.00     0.004 A 
HETATM    4  C5  UNL     1       1.347   0.631  -2.223  1.00  0.00     0.029 A 
HETATM    5  C6  UNL     1       0.927  -0.529  -1.603  1.00  0.00     0.032 A 
HETATM    6  C16 UNL     1      -0.353  -0.654  -1.109  1.00  0.00     0.058 A 
ENDROOT
BRANCH   5   7
HETATM    7  N2  UNL     1       1.851  -1.605  -1.481  1.00  0.00    -0.364 N 
HETATM    8  H5  UNL     1       1.562  -2.503  -1.013  1.00  0.00     0.162 HD
BRANCH   7   9
HETATM    9  C7  UNL     1       3.191  -1.474  -1.998  1.00  0.00     0.230 A 
HETATM   10  C8  UNL     1       4.009  -2.683  -1.785  1.00  0.00     0.023 A 
HETATM   11  C9  UNL     1       5.030  -2.422  -0.997  1.00  0.00     0.032 A 
HETATM   12  C10 UNL     1       4.889  -1.006  -0.677  1.00  0.00     0.065 A 
HETATM   13  N4  UNL     1       3.864  -0.448  -1.226  1.00  0.00    -0.259 NA
BRANCH  12  14
HETATM   14  C11 UNL     1       5.839  -0.287   0.198  1.00  0.00     0.010 A 
HETATM   15  C12 UNL     1       6.931  -0.912   0.774  1.00  0.00     0.017 A 
HETATM   16  C13 UNL     1       7.792  -0.192   1.586  1.00  0.00     0.020 A 
HETATM   17  C14 UNL     1       7.568   1.142   1.825  1.00  0.00     0.116 A 
HETATM   18  N3  UNL     1       6.507   1.763   1.269  1.00  0.00    -0.272 NA
HETATM   19  C15 UNL     1       5.681   1.051   0.483  1.00  0.00     0.130 A 
ENDBRANCH  12  14
ENDBRANCH   7   9
ENDBRANCH   5   7
BRANCH   1  20
HETATM   20  N1  UNL     1      -2.538   0.306  -0.747  1.00  0.00    -0.327 N 
HETATM   21  C1  UNL     1      -2.937   0.659   0.552  1.00  0.00     0.226 C 
HETATM   22  O1  UNL     1      -2.005   1.104   1.289  1.00  0.00    -0.273 OA
HETATM   23  H1  UNL     1      -3.065  -0.085  -1.579  1.00  0.00     0.169 HD
BRANCH  21  24
HETATM   24  C17 UNL     1      -4.378   0.437   0.796  1.00  0.00     0.078 C 
HETATM   25  C18 UNL     1      -4.799   0.815   2.183  1.00  0.00     0.014 C 
HETATM   26  C19 UNL     1      -6.303   1.064   2.159  1.00  0.00     0.001 C 
HETATM   27  C20 UNL     1      -6.915   0.172   1.117  1.00  0.00     0.000 C 
HETATM   28  C21 UNL     1      -6.217  -1.173   0.997  1.00  0.00     0.001 C 
HETATM   29  C22 UNL     1      -4.770  -1.009   0.588  1.00  0.00     0.014 C 
ENDBRANCH  21  24
ENDBRANCH   1  20
TORSDOF 5
