REMARK  2 active torsions:
REMARK  status: ('A' for Active; 'I' for Inactive)
REMARK    1  A    between atoms: C5_7  and  C6_8 
REMARK    2  A    between atoms: C6_8  and  C7_10 
ROOT
HETATM    1  C7  UNL     1       0.748  -0.175  -0.209  1.00  0.00     0.048 C 
HETATM    2  C8  UNL     1       0.654   1.190  -0.246  1.00  0.00     0.086 C 
HETATM    3  C9  UNL     1      -0.473   2.127  -0.445  1.00  0.00    -0.022 C 
HETATM    4  C10 UNL     1      -1.774   2.567  -0.696  1.00  0.00    -0.001 C 
HETATM    5  C11 UNL     1      -3.018   1.919  -1.003  1.00  0.00     0.300 C 
HETATM    6  N3  UNL     1      -4.120   1.622  -0.148  1.00  0.00     0.115 NA
HETATM    7  C12 UNL     1      -3.968   0.584   0.836  1.00  0.00     0.365 C 
HETATM    8  C13 UNL     1      -4.404  -0.805   0.469  1.00  0.00     0.034 C 
HETATM    9  C14 UNL     1      -3.900  -2.083   0.337  1.00  0.00     0.032 C 
HETATM   10  C15 UNL     1      -2.414  -2.317   0.183  1.00  0.00     0.068 A 
HETATM   11  N4  UNL     1      -1.966  -3.612   0.346  1.00  0.00    -0.260 NA
HETATM   12  C16 UNL     1      -0.600  -3.657   0.237  1.00  0.00     0.118 A 
HETATM   13  C17 UNL     1       0.370  -2.710   0.010  1.00  0.00     0.028 A 
HETATM   14  C18 UNL     1      -0.054  -1.452  -0.145  1.00  0.00    -0.030 A 
HETATM   15  C19 UNL     1      -1.427  -1.352  -0.051  1.00  0.00     0.017 A 
HETATM   16  C20 UNL     1      -2.040  -0.060  -0.346  1.00  0.00     0.127 C 
HETATM   17  N5  UNL     1      -2.528   0.573   0.758  1.00  0.00    -0.262 NA
HETATM   18  H11 UNL     1      -4.979   1.507  -0.684  1.00  0.00     0.319 HD
ENDROOT
BRANCH   1  19
HETATM   19  C6  UNL     1       2.168  -0.317   0.006  1.00  0.00     0.171 C 
HETATM   20  O1  UNL     1       2.664  -1.440   0.083  1.00  0.00    -0.291 OA
BRANCH  19  21
HETATM   21  C5  UNL     1       3.339   0.463   0.185  1.00  0.00     0.038 A 
HETATM   22  C2  UNL     1       4.609  -0.013   0.366  1.00  0.00     0.067 A 
HETATM   23  C1  UNL     1       4.930  -1.438   0.384  1.00  0.00     0.073 C 
HETATM   24  N1  UNL     1       5.688   0.826   0.547  1.00  0.00    -0.155 NA
HETATM   25  N2  UNL     1       5.577   2.119   0.557  1.00  0.00    -0.162 NA
HETATM   26  C3  UNL     1       4.388   2.675   0.390  1.00  0.00     0.142 A 
HETATM   27  C4  UNL     1       3.315   1.843   0.210  1.00  0.00     0.038 A 
ENDBRANCH  19  21
ENDBRANCH   1  19
TORSDOF 2
