REMARK  6 active torsions:
REMARK  status: ('A' for Active; 'I' for Inactive)
REMARK    1  A    between atoms: C2_2  and  N1_3 
REMARK    2  A    between atoms: C2_2  and  N3_11 
REMARK    3  A    between atoms: C3_4  and  C4_5 
REMARK    4  A    between atoms: N3_11  and  C9_12 
REMARK    5  A    between atoms: C13_16  and  N4_17 
REMARK    6  A    between atoms: C16_20  and  N5_21 
ROOT
HETATM    1  C9  UNL     1      -0.436  -0.180  -0.747  1.00  0.00     0.035 A 
HETATM    2  C10 UNL     1      -0.375   0.399  -2.006  1.00  0.00     0.029 A 
HETATM    3  C11 UNL     1      -1.523   0.793  -2.666  1.00  0.00     0.004 A 
HETATM    4  C12 UNL     1      -2.740   0.603  -2.058  1.00  0.00     0.029 A 
HETATM    5  C13 UNL     1      -2.844   0.031  -0.807  1.00  0.00     0.034 A 
HETATM    6  C17 UNL     1      -1.678  -0.360  -0.156  1.00  0.00     0.058 A 
ENDROOT
BRANCH   1   7
HETATM    7  N3  UNL     1       0.660  -0.625   0.030  1.00  0.00    -0.342 N 
HETATM    8  H8  UNL     1       1.044  -1.598  -0.009  1.00  0.00     0.167 HD
BRANCH   7   9
HETATM    9  C2  UNL     1       1.524  -0.024   1.005  1.00  0.00     0.118 C 
HETATM   10  C1  UNL     1       0.920   0.254   2.151  1.00  0.00     0.065 C 
BRANCH   9  11
HETATM   11  N1  UNL     1       2.907   0.285   0.855  1.00  0.00    -0.243 NA
HETATM   12  C3  UNL     1       3.640  -0.613   0.304  1.00  0.00     0.132 C 
BRANCH  12  13
HETATM   13  C4  UNL     1       5.060  -0.389   0.109  1.00  0.00    -0.001 A 
HETATM   14  C5  UNL     1       5.924  -1.311  -0.479  1.00  0.00     0.016 A 
HETATM   15  C6  UNL     1       7.281  -1.033  -0.637  1.00  0.00     0.020 A 
HETATM   16  C7  UNL     1       7.821   0.173  -0.214  1.00  0.00     0.116 A 
HETATM   17  N2  UNL     1       6.957   1.042   0.351  1.00  0.00    -0.272 NA
HETATM   18  C8  UNL     1       5.654   0.792   0.510  1.00  0.00     0.129 A 
ENDBRANCH  12  13
ENDBRANCH   9  11
ENDBRANCH   7   9
ENDBRANCH   1   7
BRANCH   5  19
HETATM   19  N4  UNL     1      -4.115  -0.169  -0.171  1.00  0.00    -0.341 N 
HETATM   20  C14 UNL     1      -4.871  -0.646   0.969  1.00  0.00     0.135 A 
HETATM   21  C15 UNL     1      -4.914   0.152   2.228  1.00  0.00     0.036 C 
HETATM   22  C16 UNL     1      -5.541  -0.024  -0.237  1.00  0.00     0.342 A 
BRANCH  22  23
HETATM   23  N5  UNL     1      -6.357  -0.927  -1.007  1.00  0.00     0.103 N 
HETATM   24  H17 UNL     1      -6.528  -0.571  -1.987  1.00  0.00     0.315 HD
HETATM   25  H18 UNL     1      -7.290  -0.974  -0.498  1.00  0.00     0.315 HD
ENDBRANCH  22  23
ENDBRANCH   5  19
TORSDOF 6
