REMARK  1 active torsions:
REMARK  status: ('A' for Active; 'I' for Inactive)
REMARK    1  A    between atoms: N1_1  and  C1_2 
ROOT
HETATM    1  C1  UNL     1      -0.766   1.016  -0.878  1.00  0.00     0.292 C 
HETATM    2  C2  UNL     1       0.650   1.301  -0.404  1.00  0.00     0.149 C 
HETATM    3  N2  UNL     1       0.793   0.506   0.616  1.00  0.00    -0.297 NA
HETATM    4  C3  UNL     1       2.036   0.534   1.280  1.00  0.00     0.177 C 
HETATM    5  C4  UNL     1       2.486  -0.706   1.934  1.00  0.00     0.029 C 
HETATM    6  C5  UNL     1       3.638  -1.181   1.483  1.00  0.00     0.082 C 
HETATM    7  N3  UNL     1       3.699  -1.162   0.189  1.00  0.00    -0.259 NA
HETATM    8  C6  UNL     1       2.441  -1.281  -0.449  1.00  0.00     0.114 C 
HETATM    9  C7  UNL     1       1.227  -1.636  -0.919  1.00  0.00    -0.000 C 
HETATM   10  C8  UNL     1       0.568  -0.726  -1.829  1.00  0.00     0.047 A 
HETATM   11  C9  UNL     1      -0.617  -0.926  -2.630  1.00  0.00     0.050 A 
HETATM   12  C10 UNL     1      -0.801  -0.418  -1.188  1.00  0.00     0.120 A 
HETATM   13  N4  UNL     1      -1.418  -1.346  -0.367  1.00  0.00    -0.285 NA
HETATM   14  C11 UNL     1      -1.963  -1.725   0.729  1.00  0.00     0.112 C 
HETATM   15  C12 UNL     1      -2.210  -0.988   1.990  1.00  0.00     0.024 C 
HETATM   16  C13 UNL     1      -2.314   0.335   2.231  1.00  0.00     0.075 C 
HETATM   17  C14 UNL     1      -2.216   1.499   1.321  1.00  0.00     0.243 C 
HETATM   18  O1  UNL     1      -2.713   2.525   1.876  1.00  0.00    -0.269 OA
HETATM   19  N5  UNL     1      -1.676   1.633  -0.016  1.00  0.00    -0.316 N 
HETATM   20  H15 UNL     1      -2.156   2.494  -0.434  1.00  0.00     0.165 HD
ENDROOT
BRANCH   1  21
HETATM   21  N1  UNL     1      -0.814   1.692  -2.190  1.00  0.00     0.115 N 
HETATM   22  H1  UNL     1      -1.748   1.432  -2.612  1.00  0.00     0.316 HD
HETATM   23  H2  UNL     1      -0.815   2.719  -2.016  1.00  0.00     0.316 HD
ENDBRANCH   1  21
TORSDOF 1
