REMARK  5 active torsions:
REMARK  status: ('A' for Active; 'I' for Inactive)
REMARK       I    between atoms: C1_2  and  N1_3 
REMARK    1  A    between atoms: C1_2  and  C15_21 
REMARK    2  A    between atoms: N1_3  and  C2_4 
REMARK    3  A    between atoms: C6_8  and  N2_9 
REMARK    4  A    between atoms: N2_9  and  C7_10 
REMARK    5  A    between atoms: C10_14  and  C11_15 
ROOT
HETATM    1  C2  UNL     1       2.017  -0.411  -0.010  1.00  0.00     0.037 A 
HETATM    2  C3  UNL     1       1.635  -1.633  -0.461  1.00  0.00     0.029 A 
HETATM    3  C4  UNL     1       0.353  -2.138  -0.394  1.00  0.00     0.004 A 
HETATM    4  C5  UNL     1      -0.641  -1.364   0.171  1.00  0.00     0.030 A 
HETATM    5  C6  UNL     1      -0.302  -0.131   0.637  1.00  0.00     0.051 A 
HETATM    6  C14 UNL     1       0.993   0.327   0.545  1.00  0.00     0.059 A 
ENDROOT
BRANCH   5   7
HETATM    7  N2  UNL     1      -1.293   0.691   1.222  1.00  0.00    -0.188 N 
HETATM    8  H5  UNL     1      -1.123   1.642   1.602  1.00  0.00     0.184 HD
BRANCH   7   9
HETATM    9  C7  UNL     1      -2.630   0.268   1.337  1.00  0.00     0.727 A 
HETATM   10  N3  UNL     1      -2.940  -0.385   2.468  1.00  0.00    -0.075 NA
HETATM   11  C8  UNL     1      -4.194  -0.825   2.664  1.00  0.00     0.139 A 
HETATM   12  C9  UNL     1      -5.121  -0.573   1.660  1.00  0.00     0.054 A 
HETATM   13  C10 UNL     1      -4.823   0.093   0.498  1.00  0.00     0.101 A 
HETATM   14  N5  UNL     1      -3.554   0.495   0.387  1.00  0.00    -0.061 NA
BRANCH  13  15
HETATM   15  C11 UNL     1      -5.832   0.328  -0.514  1.00  0.00     0.059 A 
HETATM   16  N4  UNL     1      -5.787   0.916  -1.658  1.00  0.00    -0.291 NA
HETATM   17  C12 UNL     1      -7.172   0.700  -1.979  1.00  0.00     0.155 A 
HETATM   18  C13 UNL     1      -7.253   0.014  -0.660  1.00  0.00     0.083 A 
ENDBRANCH  13  15
ENDBRANCH   7   9
ENDBRANCH   5   7
BRANCH   1  19
HETATM   19  N1  UNL     1       3.306   0.155  -0.052  1.00  0.00    -0.323 N 
HETATM   20  C1  UNL     1       4.506  -0.374  -0.555  1.00  0.00     0.256 C 
HETATM   21  O1  UNL     1       4.477  -1.527  -1.054  1.00  0.00    -0.267 OA
HETATM   22  H1  UNL     1       3.448   1.117   0.338  1.00  0.00     0.169 HD
BRANCH  20  23
HETATM   23  C15 UNL     1       5.788   0.320  -0.539  1.00  0.00     0.035 A 
HETATM   24  C16 UNL     1       6.003   1.586  -0.033  1.00  0.00     0.036 A 
HETATM   25  C17 UNL     1       7.240   2.195  -0.045  1.00  0.00     0.117 A 
HETATM   26  N6  UNL     1       8.304   1.557  -0.564  1.00  0.00    -0.273 NA
HETATM   27  C18 UNL     1       8.163   0.321  -1.073  1.00  0.00     0.117 A 
HETATM   28  C19 UNL     1       6.921  -0.274  -1.054  1.00  0.00     0.036 A 
ENDBRANCH  20  23
ENDBRANCH   1  19
TORSDOF 5
