REMARK  5 active torsions:
REMARK  status: ('A' for Active; 'I' for Inactive)
REMARK    1  A    between atoms: C1_2  and  C2_3 
REMARK       I    between atoms: C1_2  and  N5_18 
REMARK    2  A    between atoms: C3_4  and  N1_5 
REMARK    3  A    between atoms: N1_5  and  C4_6 
REMARK    4  A    between atoms: N5_18  and  C13_19 
REMARK    5  A    between atoms: C13_19  and  C14_20 
ROOT
HETATM    1  N1  UNL     1       0.346   2.268   1.492  1.00  0.00    -0.325 N 
HETATM    2  H3  UNL     1       0.583   2.905   2.274  1.00  0.00     0.169 HD
ENDROOT
BRANCH   1   3
HETATM    3  C3  UNL     1      -0.473   1.454   0.627  1.00  0.00     0.097 C 
HETATM    4  C2  UNL     1      -1.118   2.080  -0.363  1.00  0.00     0.091 C 
BRANCH   4   5
HETATM    5  C1  UNL     1      -1.963   1.284  -1.269  1.00  0.00     0.242 C 
HETATM    6  O1  UNL     1      -2.532   1.963  -2.170  1.00  0.00    -0.269 OA
HETATM    7  N5  UNL     1      -2.207  -0.075  -1.255  1.00  0.00    -0.353 N 
HETATM    8  H10 UNL     1      -1.713  -0.617  -0.489  1.00  0.00     0.163 HD
BRANCH   7   9
HETATM    9  C13 UNL     1      -3.021  -0.887  -2.114  1.00  0.00     0.161 C 
BRANCH   9  10
HETATM   10  C14 UNL     1      -4.471  -0.764  -1.736  1.00  0.00    -0.038 A 
HETATM   11  C15 UNL     1      -4.850  -1.675  -0.804  1.00  0.00     0.028 A 
HETATM   12  C16 UNL     1      -6.185  -1.630  -0.403  1.00  0.00     0.116 A 
HETATM   13  N6  UNL     1      -7.009  -0.713  -0.941  1.00  0.00    -0.273 NA
HETATM   14  C17 UNL     1      -6.501   0.146  -1.868  1.00  0.00     0.116 A 
HETATM   15  C18 UNL     1      -5.185   0.209  -2.359  1.00  0.00     0.028 A 
ENDBRANCH   9  10
ENDBRANCH   7   9
ENDBRANCH   4   5
ENDBRANCH   1   3
BRANCH   1  16
HETATM   16  C4  UNL     1       1.580   2.019   0.845  1.00  0.00     0.281 A 
HETATM   17  N2  UNL     1       2.158   2.638  -0.177  1.00  0.00    -0.215 NA
HETATM   18  C5  UNL     1       3.375   2.258  -0.683  1.00  0.00     0.125 A 
HETATM   19  C6  UNL     1       3.909   1.141   0.020  1.00  0.00     0.065 A 
HETATM   20  C7  UNL     1       3.351   0.391   1.152  1.00  0.00     0.124 A 
HETATM   21  C8  UNL     1       4.418  -0.534   1.282  1.00  0.00     0.022 A 
HETATM   22  N4  UNL     1       2.434   1.184   1.041  1.00  0.00    -0.369 NA
HETATM   23  C9  UNL     1       3.968  -1.266   2.404  1.00  0.00     0.018 A 
HETATM   24  C12 UNL     1       5.589  -0.920   0.742  1.00  0.00     0.131 A 
HETATM   25  C10 UNL     1       4.742  -2.318   2.874  1.00  0.00     0.020 A 
HETATM   26  C11 UNL     1       5.927  -2.688   2.305  1.00  0.00     0.116 A 
HETATM   27  N3  UNL     1       6.304  -1.930   1.215  1.00  0.00    -0.272 NA
ENDBRANCH   1  16
TORSDOF 5
