REMARK  4 active torsions:
REMARK  status: ('A' for Active; 'I' for Inactive)
REMARK    1  A    between atoms: N1_1  and  C1_2 
REMARK    2  A    between atoms: N3_10  and  C7_11 
REMARK    3  A    between atoms: C8_12  and  C9_13 
REMARK    4  A    between atoms: C9_13  and  C10_14 
ROOT
HETATM    1  C1  UNL     1      -3.198   0.965  -0.291  1.00  0.00     0.032 A 
HETATM    2  C2  UNL     1      -3.375   0.957   1.049  1.00  0.00     0.142 A 
HETATM    3  N2  UNL     1      -4.011  -0.334   0.889  1.00  0.00    -0.249 N 
HETATM    4  O1  UNL     1      -4.496  -1.425   0.215  1.00  0.00    -0.247 OA
HETATM    5  C3  UNL     1      -4.291  -1.322  -1.201  1.00  0.00     0.177 A 
HETATM    6  C4  UNL     1      -3.687  -0.166  -1.059  1.00  0.00    -0.004 A 
HETATM    7  C5  UNL     1      -2.545  -0.171  -2.101  1.00  0.00     0.120 C 
HETATM    8  C6  UNL     1      -1.308  -0.602  -1.262  1.00  0.00     0.108 C 
HETATM    9  N3  UNL     1      -0.389   0.263  -1.162  1.00  0.00    -0.247 NA
HETATM   10  N5  UNL     1      -0.845  -1.752  -0.480  1.00  0.00    -0.347 N 
HETATM   11  C15 UNL     1      -1.136  -1.799   0.951  1.00  0.00     0.018 A 
HETATM   12  C16 UNL     1      -0.660  -2.180   2.180  1.00  0.00     0.022 A 
HETATM   13  C17 UNL     1      -1.473  -1.925   3.266  1.00  0.00    -0.017 A 
HETATM   14  C18 UNL     1      -2.711  -1.316   3.171  1.00  0.00     0.055 A 
HETATM   15  C19 UNL     1      -3.559  -0.781   2.190  1.00  0.00     0.106 A 
HETATM   16  C20 UNL     1      -2.343  -1.291   1.560  1.00  0.00     0.080 A 
HETATM   17  H15 UNL     1      -0.329  -2.604  -0.730  1.00  0.00     0.167 HD
ENDROOT
BRANCH   9  18
HETATM   18  C7  UNL     1       0.804   0.110  -0.468  1.00  0.00     0.115 C 
HETATM   19  C8  UNL     1       1.774   1.001  -0.443  1.00  0.00    -0.003 C 
BRANCH  19  20
HETATM   20  C9  UNL     1       3.058   0.819   0.313  1.00  0.00     0.068 C 
BRANCH  20  21
HETATM   21  C10 UNL     1       4.221   0.862  -0.638  1.00  0.00    -0.037 A 
HETATM   22  C11 UNL     1       4.855   2.058  -0.953  1.00  0.00     0.010 A 
HETATM   23  C12 UNL     1       5.935   2.063  -1.842  1.00  0.00     0.020 A 
HETATM   24  C13 UNL     1       6.355   0.868  -2.395  1.00  0.00     0.116 A 
HETATM   25  N4  UNL     1       5.735  -0.288  -2.085  1.00  0.00    -0.273 NA
HETATM   26  C14 UNL     1       4.685  -0.300  -1.221  1.00  0.00     0.123 A 
ENDBRANCH  20  21
ENDBRANCH  19  20
ENDBRANCH   9  18
BRANCH   1  27
HETATM   27  N1  UNL     1      -2.545   2.164  -0.657  1.00  0.00    -0.301 NA
HETATM   28  H1  UNL     1      -3.290   2.855  -0.946  1.00  0.00     0.124 HD
HETATM   29  H2  UNL     1      -3.165   2.966  -0.975  1.00  0.00     0.124 HD
ENDBRANCH   1  27
TORSDOF 4
