REMARK  6 active torsions:
REMARK  status: ('A' for Active; 'I' for Inactive)
REMARK    1  A    between atoms: C1_2  and  C2_3 
REMARK    2  A    between atoms: C2_3  and  N1_4 
REMARK    3  A    between atoms: N1_4  and  C3_5 
REMARK    4  A    between atoms: C7_9  and  N2_10 
REMARK    5  A    between atoms: N2_10  and  C8_11 
REMARK    6  A    between atoms: C11_15  and  C12_16 
ROOT
HETATM    1  N2  UNL     1       0.228   0.766   0.994  1.00  0.00    -0.188 N 
HETATM    2  H8  UNL     1       0.213   1.792   1.080  1.00  0.00     0.184 HD
ENDROOT
BRANCH   1   3
HETATM    3  C7  UNL     1       1.357  -0.065   0.834  1.00  0.00     0.051 A 
HETATM    4  C6  UNL     1       1.219  -1.440   0.692  1.00  0.00     0.030 A 
HETATM    5  C5  UNL     1       2.428  -2.061   0.562  1.00  0.00     0.004 A 
HETATM    6  C4  UNL     1       3.679  -1.526   0.557  1.00  0.00     0.029 A 
HETATM    7  C3  UNL     1       3.741  -0.130   0.704  1.00  0.00     0.030 A 
HETATM    8  C17 UNL     1       2.569   0.578   0.841  1.00  0.00     0.059 A 
BRANCH   7   9
HETATM    9  N1  UNL     1       4.980   0.547   0.721  1.00  0.00    -0.387 N 
HETATM   10  H4  UNL     1       4.988   1.590   0.835  1.00  0.00     0.159 HD
BRANCH   9  11
HETATM   11  C2  UNL     1       6.260  -0.108   0.590  1.00  0.00     0.156 C 
BRANCH  11  12
HETATM   12  C1  UNL     1       6.390  -0.796  -0.719  1.00  0.00     0.410 C 
HETATM   13  O1  UNL     1       5.714  -0.945  -1.737  1.00  0.00    -0.428 OA
ENDBRANCH  11  12
ENDBRANCH   9  11
ENDBRANCH   7   9
ENDBRANCH   1   3
BRANCH   1  14
HETATM   14  C8  UNL     1      -1.167   0.554   1.076  1.00  0.00     0.727 A 
HETATM   15  N3  UNL     1      -1.622   0.267   2.303  1.00  0.00    -0.075 NA
HETATM   16  C9  UNL     1      -2.951   0.041   2.535  1.00  0.00     0.139 A 
HETATM   17  C10 UNL     1      -3.837   0.113   1.474  1.00  0.00     0.053 A 
HETATM   18  C11 UNL     1      -3.340   0.410   0.224  1.00  0.00     0.089 A 
HETATM   19  N5  UNL     1      -2.027   0.628   0.018  1.00  0.00    -0.062 NA
BRANCH  18  20
HETATM   20  C12 UNL     1      -4.195   0.507  -0.948  1.00  0.00     0.011 A 
HETATM   21  C13 UNL     1      -3.709   0.804  -2.204  1.00  0.00     0.017 A 
HETATM   22  C14 UNL     1      -4.533   0.901  -3.327  1.00  0.00     0.020 A 
HETATM   23  C15 UNL     1      -5.911   0.693  -3.203  1.00  0.00     0.116 A 
HETATM   24  N4  UNL     1      -6.361   0.405  -1.972  1.00  0.00    -0.272 NA
HETATM   25  C16 UNL     1      -5.559   0.314  -0.895  1.00  0.00     0.130 A 
ENDBRANCH  18  20
ENDBRANCH   1  14
TORSDOF 6
