REMARK  7 active torsions:
REMARK  status: ('A' for Active; 'I' for Inactive)
REMARK    1  A    between atoms: C2_2  and  C3_3 
REMARK    2  A    between atoms: C4_4  and  N1_5 
REMARK    3  A    between atoms: N1_5  and  C5_6 
REMARK    4  A    between atoms: C6_7  and  C7_8 
REMARK    5  A    between atoms: C7_8  and  C8_10 
REMARK    6  A    between atoms: C9_11  and  C10_12 
REMARK    7  A    between atoms: C10_12  and  C11_14 
ROOT
HETATM    1  N1  UNL     1      -1.116   0.762   0.166  1.00  0.00    -0.351 N 
HETATM    2  H6  UNL     1      -1.322   1.597   0.757  1.00  0.00     0.166 HD
ENDROOT
BRANCH   1   3
HETATM    3  C4  UNL     1      -2.145  -0.194  -0.064  1.00  0.00     0.134 A 
HETATM    4  C3  UNL     1      -3.392  -0.039   0.474  1.00  0.00    -0.001 A 
HETATM    5  C14 UNL     1      -4.416  -0.962   0.263  1.00  0.00    -0.011 A 
HETATM    6  C13 UNL     1      -4.099  -2.049  -0.524  1.00  0.00     0.014 A 
HETATM    7  C15 UNL     1      -5.664  -1.333   0.474  1.00  0.00     0.037 A 
HETATM    8  C12 UNL     1      -2.850  -2.229  -1.077  1.00  0.00     0.133 A 
HETATM    9  C16 UNL     1      -5.338  -2.484  -0.356  1.00  0.00     0.047 A 
HETATM   10  N2  UNL     1      -1.945  -1.283  -0.810  1.00  0.00    -0.242 NA
HETATM   11 CL1  UNL     1      -6.187  -3.905  -0.937  1.00  0.00    -0.083 Cl
BRANCH   4  12
HETATM   12  C2  UNL     1      -3.630   1.174   1.309  1.00  0.00     0.039 C 
HETATM   13  C1  UNL     1      -3.791   2.405   0.447  1.00  0.00     0.010 C 
ENDBRANCH   4  12
ENDBRANCH   1   3
BRANCH   1  14
HETATM   14  C5  UNL     1       0.163   0.528  -0.431  1.00  0.00     0.089 C 
HETATM   15  C6  UNL     1       1.298   0.135   0.132  1.00  0.00     0.031 C 
BRANCH  15  16
HETATM   16  C7  UNL     1       2.734  -0.217  -0.010  1.00  0.00     0.217 C 
HETATM   17  F1  UNL     1       2.927  -1.549   0.377  1.00  0.00    -0.241 F 
BRANCH  16  18
HETATM   18  C8  UNL     1       3.618   0.697   0.764  1.00  0.00     0.013 C 
HETATM   19  C9  UNL     1       4.913   0.751   0.476  1.00  0.00     0.014 C 
BRANCH  19  20
HETATM   20  C10 UNL     1       5.495  -0.086  -0.605  1.00  0.00     0.257 C 
HETATM   21  F2  UNL     1       5.106   0.366  -1.843  1.00  0.00    -0.239 F 
BRANCH  20  22
HETATM   22  C11 UNL     1       7.004  -0.074  -0.549  1.00  0.00     0.390 C 
HETATM   23  F3  UNL     1       7.407  -0.568   0.661  1.00  0.00    -0.211 F 
HETATM   24  F4  UNL     1       7.462  -0.918  -1.550  1.00  0.00    -0.211 F 
ENDBRANCH  20  22
ENDBRANCH  19  20
ENDBRANCH  16  18
ENDBRANCH  15  16
ENDBRANCH   1  14
TORSDOF 7
