REMARK  3 active torsions:
REMARK  status: ('A' for Active; 'I' for Inactive)
REMARK    1  A    between atoms: C1_2  and  C2_4 
REMARK    2  A    between atoms: C2_4  and  O1_6 
REMARK    3  A    between atoms: O1_6  and  C3_7 
ROOT
HETATM    1  C3  UNL     1       1.224   0.555   0.404  1.00  0.00     0.079 C 
HETATM    2  C4  UNL     1       0.934   1.847   0.183  1.00  0.00     0.034 C 
HETATM    3  C5  UNL     1      -0.297   2.160   0.586  1.00  0.00     0.247 C 
HETATM    4  N1  UNL     1      -1.473   1.609   0.121  1.00  0.00     0.093 N 
HETATM    5  C6  UNL     1      -2.646   1.611  -0.697  1.00  0.00     0.428 A 
HETATM    6  N2  UNL     1      -3.639   1.321  -1.457  1.00  0.00    -0.234 NA
HETATM    7  C7  UNL     1      -4.058   0.177  -2.027  1.00  0.00     0.118 A 
HETATM    8  C8  UNL     1      -3.400  -1.083  -1.877  1.00  0.00     0.047 A 
HETATM    9  C9  UNL     1      -2.417  -0.598  -1.081  1.00  0.00     0.057 A 
HETATM   10  N3  UNL     1      -2.114   0.499  -0.603  1.00  0.00    -0.139 N 
HETATM   11  C10 UNL     1      -1.165  -1.143  -0.372  1.00  0.00     0.047 A 
HETATM   12  C11 UNL     1      -1.801  -2.067   0.419  1.00  0.00    -0.007 A 
HETATM   13  C12 UNL     1      -0.944  -2.145   1.565  1.00  0.00     0.018 A 
HETATM   14  C13 UNL     1       0.200  -1.301   1.537  1.00  0.00     0.028 A 
HETATM   15 CL1  UNL     1       1.426  -1.192   2.822  1.00  0.00    -0.088 Cl
HETATM   16  C14 UNL     1       0.298  -0.540   0.378  1.00  0.00     0.070 A 
HETATM   17  C15 UNL     1      -0.267  -0.262  -0.792  1.00  0.00     0.034 A 
HETATM   18  H4  UNL     1      -1.414   2.540  -0.445  1.00  0.00     0.321 HD
ENDROOT
BRANCH   1  19
HETATM   19  O1  UNL     1       2.457   0.032   0.698  1.00  0.00    -0.312 OA
BRANCH  19  20
HETATM   20  C2  UNL     1       3.662   0.750   0.498  1.00  0.00     0.377 C 
HETATM   21  F3  UNL     1       3.681   1.919   1.222  1.00  0.00    -0.213 F 
BRANCH  20  22
HETATM   22  C1  UNL     1       4.771  -0.169   0.946  1.00  0.00     0.413 C 
HETATM   23  F1  UNL     1       6.007   0.431   0.767  1.00  0.00    -0.209 F 
HETATM   24  F2  UNL     1       4.586  -0.451   2.292  1.00  0.00    -0.209 F 
ENDBRANCH  20  22
ENDBRANCH  19  20
ENDBRANCH   1  19
TORSDOF 3
