REMARK  6 active torsions:
REMARK  status: ('A' for Active; 'I' for Inactive)
REMARK    1  A    between atoms: C1_2  and  O1_4 
REMARK    2  A    between atoms: O1_4  and  C2_5 
REMARK    3  A    between atoms: C2_5  and  C3_6 
REMARK    4  A    between atoms: C4_7  and  N1_8 
REMARK    5  A    between atoms: N1_8  and  C5_9 
REMARK    6  A    between atoms: C8_13  and  C9_14 
ROOT
HETATM    1  C5  UNL     1      -1.548  -0.539  -1.440  1.00  0.00     0.130 A 
HETATM    2  N2  UNL     1      -0.597  -1.379  -1.694  1.00  0.00    -0.229 NA
HETATM    3  C6  UNL     1       0.650  -0.796  -1.358  1.00  0.00     0.090 A 
HETATM    4  C7  UNL     1       1.968  -0.793  -1.247  1.00  0.00     0.066 A 
HETATM    5  C8  UNL     1       2.467   0.463  -0.706  1.00  0.00     0.070 A 
HETATM    6  N3  UNL     1       1.451   1.231  -0.486  1.00  0.00    -0.246 NA
HETATM    7  C15 UNL     1       0.264   0.541  -0.860  1.00  0.00     0.090 A 
HETATM    8  C16 UNL     1      -1.045   0.722  -0.897  1.00  0.00     0.084 A 
ENDROOT
BRANCH   1   9
HETATM    9  N1  UNL     1      -2.943  -0.808  -1.664  1.00  0.00    -0.351 N 
HETATM   10  H6  UNL     1      -3.554  -0.003  -1.934  1.00  0.00     0.166 HD
BRANCH   9  11
HETATM   11  C4  UNL     1      -3.453  -2.127  -1.517  1.00  0.00     0.088 C 
HETATM   12  C3  UNL     1      -4.416  -2.198  -0.611  1.00  0.00     0.016 C 
BRANCH  12  13
HETATM   13  C2  UNL     1      -4.928  -1.044   0.180  1.00  0.00     0.202 C 
BRANCH  13  14
HETATM   14  O1  UNL     1      -4.761  -1.242   1.553  1.00  0.00    -0.329 OA
BRANCH  14  15
HETATM   15  C1  UNL     1      -5.239  -0.165   2.293  1.00  0.00     0.500 C 
HETATM   16  F1  UNL     1      -4.192   0.266   3.102  1.00  0.00    -0.184 F 
HETATM   17  F2  UNL     1      -6.207  -0.663   3.168  1.00  0.00    -0.184 F 
ENDBRANCH  14  15
ENDBRANCH  13  14
ENDBRANCH  12  13
ENDBRANCH   9  11
ENDBRANCH   1   9
BRANCH   5  18
HETATM   18  C9  UNL     1       3.846   0.855  -0.436  1.00  0.00    -0.007 A 
HETATM   19  C10 UNL     1       4.062   2.120   0.085  1.00  0.00     0.015 A 
HETATM   20  C11 UNL     1       5.368   2.533   0.358  1.00  0.00     0.024 A 
HETATM   21  C12 UNL     1       6.403   1.676   0.105  1.00  0.00     0.034 A 
HETATM   22 CL1  UNL     1       7.995   2.303   0.487  1.00  0.00    -0.084 Cl
HETATM   23  C13 UNL     1       6.218   0.398  -0.418  1.00  0.00     0.024 A 
HETATM   24  C14 UNL     1       4.903   0.004  -0.685  1.00  0.00     0.015 A 
ENDBRANCH   5  18
TORSDOF 6
