REMARK  6 active torsions:
REMARK  status: ('A' for Active; 'I' for Inactive)
REMARK    1  A    between atoms: C2_2  and  C13_17 
REMARK    2  A    between atoms: C3_3  and  N1_4 
REMARK    3  A    between atoms: N1_4  and  C4_5 
REMARK    4  A    between atoms: C7_9  and  C8_10 
REMARK    5  A    between atoms: C13_17  and  C14_19 
REMARK    6  A    between atoms: C14_19  and  C15_20 
ROOT
HETATM    1  C4  UNL     1       0.688  -0.752  -0.529  1.00  0.00     0.726 A 
HETATM    2  N2  UNL     1       0.653  -0.596  -1.853  1.00  0.00    -0.075 NA
HETATM    3  C5  UNL     1       1.652  -0.295  -2.667  1.00  0.00     0.139 A 
HETATM    4  C6  UNL     1       2.906  -0.119  -2.057  1.00  0.00     0.053 A 
HETATM    5  C7  UNL     1       2.986  -0.272  -0.693  1.00  0.00     0.089 A 
HETATM    6  N3  UNL     1       1.910  -0.581   0.057  1.00  0.00    -0.062 NA
ENDROOT
BRANCH   1   7
HETATM    7  N1  UNL     1      -0.573  -1.065   0.031  1.00  0.00    -0.198 N 
HETATM    8  H5  UNL     1      -0.602  -1.905   0.622  1.00  0.00     0.183 HD
BRANCH   7   9
HETATM    9  C3  UNL     1      -1.731  -0.277  -0.198  1.00  0.00     0.115 C 
HETATM   10  C2  UNL     1      -2.848  -0.341   0.477  1.00  0.00    -0.022 C 
HETATM   11  C1  UNL     1      -3.037  -1.303   1.624  1.00  0.00     0.052 C 
BRANCH  10  12
HETATM   12  C13 UNL     1      -3.982   0.541   0.161  1.00  0.00     0.035 C 
HETATM   13  N4  UNL     1      -3.956   1.408  -0.786  1.00  0.00    -0.304 NA
HETATM   14  H12 UNL     1      -3.200   1.620  -1.436  1.00  0.00     0.186 HD
BRANCH  12  15
HETATM   15  C14 UNL     1      -5.248   0.468   0.960  1.00  0.00     0.090 C 
BRANCH  15  16
HETATM   16  C15 UNL     1      -6.275   1.437   0.415  1.00  0.00     0.228 C 
HETATM   17  F1  UNL     1      -5.710   2.707   0.506  1.00  0.00    -0.255 F 
ENDBRANCH  15  16
ENDBRANCH  12  15
ENDBRANCH  10  12
ENDBRANCH   7   9
ENDBRANCH   1   7
BRANCH   5  18
HETATM   18  C8  UNL     1       4.251  -0.100   0.005  1.00  0.00     0.011 A 
HETATM   19  C9  UNL     1       5.330   0.224  -0.676  1.00  0.00    -0.008 A 
HETATM   20  C10 UNL     1       6.499   0.347   0.238  1.00  0.00     0.057 A 
HETATM   21  C11 UNL     1       5.926   0.041   1.560  1.00  0.00     0.002 A 
HETATM   22  C12 UNL     1       4.614  -0.217   1.410  1.00  0.00     0.042 A 
HETATM   23 CL1  UNL     1       3.442  -0.637   2.657  1.00  0.00    -0.084 Cl
ENDBRANCH   5  18
TORSDOF 6
