REMARK  6 active torsions:
REMARK  status: ('A' for Active; 'I' for Inactive)
REMARK       I    between atoms: C1_2  and  N1_3 
REMARK    1  A    between atoms: C1_2  and  C17_23 
REMARK    2  A    between atoms: N1_3  and  C2_4 
REMARK    3  A    between atoms: C3_5  and  C4_6 
REMARK    4  A    between atoms: C5_7  and  C6_8 
REMARK    5  A    between atoms: C6_8  and  N2_9 
REMARK    6  A    between atoms: N2_9  and  C7_10 
ROOT
HETATM    1  C4  UNL     1       0.271   1.599  -2.302  1.00  0.00     0.064 C 
HETATM    2  C5  UNL     1       1.430   1.795  -1.696  1.00  0.00     0.012 C 
ENDROOT
BRANCH   1   3
HETATM    3  C3  UNL     1      -0.831   0.898  -1.710  1.00  0.00    -0.056 C 
HETATM    4  C2  UNL     1      -1.771   0.323  -1.202  1.00  0.00     0.018 C 
BRANCH   4   5
HETATM    5  N1  UNL     1      -2.865  -0.339  -0.587  1.00  0.00    -0.281 N 
HETATM    6  C1  UNL     1      -4.153   0.295  -0.506  1.00  0.00     0.263 C 
HETATM    7  O1  UNL     1      -4.185   1.462  -1.026  1.00  0.00    -0.267 OA
HETATM    8  H1  UNL     1      -2.738  -1.295  -0.189  1.00  0.00     0.179 HD
BRANCH   6   9
HETATM    9  C17 UNL     1      -5.305  -0.348   0.116  1.00  0.00     0.033 A 
HETATM   10  C18 UNL     1      -5.355  -1.597   0.702  1.00  0.00     0.018 A 
HETATM   11  C19 UNL     1      -6.541  -2.055   1.247  1.00  0.00     0.013 A 
HETATM   12  C20 UNL     1      -7.711  -1.314   1.239  1.00  0.00    -0.026 A 
HETATM   13  C21 UNL     1      -8.875  -1.776   1.779  1.00  0.00     0.012 A 
HETATM   14  C25 UNL     1      -7.654  -0.067   0.652  1.00  0.00    -0.025 A 
HETATM   15  C22 UNL     1     -10.040  -1.024   1.763  1.00  0.00     0.001 A 
HETATM   16  C23 UNL     1     -10.011   0.227   1.182  1.00  0.00     0.001 A 
HETATM   17  C24 UNL     1      -8.821   0.690   0.634  1.00  0.00     0.012 A 
HETATM   18  C26 UNL     1      -6.481   0.392   0.110  1.00  0.00     0.029 A 
ENDBRANCH   6   9
ENDBRANCH   4   5
ENDBRANCH   1   3
BRANCH   2  19
HETATM   19  C6  UNL     1       1.698   1.304  -0.335  1.00  0.00     0.300 C 
BRANCH  19  20
HETATM   20  N2  UNL     1       2.828   0.392  -0.375  1.00  0.00     0.116 N 
HETATM   21  H6  UNL     1       2.928  -0.055   0.559  1.00  0.00     0.319 HD
BRANCH  20  22
HETATM   22  C7  UNL     1       4.061   1.090  -0.694  1.00  0.00     0.382 C 
HETATM   23  C8  UNL     1       4.238   2.135   0.414  1.00  0.00     0.147 C 
HETATM   24  N3  UNL     1       4.896   1.879   1.562  1.00  0.00    -0.273 NA
HETATM   25  C9  UNL     1       5.398   0.513   1.600  1.00  0.00     0.118 C 
HETATM   26  C10 UNL     1       6.483   0.337   0.884  1.00  0.00     0.051 C 
HETATM   27  C11 UNL     1       7.466  -0.628   0.452  1.00  0.00     0.069 A 
HETATM   28  N4  UNL     1       8.672  -1.021   0.821  1.00  0.00    -0.260 NA
HETATM   29  C15 UNL     1       6.741  -1.164  -0.635  1.00  0.00     0.010 A 
HETATM   30  C12 UNL     1       9.343  -2.003   0.172  1.00  0.00     0.117 A 
HETATM   31  C13 UNL     1       8.733  -2.599  -0.904  1.00  0.00     0.020 A 
HETATM   32  C14 UNL     1       7.480  -2.165  -1.259  1.00  0.00     0.017 A 
HETATM   33  C16 UNL     1       5.402  -0.858  -1.196  1.00  0.00     0.127 C 
HETATM   34  N5  UNL     1       5.142   0.218  -0.647  1.00  0.00    -0.260 NA
ENDBRANCH  20  22
ENDBRANCH  19  20
ENDBRANCH   2  19
TORSDOF 6
