REMARK  6 active torsions:
REMARK  status: ('A' for Active; 'I' for Inactive)
REMARK    1  A    between atoms: C1_2  and  C2_4 
REMARK    2  A    between atoms: C2_4  and  O1_7 
REMARK    3  A    between atoms: O1_7  and  C3_8 
REMARK    4  A    between atoms: C7_12  and  N1_13 
REMARK    5  A    between atoms: N1_13  and  C8_14 
REMARK    6  A    between atoms: C11_18  and  C12_19 
ROOT
HETATM    1  N1  UNL     1       0.889   1.416   0.542  1.00  0.00    -0.188 N 
HETATM    2  H5  UNL     1       0.411   2.206   1.085  1.00  0.00     0.184 HD
ENDROOT
BRANCH   1   3
HETATM    3  C7  UNL     1       2.044   0.935   1.212  1.00  0.00     0.052 A 
HETATM    4  C6  UNL     1       2.093   1.014   2.604  1.00  0.00     0.030 A 
HETATM    5  C5  UNL     1       3.192   0.584   3.309  1.00  0.00     0.005 A 
HETATM    6  C4  UNL     1       4.275   0.054   2.584  1.00  0.00     0.037 A 
HETATM    7  C3  UNL     1       4.226  -0.024   1.194  1.00  0.00     0.077 A 
HETATM    8  C19 UNL     1       3.116   0.415   0.525  1.00  0.00     0.067 A 
BRANCH   7   9
HETATM    9  O1  UNL     1       5.411  -0.573   0.789  1.00  0.00    -0.279 OA
BRANCH   9  10
HETATM   10  C2  UNL     1       5.798  -0.816  -0.520  1.00  0.00     0.418 C 
HETATM   11  F3  UNL     1       4.882  -1.661  -1.140  1.00  0.00    -0.169 F 
HETATM   12  F4  UNL     1       5.890   0.354  -1.270  1.00  0.00    -0.169 F 
BRANCH  10  13
HETATM   13  C1  UNL     1       7.183  -1.441  -0.600  1.00  0.00     0.455 C 
HETATM   14  F1  UNL     1       7.247  -2.675   0.008  1.00  0.00    -0.205 F 
HETATM   15  F2  UNL     1       7.590  -1.439  -1.907  1.00  0.00    -0.205 F 
ENDBRANCH  10  13
ENDBRANCH   9  10
ENDBRANCH   7   9
ENDBRANCH   1   3
BRANCH   1  16
HETATM   16  C8  UNL     1       0.236   1.101  -0.711  1.00  0.00     0.727 A 
HETATM   17  N2  UNL     1       0.692   1.034  -1.968  1.00  0.00    -0.075 NA
HETATM   18  C9  UNL     1      -0.188   0.686  -2.957  1.00  0.00     0.139 A 
HETATM   19  C10 UNL     1      -1.492   0.414  -2.682  1.00  0.00     0.053 A 
HETATM   20  C11 UNL     1      -1.942   0.487  -1.403  1.00  0.00     0.089 A 
HETATM   21  N4  UNL     1      -1.067   0.828  -0.448  1.00  0.00    -0.062 NA
BRANCH  20  22
HETATM   22  C12 UNL     1      -3.341   0.217  -0.986  1.00  0.00     0.011 A 
HETATM   23  C13 UNL     1      -3.698   0.325   0.343  1.00  0.00     0.044 A 
HETATM   24  C14 UNL     1      -5.041   0.032   0.473  1.00  0.00     0.035 A 
HETATM   25  N3  UNL     1      -5.503  -0.251  -0.756  1.00  0.00    -0.352 N 
HETATM   26  C18 UNL     1      -6.138  -0.078   1.459  1.00  0.00     0.027 A 
HETATM   27  C15 UNL     1      -4.494  -0.145  -1.642  1.00  0.00     0.105 A 
HETATM   28  C16 UNL     1      -6.903  -0.566  -0.680  1.00  0.00     0.156 A 
HETATM   29  C17 UNL     1      -7.215  -0.425   0.775  1.00  0.00    -0.005 A 
ENDBRANCH  20  22
ENDBRANCH   1  16
TORSDOF 6
