REMARK  7 active torsions:
REMARK  status: ('A' for Active; 'I' for Inactive)
REMARK    1  A    between atoms: C1_2  and  C2_4 
REMARK    2  A    between atoms: C2_4  and  O1_7 
REMARK    3  A    between atoms: O1_7  and  C3_8 
REMARK    4  A    between atoms: C7_12  and  N1_13 
REMARK    5  A    between atoms: N1_13  and  C8_14 
REMARK    6  A    between atoms: C11_18  and  C12_19 
REMARK    7  A    between atoms: C13_20  and  N3_21 
ROOT
HETATM    1  N1  UNL     1       1.578  -0.022   1.320  1.00  0.00    -0.188 N 
HETATM    2  H5  UNL     1       1.157  -0.093   2.283  1.00  0.00     0.184 HD
ENDROOT
BRANCH   1   3
HETATM    3  C7  UNL     1       2.721  -0.726   0.865  1.00  0.00     0.052 A 
HETATM    4  C6  UNL     1       2.746  -2.053   1.281  1.00  0.00     0.030 A 
HETATM    5  C5  UNL     1       3.835  -2.824   0.874  1.00  0.00     0.005 A 
HETATM    6  C4  UNL     1       4.843  -2.262   0.088  1.00  0.00     0.037 A 
HETATM    7  C3  UNL     1       4.773  -0.929  -0.300  1.00  0.00     0.077 A 
HETATM    8  C19 UNL     1       3.700  -0.165   0.096  1.00  0.00     0.067 A 
BRANCH   7   9
HETATM    9  O1  UNL     1       5.854  -0.576  -1.059  1.00  0.00    -0.279 OA
BRANCH   9  10
HETATM   10  C2  UNL     1       7.041  -0.094  -0.506  1.00  0.00     0.418 C 
HETATM   11  F3  UNL     1       8.001   0.141  -1.472  1.00  0.00    -0.169 F 
HETATM   12  F4  UNL     1       7.535  -1.057   0.359  1.00  0.00    -0.169 F 
BRANCH  10  13
HETATM   13  C1  UNL     1       6.844   1.191   0.291  1.00  0.00     0.455 C 
HETATM   14  F1  UNL     1       8.098   1.463   0.853  1.00  0.00    -0.205 F 
HETATM   15  F2  UNL     1       6.531   2.203  -0.590  1.00  0.00    -0.205 F 
ENDBRANCH  10  13
ENDBRANCH   9  10
ENDBRANCH   7   9
ENDBRANCH   1   3
BRANCH   1  16
HETATM   16  C8  UNL     1       1.034   0.843   0.295  1.00  0.00     0.727 A 
HETATM   17  N2  UNL     1       1.585   1.732  -0.532  1.00  0.00    -0.075 NA
HETATM   18  C9  UNL     1       0.830   2.381  -1.455  1.00  0.00     0.139 A 
HETATM   19  C10 UNL     1      -0.501   2.149  -1.567  1.00  0.00     0.052 A 
HETATM   20  C11 UNL     1      -1.039   1.228  -0.695  1.00  0.00     0.078 A 
HETATM   21  N4  UNL     1      -0.298   0.563   0.240  1.00  0.00    -0.063 NA
BRANCH  20  22
HETATM   22  C12 UNL     1      -2.475   0.899  -0.709  1.00  0.00     0.049 C 
HETATM   23  C13 UNL     1      -3.239   0.078  -0.041  1.00  0.00     0.088 C 
BRANCH  23  24
HETATM   24  N3  UNL     1      -4.622  -0.181  -0.111  1.00  0.00    -0.386 N 
HETATM   25  C14 UNL     1      -5.493  -1.037  -0.883  1.00  0.00     0.149 C 
HETATM   26  C15 UNL     1      -6.907  -0.516  -0.905  1.00  0.00    -0.011 C 
HETATM   27  C16 UNL     1      -7.514  -0.052   0.178  1.00  0.00    -0.027 C 
HETATM   28  C17 UNL     1      -6.540  -0.163   1.329  1.00  0.00     0.047 C 
HETATM   29  C18 UNL     1      -5.309   0.654   0.884  1.00  0.00     0.126 C 
ENDBRANCH  23  24
ENDBRANCH  20  22
ENDBRANCH   1  16
TORSDOF 7
