REMARK  4 active torsions:
REMARK  status: ('A' for Active; 'I' for Inactive)
REMARK    1  A    between atoms: C1_2  and  C2_3 
REMARK    2  A    between atoms: C2_3  and  N2_4 
REMARK    3  A    between atoms: C2_3  and  C9_13 
REMARK    4  A    between atoms: N2_4  and  C3_5 
ROOT
HETATM    1  C2  UNL     1      -1.165   1.586   0.576  1.00  0.00     0.173 C 
ENDROOT
BRANCH   1   2
HETATM    2  C1  UNL     1      -0.904   3.080   0.508  1.00  0.00     0.111 C 
HETATM    3  N1  UNL     1      -0.924   3.756   1.595  1.00  0.00    -0.314 NA
HETATM    4  H1  UNL     1      -0.741   4.779   1.514  1.00  0.00     0.185 HD
ENDBRANCH   1   2
BRANCH   1   5
HETATM    5  N2  UNL     1      -2.162   1.276  -0.384  1.00  0.00    -0.375 N 
HETATM    6  H4  UNL     1      -2.345   1.971  -1.150  1.00  0.00     0.160 HD
BRANCH   5   7
HETATM    7  C3  UNL     1      -2.983   0.108  -0.462  1.00  0.00     0.030 A 
HETATM    8  C4  UNL     1      -2.980  -0.945   0.443  1.00  0.00     0.032 A 
HETATM    9  C5  UNL     1      -3.749  -2.076   0.401  1.00  0.00     0.046 A 
HETATM   10  C6  UNL     1      -4.625  -2.191  -0.654  1.00  0.00     0.138 A 
HETATM   11  F1  UNL     1      -5.428  -3.274  -0.782  1.00  0.00    -0.204 F 
HETATM   12  C7  UNL     1      -4.690  -1.189  -1.596  1.00  0.00     0.074 A 
HETATM   13 CL1  UNL     1      -5.800  -1.310  -2.953  1.00  0.00    -0.081 Cl
HETATM   14  C8  UNL     1      -3.884  -0.078  -1.488  1.00  0.00     0.056 A 
ENDBRANCH   5   7
ENDBRANCH   1   5
BRANCH   1  15
HETATM   15  C9  UNL     1       0.160   0.938   0.307  1.00  0.00     0.056 C 
HETATM   16  C10 UNL     1       1.233   1.770   0.363  1.00  0.00     0.169 C 
HETATM   17  O1  UNL     1       2.629   1.652   0.194  1.00  0.00    -0.320 OA
HETATM   18  C11 UNL     1       3.268   0.410   0.011  1.00  0.00     0.083 A 
HETATM   19  C12 UNL     1       4.593   0.644  -0.352  1.00  0.00     0.039 A 
HETATM   20  C16 UNL     1       2.758  -0.865   0.143  1.00  0.00    -0.005 A 
HETATM   21  C13 UNL     1       5.451  -0.386  -0.594  1.00  0.00     0.026 A 
HETATM   22  C14 UNL     1       4.973  -1.677  -0.471  1.00  0.00     0.034 A 
HETATM   23 CL2  UNL     1       6.087  -2.978  -0.785  1.00  0.00    -0.084 Cl
HETATM   24  C15 UNL     1       3.657  -1.874  -0.111  1.00  0.00     0.035 A 
HETATM   25  C17 UNL     1       1.393  -1.330   0.515  1.00  0.00     0.161 C 
HETATM   26  N3  UNL     1       0.355  -0.456   0.023  1.00  0.00    -0.385 N 
HETATM   27  H14 UNL     1      -0.424  -0.746  -0.641  1.00  0.00     0.159 HD
ENDBRANCH   1  15
TORSDOF 4
