REMARK  5 active torsions:
REMARK  status: ('A' for Active; 'I' for Inactive)
REMARK    1  A    between atoms: N1_6  and  C6_7 
REMARK    2  A    between atoms: C7_8  and  C8_9 
REMARK    3  A    between atoms: C8_9  and  C9_10 
REMARK    4  A    between atoms: C15_18  and  N4_19 
REMARK    5  A    between atoms: N4_19  and  C16_20 
ROOT
HETATM    1  C1  UNL     1       4.118  -0.669   2.715  1.00  0.00     0.050 C 
HETATM    2  C2  UNL     1       2.939  -0.745   1.845  1.00  0.00    -0.037 A 
HETATM    3  C3  UNL     1       2.087  -1.719   1.992  1.00  0.00    -0.010 A 
HETATM    4  C4  UNL     1       0.854  -1.936   1.198  1.00  0.00     0.106 A 
HETATM    5  C5  UNL     1       0.676  -0.881   0.168  1.00  0.00     0.107 A 
HETATM    6  N1  UNL     1      -0.369  -0.967  -0.587  1.00  0.00    -0.247 NA
HETATM    7  N3  UNL     1       1.581   0.201  -0.028  1.00  0.00    -0.343 N 
HETATM    8  C14 UNL     1       2.727   0.278   0.815  1.00  0.00     0.054 A 
HETATM    9  C15 UNL     1       3.536   1.279   0.612  1.00  0.00     0.114 C 
HETATM   10  H15 UNL     1       1.383   0.896  -0.771  1.00  0.00     0.167 HD
ENDROOT
BRANCH   6  11
HETATM   11  C6  UNL     1      -1.244  -2.064  -0.355  1.00  0.00     0.115 C 
HETATM   12  C7  UNL     1      -2.408  -1.868  -0.973  1.00  0.00    -0.003 C 
BRANCH  12  13
HETATM   13  C8  UNL     1      -2.669  -0.636  -1.777  1.00  0.00     0.068 C 
BRANCH  13  14
HETATM   14  C9  UNL     1      -3.819   0.146  -1.263  1.00  0.00    -0.037 A 
HETATM   15  C10 UNL     1      -3.675   1.152  -0.304  1.00  0.00     0.010 A 
HETATM   16  C11 UNL     1      -4.817   1.810   0.096  1.00  0.00     0.020 A 
HETATM   17  C12 UNL     1      -6.085   1.570  -0.359  1.00  0.00     0.116 A 
HETATM   18  N2  UNL     1      -6.206   0.597  -1.283  1.00  0.00    -0.273 NA
HETATM   19  C13 UNL     1      -5.112  -0.086  -1.715  1.00  0.00     0.123 A 
ENDBRANCH  13  14
ENDBRANCH  12  13
ENDBRANCH   6  11
BRANCH   9  20
HETATM   20  N4  UNL     1       3.341   2.286  -0.392  1.00  0.00    -0.388 N 
HETATM   21  H17 UNL     1       2.639   2.940  -0.031  1.00  0.00     0.159 HD
BRANCH  20  22
HETATM   22  C16 UNL     1       4.212   1.986  -1.522  1.00  0.00     0.204 C 
HETATM   23 BR1  UNL     1       6.067   1.973  -0.995  1.00  0.00    -0.075 Br
ENDBRANCH  20  22
ENDBRANCH   9  20
TORSDOF 5
