REMARK  6 active torsions:
REMARK  status: ('A' for Active; 'I' for Inactive)
REMARK    1  A    between atoms: N1_2  and  C2_3 
REMARK    2  A    between atoms: C3_4  and  C4_5 
REMARK    3  A    between atoms: C5_6  and  C6_7 
REMARK    4  A    between atoms: N3_10  and  C8_11 
REMARK    5  A    between atoms: C10_13  and  N4_14 
REMARK       I    between atoms: N4_14  and  C11_15 
REMARK    6  A    between atoms: C11_15  and  C12_17 
ROOT
HETATM    1  C8  UNL     1       0.976   1.447  -0.739  1.00  0.00     0.031 A 
HETATM    2  C9  UNL     1      -0.208   0.825  -0.713  1.00  0.00     0.055 A 
HETATM    3  C10 UNL     1      -1.260   1.826  -0.888  1.00  0.00     0.033 A 
HETATM    4  C22 UNL     1      -0.713   3.025  -1.017  1.00  0.00     0.009 A 
HETATM    5  C23 UNL     1       0.776   2.905  -0.934  1.00  0.00     0.088 A 
ENDROOT
BRANCH   3   6
HETATM    6  N4  UNL     1      -2.651   1.446  -0.903  1.00  0.00    -0.323 N 
HETATM    7  C11 UNL     1      -3.228   0.804   0.228  1.00  0.00     0.256 C 
HETATM    8  O1  UNL     1      -2.500   0.580   1.230  1.00  0.00    -0.267 OA
HETATM    9  H10 UNL     1      -3.253   1.629  -1.727  1.00  0.00     0.169 HD
BRANCH   7  10
HETATM   10  C12 UNL     1      -4.620   0.385   0.305  1.00  0.00     0.033 A 
HETATM   11  C13 UNL     1      -5.054  -0.221   1.444  1.00  0.00     0.018 A 
HETATM   12  C14 UNL     1      -6.364  -0.661   1.624  1.00  0.00     0.013 A 
HETATM   13  C15 UNL     1      -7.272  -0.471   0.585  1.00  0.00    -0.026 A 
HETATM   14  C16 UNL     1      -8.580  -0.906   0.751  1.00  0.00     0.012 A 
HETATM   15  C20 UNL     1      -6.819   0.143  -0.564  1.00  0.00    -0.025 A 
HETATM   16  C17 UNL     1      -9.485  -0.714  -0.292  1.00  0.00     0.001 A 
HETATM   17  C18 UNL     1      -9.035  -0.094  -1.453  1.00  0.00     0.001 A 
HETATM   18  C19 UNL     1      -7.725   0.331  -1.597  1.00  0.00     0.012 A 
HETATM   19  C21 UNL     1      -5.518   0.573  -0.725  1.00  0.00     0.029 A 
ENDBRANCH   7  10
ENDBRANCH   3   6
BRANCH   1  20
HETATM   20  N3  UNL     1       2.210   0.754  -0.594  1.00  0.00    -0.296 N 
HETATM   21  C7  UNL     1       3.309   1.495  -0.020  1.00  0.00     0.291 C 
HETATM   22  N2  UNL     1       4.462   0.632   0.226  1.00  0.00    -0.272 NA
HETATM   23  C6  UNL     1       4.378  -0.640   0.277  1.00  0.00     0.045 C 
HETATM   24  C24 UNL     1       3.081  -1.323   0.085  1.00  0.00     0.169 C 
HETATM   25  N5  UNL     1       2.384  -0.585  -0.980  1.00  0.00    -0.231 NA
HETATM   26  H21 UNL     1       2.947  -0.656  -1.866  1.00  0.00     0.147 HD
BRANCH  23  27
HETATM   27  C5  UNL     1       5.565  -1.444   0.526  1.00  0.00     0.028 C 
HETATM   28  C4  UNL     1       6.760  -0.906   0.708  1.00  0.00     0.003 C 
BRANCH  28  29
HETATM   29  C3  UNL     1       7.990  -1.684   0.963  1.00  0.00     0.019 C 
HETATM   30  C2  UNL     1       9.174  -1.116   1.141  1.00  0.00     0.110 C 
BRANCH  30  31
HETATM   31  N1  UNL     1      10.285  -2.004   1.381  1.00  0.00    -0.300 NA
HETATM   32  C1  UNL     1      10.418  -2.923   0.458  1.00  0.00     0.170 C 
ENDBRANCH  30  31
ENDBRANCH  28  29
ENDBRANCH  23  27
ENDBRANCH   1  20
TORSDOF 6
