REMARK  6 active torsions:
REMARK  status: ('A' for Active; 'I' for Inactive)
REMARK    1  A    between atoms: C3_4  and  C5_6 
REMARK    2  A    between atoms: C5_6  and  N3_21 
REMARK    3  A    between atoms: C6_7  and  C7_8 
REMARK    4  A    between atoms: C7_8  and  N2_9 
REMARK       I    between atoms: N2_9  and  C8_10 
REMARK    5  A    between atoms: C8_10  and  C9_12 
REMARK    6  A    between atoms: N3_21  and  C18_22 
ROOT
HETATM    1  C5  UNL     1       1.000   0.125   0.740  1.00  0.00     0.064 C 
HETATM    2  C6  UNL     1      -0.189  -0.376   1.100  1.00  0.00     0.021 C 
ENDROOT
BRANCH   1   3
HETATM    3  C3  UNL     1       1.250   1.592   0.776  1.00  0.00     0.224 A 
HETATM    4  N1  UNL     1       1.222   2.246  -0.500  1.00  0.00     0.104 N 
HETATM    5  C1  UNL     1       1.111   1.483  -1.711  1.00  0.00     0.311 C 
HETATM    6  C2  UNL     1       2.503   2.139   0.237  1.00  0.00     0.321 A 
HETATM    7  C4  UNL     1       0.728   2.289   2.012  1.00  0.00     0.058 C 
ENDBRANCH   1   3
BRANCH   1   8
HETATM    8  N3  UNL     1       1.888  -0.885   0.318  1.00  0.00    -0.189 N 
HETATM    9  H20 UNL     1       1.919  -1.822   0.822  1.00  0.00     0.184 HD
BRANCH   8  10
HETATM   10  C18 UNL     1       2.879  -1.216  -0.609  1.00  0.00     0.727 A 
HETATM   11  N4  UNL     1       2.506  -1.716  -1.809  1.00  0.00    -0.075 NA
HETATM   12  C19 UNL     1       3.420  -2.060  -2.756  1.00  0.00     0.139 A 
HETATM   13  C20 UNL     1       4.739  -1.864  -2.405  1.00  0.00     0.053 A 
HETATM   14  C21 UNL     1       5.169  -1.364  -1.210  1.00  0.00     0.089 A 
HETATM   15  C22 UNL     1       6.536  -1.154  -0.819  1.00  0.00     0.011 A 
HETATM   16  N6  UNL     1       4.190  -1.057  -0.349  1.00  0.00    -0.062 NA
HETATM   17  C23 UNL     1       6.770  -0.634   0.457  1.00  0.00     0.017 A 
HETATM   18  C26 UNL     1       7.653  -1.406  -1.553  1.00  0.00     0.130 A 
HETATM   19  C24 UNL     1       8.041  -0.391   0.945  1.00  0.00     0.020 A 
HETATM   20  C25 UNL     1       9.131  -0.671   0.144  1.00  0.00     0.116 A 
HETATM   21  N5  UNL     1       8.892  -1.172  -1.084  1.00  0.00    -0.272 NA
ENDBRANCH   8  10
ENDBRANCH   1   8
BRANCH   2  22
HETATM   22  C7  UNL     1      -1.500   0.109   1.579  1.00  0.00     0.152 C 
BRANCH  22  23
HETATM   23  N2  UNL     1      -2.594  -0.277   0.688  1.00  0.00    -0.354 N 
HETATM   24  C8  UNL     1      -3.916   0.119   1.022  1.00  0.00     0.248 C 
HETATM   25  O1  UNL     1      -4.110   0.779   2.054  1.00  0.00    -0.268 OA
HETATM   26  H12 UNL     1      -2.398  -0.837  -0.181  1.00  0.00     0.163 HD
BRANCH  24  27
HETATM   27  C9  UNL     1      -5.007  -0.262   0.144  1.00  0.00     0.022 C 
HETATM   28  C10 UNL     1      -4.995  -0.958  -0.988  1.00  0.00     0.014 C 
HETATM   29  C11 UNL     1      -6.366  -1.076  -1.527  1.00  0.00     0.009 C 
HETATM   30  C12 UNL     1      -7.245  -0.453  -0.719  1.00  0.00    -0.046 C 
HETATM   31  C13 UNL     1      -8.676  -0.286  -0.859  1.00  0.00     0.008 C 
HETATM   32  C17 UNL     1      -6.395  -0.041   0.381  1.00  0.00     0.080 C 
HETATM   33  C14 UNL     1      -9.126   0.643   0.005  1.00  0.00     0.000 C 
HETATM   34  C15 UNL     1      -8.244   1.306   0.975  1.00  0.00    -0.003 C 
HETATM   35  C16 UNL     1      -6.942   1.039   1.174  1.00  0.00    -0.012 C 
ENDBRANCH  24  27
ENDBRANCH  22  23
ENDBRANCH   2  22
TORSDOF 6
