REMARK  7 active torsions:
REMARK  status: ('A' for Active; 'I' for Inactive)
REMARK    1  A    between atoms: C3_3  and  C5_5 
REMARK    2  A    between atoms: C5_5  and  N2_20 
REMARK    3  A    between atoms: C6_6  and  C7_7 
REMARK    4  A    between atoms: C7_7  and  N1_8 
REMARK       I    between atoms: N1_8  and  C8_9 
REMARK    5  A    between atoms: C8_9  and  C9_11 
REMARK    6  A    between atoms: N2_20  and  C18_21 
REMARK    7  A    between atoms: C21_25  and  C22_26 
ROOT
HETATM    1  C5  UNL     1       0.416  -1.813   0.973  1.00  0.00     0.052 C 
HETATM    2  C6  UNL     1      -0.762  -1.246   1.275  1.00  0.00     0.023 C 
ENDROOT
BRANCH   1   3
HETATM    3  C3  UNL     1       0.517  -3.182   0.432  1.00  0.00    -0.039 C 
HETATM    4  C2  UNL     1       1.672  -3.714   0.145  1.00  0.00    -0.022 C 
HETATM    5  C1  UNL     1       1.711  -5.094  -0.396  1.00  0.00     0.036 C 
HETATM    6  C4  UNL     1      -0.766  -3.916   0.233  1.00  0.00     0.050 C 
ENDBRANCH   1   3
BRANCH   1   7
HETATM    7  N2  UNL     1       1.602  -1.058   1.186  1.00  0.00    -0.188 N 
HETATM    8  H19 UNL     1       1.887  -0.921   2.167  1.00  0.00     0.184 HD
BRANCH   7   9
HETATM    9  C18 UNL     1       2.352  -0.520   0.105  1.00  0.00     0.727 A 
HETATM   10  N3  UNL     1       1.969  -0.707  -1.160  1.00  0.00    -0.075 NA
HETATM   11  C19 UNL     1       2.694  -0.188  -2.189  1.00  0.00     0.139 A 
HETATM   12  C20 UNL     1       3.838   0.536  -1.869  1.00  0.00     0.053 A 
HETATM   13  C21 UNL     1       4.233   0.728  -0.579  1.00  0.00     0.089 A 
HETATM   14  N5  UNL     1       3.461   0.184   0.374  1.00  0.00    -0.062 NA
BRANCH  13  15
HETATM   15  C22 UNL     1       5.413   1.472  -0.167  1.00  0.00     0.011 A 
HETATM   16  C23 UNL     1       5.688   1.584   1.170  1.00  0.00     0.017 A 
HETATM   17  C24 UNL     1       6.812   2.292   1.557  1.00  0.00     0.020 A 
HETATM   18  C25 UNL     1       7.650   2.878   0.651  1.00  0.00     0.116 A 
HETATM   19  N4  UNL     1       7.380   2.767  -0.679  1.00  0.00    -0.272 NA
HETATM   20  C26 UNL     1       6.275   2.071  -1.055  1.00  0.00     0.130 A 
ENDBRANCH  13  15
ENDBRANCH   7   9
ENDBRANCH   1   7
BRANCH   2  21
HETATM   21  C7  UNL     1      -0.932   0.109   1.815  1.00  0.00     0.152 C 
BRANCH  21  22
HETATM   22  N1  UNL     1      -1.736   0.974   0.960  1.00  0.00    -0.354 N 
HETATM   23  C8  UNL     1      -3.079   0.654   0.631  1.00  0.00     0.248 C 
HETATM   24  O1  UNL     1      -3.492  -0.402   1.126  1.00  0.00    -0.268 OA
HETATM   25  H11 UNL     1      -1.318   1.870   0.567  1.00  0.00     0.163 HD
BRANCH  23  26
HETATM   26  C9  UNL     1      -3.852   1.519  -0.212  1.00  0.00     0.022 C 
HETATM   27  C10 UNL     1      -3.567   2.659  -0.808  1.00  0.00     0.014 C 
HETATM   28  C11 UNL     1      -4.405   3.514  -1.637  1.00  0.00     0.001 C 
HETATM   29  C12 UNL     1      -5.692   3.179  -1.849  1.00  0.00     0.008 C 
HETATM   30  C13 UNL     1      -6.050   1.961  -1.143  1.00  0.00    -0.046 A 
HETATM   31  C14 UNL     1      -7.261   1.543  -0.732  1.00  0.00     0.008 A 
HETATM   32  C17 UNL     1      -5.078   0.949  -0.752  1.00  0.00     0.080 A 
HETATM   33  C15 UNL     1      -7.099   0.255  -0.053  1.00  0.00    -0.002 A 
HETATM   34  C16 UNL     1      -5.797  -0.090  -0.062  1.00  0.00    -0.012 A 
ENDBRANCH  23  26
ENDBRANCH  21  22
ENDBRANCH   2  21
TORSDOF 7
