REMARK  11 active torsions:
REMARK  status: ('A' for Active; 'I' for Inactive)
REMARK    1  A    between atoms: N1_2  and  C2_3 
REMARK    2  A    between atoms: C3_4  and  C4_5 
REMARK    3  A    between atoms: C4_5  and  C5_6 
REMARK    4  A    between atoms: C6_7  and  N2_8 
REMARK    5  A    between atoms: N3_10  and  C8_11 
REMARK    6  A    between atoms: C8_11  and  N4_12 
REMARK    7  A    between atoms: N4_12  and  C9_13 
REMARK    8  A    between atoms: C13_17  and  O1_18 
REMARK    9  A    between atoms: O1_18  and  C14_19 
REMARK   10  A    between atoms: C14_19  and  C15_20 
REMARK   11  A    between atoms: C15_20  and  N5_21 
ROOT
HETATM    1  C9  UNL     1       0.637  -0.199   0.684  1.00  0.00     0.031 A 
HETATM    2  C10 UNL     1       0.046   0.027  -0.542  1.00  0.00     0.029 A 
HETATM    3  C11 UNL     1       0.671   0.621  -1.619  1.00  0.00     0.005 A 
HETATM    4  C12 UNL     1       1.983   1.023  -1.473  1.00  0.00     0.037 A 
HETATM    5  C13 UNL     1       2.640   0.831  -0.276  1.00  0.00     0.070 A 
HETATM    6  C19 UNL     1       1.947   0.227   0.763  1.00  0.00     0.065 A 
ENDROOT
BRANCH   1   7
HETATM    7  N4  UNL     1      -0.032  -0.813   1.776  1.00  0.00    -0.372 N 
HETATM    8  H13 UNL     1       0.512  -0.935   2.657  1.00  0.00     0.161 HD
BRANCH   7   9
HETATM    9  C8  UNL     1      -1.389  -1.243   1.668  1.00  0.00     0.271 C 
BRANCH   9  10
HETATM   10  N3  UNL     1      -2.303  -0.184   1.370  1.00  0.00    -0.270 NA
HETATM   11  C4  UNL     1      -3.439  -0.336   0.826  1.00  0.00     0.055 C 
BRANCH  11  12
HETATM   12  C3  UNL     1      -4.303   0.808   0.562  1.00  0.00     0.050 C 
HETATM   13  C2  UNL     1      -3.903   2.025   0.891  1.00  0.00     0.117 C 
BRANCH  13  14
HETATM   14  N1  UNL     1      -4.689   3.182   0.664  1.00  0.00    -0.284 NA
HETATM   15  C1  UNL     1      -5.750   3.195  -0.041  1.00  0.00     0.148 C 
ENDBRANCH  13  14
ENDBRANCH  11  12
BRANCH  11  16
HETATM   16  C5  UNL     1      -3.939  -1.648   0.440  1.00  0.00     0.048 C 
HETATM   17  C6  UNL     1      -5.122  -1.804  -0.126  1.00  0.00     0.084 C 
BRANCH  17  18
HETATM   18  N2  UNL     1      -5.751  -2.983  -0.557  1.00  0.00    -0.403 N 
HETATM   19  C7  UNL     1      -6.773  -3.739   0.172  1.00  0.00     0.145 C 
HETATM   20  H7  UNL     1      -5.562  -3.469  -1.463  1.00  0.00     0.158 HD
ENDBRANCH  17  18
ENDBRANCH  11  16
ENDBRANCH   9  10
ENDBRANCH   7   9
ENDBRANCH   1   7
BRANCH   5  21
HETATM   21  O1  UNL     1       3.968   1.217  -0.066  1.00  0.00    -0.349 OA
BRANCH  21  22
HETATM   22  C14 UNL     1       4.608   1.828  -1.179  1.00  0.00     0.196 C 
BRANCH  22  23
HETATM   23  C15 UNL     1       6.039   2.207  -0.851  1.00  0.00     0.156 C 
BRANCH  23  24
HETATM   24  N5  UNL     1       6.832   1.060  -0.479  1.00  0.00    -0.348 N 
HETATM   25  C16 UNL     1       7.032   0.524   0.733  1.00  0.00     0.111 A 
HETATM   26  C17 UNL     1       7.852  -0.574   0.714  1.00  0.00     0.135 A 
HETATM   27  N6  UNL     1       8.157  -0.697  -0.590  1.00  0.00    -0.255 NA
HETATM   28  C18 UNL     1       7.547   0.279  -1.304  1.00  0.00     0.209 A 
ENDBRANCH  23  24
ENDBRANCH  22  23
ENDBRANCH  21  22
ENDBRANCH   5  21
TORSDOF 11
