REMARK  6 active torsions:
REMARK  status: ('A' for Active; 'I' for Inactive)
REMARK    1  A    between atoms: N1_1  and  C1_2 
REMARK    2  A    between atoms: C9_11  and  N3_12 
REMARK    3  A    between atoms: N3_12  and  C10_13 
REMARK    4  A    between atoms: C14_17  and  C15_18 
REMARK    5  A    between atoms: C15_18  and  C16_19 
REMARK    6  A    between atoms: C16_19  and  N4_20 
ROOT
HETATM    1  N3  UNL     1      -1.455  -0.256   0.255  1.00  0.00    -0.343 N 
HETATM    2  H8  UNL     1      -1.401   0.523   0.945  1.00  0.00     0.167 HD
ENDROOT
BRANCH   1   3
HETATM    3  C9  UNL     1      -2.686  -0.951   0.117  1.00  0.00     0.126 A 
HETATM    4  C6  UNL     1      -4.041  -0.374   0.133  1.00  0.00     0.100 A 
HETATM    5  C1  UNL     1      -4.375   0.348   1.389  1.00  0.00     0.038 C 
HETATM    6  C5  UNL     1      -4.275   0.586  -1.002  1.00  0.00     0.001 C 
HETATM    7  C7  UNL     1      -4.899  -1.579  -0.052  1.00  0.00     0.020 A 
HETATM    8  C2  UNL     1      -3.678   1.471   1.449  1.00  0.00    -0.000 C 
HETATM    9  C3  UNL     1      -4.091   2.392   0.593  1.00  0.00     0.014 C 
HETATM   10  C4  UNL     1      -4.301   1.911  -0.788  1.00  0.00    -0.001 C 
HETATM   11  C8  UNL     1      -4.115  -2.640  -0.150  1.00  0.00     0.116 A 
HETATM   12  N2  UNL     1      -2.753  -2.249  -0.046  1.00  0.00    -0.246 NA
BRANCH   5  13
HETATM   13  N1  UNL     1      -5.251   0.090   2.490  1.00  0.00    -0.400 N 
HETATM   14  H1  UNL     1      -4.999  -0.244   3.451  1.00  0.00     0.156 HD
HETATM   15  H2  UNL     1      -6.234   0.303   2.155  1.00  0.00     0.156 HD
ENDBRANCH   5  13
ENDBRANCH   1   3
BRANCH   1  16
HETATM   16  C10 UNL     1      -0.300  -0.574  -0.505  1.00  0.00     0.034 A 
HETATM   17  C11 UNL     1      -0.206  -1.549  -1.469  1.00  0.00     0.029 A 
HETATM   18  C12 UNL     1       0.903  -1.850  -2.192  1.00  0.00     0.003 A 
HETATM   19  C13 UNL     1       2.060  -1.134  -1.968  1.00  0.00     0.007 A 
HETATM   20  C14 UNL     1       2.032  -0.140  -1.012  1.00  0.00    -0.054 A 
HETATM   21  C20 UNL     1       0.876   0.121  -0.308  1.00  0.00     0.036 A 
BRANCH  20  22
HETATM   22  C15 UNL     1       3.295   0.613  -0.795  1.00  0.00     0.058 C 
BRANCH  22  23
HETATM   23  C16 UNL     1       4.068  -0.137   0.290  1.00  0.00     0.134 C 
BRANCH  23  24
HETATM   24  N4  UNL     1       5.322   0.509   0.585  1.00  0.00    -0.350 N 
HETATM   25  C17 UNL     1       5.632   1.472   1.487  1.00  0.00     0.111 A 
HETATM   26  C18 UNL     1       6.983   1.789   1.414  1.00  0.00     0.135 A 
HETATM   27  N5  UNL     1       7.487   0.991   0.441  1.00  0.00    -0.255 NA
HETATM   28  C19 UNL     1       6.500   0.242  -0.039  1.00  0.00     0.209 A 
ENDBRANCH  23  24
ENDBRANCH  22  23
ENDBRANCH  20  22
ENDBRANCH   1  16
TORSDOF 6
