REMARK  4 active torsions:
REMARK  status: ('A' for Active; 'I' for Inactive)
REMARK    1  A    between atoms: N1_2  and  C2_3 
REMARK    2  A    between atoms: C3_4  and  C4_5 
REMARK    3  A    between atoms: N2_6  and  C5_7 
REMARK    4  A    between atoms: C8_11  and  N4_12 
ROOT
HETATM    1  N4  UNL     1       0.080  -0.226  -0.319  1.00  0.00    -0.166 N 
HETATM    2  C9  UNL     1      -0.487  -0.357   1.000  1.00  0.00     0.110 C 
HETATM    3  C10 UNL     1      -1.695  -0.816   1.392  1.00  0.00    -0.008 C 
HETATM    4  C11 UNL     1      -3.062  -1.325   1.925  1.00  0.00     0.030 C 
HETATM    5  C12 UNL     1      -4.135  -0.618   1.040  1.00  0.00     0.024 C 
HETATM    6  C13 UNL     1      -3.901   0.850   1.017  1.00  0.00     0.130 C 
HETATM    7  N5  UNL     1      -4.552   1.659   0.008  1.00  0.00    -0.344 N 
HETATM    8  C14 UNL     1      -5.568   2.533  -0.108  1.00  0.00     0.111 A 
HETATM    9  C15 UNL     1      -5.680   3.023  -1.362  1.00  0.00     0.136 A 
HETATM   10  N6  UNL     1      -4.705   2.451  -2.095  1.00  0.00    -0.246 NA
HETATM   11  C16 UNL     1      -4.008   1.621  -1.298  1.00  0.00     0.109 A 
HETATM   12  C17 UNL     1      -2.903   0.768  -1.632  1.00  0.00     0.107 C 
HETATM   13  C18 UNL     1      -1.554   1.000  -2.003  1.00  0.00    -0.001 C 
HETATM   14  C19 UNL     1      -0.416   0.550  -1.401  1.00  0.00     0.111 C 
ENDROOT
BRANCH   1  15
HETATM   15  C8  UNL     1       1.278  -0.949  -0.548  1.00  0.00     0.734 A 
HETATM   16  N3  UNL     1       1.814  -1.223  -1.736  1.00  0.00    -0.074 NA
HETATM   17  C7  UNL     1       2.964  -1.890  -1.937  1.00  0.00     0.140 A 
HETATM   18  C6  UNL     1       3.674  -2.347  -0.851  1.00  0.00     0.073 A 
HETATM   19  C5  UNL     1       3.142  -2.079   0.383  1.00  0.00     0.169 A 
HETATM   20  N7  UNL     1       1.987  -1.403   0.465  1.00  0.00    -0.043 NA
BRANCH  19  21
HETATM   21  N2  UNL     1       3.709  -2.443   1.663  1.00  0.00    -0.241 NA
HETATM   22  C4  UNL     1       4.760  -1.796   2.083  1.00  0.00     0.120 C 
BRANCH  22  23
HETATM   23  C3  UNL     1       5.820  -0.822   2.029  1.00  0.00     0.035 C 
HETATM   24  C2  UNL     1       5.898  -0.045   0.972  1.00  0.00     0.077 C 
BRANCH  24  25
HETATM   25  N1  UNL     1       6.894   0.933   0.821  1.00  0.00    -0.406 NA
HETATM   26  C1  UNL     1       6.809   1.972   0.053  1.00  0.00     0.313 C 
ENDBRANCH  24  25
ENDBRANCH  22  23
ENDBRANCH  19  21
ENDBRANCH   1  15
TORSDOF 4
