REMARK  4 active torsions:
REMARK  status: ('A' for Active; 'I' for Inactive)
REMARK    1  A    between atoms: C6_6  and  O1_7 
REMARK    2  A    between atoms: O1_7  and  C7_8 
REMARK    3  A    between atoms: C7_8  and  C8_9 
REMARK    4  A    between atoms: C8_9  and  N1_10 
ROOT
HETATM    1  C1  UNL     1      -5.271   1.247   2.428  1.00  0.00     0.063 C 
HETATM    2  C2  UNL     1      -4.330   0.993   1.565  1.00  0.00     0.024 C 
HETATM    3  C3  UNL     1      -2.950   1.428   1.708  1.00  0.00     0.008 C 
HETATM    4  C4  UNL     1      -1.643   1.729   1.643  1.00  0.00     0.047 C 
HETATM    5  C5  UNL     1      -0.537   1.489   0.687  1.00  0.00     0.020 C 
HETATM    6  C6  UNL     1       0.121   1.044  -0.444  1.00  0.00     0.075 C 
HETATM    7  P1  UNL     1      -0.904   0.183  -1.612  1.00  0.00     0.001 P 
HETATM    8  C12 UNL     1      -0.284  -1.046  -2.723  1.00  0.00     0.035 C 
HETATM    9  C13 UNL     1      -0.874  -2.233  -2.870  1.00  0.00     0.120 C 
HETATM   10  N3  UNL     1      -2.038  -2.708  -2.189  1.00  0.00    -0.244 NA
HETATM   11  C14 UNL     1      -2.639  -2.015  -1.332  1.00  0.00     0.149 C 
HETATM   12  N4  UNL     1      -3.762  -2.087  -0.472  1.00  0.00    -0.174 N 
HETATM   13  C15 UNL     1      -4.244  -0.820  -0.066  1.00  0.00     0.702 C 
HETATM   14  N5  UNL     1      -3.456  -0.035  -0.684  1.00  0.00    -0.089 NA
HETATM   15  C16 UNL     1      -2.208  -0.686  -0.740  1.00  0.00     0.235 C 
HETATM   16  N6  UNL     1      -4.982   0.206   0.579  1.00  0.00    -0.194 N 
HETATM   17  H15 UNL     1      -4.358  -2.842  -0.070  1.00  0.00     0.185 HD
HETATM   18  H17 UNL     1      -5.835   0.008   0.068  1.00  0.00     0.184 HD
ENDROOT
BRANCH   6  19
HETATM   19  O1  UNL     1       1.465   1.347  -0.482  1.00  0.00    -0.349 OA
BRANCH  19  20
HETATM   20  C7  UNL     1       2.528   0.476  -0.262  1.00  0.00     0.196 C 
BRANCH  20  21
HETATM   21  C8  UNL     1       3.878   1.167  -0.351  1.00  0.00     0.156 C 
BRANCH  21  22
HETATM   22  N1  UNL     1       4.974   0.245  -0.120  1.00  0.00    -0.348 N 
HETATM   23  C9  UNL     1       5.515  -0.026   1.073  1.00  0.00     0.111 A 
HETATM   24  C10 UNL     1       6.522  -0.947   0.845  1.00  0.00     0.135 A 
HETATM   25  N2  UNL     1       6.566  -1.209  -0.468  1.00  0.00    -0.255 NA
HETATM   26  C11 UNL     1       5.606  -0.469  -1.068  1.00  0.00     0.209 A 
ENDBRANCH  21  22
ENDBRANCH  20  21
ENDBRANCH  19  20
ENDBRANCH   6  19
TORSDOF 4
