REMARK  4 active torsions:
REMARK  status: ('A' for Active; 'I' for Inactive)
REMARK    1  A    between atoms: C4_5  and  N1_6 
REMARK    2  A    between atoms: N1_6  and  C5_7 
REMARK    3  A    between atoms: N2_8  and  C6_9 
REMARK    4  A    between atoms: N3_10  and  C7_11 
ROOT
HETATM    1  C5  UNL     1      -0.968  -2.610  -0.017  1.00  0.00     0.208 C 
HETATM    2  N2  UNL     1      -0.301  -2.140   0.972  1.00  0.00    -0.237 NA
ENDROOT
BRANCH   1   3
HETATM    3  N1  UNL     1      -1.429  -1.779  -1.063  1.00  0.00    -0.351 N 
HETATM    4  H3  UNL     1      -1.138  -1.994  -2.059  1.00  0.00     0.166 HD
BRANCH   3   5
HETATM    5  C4  UNL     1      -2.287  -0.690  -0.762  1.00  0.00     0.034 A 
HETATM    6  C3  UNL     1      -2.537   0.211  -1.806  1.00  0.00     0.032 A 
HETATM    7  C2  UNL     1      -3.392   1.281  -1.595  1.00  0.00     0.046 A 
HETATM    8  C1  UNL     1      -4.029   1.524  -0.399  1.00  0.00     0.138 A 
HETATM    9  F1  UNL     1      -4.866   2.559  -0.162  1.00  0.00    -0.204 F 
HETATM   10  C13 UNL     1      -3.790   0.635   0.656  1.00  0.00     0.074 A 
HETATM   11  C12 UNL     1      -2.936  -0.418   0.415  1.00  0.00     0.056 A 
HETATM   12 CL2  UNL     1      -4.511   0.786   2.242  1.00  0.00    -0.081 Cl
ENDBRANCH   3   5
ENDBRANCH   1   3
BRANCH   2  13
HETATM   13  C6  UNL     1       0.025  -0.797   1.095  1.00  0.00     0.237 C 
HETATM   14  N3  UNL     1       1.182  -1.266   0.778  1.00  0.00    -0.216 NA
BRANCH  14  15
HETATM   15  C7  UNL     1       2.290  -0.396   0.665  1.00  0.00     0.188 A 
HETATM   16  C8  UNL     1       2.272   0.748   0.012  1.00  0.00     0.086 A 
HETATM   17 CL1  UNL     1       0.804   1.270  -0.782  1.00  0.00    -0.080 Cl
HETATM   18  C9  UNL     1       3.441   1.612  -0.096  1.00  0.00     0.026 A 
HETATM   19  C10 UNL     1       4.542   1.176   0.506  1.00  0.00     0.001 A 
HETATM   20  C11 UNL     1       4.661  -0.100   1.265  1.00  0.00     0.205 A 
HETATM   21  O1  UNL     1       3.454  -0.817   1.301  1.00  0.00    -0.329 OA
ENDBRANCH  14  15
ENDBRANCH   2  13
TORSDOF 4
