REMARK  4 active torsions:
REMARK  status: ('A' for Active; 'I' for Inactive)
REMARK    1  A    between atoms: C4_4  and  C5_5 
REMARK    2  A    between atoms: C9_9  and  N1_10 
REMARK    3  A    between atoms: N1_10  and  C10_11 
REMARK    4  A    between atoms: C12_13  and  N2_14 
ROOT
HETATM    1  C5  UNL     1      -2.231   0.401   0.281  1.00  0.00    -0.030 C 
HETATM    2  C6  UNL     1      -1.819   0.428  -0.976  1.00  0.00     0.009 C 
HETATM    3  C7  UNL     1      -0.472   0.595  -1.492  1.00  0.00    -0.001 C 
HETATM    4  C8  UNL     1       0.560   1.010  -0.778  1.00  0.00     0.002 C 
HETATM    5  C9  UNL     1       0.885   1.441   0.610  1.00  0.00     0.128 C 
HETATM    6  C18 UNL     1      -0.170   0.951   1.562  1.00  0.00     0.003 C 
HETATM    7  C19 UNL     1      -1.411   0.532   1.473  1.00  0.00     0.008 C 
ENDROOT
BRANCH   5   8
HETATM    8  N1  UNL     1       2.166   0.871   0.988  1.00  0.00    -0.379 N 
HETATM    9  H10 UNL     1       2.257   0.261   1.843  1.00  0.00     0.160 HD
BRANCH   8  10
HETATM   10  C10 UNL     1       3.380   1.025   0.339  1.00  0.00     0.027 C 
HETATM   11  C11 UNL     1       4.151  -0.009   0.038  1.00  0.00     0.041 C 
HETATM   12  C12 UNL     1       5.288  -0.415  -0.826  1.00  0.00     0.274 C 
HETATM   13  C13 UNL     1       5.864   0.696  -1.581  1.00  0.00    -0.015 A 
HETATM   14  C14 UNL     1       6.870   0.508  -2.474  1.00  0.00     0.152 A 
HETATM   15  N5  UNL     1       6.157   1.944  -2.100  1.00  0.00     0.000 N 
HETATM   16  N3  UNL     1       7.004   1.787  -2.852  1.00  0.00    -0.131 NA
HETATM   17  N4  UNL     1       6.308   2.754  -2.401  1.00  0.00    -0.105 NA
HETATM   18  C15 UNL     1       5.363   2.885  -1.554  1.00  0.00     0.070 A 
HETATM   19  C16 UNL     1       4.309   3.218  -0.649  1.00  0.00     0.030 C 
HETATM   20  C17 UNL     1       3.557   2.448   0.101  1.00  0.00     0.031 C 
BRANCH  12  21
HETATM   21  N2  UNL     1       5.010  -1.574  -1.640  1.00  0.00     0.090 N 
HETATM   22  H13 UNL     1       4.480  -2.306  -1.154  1.00  0.00     0.314 HD
HETATM   23  H14 UNL     1       4.595  -1.319  -2.573  1.00  0.00     0.314 HD
ENDBRANCH  12  21
ENDBRANCH   8  10
ENDBRANCH   5   8
BRANCH   1  24
HETATM   24  C4  UNL     1      -3.686   0.210   0.409  1.00  0.00     0.160 C 
HETATM   25  C3  UNL     1      -4.034  -1.048   1.104  1.00  0.00     0.030 C 
HETATM   26  C2  UNL     1      -4.351  -1.394   2.338  1.00  0.00    -0.004 C 
HETATM   27  N7  UNL     1      -3.999  -2.138   0.155  1.00  0.00    -0.385 N 
HETATM   28  C1  UNL     1      -4.443  -0.451   3.469  1.00  0.00     0.038 C 
HETATM   29  C21 UNL     1      -4.318  -1.982  -1.273  1.00  0.00     0.141 C 
HETATM   30  C22 UNL     1      -3.653  -3.516   0.455  1.00  0.00     0.149 C 
HETATM   31  C20 UNL     1      -5.053  -0.670  -1.400  1.00  0.00     0.134 C 
HETATM   32  N6  UNL     1      -4.409   0.422  -0.788  1.00  0.00    -0.407 N 
HETATM   33  H20 UNL     1      -4.442   1.340  -1.205  1.00  0.00     0.154 HD
ENDBRANCH   1  24
TORSDOF 4
