REMARK  5 active torsions:
REMARK  status: ('A' for Active; 'I' for Inactive)
REMARK    1  A    between atoms: C3_3  and  C4_4 
REMARK    2  A    between atoms: C4_4  and  O1_5 
REMARK    3  A    between atoms: O1_5  and  C5_6 
REMARK    4  A    between atoms: C9_10  and  N1_11 
REMARK    5  A    between atoms: N1_11  and  C10_12 
ROOT
HETATM    1  N1  UNL     1      -0.425  -2.552   0.534  1.00  0.00    -0.188 N 
HETATM    2  H9  UNL     1      -0.362  -3.611   0.635  1.00  0.00     0.184 HD
ENDROOT
BRANCH   1   3
HETATM    3  C9  UNL     1       0.397  -1.442   0.895  1.00  0.00     0.052 A 
HETATM    4  C8  UNL     1      -0.122  -0.661   1.908  1.00  0.00     0.030 A 
HETATM    5  C7  UNL     1       0.536   0.472   2.353  1.00  0.00     0.005 A 
HETATM    6  C6  UNL     1       1.738   0.790   1.734  1.00  0.00     0.037 A 
HETATM    7  C5  UNL     1       2.263   0.034   0.734  1.00  0.00     0.070 A 
HETATM    8  C19 UNL     1       1.611  -1.126   0.268  1.00  0.00     0.066 A 
BRANCH   7   9
HETATM    9  O1  UNL     1       3.434   0.231   0.034  1.00  0.00    -0.350 OA
BRANCH   9  10
HETATM   10  C4  UNL     1       4.300   1.310   0.290  1.00  0.00     0.189 C 
BRANCH  10  11
HETATM   11  C3  UNL     1       5.499   1.291  -0.656  1.00  0.00     0.074 A 
HETATM   12  C2  UNL     1       6.260   0.031  -0.492  1.00  0.00     0.004 A 
HETATM   13  C1  UNL     1       6.178  -0.633  -1.618  1.00  0.00     0.112 A 
HETATM   14  N5  UNL     1       5.396   0.086  -2.580  1.00  0.00    -0.277 NA
HETATM   15  C20 UNL     1       4.987   1.205  -2.060  1.00  0.00     0.100 A 
ENDBRANCH  10  11
ENDBRANCH   9  10
ENDBRANCH   7   9
ENDBRANCH   1   3
BRANCH   1  16
HETATM   16  C10 UNL     1      -1.597  -2.086  -0.109  1.00  0.00     0.727 A 
HETATM   17  N2  UNL     1      -1.937  -2.627  -1.207  1.00  0.00    -0.075 NA
HETATM   18  C11 UNL     1      -2.868  -2.553  -2.123  1.00  0.00     0.139 A 
HETATM   19  C12 UNL     1      -3.717  -1.522  -1.674  1.00  0.00     0.053 A 
HETATM   20  C13 UNL     1      -3.542  -0.785  -0.495  1.00  0.00     0.089 A 
HETATM   21  C14 UNL     1      -4.467   0.244  -0.076  1.00  0.00     0.011 A 
HETATM   22  N4  UNL     1      -2.477  -1.108   0.240  1.00  0.00    -0.062 NA
HETATM   23  C15 UNL     1      -4.309   0.946   1.087  1.00  0.00     0.017 A 
HETATM   24  C18 UNL     1      -5.569   0.525  -0.843  1.00  0.00     0.130 A 
HETATM   25  C16 UNL     1      -5.213   1.902   1.488  1.00  0.00     0.020 A 
HETATM   26  C17 UNL     1      -6.304   2.144   0.681  1.00  0.00     0.116 A 
HETATM   27  N3  UNL     1      -6.486   1.464  -0.480  1.00  0.00    -0.272 NA
ENDBRANCH   1  16
TORSDOF 5
