REMARK  10 active torsions:
REMARK  status: ('A' for Active; 'I' for Inactive)
REMARK    1  A    between atoms: C2_2  and  C3_3 
REMARK    2  A    between atoms: C3_3  and  C4_4 
REMARK    3  A    between atoms: C4_4  and  N1_5 
REMARK    4  A    between atoms: C5_6  and  C6_7 
REMARK    5  A    between atoms: C10_11  and  O1_12 
REMARK    6  A    between atoms: O1_12  and  C11_13 
REMARK    7  A    between atoms: C11_13  and  C12_14 
REMARK    8  A    between atoms: C12_14  and  N2_15 
REMARK    9  A    between atoms: C17_21  and  C18_22 
REMARK   10  A    between atoms: C19_23  and  N4_24 
ROOT
HETATM    1  C6  UNL     1      -0.453   0.030   1.663  1.00  0.00    -0.016 A 
HETATM    2  C7  UNL     1       0.373   0.606   0.726  1.00  0.00     0.013 A 
HETATM    3  C8  UNL     1      -0.111   1.489  -0.207  1.00  0.00     0.004 A 
HETATM    4  C9  UNL     1      -1.459   1.756  -0.142  1.00  0.00     0.037 A 
HETATM    5  C10 UNL     1      -2.339   1.216   0.767  1.00  0.00     0.069 A 
HETATM    6  C16 UNL     1      -1.802   0.318   1.703  1.00  0.00     0.049 A 
ENDROOT
BRANCH   1   7
HETATM    7  C5  UNL     1       0.062  -0.906   2.643  1.00  0.00     0.122 C 
HETATM    8  N1  UNL     1       1.135  -1.486   3.017  1.00  0.00    -0.289 NA
BRANCH   8   9
HETATM    9  C4  UNL     1       2.346  -1.244   2.346  1.00  0.00     0.159 C 
BRANCH   9  10
HETATM   10  C3  UNL     1       3.609  -0.862   2.123  1.00  0.00     0.009 C 
BRANCH  10  11
HETATM   11  C2  UNL     1       3.875  -1.152   0.702  1.00  0.00    -0.064 C 
HETATM   12  C1  UNL     1       3.026  -1.741  -0.367  1.00  0.00     0.048 C 
HETATM   13  C17 UNL     1       5.042  -0.899   0.133  1.00  0.00     0.007 C 
BRANCH  13  14
HETATM   14  C18 UNL     1       5.319  -1.183  -1.267  1.00  0.00     0.012 C 
HETATM   15  C19 UNL     1       6.513  -0.893  -1.740  1.00  0.00     0.054 C 
BRANCH  15  16
HETATM   16  N4  UNL     1       7.252  -0.344  -0.673  1.00  0.00    -0.312 NA
HETATM   17  H21 UNL     1       7.881   0.378  -0.203  1.00  0.00     0.123 HD
HETATM   18  H22 UNL     1       7.825   0.549  -0.642  1.00  0.00     0.123 HD
ENDBRANCH  15  16
ENDBRANCH  13  14
ENDBRANCH  10  11
ENDBRANCH   9  10
ENDBRANCH   8   9
ENDBRANCH   1   7
BRANCH   5  19
HETATM   19  O1  UNL     1      -3.681   1.392   0.938  1.00  0.00    -0.350 OA
BRANCH  19  20
HETATM   20  C11 UNL     1      -4.543   2.189   0.194  1.00  0.00     0.196 C 
BRANCH  20  21
HETATM   21  C12 UNL     1      -4.708   1.855  -1.244  1.00  0.00     0.156 C 
BRANCH  21  22
HETATM   22  N2  UNL     1      -5.222   0.499  -1.429  1.00  0.00    -0.348 N 
HETATM   23  C13 UNL     1      -6.483   0.054  -1.512  1.00  0.00     0.111 A 
HETATM   24  C14 UNL     1      -6.433  -1.332  -1.689  1.00  0.00     0.135 A 
HETATM   25  N3  UNL     1      -5.122  -1.639  -1.701  1.00  0.00    -0.255 NA
HETATM   26  C15 UNL     1      -4.378  -0.536  -1.544  1.00  0.00     0.209 A 
ENDBRANCH  21  22
ENDBRANCH  20  21
ENDBRANCH  19  20
ENDBRANCH   5  19
TORSDOF 10
