REMARK  8 active torsions:
REMARK  status: ('A' for Active; 'I' for Inactive)
REMARK    1  A    between atoms: N1_1  and  C1_2 
REMARK    2  A    between atoms: C1_2  and  C2_3 
REMARK    3  A    between atoms: C2_3  and  C3_4 
REMARK    4  A    between atoms: C3_4  and  N2_5 
REMARK       I    between atoms: N2_5  and  C4_6 
REMARK    5  A    between atoms: C4_6  and  C5_8 
REMARK    6  A    between atoms: C8_12  and  N3_13 
REMARK    7  A    between atoms: N3_13  and  C9_14 
REMARK    8  A    between atoms: C12_18  and  C13_19 
ROOT
HETATM    1  C5  UNL     1      -2.086  -1.209   2.388  1.00  0.00     0.107 A 
HETATM    2  C6  UNL     1      -3.045  -2.112   3.243  1.00  0.00     0.078 A 
HETATM    3  S1  UNL     1      -1.759  -1.396   3.456  1.00  0.00    -0.190 SA
HETATM    4  C7  UNL     1      -0.663  -0.777   3.612  1.00  0.00    -0.010 A 
HETATM    5  C8  UNL     1       0.318  -0.215   3.728  1.00  0.00     0.125 A 
HETATM    6  C18 UNL     1      -0.639  -0.342   2.457  1.00  0.00     0.117 A 
ENDROOT
BRANCH   5   7
HETATM    7  N3  UNL     1       1.083   0.556   2.907  1.00  0.00    -0.204 N 
HETATM    8  H11 UNL     1       0.886   1.588   3.047  1.00  0.00     0.179 HD
BRANCH   7   9
HETATM    9  C9  UNL     1       2.021  -0.000   1.995  1.00  0.00     0.723 A 
HETATM   10  N4  UNL     1       2.137  -1.339   2.005  1.00  0.00    -0.075 NA
HETATM   11  C10 UNL     1       3.004  -1.977   1.165  1.00  0.00     0.139 A 
HETATM   12  C11 UNL     1       3.778  -1.213   0.284  1.00  0.00     0.053 A 
HETATM   13  C12 UNL     1       3.642   0.154   0.293  1.00  0.00     0.089 A 
HETATM   14  N6  UNL     1       2.762   0.696   1.156  1.00  0.00    -0.062 NA
BRANCH  13  15
HETATM   15  C13 UNL     1       4.393   1.048  -0.577  1.00  0.00     0.011 A 
HETATM   16  C14 UNL     1       4.182   2.408  -0.489  1.00  0.00     0.017 A 
HETATM   17  C15 UNL     1       4.858   3.317  -1.281  1.00  0.00     0.020 A 
HETATM   18  C16 UNL     1       5.775   2.831  -2.190  1.00  0.00     0.116 A 
HETATM   19  N5  UNL     1       6.004   1.491  -2.297  1.00  0.00    -0.272 NA
HETATM   20  C17 UNL     1       5.321   0.621  -1.502  1.00  0.00     0.130 A 
ENDBRANCH  13  15
ENDBRANCH   7   9
ENDBRANCH   5   7
BRANCH   1  21
HETATM   21  C4  UNL     1      -2.716  -1.078   0.959  1.00  0.00     0.238 C 
HETATM   22  N2  UNL     1      -2.445  -0.447  -0.317  1.00  0.00    -0.360 N 
HETATM   23  H9  UNL     1      -1.512   0.051  -0.143  1.00  0.00     0.162 HD
HETATM   24  O1  UNL     1      -3.769  -1.512   0.371  1.00  0.00    -0.272 OA
BRANCH  22  25
HETATM   25  C3  UNL     1      -3.185  -0.456  -1.508  1.00  0.00     0.124 C 
BRANCH  25  26
HETATM   26  C2  UNL     1      -4.549   0.143  -1.514  1.00  0.00     0.038 C 
BRANCH  26  27
HETATM   27  C1  UNL     1      -5.203   0.049  -2.893  1.00  0.00     0.112 C 
BRANCH  27  28
HETATM   28  N1  UNL     1      -5.347  -1.301  -3.341  1.00  0.00    -0.430 N 
HETATM   29  H1  UNL     1      -4.654  -1.635  -4.022  1.00  0.00     0.149 HD
HETATM   30  H2  UNL     1      -5.707  -1.975  -2.659  1.00  0.00     0.149 HD
ENDBRANCH  27  28
ENDBRANCH  26  27
ENDBRANCH  25  26
ENDBRANCH  22  25
ENDBRANCH   1  21
TORSDOF 8
