REMARK  3 active torsions:
REMARK  status: ('A' for Active; 'I' for Inactive)
REMARK    1  A    between atoms: C11_12  and  N2_13 
REMARK    2  A    between atoms: N2_13  and  C12_14 
REMARK    3  A    between atoms: C15_18  and  C16_19 
ROOT
HETATM    1  N2  UNL     1       0.464  -0.492  -1.367  1.00  0.00    -0.198 N 
HETATM    2  H13 UNL     1       0.568  -0.968  -2.312  1.00  0.00     0.183 HD
ENDROOT
BRANCH   1   3
HETATM    3  C11 UNL     1      -0.639  -0.735  -0.535  1.00  0.00     0.113 C 
HETATM    4  C10 UNL     1      -1.931  -0.455  -0.502  1.00  0.00    -0.039 C 
HETATM    5  C2  UNL     1      -2.423   0.334  -1.626  1.00  0.00    -0.072 C 
HETATM    6  C9  UNL     1      -2.625  -0.999   0.673  1.00  0.00     0.054 C 
HETATM    7  C1  UNL     1      -1.468   0.929  -2.295  1.00  0.00     0.039 C 
HETATM    8  C3  UNL     1      -3.831   0.510  -2.052  1.00  0.00     0.040 C 
HETATM    9  C4  UNL     1      -4.521   1.273  -0.949  1.00  0.00     0.059 C 
HETATM   10  C5  UNL     1      -4.664   0.386   0.213  1.00  0.00     0.020 A 
HETATM   11  N1  UNL     1      -5.852  -0.102   0.455  1.00  0.00    -0.269 NA
HETATM   12  C8  UNL     1      -3.704  -0.086   1.200  1.00  0.00     0.061 A 
HETATM   13  C6  UNL     1      -5.792  -0.929   1.607  1.00  0.00     0.113 A 
HETATM   14  C7  UNL     1      -4.563  -0.956   2.082  1.00  0.00     0.003 A 
ENDBRANCH   1   3
BRANCH   1  15
HETATM   15  C12 UNL     1       1.546   0.405  -1.040  1.00  0.00     0.726 A 
HETATM   16  N3  UNL     1       1.592   1.715  -1.344  1.00  0.00    -0.075 NA
HETATM   17  C13 UNL     1       2.681   2.406  -0.962  1.00  0.00     0.139 A 
HETATM   18  C14 UNL     1       3.748   1.856  -0.281  1.00  0.00     0.053 A 
HETATM   19  C15 UNL     1       3.666   0.511   0.014  1.00  0.00     0.089 A 
HETATM   20  N5  UNL     1       2.578  -0.184  -0.366  1.00  0.00    -0.062 NA
BRANCH  19  21
HETATM   21  C16 UNL     1       4.709  -0.215   0.728  1.00  0.00     0.011 A 
HETATM   22  C17 UNL     1       4.512  -1.559   0.964  1.00  0.00     0.017 A 
HETATM   23  C18 UNL     1       5.490  -2.291   1.647  1.00  0.00     0.020 A 
HETATM   24  C19 UNL     1       6.650  -1.651   2.079  1.00  0.00     0.116 A 
HETATM   25  N4  UNL     1       6.826  -0.333   1.839  1.00  0.00    -0.272 NA
HETATM   26  C20 UNL     1       5.877   0.357   1.181  1.00  0.00     0.130 A 
ENDBRANCH  19  21
ENDBRANCH   1  15
TORSDOF 3
