REMARK  4 active torsions:
REMARK  status: ('A' for Active; 'I' for Inactive)
REMARK    1  A    between atoms: N1_2  and  C2_3 
REMARK    2  A    between atoms: C2_3  and  C3_4 
REMARK    3  A    between atoms: C3_4  and  C4_5 
REMARK    4  A    between atoms: N3_19  and  N4_20 
ROOT
HETATM    1  C4  UNL     1       2.030   0.608  -0.467  1.00  0.00     0.084 C 
HETATM    2  N2  UNL     1       1.651   1.729  -0.603  1.00  0.00    -0.448 NA
HETATM    3  C5  UNL     1       1.130   2.959  -0.720  1.00  0.00     0.256 C 
HETATM    4  C6  UNL     1      -0.321   3.085  -0.328  1.00  0.00    -0.027 A 
HETATM    5  C7  UNL     1      -0.900   4.130   0.346  1.00  0.00     0.010 A 
HETATM    6  C8  UNL     1      -2.231   4.080   0.681  1.00  0.00     0.002 A 
HETATM    7  C9  UNL     1      -2.946   2.961   0.322  1.00  0.00     0.015 A 
HETATM    8  C10 UNL     1      -2.349   1.924  -0.355  1.00  0.00     0.010 A 
HETATM    9  C11 UNL     1      -0.993   1.950  -0.710  1.00  0.00     0.025 A 
HETATM   10  C12 UNL     1      -3.113   0.728  -0.710  1.00  0.00     0.159 C 
HETATM   11  O1  UNL     1      -2.758   0.207   0.354  1.00  0.00    -0.292 OA
HETATM   12  C13 UNL     1      -3.880  -0.470  -1.067  1.00  0.00     0.085 C 
HETATM   13  C14 UNL     1      -3.333  -1.689  -0.277  1.00  0.00     0.031 C 
HETATM   14  C15 UNL     1      -1.910  -1.964  -0.760  1.00  0.00     0.163 C 
HETATM   15  N3  UNL     1      -1.177  -2.905  -0.020  1.00  0.00    -0.259 N 
HETATM   16  N5  UNL     1      -0.338  -2.437   0.969  1.00  0.00    -0.300 N 
HETATM   17  C16 UNL     1       0.481  -1.407   0.477  1.00  0.00     0.111 C 
HETATM   18  C17 UNL     1       1.392  -0.613   0.009  1.00  0.00     0.058 C 
HETATM   19  H21 UNL     1      -0.111  -2.598   1.972  1.00  0.00     0.187 HD
ENDROOT
BRANCH   1  20
HETATM   20  C3  UNL     1       3.448   0.284  -0.825  1.00  0.00     0.118 C 
BRANCH  20  21
HETATM   21  C2  UNL     1       4.191  -0.237   0.343  1.00  0.00     0.090 C 
BRANCH  21  22
HETATM   22  N1  UNL     1       4.981  -0.852   1.136  1.00  0.00    -0.310 NA
HETATM   23  C1  UNL     1       5.956  -1.799   0.684  1.00  0.00     0.176 C 
ENDBRANCH  21  22
ENDBRANCH  20  21
ENDBRANCH   1  20
BRANCH  15  24
HETATM   24  N4  UNL     1      -1.772  -4.101   0.099  1.00  0.00    -0.233 NA
HETATM   25  H19 UNL     1      -1.827  -4.498   1.069  1.00  0.00     0.144 HD
HETATM   26  H20 UNL     1      -2.754  -4.120  -0.307  1.00  0.00     0.144 HD
ENDBRANCH  15  24
TORSDOF 4
