REMARK  2 active torsions:
REMARK  status: ('A' for Active; 'I' for Inactive)
REMARK    1  A    between atoms: N2_5  and  C4_6 
REMARK    2  A    between atoms: C8_10  and  C9_11 
ROOT
HETATM    1  C1  UNL     1      -2.647   2.685   0.592  1.00  0.00     0.066 C 
HETATM    2  C2  UNL     1      -2.686   1.213   0.436  1.00  0.00     0.015 C 
HETATM    3  N1  UNL     1      -1.670   0.484   0.148  1.00  0.00    -0.277 NA
HETATM    4  C3  UNL     1      -0.321   0.946  -0.077  1.00  0.00     0.292 C 
HETATM    5  N2  UNL     1       0.524  -0.209   0.266  1.00  0.00    -0.283 N 
HETATM    6  N3  UNL     1       0.076  -1.475   0.719  1.00  0.00    -0.175 NA
HETATM    7  S1  UNL     1      -0.823  -2.363  -0.468  1.00  0.00    -0.059 SA
HETATM    8  C11 UNL     1      -1.962  -3.493   0.374  1.00  0.00     0.139 C 
HETATM    9  C12 UNL     1      -2.963  -2.634   1.091  1.00  0.00     0.100 C 
HETATM   10  N4  UNL     1      -3.447  -1.773   0.263  1.00  0.00    -0.280 NA
HETATM   11  C13 UNL     1      -4.420  -0.789   0.572  1.00  0.00     0.100 C 
HETATM   12  C14 UNL     1      -3.362  -0.048   0.436  1.00  0.00     0.088 C 
HETATM   13  H11 UNL     1      -0.301  -1.453   1.675  1.00  0.00     0.161 HD
ENDROOT
BRANCH   5  14
HETATM   14  C4  UNL     1       1.925  -0.049   0.133  1.00  0.00     0.049 A 
HETATM   15  C5  UNL     1       2.852  -1.041   0.431  1.00  0.00     0.031 A 
HETATM   16  C6  UNL     1       4.215  -0.871   0.297  1.00  0.00     0.003 A 
HETATM   17  C7  UNL     1       4.721   0.329  -0.153  1.00  0.00     0.014 A 
HETATM   18  C8  UNL     1       3.849   1.348  -0.464  1.00  0.00     0.004 A 
HETATM   19  C10 UNL     1       2.496   1.126  -0.311  1.00  0.00     0.045 A 
BRANCH  18  20
HETATM   20  C9  UNL     1       4.409   2.599  -0.934  1.00  0.00     0.270 C 
HETATM   21  O1  UNL     1       5.641   2.708  -1.039  1.00  0.00    -0.301 OA
ENDBRANCH  18  20
ENDBRANCH   5  14
TORSDOF 2
