REMARK  6 active torsions:
REMARK  status: ('A' for Active; 'I' for Inactive)
REMARK    1  A    between atoms: C2_2  and  C3_3 
REMARK    2  A    between atoms: C2_2  and  C4_5 
REMARK    3  A    between atoms: C3_3  and  N1_4 
REMARK    4  A    between atoms: C8_9  and  N2_10 
REMARK    5  A    between atoms: N2_10  and  C9_11 
REMARK    6  A    between atoms: C12_15  and  C13_16 
ROOT
HETATM    1  N2  UNL     1       0.043  -1.233  -1.001  1.00  0.00    -0.188 N 
HETATM    2  H12 UNL     1       0.035  -1.172  -2.040  1.00  0.00     0.184 HD
ENDROOT
BRANCH   1   3
HETATM    3  C8  UNL     1      -1.032  -0.838  -0.160  1.00  0.00     0.049 A 
HETATM    4  C7  UNL     1      -0.887  -0.954   1.205  1.00  0.00     0.030 A 
HETATM    5  C6  UNL     1      -1.981  -0.541   1.938  1.00  0.00     0.003 A 
HETATM    6  C5  UNL     1      -3.127  -0.052   1.349  1.00  0.00     0.007 A 
HETATM    7  C4  UNL     1      -3.215   0.041  -0.028  1.00  0.00    -0.051 A 
HETATM    8  C18 UNL     1      -2.150  -0.359  -0.790  1.00  0.00     0.037 A 
BRANCH   7   9
HETATM    9  C2  UNL     1      -4.478   0.585  -0.628  1.00  0.00     0.042 C 
HETATM   10  C1  UNL     1      -5.698  -0.067  -0.082  1.00  0.00     0.016 C 
BRANCH   9  11
HETATM   11  C3  UNL     1      -4.429   2.081  -0.383  1.00  0.00     0.275 C 
BRANCH  11  12
HETATM   12  N1  UNL     1      -4.452   2.408   1.029  1.00  0.00     0.078 N 
HETATM   13  H7  UNL     1      -4.806   3.414   1.085  1.00  0.00     0.312 HD
HETATM   14  H8  UNL     1      -3.453   2.495   1.366  1.00  0.00     0.312 HD
ENDBRANCH  11  12
ENDBRANCH   9  11
ENDBRANCH   7   9
ENDBRANCH   1   3
BRANCH   1  15
HETATM   15  C9  UNL     1       1.308  -1.767  -0.733  1.00  0.00     0.727 A 
HETATM   16  N3  UNL     1       1.668  -3.064  -0.687  1.00  0.00    -0.075 NA
HETATM   17  C10 UNL     1       2.940  -3.394  -0.409  1.00  0.00     0.139 A 
HETATM   18  C11 UNL     1       3.842  -2.365  -0.177  1.00  0.00     0.053 A 
HETATM   19  C12 UNL     1       3.517  -1.044  -0.213  1.00  0.00     0.089 A 
HETATM   20  N5  UNL     1       2.217  -0.781  -0.500  1.00  0.00    -0.062 NA
BRANCH  19  21
HETATM   21  C13 UNL     1       4.478   0.035   0.039  1.00  0.00     0.011 A 
HETATM   22  C14 UNL     1       5.803  -0.193   0.333  1.00  0.00     0.017 A 
HETATM   23  C15 UNL     1       6.591   0.934   0.552  1.00  0.00     0.020 A 
HETATM   24  C16 UNL     1       6.126   2.223   0.492  1.00  0.00     0.116 A 
HETATM   25  N4  UNL     1       4.831   2.381   0.202  1.00  0.00    -0.272 NA
HETATM   26  C17 UNL     1       4.013   1.331  -0.021  1.00  0.00     0.130 A 
ENDBRANCH  19  21
ENDBRANCH   1  15
TORSDOF 6
