REMARK  3 active torsions:
REMARK  status: ('A' for Active; 'I' for Inactive)
REMARK    1  A    between atoms: C7_8  and  N1_9 
REMARK    2  A    between atoms: N1_9  and  C8_10 
REMARK    3  A    between atoms: C11_14  and  C12_15 
ROOT
HETATM    1  N1  UNL     1      -0.076  -0.832   0.982  1.00  0.00    -0.173 N 
HETATM    2  H8  UNL     1       0.028  -0.660   2.024  1.00  0.00     0.186 HD
ENDROOT
BRANCH   1   3
HETATM    3  C7  UNL     1      -1.431  -0.629   0.596  1.00  0.00     0.122 C 
HETATM    4  C6  UNL     1      -1.955  -1.821   0.373  1.00  0.00     0.099 C 
HETATM    5  C5  UNL     1      -3.270  -2.284  -0.041  1.00  0.00     0.156 C 
HETATM    6  C4  UNL     1      -4.625  -1.758   0.184  1.00  0.00     0.110 C 
HETATM    7  O1  UNL     1      -3.200  -3.357  -0.735  1.00  0.00    -0.293 OA
HETATM    8  C3  UNL     1      -4.800  -0.315   0.024  1.00  0.00    -0.015 C 
HETATM    9  C2  UNL     1      -4.301   0.908   0.192  1.00  0.00    -0.069 C 
HETATM   10  C1  UNL     1      -5.215   2.010  -0.295  1.00  0.00     0.044 C 
HETATM   11  C18 UNL     1      -3.064   1.448   0.754  1.00  0.00     0.157 C 
HETATM   12  N5  UNL     1      -1.864   0.721   0.550  1.00  0.00    -0.367 N 
HETATM   13  C17 UNL     1      -0.720   1.576   0.190  1.00  0.00     0.151 C 
ENDBRANCH   1   3
BRANCH   1  14
HETATM   14  C8  UNL     1       1.170  -1.190   0.389  1.00  0.00     0.728 A 
HETATM   15  N2  UNL     1       1.211  -2.468  -0.031  1.00  0.00    -0.075 NA
HETATM   16  C9  UNL     1       2.307  -2.970  -0.590  1.00  0.00     0.139 A 
HETATM   17  C10 UNL     1       3.390  -2.100  -0.713  1.00  0.00     0.053 A 
HETATM   18  C11 UNL     1       3.373  -0.767  -0.285  1.00  0.00     0.089 A 
HETATM   19  N4  UNL     1       2.213  -0.342   0.275  1.00  0.00    -0.062 NA
BRANCH  18  20
HETATM   20  C12 UNL     1       4.521   0.118  -0.427  1.00  0.00     0.011 A 
HETATM   21  C13 UNL     1       4.363   1.406   0.019  1.00  0.00     0.017 A 
HETATM   22  C14 UNL     1       5.407   2.296  -0.078  1.00  0.00     0.020 A 
HETATM   23  C15 UNL     1       6.600   1.843  -0.635  1.00  0.00     0.116 A 
HETATM   24  N3  UNL     1       6.741   0.571  -1.071  1.00  0.00    -0.272 NA
HETATM   25  C16 UNL     1       5.694  -0.297  -0.966  1.00  0.00     0.130 A 
ENDBRANCH  18  20
ENDBRANCH   1  14
TORSDOF 3
