REMARK  4 active torsions:
REMARK  status: ('A' for Active; 'I' for Inactive)
REMARK    1  A    between atoms: C5_5  and  C6_6 
REMARK       I    between atoms: C6_6  and  N1_8 
REMARK    2  A    between atoms: N1_8  and  C7_9 
REMARK    3  A    between atoms: C11_13  and  N2_14 
REMARK    4  A    between atoms: N2_14  and  C12_15 
ROOT
HETATM    1  C7  UNL     1      -0.499  -0.030   1.280  1.00  0.00     0.037 A 
HETATM    2  C8  UNL     1      -0.970   0.907   2.177  1.00  0.00     0.029 A 
HETATM    3  C9  UNL     1      -2.303   1.264   2.127  1.00  0.00     0.004 A 
HETATM    4  C10 UNL     1      -3.134   0.689   1.197  1.00  0.00     0.030 A 
HETATM    5  C11 UNL     1      -2.725  -0.250   0.277  1.00  0.00     0.051 A 
HETATM    6  C15 UNL     1      -1.380  -0.573   0.369  1.00  0.00     0.059 A 
ENDROOT
BRANCH   1   7
HETATM    7  N1  UNL     1       0.871  -0.481   1.237  1.00  0.00    -0.323 N 
HETATM    8  C6  UNL     1       1.614   0.351   0.354  1.00  0.00     0.256 C 
HETATM    9  O1  UNL     1       0.890   1.262  -0.160  1.00  0.00    -0.267 OA
HETATM   10  H6  UNL     1       1.367  -1.278   1.727  1.00  0.00     0.169 HD
BRANCH   8  11
HETATM   11  C5  UNL     1       3.037   0.168   0.082  1.00  0.00     0.032 A 
HETATM   12  C4  UNL     1       3.840  -0.829   0.642  1.00  0.00     0.017 A 
HETATM   13  C3  UNL     1       5.189  -0.864   0.273  1.00  0.00     0.007 A 
HETATM   14  C2  UNL     1       5.726   0.040  -0.607  1.00  0.00    -0.062 A 
HETATM   15  C1  UNL     1       7.155  -0.011  -0.986  1.00  0.00     0.048 C 
HETATM   16  C17 UNL     1       4.921   1.020  -1.152  1.00  0.00     0.007 A 
HETATM   17  C16 UNL     1       3.586   1.088  -0.814  1.00  0.00     0.017 A 
ENDBRANCH   8  11
ENDBRANCH   1   7
BRANCH   5  18
HETATM   18  N2  UNL     1      -3.554  -0.863  -0.700  1.00  0.00    -0.188 N 
HETATM   19  H10 UNL     1      -3.122  -1.591  -1.319  1.00  0.00     0.184 HD
BRANCH  18  20
HETATM   20  C12 UNL     1      -4.920  -0.527  -0.855  1.00  0.00     0.722 A 
HETATM   21  N3  UNL     1      -5.371   0.680  -0.777  1.00  0.00    -0.100 NA
HETATM   22  C13 UNL     1      -6.796   0.647  -0.984  1.00  0.00     0.216 A 
HETATM   23  C14 UNL     1      -7.092  -0.793  -1.196  1.00  0.00     0.131 A 
HETATM   24  N4  UNL     1      -5.972  -1.469  -1.116  1.00  0.00    -0.078 NA
ENDBRANCH  18  20
ENDBRANCH   5  18
TORSDOF 4
