REMARK  3 active torsions:
REMARK  status: ('A' for Active; 'I' for Inactive)
REMARK    1  A    between atoms: C5_6  and  N1_7 
REMARK    2  A    between atoms: N1_7  and  C6_8 
REMARK    3  A    between atoms: C8_12  and  C9_13 
ROOT
HETATM    1  C6  UNL     1      -0.314   0.386   0.222  1.00  0.00     0.727 A 
HETATM    2  N2  UNL     1      -0.718   1.495   0.841  1.00  0.00    -0.074 NA
HETATM    3  C7  UNL     1       0.033   2.441   1.404  1.00  0.00     0.154 A 
HETATM    4  P1  UNL     1       1.729   2.105   1.269  1.00  0.00     0.021 P 
HETATM    5  C8  UNL     1       2.055   0.620   0.434  1.00  0.00     0.101 A 
HETATM    6  N4  UNL     1       0.939   0.004   0.046  1.00  0.00    -0.061 NA
ENDROOT
BRANCH   1   7
HETATM    7  N1  UNL     1      -1.291  -0.517  -0.324  1.00  0.00    -0.188 N 
HETATM    8  H4  UNL     1      -0.963  -1.404  -0.818  1.00  0.00     0.184 HD
BRANCH   7   9
HETATM    9  C5  UNL     1      -2.707  -0.449  -0.332  1.00  0.00     0.051 A 
HETATM   10  C4  UNL     1      -3.511  -1.430  -0.917  1.00  0.00     0.030 A 
HETATM   11  C3  UNL     1      -4.878  -1.360  -0.923  1.00  0.00     0.004 A 
HETATM   12  C2  UNL     1      -5.554  -0.314  -0.349  1.00  0.00     0.024 A 
HETATM   13  C1  UNL     1      -4.810   0.678   0.240  1.00  0.00     0.036 A 
HETATM   14 CL1  UNL     1      -5.688   2.001   0.965  1.00  0.00    -0.084 Cl
HETATM   15  C14 UNL     1      -3.444   0.572   0.225  1.00  0.00     0.053 A 
ENDBRANCH   7   9
ENDBRANCH   1   7
BRANCH   5  16
HETATM   16  C9  UNL     1       3.395   0.064   0.161  1.00  0.00     0.012 A 
HETATM   17  C10 UNL     1       4.144  -0.800   0.939  1.00  0.00     0.017 A 
HETATM   18  C11 UNL     1       5.381  -1.173   0.449  1.00  0.00     0.020 A 
HETATM   19  C12 UNL     1       5.857  -0.710  -0.760  1.00  0.00     0.116 A 
HETATM   20  N3  UNL     1       5.093   0.139  -1.498  1.00  0.00    -0.272 NA
HETATM   21  C13 UNL     1       3.877   0.532  -1.062  1.00  0.00     0.130 A 
ENDBRANCH   5  16
TORSDOF 3
