REMARK  6 active torsions:
REMARK  status: ('A' for Active; 'I' for Inactive)
REMARK    1  A    between atoms: C3_4  and  C4_5 
REMARK    2  A    between atoms: C4_5  and  C5_6 
REMARK    3  A    between atoms: C6_8  and  N3_9 
REMARK    4  A    between atoms: N3_9  and  C7_10 
REMARK    5  A    between atoms: C11_14  and  N4_15 
REMARK       I    between atoms: N4_15  and  C12_16 
REMARK    6  A    between atoms: C12_16  and  C13_18 
ROOT
HETATM    1  C1  UNL     1      10.220   0.907   2.822  1.00  0.00     0.039 C 
HETATM    2  C2  UNL     1       9.526   0.509   1.911  1.00  0.00     0.023 C 
HETATM    3  N1  UNL     1       8.722   0.071   0.849  1.00  0.00    -0.215 NA
HETATM    4  C3  UNL     1       7.814   0.845   0.365  1.00  0.00     0.106 C 
ENDROOT
BRANCH   4   5
HETATM    5  C4  UNL     1       6.905   0.469  -0.769  1.00  0.00     0.105 C 
BRANCH   5   6
HETATM    6  C5  UNL     1       5.541   0.140  -0.233  1.00  0.00     0.056 A 
HETATM    7  N2  UNL     1       4.401   0.721  -0.513  1.00  0.00    -0.070 NA
HETATM    8  C6  UNL     1       3.368   0.063   0.241  1.00  0.00     0.722 A 
HETATM    9  N5  UNL     1       3.861  -0.890   0.959  1.00  0.00    -0.100 NA
HETATM   10  C21 UNL     1       5.294  -0.962   0.751  1.00  0.00     0.224 A 
BRANCH   8  11
HETATM   11  N3  UNL     1       1.991   0.406   0.210  1.00  0.00    -0.188 N 
HETATM   12  H5  UNL     1       1.713   1.411   0.183  1.00  0.00     0.184 HD
BRANCH  11  13
HETATM   13  C7  UNL     1       0.969  -0.577   0.211  1.00  0.00     0.051 A 
HETATM   14  C8  UNL     1       1.164  -1.939   0.200  1.00  0.00     0.030 A 
HETATM   15  C9  UNL     1       0.139  -2.859   0.204  1.00  0.00     0.004 A 
HETATM   16  C10 UNL     1      -1.172  -2.432   0.220  1.00  0.00     0.029 A 
HETATM   17  C11 UNL     1      -1.433  -1.078   0.231  1.00  0.00     0.037 A 
HETATM   18  C20 UNL     1      -0.361  -0.210   0.227  1.00  0.00     0.059 A 
BRANCH  17  19
HETATM   19  N4  UNL     1      -2.769  -0.588   0.248  1.00  0.00    -0.323 N 
HETATM   20  C12 UNL     1      -3.617  -0.273  -0.839  1.00  0.00     0.256 C 
HETATM   21  O1  UNL     1      -3.249  -0.404  -2.038  1.00  0.00    -0.267 OA
HETATM   22  H9  UNL     1      -3.060  -0.484   1.237  1.00  0.00     0.169 HD
BRANCH  20  23
HETATM   23  C13 UNL     1      -4.961   0.219  -0.632  1.00  0.00     0.032 A 
HETATM   24  C14 UNL     1      -5.749   0.512  -1.725  1.00  0.00     0.017 A 
HETATM   25  C15 UNL     1      -7.052   0.990  -1.574  1.00  0.00     0.007 A 
HETATM   26  C16 UNL     1      -7.598   1.186  -0.345  1.00  0.00    -0.062 A 
HETATM   27  C17 UNL     1      -8.984   1.694  -0.131  1.00  0.00     0.048 C 
HETATM   28  C18 UNL     1      -6.827   0.900   0.783  1.00  0.00     0.007 A 
HETATM   29  C19 UNL     1      -5.542   0.428   0.603  1.00  0.00     0.017 A 
ENDBRANCH  20  23
ENDBRANCH  17  19
ENDBRANCH  11  13
ENDBRANCH   8  11
ENDBRANCH   5   6
ENDBRANCH   4   5
TORSDOF 6
