REMARK  7 active torsions:
REMARK  status: ('A' for Active; 'I' for Inactive)
REMARK    1  A    between atoms: C2_2  and  N2_15 
REMARK    2  A    between atoms: C3_3  and  C4_4 
REMARK    3  A    between atoms: C4_4  and  N1_5 
REMARK       I    between atoms: N1_5  and  C5_6 
REMARK    4  A    between atoms: C5_6  and  C6_8 
REMARK    5  A    between atoms: C6_8  and  C7_9 
REMARK    6  A    between atoms: N2_15  and  C13_16 
REMARK    7  A    between atoms: C13_16  and  N3_17 
ROOT
HETATM    1  C1  UNL     1      -1.921   0.652   1.963  1.00  0.00     0.067 C 
HETATM    2  C2  UNL     1      -0.888   0.289   0.944  1.00  0.00    -0.000 C 
HETATM    3  C3  UNL     1       0.278   0.941   0.830  1.00  0.00     0.017 C 
ENDROOT
BRANCH   2   4
HETATM    4  N2  UNL     1      -1.189  -0.800   0.077  1.00  0.00    -0.376 N 
HETATM    5  H15 UNL     1      -0.461  -1.553   0.100  1.00  0.00     0.161 HD
BRANCH   4   6
HETATM    6  C13 UNL     1      -2.392  -0.844  -0.752  1.00  0.00     0.270 C 
BRANCH   6   7
HETATM    7  N3  UNL     1      -3.542  -0.790   0.073  1.00  0.00    -0.278 NA
HETATM    8  C14 UNL     1      -4.672  -0.567  -0.495  1.00  0.00     0.019 C 
HETATM    9  C15 UNL     1      -4.970  -0.347  -1.955  1.00  0.00     0.101 C 
HETATM   10  C18 UNL     1      -5.872  -0.512   0.384  1.00  0.00     0.049 C 
HETATM   11  C16 UNL     1      -5.886   0.839  -2.108  1.00  0.00     0.089 C 
HETATM   12  N4  UNL     1      -6.931   0.747  -1.347  1.00  0.00    -0.305 NA
HETATM   13  C17 UNL     1      -7.084  -0.406  -0.498  1.00  0.00     0.158 C 
HETATM   14  C19 UNL     1      -5.787   0.722   1.255  1.00  0.00     0.018 C 
ENDBRANCH   6   7
ENDBRANCH   4   6
ENDBRANCH   2   4
BRANCH   3  15
HETATM   15  C4  UNL     1       1.450   0.816  -0.048  1.00  0.00     0.151 C 
BRANCH  15  16
HETATM   16  N1  UNL     1       2.603   0.549   0.811  1.00  0.00    -0.357 N 
HETATM   17  C5  UNL     1       3.916   0.371   0.278  1.00  0.00     0.222 C 
HETATM   18  O1  UNL     1       3.966   0.468  -0.994  1.00  0.00    -0.273 OA
HETATM   19  H7  UNL     1       2.527   0.474   1.868  1.00  0.00     0.162 HD
BRANCH  17  20
HETATM   20  C6  UNL     1       5.074   0.098   1.190  1.00  0.00     0.141 C 
BRANCH  20  21
HETATM   21  C7  UNL     1       6.286  -0.036   0.339  1.00  0.00    -0.050 A 
HETATM   22  C8  UNL     1       6.669  -1.259  -0.166  1.00  0.00     0.007 A 
HETATM   23  C9  UNL     1       7.802  -1.322  -0.950  1.00  0.00     0.001 A 
HETATM   24  C10 UNL     1       8.542  -0.167  -1.224  1.00  0.00     0.000 A 
HETATM   25  C11 UNL     1       8.139   1.067  -0.705  1.00  0.00     0.001 A 
HETATM   26  C12 UNL     1       7.002   1.135   0.084  1.00  0.00     0.007 A 
ENDBRANCH  20  21
ENDBRANCH  17  20
ENDBRANCH  15  16
ENDBRANCH   3  15
TORSDOF 7
