REMARK  5 active torsions:
REMARK  status: ('A' for Active; 'I' for Inactive)
REMARK    1  A    between atoms: C4_4  and  N1_5 
REMARK       I    between atoms: N1_5  and  C5_6 
REMARK    2  A    between atoms: C5_6  and  C6_8 
REMARK    3  A    between atoms: C12_15  and  N2_16 
REMARK    4  A    between atoms: N2_16  and  C13_17 
REMARK    5  A    between atoms: C16_21  and  C17_22 
ROOT
HETATM    1  C1  UNL     1      -0.422   1.051   4.192  1.00  0.00     0.023 C 
HETATM    2  C2  UNL     1       0.068   0.742   3.002  1.00  0.00    -0.041 A 
HETATM    3  C3  UNL     1       1.410   0.876   2.469  1.00  0.00     0.042 A 
HETATM    4  C4  UNL     1       1.452   0.431   1.194  1.00  0.00     0.063 A 
HETATM    5  C12 UNL     1       0.080   0.008   0.926  1.00  0.00     0.076 A 
HETATM    6  C22 UNL     1      -0.746   0.165   1.924  1.00  0.00     0.043 A 
ENDROOT
BRANCH   5   7
HETATM    7  N2  UNL     1      -0.172  -0.517  -0.361  1.00  0.00    -0.186 N 
HETATM    8  H9  UNL     1       0.276  -1.295  -0.884  1.00  0.00     0.184 HD
BRANCH   7   9
HETATM    9  C13 UNL     1      -1.204   0.048  -1.182  1.00  0.00     0.727 A 
HETATM   10  N3  UNL     1      -1.076   0.695  -2.358  1.00  0.00    -0.075 NA
HETATM   11  C14 UNL     1      -2.176   1.150  -2.952  1.00  0.00     0.139 A 
HETATM   12  C15 UNL     1      -3.424   0.969  -2.383  1.00  0.00     0.053 A 
HETATM   13  C16 UNL     1      -3.555   0.316  -1.194  1.00  0.00     0.089 A 
HETATM   14  N5  UNL     1      -2.423  -0.129  -0.624  1.00  0.00    -0.062 NA
BRANCH  13  15
HETATM   15  C17 UNL     1      -4.834   0.111  -0.541  1.00  0.00     0.011 A 
HETATM   16  C18 UNL     1      -4.954  -0.527   0.675  1.00  0.00     0.017 A 
HETATM   17  C19 UNL     1      -6.184  -0.727   1.286  1.00  0.00     0.020 A 
HETATM   18  C20 UNL     1      -7.359  -0.282   0.682  1.00  0.00     0.116 A 
HETATM   19  N4  UNL     1      -7.232   0.329  -0.487  1.00  0.00    -0.272 NA
HETATM   20  C21 UNL     1      -6.038   0.514  -1.063  1.00  0.00     0.130 A 
ENDBRANCH  13  15
ENDBRANCH   7   9
ENDBRANCH   5   7
BRANCH   4  21
HETATM   21  N1  UNL     1       2.714   0.512   0.563  1.00  0.00    -0.321 N 
HETATM   22  C5  UNL     1       3.476  -0.567   0.074  1.00  0.00     0.256 C 
HETATM   23  O1  UNL     1       2.916  -1.702   0.249  1.00  0.00    -0.267 OA
HETATM   24  H4  UNL     1       3.107   1.490   0.458  1.00  0.00     0.169 HD
BRANCH  22  25
HETATM   25  C6  UNL     1       4.795  -0.441  -0.580  1.00  0.00     0.032 A 
HETATM   26  C7  UNL     1       5.396  -1.645  -0.830  1.00  0.00     0.020 A 
HETATM   27  C8  UNL     1       6.650  -1.553  -1.442  1.00  0.00     0.043 A 
HETATM   28  C9  UNL     1       7.214  -0.331  -1.759  1.00  0.00     0.116 A 
HETATM   29  F1  UNL     1       8.426  -0.279  -2.348  1.00  0.00    -0.206 F 
HETATM   30  C10 UNL     1       6.500   0.812  -1.452  1.00  0.00     0.043 A 
HETATM   31  C11 UNL     1       5.238   0.827  -0.839  1.00  0.00     0.020 A 
ENDBRANCH  22  25
ENDBRANCH   4  21
TORSDOF 5
