REMARK  3 active torsions:
REMARK  status: ('A' for Active; 'I' for Inactive)
REMARK    1  A    between atoms: C1_2  and  C2_3 
REMARK       I    between atoms: C1_2  and  N1_7 
REMARK    2  A    between atoms: C2_3  and  C3_4 
REMARK    3  A    between atoms: N1_7  and  C5_8 
ROOT
HETATM    1  C5  UNL     1       1.073   0.315  -0.813  1.00  0.00     0.005 C 
HETATM    2  C6  UNL     1      -0.099  -0.300  -1.159  1.00  0.00     0.067 C 
HETATM    3  C7  UNL     1      -0.467  -1.669  -1.680  1.00  0.00    -0.018 C 
HETATM    4  C8  UNL     1      -1.770  -1.933  -1.957  1.00  0.00    -0.001 C 
HETATM    5  C9  UNL     1      -3.152  -1.434  -2.000  1.00  0.00     0.298 C 
HETATM    6  N2  UNL     1      -4.056  -2.062  -1.022  1.00  0.00     0.101 N 
HETATM    7  C10 UNL     1      -3.647  -1.514   0.262  1.00  0.00     0.301 C 
HETATM    8  C11 UNL     1      -3.766   0.018   0.098  1.00  0.00     0.049 C 
HETATM    9  C12 UNL     1      -3.476   0.385   1.337  1.00  0.00     0.083 C 
HETATM   10  N3  UNL     1      -3.981  -0.211   2.573  1.00  0.00    -0.250 NA
HETATM   11  P1  UNL     1      -5.001  -1.496   1.623  1.00  0.00     0.101 P 
HETATM   12  C13 UNL     1      -2.507   1.466   1.196  1.00  0.00     0.088 A 
HETATM   13  C14 UNL     1      -2.841   2.720   1.626  1.00  0.00     0.053 A 
HETATM   14  C15 UNL     1      -1.784   3.604   1.358  1.00  0.00     0.121 A 
HETATM   15  N4  UNL     1      -0.642   3.214   0.768  1.00  0.00    -0.245 NA
HETATM   16  C16 UNL     1      -0.393   1.956   0.377  1.00  0.00     0.131 A 
HETATM   17  N5  UNL     1      -1.348   1.037   0.589  1.00  0.00    -0.231 NA
HETATM   18  C17 UNL     1       0.916   1.612  -0.188  1.00  0.00     0.133 C 
HETATM   19  H11 UNL     1      -3.855  -3.072  -1.036  1.00  0.00     0.317 HD
ENDROOT
BRANCH   1  20
HETATM   20  N1  UNL     1       2.532   0.053  -0.756  1.00  0.00    -0.333 N 
HETATM   21  C1  UNL     1       3.454  -0.000   0.318  1.00  0.00     0.225 C 
HETATM   22  O1  UNL     1       3.108   0.190   1.506  1.00  0.00    -0.273 OA
HETATM   23  H5  UNL     1       2.740  -0.088  -1.792  1.00  0.00     0.168 HD
BRANCH  21  24
HETATM   24  C2  UNL     1       4.811  -0.310  -0.242  1.00  0.00     0.132 C 
BRANCH  24  25
HETATM   25  C3  UNL     1       5.726  -0.328   0.927  1.00  0.00     0.012 C 
HETATM   26  C4  UNL     1       6.558  -1.136   1.592  1.00  0.00     0.184 C 
HETATM   27  F1  UNL     1       7.332  -0.940   2.687  1.00  0.00    -0.220 F 
ENDBRANCH  24  25
ENDBRANCH  21  24
ENDBRANCH   1  20
TORSDOF 3
