REMARK  5 active torsions:
REMARK  status: ('A' for Active; 'I' for Inactive)
REMARK       I    between atoms: C1_2  and  N1_3 
REMARK    1  A    between atoms: C1_2  and  C17_23 
REMARK    2  A    between atoms: N1_3  and  C2_4 
REMARK    3  A    between atoms: C6_8  and  N2_9 
REMARK    4  A    between atoms: N2_9  and  C7_10 
REMARK    5  A    between atoms: C10_14  and  C11_15 
ROOT
HETATM    1  C2  UNL     1       2.420  -0.501   0.086  1.00  0.00     0.037 A 
HETATM    2  C3  UNL     1       2.060  -1.827   0.101  1.00  0.00     0.029 A 
HETATM    3  C4  UNL     1       0.794  -2.283  -0.197  1.00  0.00     0.004 A 
HETATM    4  C5  UNL     1      -0.198  -1.387  -0.534  1.00  0.00     0.030 A 
HETATM    5  C6  UNL     1       0.142  -0.063  -0.555  1.00  0.00     0.051 A 
HETATM    6  C16 UNL     1       1.402   0.361  -0.255  1.00  0.00     0.059 A 
ENDROOT
BRANCH   5   7
HETATM    7  N2  UNL     1      -0.854   0.876  -0.899  1.00  0.00    -0.188 N 
HETATM    8  H5  UNL     1      -0.713   1.902  -0.946  1.00  0.00     0.184 HD
BRANCH   7   9
HETATM    9  C7  UNL     1      -2.183   0.517  -1.225  1.00  0.00     0.727 A 
HETATM   10  N3  UNL     1      -2.387   0.262  -2.532  1.00  0.00    -0.075 NA
HETATM   11  C8  UNL     1      -3.590  -0.093  -3.017  1.00  0.00     0.139 A 
HETATM   12  C9  UNL     1      -4.618  -0.180  -2.072  1.00  0.00     0.053 A 
HETATM   13  C10 UNL     1      -4.436   0.076  -0.732  1.00  0.00     0.089 A 
HETATM   14  N5  UNL     1      -3.189   0.430  -0.317  1.00  0.00    -0.062 NA
BRANCH  13  15
HETATM   15  C11 UNL     1      -5.507  -0.015   0.239  1.00  0.00     0.011 A 
HETATM   16  C12 UNL     1      -6.797  -0.364  -0.083  1.00  0.00     0.017 A 
HETATM   17  C13 UNL     1      -7.779  -0.429   0.911  1.00  0.00     0.020 A 
HETATM   18  C14 UNL     1      -7.477  -0.149   2.216  1.00  0.00     0.116 A 
HETATM   19  N4  UNL     1      -6.204   0.198   2.547  1.00  0.00    -0.272 NA
HETATM   20  C15 UNL     1      -5.275   0.252   1.563  1.00  0.00     0.130 A 
ENDBRANCH  13  15
ENDBRANCH   7   9
ENDBRANCH   5   7
BRANCH   1  21
HETATM   21  N1  UNL     1       3.692   0.045   0.378  1.00  0.00    -0.323 N 
HETATM   22  C1  UNL     1       4.890  -0.610   0.748  1.00  0.00     0.252 C 
HETATM   23  O1  UNL     1       4.879  -1.862   0.848  1.00  0.00    -0.268 OA
HETATM   24  H1  UNL     1       3.819   1.079   0.326  1.00  0.00     0.169 HD
BRANCH  22  25
HETATM   25  C17 UNL     1       6.129   0.085   1.019  1.00  0.00     0.011 C 
HETATM   26  C18 UNL     1       7.194  -0.551   1.406  1.00  0.00    -0.094 C 
HETATM   27  B1  UNL     1       7.366  -0.767  -1.109  1.00  0.00     0.215 B 
HETATM   28  C19 UNL     1       7.905   1.016  -1.031  1.00  0.00    -0.043 C 
HETATM   29  C20 UNL     1       7.404   1.847  -0.130  1.00  0.00     0.084 C 
HETATM   30  F1  UNL     1       7.841   3.138  -0.128  1.00  0.00    -0.212 F 
HETATM   31  C21 UNL     1       6.386   1.520   0.913  1.00  0.00     0.112 C 
ENDBRANCH  22  25
ENDBRANCH   1  21
TORSDOF 5
