REMARK  5 active torsions:
REMARK  status: ('A' for Active; 'I' for Inactive)
REMARK    1  A    between atoms: C1_2  and  C2_3 
REMARK    2  A    between atoms: C2_3  and  N1_4 
REMARK    3  A    between atoms: N1_4  and  C3_5 
REMARK    4  A    between atoms: C9_13  and  C10_14 
REMARK    5  A    between atoms: C16_21  and  N4_22 
ROOT
HETATM    1  C3  UNL     1      -1.801   0.886  -0.402  1.00  0.00     0.019 C 
HETATM    2  C4  UNL     1      -2.611  -0.102  -0.922  1.00  0.00     0.105 C 
HETATM    3  C5  UNL     1      -2.651  -1.578  -0.722  1.00  0.00    -0.021 C 
HETATM    4  C6  UNL     1      -2.253  -2.759  -0.168  1.00  0.00    -0.011 C 
HETATM    5  C7  UNL     1      -1.281  -3.248   0.828  1.00  0.00     0.146 C 
HETATM    6  N2  UNL     1      -0.151  -4.021   0.357  1.00  0.00    -0.389 N 
HETATM    7  C8  UNL     1       0.607  -2.939  -0.163  1.00  0.00     0.018 A 
HETATM    8  B1  UNL     1       1.624  -1.897  -1.608  1.00  0.00     0.350 B 
HETATM    9  C9  UNL     1       1.744  -0.093  -0.619  1.00  0.00     0.011 A 
HETATM   10  C15 UNL     1       0.640   0.622  -0.147  1.00  0.00    -0.006 A 
HETATM   11  C16 UNL     1       0.530  -0.704  -0.098  1.00  0.00     0.066 A 
HETATM   12  N4  UNL     1       1.299  -1.791  -0.446  1.00  0.00    -0.314 NA
HETATM   13  C17 UNL     1      -0.539   1.448   0.357  1.00  0.00     0.038 C 
HETATM   14  H10 UNL     1       0.586  -4.656   0.068  1.00  0.00     0.159 HD
ENDROOT
BRANCH   9  15
HETATM   15  C10 UNL     1       3.032   0.491  -0.388  1.00  0.00    -0.037 A 
HETATM   16  C11 UNL     1       3.718   0.183   0.774  1.00  0.00     0.010 A 
HETATM   17  C12 UNL     1       4.938   0.778   0.926  1.00  0.00     0.020 A 
HETATM   18  C13 UNL     1       5.532   1.651   0.026  1.00  0.00     0.116 A 
HETATM   19  N3  UNL     1       4.842   1.923  -1.080  1.00  0.00    -0.273 NA
HETATM   20  C14 UNL     1       3.634   1.361  -1.276  1.00  0.00     0.123 A 
ENDBRANCH   9  15
BRANCH   1  21
HETATM   21  N1  UNL     1      -2.540   1.904  -1.149  1.00  0.00    -0.410 N 
HETATM   22  H4  UNL     1      -2.796   2.156  -2.150  1.00  0.00     0.154 HD
BRANCH  21  23
HETATM   23  C2  UNL     1      -3.063   2.840  -0.161  1.00  0.00     0.183 C 
BRANCH  23  24
HETATM   24  C1  UNL     1      -4.108   2.238   0.687  1.00  0.00     0.250 C 
HETATM   25  O1  UNL     1      -4.521   1.110   0.609  1.00  0.00    -0.305 OA
ENDBRANCH  23  24
ENDBRANCH  21  23
ENDBRANCH   1  21
TORSDOF 5
