REMARK  2 active torsions:
REMARK  status: ('A' for Active; 'I' for Inactive)
REMARK    1  A    between atoms: O1_2  and  C2_3 
REMARK    2  A    between atoms: C6_8  and  C7_9 
ROOT
HETATM    1  C2  UNL     1      -2.460   0.218   0.476  1.00  0.00     0.197 C 
HETATM    2  C3  UNL     1      -1.325   1.051   0.581  1.00  0.00    -0.102 C 
HETATM    3  C4  UNL     1      -0.374   1.748   0.646  1.00  0.00     0.310 A 
HETATM    4  N1  UNL     1       0.754   2.573   0.697  1.00  0.00     0.138 N 
HETATM    5  C5  UNL     1       1.099   1.406  -0.132  1.00  0.00     0.302 A 
HETATM    6  C6  UNL     1       1.450   0.304  -0.821  1.00  0.00     0.089 C 
HETATM    7  N2  UNL     1       0.987   0.172  -2.209  1.00  0.00    -0.280 NA
HETATM    8  C13 UNL     1      -0.327   0.164  -2.383  1.00  0.00     0.166 C 
HETATM    9  C14 UNL     1      -1.817   0.221  -1.809  1.00  0.00     0.083 C 
HETATM   10  C15 UNL     1      -3.009   0.258  -1.010  1.00  0.00     0.148 C 
HETATM   11  O2  UNL     1      -1.760   0.373  -3.292  1.00  0.00    -0.327 OA
HETATM   12  C16 UNL     1      -1.350   1.840  -3.491  1.00  0.00     0.316 C 
HETATM   13  N3  UNL     1      -0.500   2.299  -2.686  1.00  0.00    -0.410 NA
HETATM   14  P1  UNL     1       0.611   2.651  -1.519  1.00  0.00     0.107 P 
HETATM   15  H5  UNL     1      -0.039   2.930   1.224  1.00  0.00     0.320 HD
HETATM   16  H13 UNL     1       1.852   3.180  -2.049  1.00  0.00     0.099 HD
ENDROOT
BRANCH   6  17
HETATM   17  C7  UNL     1       2.170  -0.740  -0.080  1.00  0.00    -0.007 A 
HETATM   18  C8  UNL     1       1.810  -1.045   1.229  1.00  0.00     0.013 A 
HETATM   19  C9  UNL     1       2.467  -2.018   1.961  1.00  0.00     0.002 A 
HETATM   20  C10 UNL     1       3.506  -2.702   1.370  1.00  0.00     0.019 A 
HETATM   21  C11 UNL     1       3.881  -2.419   0.071  1.00  0.00     0.011 A 
HETATM   22 BR1  UNL     1       5.314  -3.342  -0.780  1.00  0.00    -0.051 Br
HETATM   23  C12 UNL     1       3.216  -1.441  -0.651  1.00  0.00     0.032 A 
ENDBRANCH   6  17
BRANCH   1  24
HETATM   24  O1  UNL     1      -3.522   0.751   1.185  1.00  0.00    -0.379 OA
HETATM   25  C1  UNL     1      -4.032  -0.245   2.012  1.00  0.00     0.203 C 
ENDBRANCH   1  24
TORSDOF 2
