REMARK  4 active torsions:
REMARK  status: ('A' for Active; 'I' for Inactive)
REMARK    1  A    between atoms: C1_2  and  C2_4 
REMARK    2  A    between atoms: C2_4  and  O1_7 
REMARK    3  A    between atoms: O1_7  and  C3_8 
REMARK    4  A    between atoms: C7_12  and  N1_13 
ROOT
HETATM    1  N1  UNL     1      -0.895  -0.281  -0.329  1.00  0.00    -0.283 N 
HETATM    2  C8  UNL     1      -1.648   0.702   0.573  1.00  0.00     0.020 C 
HETATM    3  C9  UNL     1      -0.824   0.431   1.710  1.00  0.00     0.025 C 
HETATM    4  C10 UNL     1      -1.740  -0.415   2.763  1.00  0.00     0.003 C 
HETATM    5  C11 UNL     1      -2.643  -1.455   2.236  1.00  0.00     0.011 C 
HETATM    6  C12 UNL     1      -3.289  -0.852   0.950  1.00  0.00     0.008 C 
HETATM    7  C13 UNL     1      -4.006   0.218   0.467  1.00  0.00    -0.009 C 
HETATM    8  C14 UNL     1      -2.968   1.392   0.203  1.00  0.00     0.085 C 
HETATM    9  C15 UNL     1      -2.505  -2.109   0.383  1.00  0.00     0.396 A 
HETATM   10  C16 UNL     1      -2.743  -3.238   1.028  1.00  0.00     0.139 A 
HETATM   11  C17 UNL     1      -1.766  -3.565  -0.045  1.00  0.00     0.495 A 
HETATM   12  N2  UNL     1      -1.448  -2.478  -0.746  1.00  0.00     0.237 N 
HETATM   13  C18 UNL     1      -1.165  -1.410  -1.400  1.00  0.00     0.533 A 
HETATM   14  N3  UNL     1      -1.519  -2.452  -0.668  1.00  0.00     0.237 N 
ENDROOT
BRANCH   1  15
HETATM   15  C7  UNL     1       0.518  -0.338   0.025  1.00  0.00     0.041 A 
HETATM   16  C6  UNL     1       1.402  -0.911   0.983  1.00  0.00     0.030 A 
HETATM   17  C5  UNL     1       2.751  -0.735   0.868  1.00  0.00     0.005 A 
HETATM   18  C4  UNL     1       3.217   0.005  -0.188  1.00  0.00     0.037 A 
HETATM   19  C3  UNL     1       2.409   0.570  -1.121  1.00  0.00     0.077 A 
HETATM   20  C19 UNL     1       1.012   0.414  -1.043  1.00  0.00     0.066 A 
BRANCH  19  21
HETATM   21  O1  UNL     1       3.098   1.286  -2.122  1.00  0.00    -0.279 OA
BRANCH  21  22
HETATM   22  C2  UNL     1       3.327   2.656  -1.873  1.00  0.00     0.418 C 
HETATM   23  F3  UNL     1       2.102   3.267  -1.727  1.00  0.00    -0.169 F 
HETATM   24  F4  UNL     1       4.066   2.874  -0.753  1.00  0.00    -0.169 F 
BRANCH  22  25
HETATM   25  C1  UNL     1       4.056   3.278  -3.060  1.00  0.00     0.455 C 
HETATM   26  F1  UNL     1       3.301   3.094  -4.207  1.00  0.00    -0.205 F 
HETATM   27  F2  UNL     1       5.272   2.661  -3.271  1.00  0.00    -0.205 F 
ENDBRANCH  22  25
ENDBRANCH  21  22
ENDBRANCH  19  21
ENDBRANCH   1  15
TORSDOF 4
