REMARK  5 active torsions:
REMARK  status: ('A' for Active; 'I' for Inactive)
REMARK    1  A    between atoms: N1_1  and  C1_2 
REMARK    2  A    between atoms: C1_2  and  N2_3 
REMARK    3  A    between atoms: C5_7  and  C6_8 
REMARK    4  A    between atoms: C12_17  and  C13_18 
REMARK    5  A    between atoms: C13_18  and  C14_19 
ROOT
HETATM    1  C6  UNL     1       1.260   0.025   0.463  1.00  0.00     0.089 A 
HETATM    2  C7  UNL     1       0.843  -1.099   1.174  1.00  0.00     0.061 A 
HETATM    3  C8  UNL     1       0.115  -2.160   0.612  1.00  0.00     0.056 A 
HETATM    4  N3  UNL     1      -0.094  -1.928  -0.638  1.00  0.00    -0.068 NA
HETATM    5  C9  UNL     1       0.236  -0.943  -1.394  1.00  0.00     0.723 A 
HETATM    6  N4  UNL     1       0.926   0.074  -0.870  1.00  0.00    -0.062 NA
HETATM    7  N5  UNL     1      -0.345  -1.406  -2.580  1.00  0.00    -0.219 N 
HETATM    8  C10 UNL     1      -1.599  -1.511  -3.253  1.00  0.00     0.165 C 
HETATM    9  C11 UNL     1      -2.601  -2.431  -2.653  1.00  0.00    -0.004 C 
HETATM   10  C12 UNL     1      -2.947  -3.276  -1.632  1.00  0.00    -0.075 C 
HETATM   11  C15 UNL     1      -2.327  -3.651  -0.310  1.00  0.00     0.028 C 
HETATM   12  C16 UNL     1      -1.621  -3.826   0.790  1.00  0.00     0.005 C 
HETATM   13  C17 UNL     1      -0.361  -3.309   1.413  1.00  0.00     0.065 C 
HETATM   14  H8  UNL     1       0.587  -1.716  -2.979  1.00  0.00     0.178 HD
ENDROOT
BRANCH   1  15
HETATM   15  C5  UNL     1       1.968   1.138   1.067  1.00  0.00     0.006 A 
HETATM   16  C4  UNL     1       2.019   2.368   0.471  1.00  0.00     0.005 A 
HETATM   17  C3  UNL     1       1.546   2.901  -0.671  1.00  0.00     0.032 A 
HETATM   18  C21 UNL     1       2.680   3.344   1.168  1.00  0.00     0.046 A 
HETATM   19  C2  UNL     1       1.902   4.270  -0.735  1.00  0.00     0.094 A 
HETATM   20  N2  UNL     1       2.596   4.485   0.419  1.00  0.00    -0.330 N 
HETATM   21  C20 UNL     1       3.289   3.160   2.415  1.00  0.00     0.030 A 
HETATM   22  C19 UNL     1       3.189   1.893   2.939  1.00  0.00     0.003 A 
HETATM   23  C18 UNL     1       2.530   0.841   2.290  1.00  0.00     0.015 A 
BRANCH  20  24
HETATM   24  C1  UNL     1       3.192   5.744   0.806  1.00  0.00     0.396 C 
BRANCH  24  25
HETATM   25  N1  UNL     1       2.348   6.576   1.610  1.00  0.00     0.096 N 
HETATM   26  H1  UNL     1       2.902   7.462   1.791  1.00  0.00     0.314 HD
HETATM   27  H2  UNL     1       2.337   6.125   2.582  1.00  0.00     0.314 HD
ENDBRANCH  24  25
ENDBRANCH  20  24
ENDBRANCH   1  15
BRANCH  10  28
HETATM   28  C13 UNL     1      -4.215  -4.043  -1.507  1.00  0.00     0.065 C 
BRANCH  28  29
HETATM   29  C14 UNL     1      -5.162  -3.781  -2.660  1.00  0.00     0.226 C 
HETATM   30  F1  UNL     1      -5.552  -2.467  -2.722  1.00  0.00    -0.255 F 
ENDBRANCH  28  29
ENDBRANCH  10  28
TORSDOF 5
