REMARK  2 active torsions:
REMARK  status: ('A' for Active; 'I' for Inactive)
REMARK    1  A    between atoms: O1_2  and  C2_3 
REMARK    2  A    between atoms: C8_12  and  C9_13 
ROOT
HETATM    1  C2  UNL     1       4.039   0.445   0.096  1.00  0.00     0.070 C 
HETATM    2  C3  UNL     1       3.794  -0.823  -0.119  1.00  0.00     0.056 C 
HETATM    3  C4  UNL     1       2.436  -1.282   0.252  1.00  0.00     0.021 C 
HETATM    4  C5  UNL     1       2.105  -2.574   0.058  1.00  0.00     0.162 C 
HETATM    5  O2  UNL     1       0.888  -3.158   0.350  1.00  0.00    -0.302 OA
HETATM    6  C6  UNL     1      -0.377  -2.706   0.009  1.00  0.00     0.179 A 
HETATM    7  N1  UNL     1      -1.151  -3.589  -0.699  1.00  0.00    -0.217 NA
HETATM    8  C7  UNL     1      -2.384  -3.308  -1.101  1.00  0.00     0.236 A 
HETATM    9  N2  UNL     1      -2.913  -2.118  -0.812  1.00  0.00    -0.241 NA
HETATM   10  C8  UNL     1      -2.216  -1.194  -0.118  1.00  0.00     0.079 A 
HETATM   11  C15 UNL     1      -0.930  -1.478   0.305  1.00  0.00     0.034 A 
HETATM   12  C16 UNL     1      -0.487  -0.241   1.023  1.00  0.00     0.119 C 
HETATM   13  S1  UNL     1       1.343  -0.014   0.944  1.00  0.00    -0.144 SA
HETATM   14  C17 UNL     1       1.884   1.502   0.821  1.00  0.00     0.015 C 
HETATM   15  C18 UNL     1       3.203   1.482   0.639  1.00  0.00     0.056 C 
ENDROOT
BRANCH  10  16
HETATM   16  C9  UNL     1      -3.019   0.009   0.045  1.00  0.00    -0.005 A 
HETATM   17  C10 UNL     1      -3.659   0.547  -1.084  1.00  0.00     0.014 A 
HETATM   18  C11 UNL     1      -4.466   1.666  -1.118  1.00  0.00     0.002 A 
HETATM   19  C12 UNL     1      -4.659   2.316   0.083  1.00  0.00     0.019 A 
HETATM   20  C13 UNL     1      -4.066   1.849   1.231  1.00  0.00     0.011 A 
HETATM   21 BR1  UNL     1      -4.328   2.739   2.889  1.00  0.00    -0.051 Br
HETATM   22  C14 UNL     1      -3.282   0.736   1.180  1.00  0.00     0.032 A 
ENDBRANCH  10  16
BRANCH   1  23
HETATM   23  O1  UNL     1       5.339   0.739  -0.294  1.00  0.00    -0.356 OA
HETATM   24  C1  UNL     1       5.617   2.003  -0.812  1.00  0.00     0.210 C 
ENDBRANCH   1  23
TORSDOF 2
