REMARK  9 active torsions:
REMARK  status: ('A' for Active; 'I' for Inactive)
REMARK    1  A    between atoms: N1_1  and  C1_2 
REMARK    2  A    between atoms: C1_2  and  C2_3 
REMARK    3  A    between atoms: C2_3  and  N2_4 
REMARK    4  A    between atoms: C6_8  and  C7_9 
REMARK    5  A    between atoms: C10_13  and  N4_14 
REMARK    6  A    between atoms: N4_14  and  C11_15 
REMARK    7  A    between atoms: C15_19  and  O1_20 
REMARK    8  A    between atoms: O1_20  and  C16_21 
REMARK    9  A    between atoms: C16_21  and  C17_24 
ROOT
HETATM    1  C7  UNL     1      -0.798   1.006   0.025  1.00  0.00     0.084 A 
HETATM    2  C8  UNL     1      -0.204   2.236  -0.143  1.00  0.00     0.052 A 
HETATM    3  C9  UNL     1       1.165   2.312  -0.268  1.00  0.00     0.139 A 
HETATM    4  N3  UNL     1       1.869   1.175  -0.221  1.00  0.00    -0.075 NA
HETATM    5  C10 UNL     1       1.324  -0.031  -0.060  1.00  0.00     0.727 A 
HETATM    6  N5  UNL     1       0.010  -0.039   0.054  1.00  0.00    -0.062 NA
ENDROOT
BRANCH   5   7
HETATM    7  N4  UNL     1       2.039  -1.256  -0.009  1.00  0.00    -0.188 N 
HETATM    8  H11 UNL     1       1.466  -2.145   0.113  1.00  0.00     0.184 HD
BRANCH   7   9
HETATM    9  C11 UNL     1       3.440  -1.456  -0.100  1.00  0.00     0.052 A 
HETATM   10  C12 UNL     1       3.966  -2.754  -0.108  1.00  0.00     0.030 A 
HETATM   11  C13 UNL     1       5.306  -3.011  -0.191  1.00  0.00     0.005 A 
HETATM   12  C14 UNL     1       6.224  -1.990  -0.272  1.00  0.00     0.037 A 
HETATM   13  C15 UNL     1       5.751  -0.702  -0.268  1.00  0.00     0.077 A 
HETATM   14  C18 UNL     1       4.406  -0.507  -0.183  1.00  0.00     0.067 A 
BRANCH  13  15
HETATM   15  O1  UNL     1       6.649   0.331  -0.348  1.00  0.00    -0.279 OA
BRANCH  15  16
HETATM   16  C16 UNL     1       8.029   0.039  -0.437  1.00  0.00     0.418 C 
HETATM   17  F1  UNL     1       8.370  -0.703  -1.537  1.00  0.00    -0.169 F 
HETATM   18  F2  UNL     1       8.425  -0.634   0.703  1.00  0.00    -0.169 F 
BRANCH  16  19
HETATM   19  C17 UNL     1       8.760   1.387  -0.522  1.00  0.00     0.455 C 
HETATM   20  F3  UNL     1      10.120   1.198  -0.613  1.00  0.00    -0.205 F 
HETATM   21  F4  UNL     1       8.298   2.110  -1.601  1.00  0.00    -0.205 F 
ENDBRANCH  16  19
ENDBRANCH  15  16
ENDBRANCH  13  15
ENDBRANCH   7   9
ENDBRANCH   5   7
BRANCH   1  22
HETATM   22  C6  UNL     1      -2.252   0.775   0.167  1.00  0.00    -0.024 A 
HETATM   23  C5  UNL     1      -2.823  -0.398   0.342  1.00  0.00     0.025 A 
HETATM   24  C4  UNL     1      -4.260  -0.562   0.475  1.00  0.00     0.007 A 
HETATM   25  C3  UNL     1      -5.292  -1.376   0.648  1.00  0.00     0.105 A 
HETATM   26  C21 UNL     1      -5.118   0.630   0.411  1.00  0.00     0.042 A 
HETATM   27  N2  UNL     1      -6.204  -0.267   0.597  1.00  0.00    -0.354 N 
HETATM   28  C20 UNL     1      -4.515   1.779   0.235  1.00  0.00     0.008 A 
HETATM   29  C19 UNL     1      -3.059   2.020   0.092  1.00  0.00     0.070 A 
BRANCH  27  30
HETATM   30  C2  UNL     1      -7.632  -0.123   0.696  1.00  0.00     0.158 C 
BRANCH  30  31
HETATM   31  C1  UNL     1      -8.352  -0.724  -0.481  1.00  0.00     0.286 C 
BRANCH  31  32
HETATM   32  N1  UNL     1      -7.934  -0.085  -1.688  1.00  0.00     0.079 N 
HETATM   33  H1  UNL     1      -7.985   0.969  -1.571  1.00  0.00     0.312 HD
HETATM   34  H2  UNL     1      -6.960  -0.299  -1.936  1.00  0.00     0.312 HD
ENDBRANCH  31  32
ENDBRANCH  30  31
ENDBRANCH  27  30
ENDBRANCH   1  22
TORSDOF 9
