REMARK  3 active torsions:
REMARK  status: ('A' for Active; 'I' for Inactive)
REMARK    1  A    between atoms: O1_2  and  C2_3 
REMARK    2  A    between atoms: C6_8  and  N1_9 
REMARK    3  A    between atoms: C8_11  and  C9_12 
ROOT
HETATM    1  C2  UNL     1      -2.152   1.221   0.912  1.00  0.00     0.085 C 
HETATM    2  C3  UNL     1      -3.155   0.338   1.106  1.00  0.00     0.040 C 
HETATM    3  C4  UNL     1      -3.375  -0.929   0.679  1.00  0.00     0.035 C 
HETATM    4  C5  UNL     1      -2.654  -1.570  -0.296  1.00  0.00     0.057 C 
HETATM    5  O2  UNL     1      -2.420  -0.734  -1.327  1.00  0.00    -0.295 OA
HETATM    6  C6  UNL     1      -1.146  -0.353  -1.577  1.00  0.00     0.191 C 
HETATM    7  C7  UNL     1      -0.069  -0.780  -0.768  1.00  0.00     0.110 C 
HETATM    8  C8  UNL     1       0.854  -0.082  -0.026  1.00  0.00     0.088 C 
HETATM    9  N2  UNL     1       0.311   1.140   0.109  1.00  0.00    -0.256 NA
HETATM   10  C15 UNL     1      -0.781   1.378   0.857  1.00  0.00     0.154 C 
HETATM   11  N3  UNL     1       0.103  -2.219  -0.676  1.00  0.00    -0.384 N 
HETATM   12  C16 UNL     1      -0.863  -3.300  -0.682  1.00  0.00     0.126 C 
HETATM   13  C17 UNL     1      -2.223  -2.961  -0.186  1.00  0.00     0.084 C 
HETATM   14  H12 UNL     1       1.108  -2.491  -0.596  1.00  0.00     0.159 HD
ENDROOT
BRANCH   8  15
HETATM   15  C9  UNL     1       2.072  -0.719   0.433  1.00  0.00     0.053 C 
HETATM   16  C10 UNL     1       3.258  -0.152   0.388  1.00  0.00     0.008 A 
HETATM   17  C11 UNL     1       3.423   1.192  -0.144  1.00  0.00     0.038 A 
HETATM   18  S1  UNL     1       4.750  -0.946   0.961  1.00  0.00    -0.102 SA
HETATM   19  C12 UNL     1       4.489   1.956  -0.277  1.00  0.00     0.012 A 
HETATM   20 BR1  UNL     1       4.427   3.702  -1.015  1.00  0.00    -0.051 Br
HETATM   21  C13 UNL     1       5.754   1.402   0.167  1.00  0.00     0.026 A 
HETATM   22  C14 UNL     1       6.058   0.236   0.698  1.00  0.00     0.052 A 
ENDBRANCH   8  15
BRANCH   6  23
HETATM   23  N1  UNL     1      -0.911   0.420  -2.579  1.00  0.00    -0.276 NA
HETATM   24  H6  UNL     1      -1.753   0.694  -3.131  1.00  0.00     0.189 HD
ENDBRANCH   6  23
BRANCH   1  25
HETATM   25  O1  UNL     1      -2.459   2.550   0.653  1.00  0.00    -0.355 OA
HETATM   26  C1  UNL     1      -3.760   3.079   0.571  1.00  0.00     0.210 C 
ENDBRANCH   1  25
TORSDOF 3
