REMARK  2 active torsions:
REMARK  status: ('A' for Active; 'I' for Inactive)
REMARK    1  A    between atoms: O1_2  and  C2_3 
REMARK    2  A    between atoms: C7_8  and  O2_9 
ROOT
HETATM    1  C2  UNL     1       3.348  -0.194  -0.097  1.00  0.00     0.104 A 
HETATM    2  C3  UNL     1       2.380   0.731   0.238  1.00  0.00     0.069 A 
HETATM    3  C4  UNL     1       1.037   0.445   0.099  1.00  0.00     0.043 A 
HETATM    4  C5  UNL     1       0.616  -0.777  -0.380  1.00  0.00    -0.024 A 
HETATM    5  C6  UNL     1       1.599  -1.696  -0.712  1.00  0.00     0.050 A 
HETATM    6  C7  UNL     1       2.964  -1.441  -0.585  1.00  0.00     0.116 A 
HETATM    7  C8  UNL     1      -0.786  -1.225  -0.581  1.00  0.00     0.089 A 
HETATM    8  C9  UNL     1      -1.690  -0.138  -0.183  1.00  0.00     0.060 A 
HETATM    9  C10 UNL     1      -1.378   1.112   0.304  1.00  0.00     0.141 A 
HETATM   10  N1  UNL     1      -2.333   2.003   0.626  1.00  0.00    -0.225 NA
HETATM   11  C11 UNL     1      -3.644   1.672   0.471  1.00  0.00     0.214 A 
HETATM   12  N2  UNL     1      -4.006   0.450  -0.006  1.00  0.00    -0.312 N 
HETATM   13  C12 UNL     1      -5.415   0.153  -0.150  1.00  0.00     0.160 C 
HETATM   14  C13 UNL     1      -3.037  -0.453  -0.333  1.00  0.00     0.258 A 
HETATM   15  O3  UNL     1      -3.477  -1.540  -0.760  1.00  0.00    -0.267 OA
HETATM   16  N3  UNL     1       0.007   1.368   0.432  1.00  0.00    -0.340 N 
HETATM   17  H12 UNL     1       0.319   2.299   0.797  1.00  0.00     0.167 HD
ENDROOT
BRANCH   1  18
HETATM   18  O1  UNL     1       4.697   0.016   0.012  1.00  0.00    -0.353 OA
HETATM   19  C1  UNL     1       5.175   1.240   0.493  1.00  0.00     0.210 C 
ENDBRANCH   1  18
BRANCH   6  20
HETATM   20  O2  UNL     1       3.894  -2.420  -0.942  1.00  0.00    -0.276 OA
HETATM   21  I1  UNL     1       3.326  -4.254  -1.658  1.00  0.00     0.116 I 
ENDBRANCH   6  20
TORSDOF 2
