REMARK  4 active torsions:
REMARK  status: ('A' for Active; 'I' for Inactive)
REMARK    1  A    between atoms: N1_2  and  C2_3 
REMARK    2  A    between atoms: C8_11  and  N4_12 
REMARK    3  A    between atoms: N4_12  and  C9_13 
REMARK    4  A    between atoms: C13_17  and  N5_18 
ROOT
HETATM    1  C2  UNL     1      -3.047   2.515  -0.215  1.00  0.00     0.120 C 
HETATM    2  C3  UNL     1      -2.659   1.244  -0.386  1.00  0.00    -0.004 C 
HETATM    3  C4  UNL     1      -3.582   0.310   0.221  1.00  0.00     0.121 C 
HETATM    4  N2  UNL     1      -4.110  -0.775   0.592  1.00  0.00    -0.295 NA
HETATM    5  C5  UNL     1      -3.623  -2.103   0.352  1.00  0.00     0.203 C 
HETATM    6  C6  UNL     1      -2.163  -2.208   0.135  1.00  0.00     0.047 C 
HETATM    7  C7  UNL     1      -1.471  -3.456  -0.274  1.00  0.00     0.068 C 
HETATM    8  N3  UNL     1      -1.620  -1.097   0.344  1.00  0.00    -0.071 NA
HETATM    9  C8  UNL     1      -0.306  -0.665   0.281  1.00  0.00     0.722 C 
HETATM   10  N6  UNL     1      -0.370   0.344  -0.482  1.00  0.00    -0.101 NA
HETATM   11  C15 UNL     1      -1.434   0.971  -1.157  1.00  0.00     0.210 C 
ENDROOT
BRANCH   9  12
HETATM   12  N4  UNL     1       0.956  -1.037   0.797  1.00  0.00    -0.188 N 
HETATM   13  H10 UNL     1       0.894  -1.981   1.245  1.00  0.00     0.184 HD
BRANCH  12  14
HETATM   14  C9  UNL     1       2.153  -0.284   0.754  1.00  0.00     0.051 A 
HETATM   15  C10 UNL     1       2.211   1.060   0.490  1.00  0.00     0.030 A 
HETATM   16  C11 UNL     1       3.426   1.690   0.441  1.00  0.00     0.004 A 
HETATM   17  C12 UNL     1       4.630   1.060   0.640  1.00  0.00     0.023 A 
HETATM   18  C13 UNL     1       4.534  -0.302   0.905  1.00  0.00     0.008 A 
HETATM   19  C14 UNL     1       3.327  -1.001   0.969  1.00  0.00     0.053 A 
BRANCH  18  20
HETATM   20  N5  UNL     1       5.755  -1.000   1.111  1.00  0.00    -0.303 NA
HETATM   21  H14 UNL     1       6.563  -1.273   0.493  1.00  0.00     0.124 HD
HETATM   22  H15 UNL     1       6.581  -1.294   0.535  1.00  0.00     0.124 HD
ENDBRANCH  18  20
ENDBRANCH  12  14
ENDBRANCH   9  12
BRANCH   1  23
HETATM   23  N1  UNL     1      -2.589   3.785  -0.552  1.00  0.00    -0.299 NA
HETATM   24  C1  UNL     1      -1.918   4.155  -1.563  1.00  0.00     0.170 C 
ENDBRANCH   1  23
TORSDOF 4
