REMARK  4 active torsions:
REMARK  status: ('A' for Active; 'I' for Inactive)
REMARK    1  A    between atoms: O1_2  and  C2_3 
REMARK    2  A    between atoms: C6_7  and  C7_8 
REMARK       I    between atoms: C7_8  and  N1_10 
REMARK    3  A    between atoms: N1_10  and  C9_12 
REMARK    4  A    between atoms: C13_18  and  O3_19 
ROOT
HETATM    1  C2  UNL     1      -2.249   0.025   0.552  1.00  0.00     0.092 C 
HETATM    2  C3  UNL     1      -1.493   0.854   1.340  1.00  0.00     0.115 C 
HETATM    3  C4  UNL     1      -0.135   1.412   0.974  1.00  0.00     0.013 C 
HETATM    4  C5  UNL     1       0.687   0.397   0.259  1.00  0.00     0.047 C 
HETATM    5  C6  UNL     1       1.851   0.704  -0.526  1.00  0.00     0.041 C 
HETATM    6  C10 UNL     1       1.773   0.283  -1.792  1.00  0.00     0.092 C 
HETATM    7  N3  UNL     1       0.825  -0.594  -1.933  1.00  0.00    -0.283 NA
HETATM    8  C11 UNL     1      -0.445   0.024  -1.818  1.00  0.00     0.179 C 
HETATM    9  C12 UNL     1      -1.691  -0.734  -1.738  1.00  0.00     0.030 C 
HETATM   10  C13 UNL     1      -2.561  -0.782  -0.713  1.00  0.00     0.073 C 
ENDROOT
BRANCH   5  11
HETATM   11  C7  UNL     1       3.085   1.381  -0.151  1.00  0.00     0.256 C 
HETATM   12  O2  UNL     1       2.520   2.446  -0.376  1.00  0.00    -0.267 OA
HETATM   13  N1  UNL     1       3.820   0.202   0.133  1.00  0.00    -0.313 N 
HETATM   14  C8  UNL     1       3.799  -1.268   0.186  1.00  0.00     0.160 C 
BRANCH  13  15
HETATM   15  C9  UNL     1       4.977   0.957   0.472  1.00  0.00     0.202 C 
HETATM   16  N2  UNL     1       5.728   1.798  -0.154  1.00  0.00    -0.295 NA
HETATM   17  H13 UNL     1       6.532   2.206   0.363  1.00  0.00     0.187 HD
ENDBRANCH  13  15
ENDBRANCH   5  11
BRANCH   1  18
HETATM   18  O1  UNL     1      -3.260  -0.023   1.568  1.00  0.00    -0.383 OA
HETATM   19  C1  UNL     1      -4.324   0.897   1.273  1.00  0.00     0.202 C 
ENDBRANCH   1  18
BRANCH  10  20
HETATM   20  O3  UNL     1      -3.745  -1.480  -0.628  1.00  0.00    -0.358 OA
HETATM   21  C14 UNL     1      -3.831  -2.712   0.091  1.00  0.00     0.209 C 
ENDBRANCH  10  20
TORSDOF 4
