REMARK  4 active torsions:
REMARK  status: ('A' for Active; 'I' for Inactive)
REMARK    1  A    between atoms: N1_1  and  C1_2 
REMARK    2  A    between atoms: C5_6  and  N2_7 
REMARK    3  A    between atoms: N2_7  and  C6_8 
REMARK    4  A    between atoms: C9_12  and  C10_13 
ROOT
HETATM    1  C6  UNL     1      -0.394  -0.103  -0.129  1.00  0.00     0.727 A 
HETATM    2  N3  UNL     1      -0.709  -1.370  -0.418  1.00  0.00    -0.075 NA
HETATM    3  C7  UNL     1       0.210  -2.338  -0.546  1.00  0.00     0.139 A 
HETATM    4  C8  UNL     1       1.519  -1.968  -0.364  1.00  0.00     0.052 A 
HETATM    5  C9  UNL     1       1.921  -0.686  -0.065  1.00  0.00     0.082 A 
HETATM    6  N4  UNL     1       0.897   0.167   0.030  1.00  0.00    -0.062 NA
ENDROOT
BRANCH   1   7
HETATM    7  N2  UNL     1      -1.317   0.966   0.020  1.00  0.00    -0.188 N 
HETATM    8  H6  UNL     1      -0.929   1.929   0.252  1.00  0.00     0.184 HD
BRANCH   7   9
HETATM    9  C5  UNL     1      -2.717   0.941  -0.097  1.00  0.00     0.051 A 
HETATM   10  C4  UNL     1      -3.502   2.084   0.078  1.00  0.00     0.030 A 
HETATM   11  C3  UNL     1      -4.852   2.100  -0.026  1.00  0.00     0.004 A 
HETATM   12  C2  UNL     1      -5.554   0.963  -0.319  1.00  0.00     0.029 A 
HETATM   13  C1  UNL     1      -4.845  -0.204  -0.505  1.00  0.00     0.027 A 
HETATM   14  C15 UNL     1      -3.483  -0.169  -0.389  1.00  0.00     0.059 A 
BRANCH  13  15
HETATM   15  N1  UNL     1      -5.571  -1.388  -0.810  1.00  0.00    -0.399 N 
HETATM   16  H1  UNL     1      -5.924  -1.939  -1.646  1.00  0.00     0.156 HD
HETATM   17  H2  UNL     1      -5.787  -1.778   0.133  1.00  0.00     0.156 HD
ENDBRANCH  13  15
ENDBRANCH   7   9
ENDBRANCH   1   7
BRANCH   5  18
HETATM   18  C10 UNL     1       3.333  -0.285   0.131  1.00  0.00    -0.037 A 
HETATM   19  C11 UNL     1       4.263  -1.211   0.012  1.00  0.00     0.007 A 
HETATM   20  C12 UNL     1       5.685  -0.936   0.183  1.00  0.00    -0.015 A 
HETATM   21  C13 UNL     1       6.036   0.308   0.470  1.00  0.00    -0.083 A 
HETATM   22  B1  UNL     1       5.022   1.476   0.632  1.00  0.00     0.186 B 
HETATM   23  C14 UNL     1       3.493   1.152   0.443  1.00  0.00    -0.008 A 
HETATM   24  H12 UNL     1       5.386   2.580   0.891  1.00  0.00    -0.021 HD
ENDBRANCH   5  18
TORSDOF 4
