REMARK  3 active torsions:
REMARK  status: ('A' for Active; 'I' for Inactive)
REMARK    1  A    between atoms: N1_1  and  C1_2 
REMARK    2  A    between atoms: C5_6  and  C6_7 
REMARK    3  A    between atoms: C7_8  and  N2_9 
ROOT
HETATM    1  N2  UNL     1       0.121   0.598   2.376  1.00  0.00    -0.271 N 
HETATM    2  C8  UNL     1      -0.895   0.064   1.783  1.00  0.00     0.100 A 
HETATM    3  C9  UNL     1      -0.964  -1.243   1.052  1.00  0.00     0.121 C 
HETATM    4  C10 UNL     1      -1.272  -1.151  -0.394  1.00  0.00     0.003 A 
HETATM    5  P1  UNL     1      -1.537  -1.098  -2.009  1.00  0.00    -0.018 P 
HETATM    6  C11 UNL     1      -3.125  -0.085  -2.362  1.00  0.00     0.031 A 
HETATM    7  C12 UNL     1      -3.583   0.295  -1.276  1.00  0.00    -0.015 A 
HETATM    8  S1  UNL     1      -2.742  -0.161   0.124  1.00  0.00    -0.097 SA
HETATM    9  C13 UNL     1      -4.774   1.249  -0.932  1.00  0.00     0.051 C 
HETATM   10  C14 UNL     1      -4.203   2.084   0.229  1.00  0.00     0.001 C 
HETATM   11  C15 UNL     1      -3.491   2.615   1.280  1.00  0.00     0.018 C 
HETATM   12  C16 UNL     1      -2.249   1.953   1.896  1.00  0.00     0.112 C 
HETATM   13  N3  UNL     1      -1.180   1.332   2.391  1.00  0.00    -0.169 NA
ENDROOT
BRANCH   1  14
HETATM   14  C7  UNL     1       1.343  -0.076   2.374  1.00  0.00     0.113 C 
HETATM   15  C6  UNL     1       2.435  -0.609   1.895  1.00  0.00     0.030 C 
BRANCH  15  16
HETATM   16  C5  UNL     1       2.776  -0.593   0.499  1.00  0.00    -0.033 A 
HETATM   17  C4  UNL     1       2.031  -0.019  -0.489  1.00  0.00     0.011 A 
HETATM   18  C3  UNL     1       2.372  -0.019  -1.827  1.00  0.00     0.003 A 
HETATM   19  C2  UNL     1       3.554  -0.646  -2.179  1.00  0.00     0.029 A 
HETATM   20  C1  UNL     1       4.360  -1.247  -1.240  1.00  0.00     0.026 A 
HETATM   21  C17 UNL     1       3.946  -1.202   0.078  1.00  0.00     0.040 A 
BRANCH  20  22
HETATM   22  N1  UNL     1       5.572  -1.888  -1.615  1.00  0.00    -0.399 N 
HETATM   23  H1  UNL     1       5.160  -2.844  -1.774  1.00  0.00     0.156 HD
HETATM   24  H2  UNL     1       6.170  -1.021  -1.511  1.00  0.00     0.156 HD
ENDBRANCH  20  22
ENDBRANCH  15  16
ENDBRANCH   1  14
TORSDOF 3
