REMARK  5 active torsions:
REMARK  status: ('A' for Active; 'I' for Inactive)
REMARK    1  A    between atoms: C4_5  and  N1_6 
REMARK    2  A    between atoms: N1_6  and  C5_7 
REMARK    3  A    between atoms: C9_11  and  N2_12 
REMARK    4  A    between atoms: N2_12  and  C10_13 
REMARK    5  A    between atoms: C13_17  and  C14_18 
ROOT
HETATM    1  C5  UNL     1      -2.910  -1.243   0.877  1.00  0.00     0.030 A 
HETATM    2  C6  UNL     1      -2.822  -2.420   1.630  1.00  0.00     0.029 A 
HETATM    3  C7  UNL     1      -1.598  -2.957   1.930  1.00  0.00     0.004 A 
HETATM    4  C8  UNL     1      -0.480  -2.314   1.473  1.00  0.00     0.030 A 
HETATM    5  C9  UNL     1      -0.475  -1.157   0.728  1.00  0.00     0.051 A 
HETATM    6  C19 UNL     1      -1.729  -0.672   0.464  1.00  0.00     0.059 A 
ENDROOT
BRANCH   5   7
HETATM    7  N2  UNL     1       0.668  -0.478   0.248  1.00  0.00    -0.188 N 
HETATM    8  H10 UNL     1       0.503   0.393  -0.305  1.00  0.00     0.184 HD
BRANCH   7   9
HETATM    9  C10 UNL     1       2.020  -0.853   0.437  1.00  0.00     0.727 A 
HETATM   10  N3  UNL     1       2.491  -1.915   1.101  1.00  0.00    -0.075 NA
HETATM   11  C11 UNL     1       3.782  -2.223   1.250  1.00  0.00     0.139 A 
HETATM   12  C12 UNL     1       4.740  -1.422   0.698  1.00  0.00     0.053 A 
HETATM   13  C13 UNL     1       4.302  -0.332   0.015  1.00  0.00     0.089 A 
HETATM   14  N5  UNL     1       2.995  -0.098  -0.085  1.00  0.00    -0.062 NA
BRANCH  13  15
HETATM   15  C14 UNL     1       5.242   0.587  -0.611  1.00  0.00     0.011 A 
HETATM   16  C15 UNL     1       6.598   0.454  -0.578  1.00  0.00     0.017 A 
HETATM   17  C16 UNL     1       7.475   1.339  -1.179  1.00  0.00     0.020 A 
HETATM   18  C17 UNL     1       6.952   2.437  -1.864  1.00  0.00     0.116 A 
HETATM   19  N4  UNL     1       5.632   2.578  -1.904  1.00  0.00    -0.272 NA
HETATM   20  C18 UNL     1       4.782   1.702  -1.310  1.00  0.00     0.130 A 
ENDBRANCH  13  15
ENDBRANCH   7   9
ENDBRANCH   5   7
BRANCH   1  21
HETATM   21  N1  UNL     1      -4.189  -0.725   0.575  1.00  0.00    -0.384 N 
HETATM   22  H6  UNL     1      -5.036  -1.270   0.910  1.00  0.00     0.160 HD
BRANCH  21  23
HETATM   23  C4  UNL     1      -4.574   0.467  -0.135  1.00  0.00     0.095 C 
HETATM   24  C3  UNL     1      -4.212   1.668   0.656  1.00  0.00     0.103 C 
HETATM   25  S1  UNL     1      -4.151   3.068  -0.535  1.00  0.00    -0.140 SA
HETATM   26  C2  UNL     1      -5.594   2.712  -1.582  1.00  0.00     0.041 C 
HETATM   27  C1  UNL     1      -6.306   1.562  -1.547  1.00  0.00    -0.018 C 
HETATM   28  C20 UNL     1      -5.984   0.439  -0.633  1.00  0.00     0.053 C 
ENDBRANCH  21  23
ENDBRANCH   1  21
TORSDOF 5
