REMARK  6 active torsions:
REMARK  status: ('A' for Active; 'I' for Inactive)
REMARK    1  A    between atoms: N1_2  and  C2_3 
REMARK    2  A    between atoms: C3_4  and  C4_5 
REMARK    3  A    between atoms: C4_5  and  S1_6 
REMARK    4  A    between atoms: C5_8  and  N3_9 
REMARK    5  A    between atoms: N3_9  and  C6_10 
REMARK    6  A    between atoms: C10_14  and  N4_15 
ROOT
HETATM    1  S1  UNL     1       1.884   1.389   0.145  1.00  0.00    -0.077 SA
HETATM    2  N2  UNL     1       0.987   0.024   0.055  1.00  0.00    -0.039 NA
HETATM    3  C5  UNL     1      -0.350  -0.031  -0.470  1.00  0.00     0.732 C 
HETATM    4  N5  UNL     1      -1.108   0.878  -0.976  1.00  0.00    -0.075 NA
HETATM    5  C12 UNL     1      -0.879   2.241  -1.187  1.00  0.00     0.133 C 
HETATM    6  C13 UNL     1       0.219   2.967  -1.174  1.00  0.00     0.004 C 
HETATM    7  C14 UNL     1       1.673   2.834  -0.965  1.00  0.00     0.116 C 
ENDROOT
BRANCH   3   8
HETATM    8  N3  UNL     1      -0.955  -1.332  -0.425  1.00  0.00    -0.188 N 
HETATM    9  H7  UNL     1      -0.366  -2.162  -0.650  1.00  0.00     0.184 HD
BRANCH   8  10
HETATM   10  C6  UNL     1      -2.307  -1.520  -0.083  1.00  0.00     0.051 A 
HETATM   11  C7  UNL     1      -2.870  -2.800  -0.179  1.00  0.00     0.030 A 
HETATM   12  C8  UNL     1      -4.183  -3.074   0.143  1.00  0.00     0.004 A 
HETATM   13  C9  UNL     1      -5.020  -2.094   0.580  1.00  0.00     0.029 A 
HETATM   14  C10 UNL     1      -4.521  -0.827   0.692  1.00  0.00     0.027 A 
HETATM   15  C11 UNL     1      -3.206  -0.585   0.364  1.00  0.00     0.059 A 
BRANCH  14  16
HETATM   16  N4  UNL     1      -5.360   0.236   1.147  1.00  0.00    -0.399 N 
HETATM   17  H11 UNL     1      -6.255   0.354   0.641  1.00  0.00     0.156 HD
HETATM   18  H12 UNL     1      -5.279   0.952   1.903  1.00  0.00     0.156 HD
ENDBRANCH  14  16
ENDBRANCH   8  10
ENDBRANCH   3   8
BRANCH   1  19
HETATM   19  C4  UNL     1       3.586   1.219   0.860  1.00  0.00     0.116 C 
BRANCH  19  20
HETATM   20  C3  UNL     1       4.606   1.068  -0.181  1.00  0.00     0.003 C 
HETATM   21  C2  UNL     1       5.372   0.020  -0.258  1.00  0.00     0.112 C 
BRANCH  21  22
HETATM   22  N1  UNL     1       5.353  -1.096   0.605  1.00  0.00    -0.284 NA
HETATM   23  C1  UNL     1       4.721  -2.166   0.291  1.00  0.00     0.148 C 
ENDBRANCH  21  22
ENDBRANCH  19  20
ENDBRANCH   1  19
TORSDOF 6
