REMARK  5 active torsions:
REMARK  status: ('A' for Active; 'I' for Inactive)
REMARK    1  A    between atoms: C8_9  and  N2_10 
REMARK    2  A    between atoms: C8_9  and  N3_11 
REMARK    3  A    between atoms: N4_12  and  C9_13 
REMARK    4  A    between atoms: C10_14  and  P1_15 
REMARK    5  A    between atoms: P1_15  and  C11_16 
ROOT
HETATM    1  N1  UNL     1      -3.854  -5.293   0.015  1.00  0.00    -0.191 NA
HETATM    2  C1  UNL     1      -3.869  -4.140   0.003  1.00  0.00     0.099 C 
HETATM    3  C2  UNL     1      -3.893  -2.706   0.013  1.00  0.00     0.045 A 
HETATM    4  C3  UNL     1      -5.101  -2.069   0.159  1.00  0.00     0.023 A 
HETATM    5  C4  UNL     1      -4.928  -0.697   0.150  1.00  0.00     0.014 A 
HETATM    6  C5  UNL     1      -3.738  -0.003   0.014  1.00  0.00     0.027 A 
HETATM    7  C6  UNL     1      -2.548  -0.741  -0.129  1.00  0.00     0.021 A 
HETATM    8  C7  UNL     1      -2.658  -2.105  -0.127  1.00  0.00     0.035 A 
HETATM    9  C8  UNL     1      -1.462   0.229  -0.213  1.00  0.00     0.312 C 
HETATM   10  C16 UNL     1      -0.735   0.701   0.965  1.00  0.00     0.045 C 
HETATM   11  C17 UNL     1      -0.861   1.612   1.926  1.00  0.00     0.002 C 
HETATM   12  C18 UNL     1      -1.795   2.671   2.374  1.00  0.00     0.028 C 
HETATM   13  C19 UNL     1      -2.991   3.126   1.938  1.00  0.00     0.240 C 
HETATM   14  N6  UNL     1      -3.810   2.668   0.802  1.00  0.00     0.113 N 
HETATM   15  C20 UNL     1      -4.076   1.464   0.058  1.00  0.00     0.388 A 
HETATM   16  O1  UNL     1      -3.370   1.425   0.958  1.00  0.00    -0.140 OA
HETATM   17  H17 UNL     1      -4.423   3.410   0.325  1.00  0.00     0.329 HD
ENDROOT
BRANCH   9  18
HETATM   18  N2  UNL     1      -1.772   1.351  -1.137  1.00  0.00     0.119 N 
HETATM   19  H4  UNL     1      -0.923   1.866  -1.379  1.00  0.00     0.317 HD
HETATM   20  H5  UNL     1      -2.253   0.938  -1.967  1.00  0.00     0.317 HD
ENDBRANCH   9  18
BRANCH   9  21
HETATM   21  N3  UNL     1      -0.450  -0.422  -1.083  1.00  0.00    -0.140 NA
HETATM   22  N4  UNL     1       0.357  -1.230  -0.562  1.00  0.00    -0.165 NA
BRANCH  22  23
HETATM   23  C9  UNL     1       1.347  -1.887  -1.326  1.00  0.00     0.141 C 
HETATM   24  C10 UNL     1       2.641  -1.596  -1.280  1.00  0.00     0.029 C 
BRANCH  24  25
HETATM   25  P1  UNL     1       3.093  -0.232  -0.118  1.00  0.00    -0.069 P 
HETATM   26  H8  UNL     1       2.735  -0.692   1.208  1.00  0.00     0.066 HD
BRANCH  25  27
HETATM   27  C11 UNL     1       4.874   0.150  -0.260  1.00  0.00    -0.013 A 
HETATM   28  C12 UNL     1       5.813  -0.774  -0.677  1.00  0.00     0.015 A 
HETATM   29  C13 UNL     1       7.154  -0.433  -0.767  1.00  0.00     0.020 A 
HETATM   30  C14 UNL     1       7.474   0.862  -0.420  1.00  0.00     0.116 A 
HETATM   31  N5  UNL     1       6.555   1.755  -0.015  1.00  0.00    -0.272 NA
HETATM   32  C15 UNL     1       5.232   1.447   0.083  1.00  0.00     0.128 A 
ENDBRANCH  25  27
ENDBRANCH  24  25
ENDBRANCH  22  23
ENDBRANCH   9  21
TORSDOF 5
