REMARK  5 active torsions:
REMARK  status: ('A' for Active; 'I' for Inactive)
REMARK    1  A    between atoms: C5_5  and  C6_6 
REMARK       I    between atoms: C6_6  and  N1_8 
REMARK    2  A    between atoms: N1_8  and  C7_9 
REMARK    3  A    between atoms: C11_13  and  N2_14 
REMARK    4  A    between atoms: N2_14  and  C12_15 
REMARK    5  A    between atoms: C15_19  and  C16_20 
ROOT
HETATM    1  C1  UNL     1      -8.115   1.576  -1.482  1.00  0.00     0.045 C 
HETATM    2  C2  UNL     1      -7.040   0.548  -1.303  1.00  0.00    -0.062 A 
HETATM    3  C3  UNL     1      -7.002  -0.667  -1.824  1.00  0.00     0.005 A 
HETATM    4  C4  UNL     1      -5.807  -1.419  -1.450  1.00  0.00     0.015 A 
HETATM    5  C5  UNL     1      -5.119  -0.596  -0.673  1.00  0.00     0.032 A 
HETATM    6  C22 UNL     1      -5.803   0.694  -0.503  1.00  0.00     0.160 A 
HETATM    7  C23 UNL     1      -6.184   0.817   0.909  1.00  0.00     0.073 C 
HETATM    8  N6  UNL     1      -6.498   0.924   2.013  1.00  0.00    -0.196 NA
ENDROOT
BRANCH   5   9
HETATM    9  C6  UNL     1      -3.837  -0.953  -0.072  1.00  0.00     0.253 C 
HETATM   10  O1  UNL     1      -3.331  -2.098  -0.283  1.00  0.00    -0.268 OA
HETATM   11  N1  UNL     1      -3.121  -0.050   0.758  1.00  0.00    -0.323 N 
HETATM   12  H6  UNL     1      -3.572   0.880   0.906  1.00  0.00     0.169 HD
BRANCH  11  13
HETATM   13  C7  UNL     1      -1.870  -0.356   1.364  1.00  0.00     0.037 A 
HETATM   14  C8  UNL     1      -1.849  -0.933   2.616  1.00  0.00     0.029 A 
HETATM   15  C9  UNL     1      -0.625  -1.220   3.182  1.00  0.00     0.004 A 
HETATM   16  C10 UNL     1       0.509  -0.916   2.470  1.00  0.00     0.030 A 
HETATM   17  C11 UNL     1       0.551  -0.345   1.226  1.00  0.00     0.051 A 
HETATM   18  C21 UNL     1      -0.695  -0.078   0.705  1.00  0.00     0.059 A 
BRANCH  17  19
HETATM   19  N2  UNL     1       1.718  -0.030   0.487  1.00  0.00    -0.188 N 
HETATM   20  H10 UNL     1       1.545   0.410  -0.460  1.00  0.00     0.184 HD
BRANCH  19  21
HETATM   21  C12 UNL     1       3.068  -0.237   0.873  1.00  0.00     0.727 A 
HETATM   22  N3  UNL     1       3.490  -0.766   2.005  1.00  0.00    -0.075 NA
HETATM   23  C13 UNL     1       4.774  -0.948   2.338  1.00  0.00     0.139 A 
HETATM   24  C14 UNL     1       5.749  -0.569   1.468  1.00  0.00     0.053 A 
HETATM   25  C15 UNL     1       5.330  -0.022   0.296  1.00  0.00     0.089 A 
HETATM   26  N5  UNL     1       4.038   0.132   0.023  1.00  0.00    -0.062 NA
BRANCH  25  27
HETATM   27  C16 UNL     1       6.296   0.413  -0.697  1.00  0.00     0.011 A 
HETATM   28  C17 UNL     1       7.665   0.328  -0.577  1.00  0.00     0.017 A 
HETATM   29  C18 UNL     1       8.555   0.746  -1.530  1.00  0.00     0.020 A 
HETATM   30  C19 UNL     1       8.096   1.295  -2.704  1.00  0.00     0.116 A 
HETATM   31  N4  UNL     1       6.744   1.397  -2.861  1.00  0.00    -0.272 NA
HETATM   32  C20 UNL     1       5.898   0.978  -1.908  1.00  0.00     0.130 A 
ENDBRANCH  25  27
ENDBRANCH  19  21
ENDBRANCH  17  19
ENDBRANCH  11  13
ENDBRANCH   5   9
TORSDOF 5
