REMARK  4 active torsions:
REMARK  status: ('A' for Active; 'I' for Inactive)
REMARK    1  A    between atoms: C4_4  and  N1_5 
REMARK    2  A    between atoms: C8_9  and  N2_10 
REMARK       I    between atoms: N2_10  and  C9_11 
REMARK    3  A    between atoms: C9_11  and  C10_13 
REMARK    4  A    between atoms: C16_20  and  N4_21 
ROOT
HETATM    1  C10 UNL     1       4.907  -0.478  -0.223  1.00  0.00     0.058 A 
HETATM    2  C11 UNL     1       4.987  -1.820   0.079  1.00  0.00     0.021 A 
HETATM    3  C12 UNL     1       6.162  -2.538   0.118  1.00  0.00     0.024 A 
HETATM    4  C13 UNL     1       7.345  -1.912  -0.155  1.00  0.00     0.046 A 
HETATM    5  C14 UNL     1       8.562  -2.671  -0.111  1.00  0.00     0.099 C 
HETATM    6  N3  UNL     1       9.558  -3.271  -0.085  1.00  0.00    -0.191 NA
HETATM    7  C15 UNL     1       7.307  -0.572  -0.461  1.00  0.00     0.052 A 
HETATM    8  C16 UNL     1       6.109   0.137  -0.496  1.00  0.00     0.043 A 
ENDROOT
BRANCH   8   9
HETATM    9  N4  UNL     1       6.236   1.526  -0.831  1.00  0.00    -0.398 N 
HETATM   10  H13 UNL     1       6.203   1.465  -1.882  1.00  0.00     0.156 HD
HETATM   11  H14 UNL     1       6.308   2.022   0.097  1.00  0.00     0.156 HD
ENDBRANCH   8   9
BRANCH   1  12
HETATM   12  C9  UNL     1       3.693   0.319  -0.277  1.00  0.00     0.258 C 
HETATM   13  N2  UNL     1       2.376  -0.141  -0.028  1.00  0.00    -0.325 N 
HETATM   14  H9  UNL     1       2.427  -1.166   0.204  1.00  0.00     0.169 HD
HETATM   15  O1  UNL     1       3.847   1.530  -0.574  1.00  0.00    -0.267 OA
BRANCH  13  16
HETATM   16  C8  UNL     1       1.131   0.535  -0.050  1.00  0.00     0.030 A 
HETATM   17  C7  UNL     1       0.960   1.809  -0.327  1.00  0.00     0.028 A 
HETATM   18  C6  UNL     1      -0.305   2.528  -0.357  1.00  0.00     0.019 A 
HETATM   19  C5  UNL     1      -1.422   1.873  -0.084  1.00  0.00     0.088 A 
HETATM   20  N1  UNL     1      -1.235   0.497   0.214  1.00  0.00    -0.359 N 
HETATM   21  C17 UNL     1      -0.040  -0.304   0.270  1.00  0.00     0.181 A 
BRANCH  20  22
HETATM   22  C4  UNL     1      -2.457  -0.225   0.514  1.00  0.00     0.231 C 
HETATM   23  C3  UNL     1      -3.317  -0.099  -0.719  1.00  0.00     0.025 C 
HETATM   24  C2  UNL     1      -4.623   0.131  -0.739  1.00  0.00    -0.061 C 
HETATM   25  C1  UNL     1      -5.309   0.224  -2.043  1.00  0.00     0.045 C 
HETATM   26  C19 UNL     1      -5.331   0.284   0.562  1.00  0.00     0.070 A 
HETATM   27  C18 UNL     1      -4.396   0.537   1.667  1.00  0.00     0.110 C 
HETATM   28  C20 UNL     1      -6.089  -1.004   0.758  1.00  0.00     0.017 A 
HETATM   29  C22 UNL     1      -6.437   1.254   0.494  1.00  0.00     0.113 A 
HETATM   30  N5  UNL     1      -3.132   0.316   1.654  1.00  0.00    -0.274 NA
HETATM   31  C21 UNL     1      -7.391  -0.754   0.789  1.00  0.00     0.113 A 
HETATM   32  N6  UNL     1      -7.546   0.646   0.622  1.00  0.00    -0.276 NA
ENDBRANCH  20  22
ENDBRANCH  13  16
ENDBRANCH   1  12
TORSDOF 4
