REMARK  5 active torsions:
REMARK  status: ('A' for Active; 'I' for Inactive)
REMARK    1  A    between atoms: C7_7  and  C8_8 
REMARK       I    between atoms: C8_8  and  N1_10 
REMARK    2  A    between atoms: N1_10  and  C9_11 
REMARK    3  A    between atoms: C13_15  and  N2_16 
REMARK    4  A    between atoms: C16_20  and  C17_21 
REMARK    5  A    between atoms: C21_26  and  O2_27 
ROOT
HETATM    1  C9  UNL     1       1.315  -1.372   0.351  1.00  0.00     0.037 A 
HETATM    2  C10 UNL     1       1.802  -2.669   0.571  1.00  0.00     0.029 A 
HETATM    3  C11 UNL     1       0.901  -3.689   0.913  1.00  0.00     0.005 A 
HETATM    4  C12 UNL     1      -0.427  -3.326   1.008  1.00  0.00     0.032 A 
HETATM    5  C13 UNL     1      -0.918  -2.059   0.796  1.00  0.00     0.059 A 
HETATM    6  C22 UNL     1      -0.013  -1.076   0.461  1.00  0.00     0.061 A 
ENDROOT
BRANCH   5   7
HETATM    7  N2  UNL     1      -2.303  -1.776   0.934  1.00  0.00    -0.250 N 
HETATM    8  C14 UNL     1      -3.174  -2.698   1.625  1.00  0.00     0.232 A 
HETATM    9  N3  UNL     1      -4.425  -2.399   1.717  1.00  0.00    -0.252 NA
HETATM   10  C15 UNL     1      -4.963  -1.208   1.166  1.00  0.00     0.149 A 
HETATM   11  C16 UNL     1      -4.272  -0.292   0.516  1.00  0.00     0.080 A 
HETATM   12  N5  UNL     1      -2.902  -0.627   0.420  1.00  0.00    -0.291 N 
HETATM   13  H18 UNL     1      -2.254  -0.004  -0.061  1.00  0.00     0.187 HD
BRANCH  11  14
HETATM   14  C17 UNL     1      -4.918   0.886  -0.005  1.00  0.00     0.046 A 
HETATM   15  C18 UNL     1      -6.263   1.093   0.181  1.00  0.00     0.020 A 
HETATM   16  C19 UNL     1      -6.937   2.194  -0.300  1.00  0.00     0.020 A 
HETATM   17  C20 UNL     1      -6.274   3.185  -1.020  1.00  0.00     0.119 A 
HETATM   18  N4  UNL     1      -4.967   2.987  -1.202  1.00  0.00    -0.236 NA
HETATM   19  C21 UNL     1      -4.341   1.909  -0.725  1.00  0.00     0.174 A 
BRANCH  19  20
HETATM   20  O2  UNL     1      -2.992   1.858  -1.001  1.00  0.00    -0.344 OA
HETATM   21  H17 UNL     1      -2.425   2.627  -1.284  1.00  0.00     0.219 HD
ENDBRANCH  19  20
ENDBRANCH  11  14
ENDBRANCH   5   7
BRANCH   1  22
HETATM   22  N1  UNL     1       2.370  -0.469   0.023  1.00  0.00    -0.323 N 
HETATM   23  C8  UNL     1       3.134   0.086  -1.049  1.00  0.00     0.256 C 
HETATM   24  O1  UNL     1       2.948  -0.220  -2.255  1.00  0.00    -0.267 OA
HETATM   25  H8  UNL     1       2.560  -0.170   1.029  1.00  0.00     0.169 HD
BRANCH  23  26
HETATM   26  C7  UNL     1       4.162   1.051  -0.599  1.00  0.00     0.038 A 
HETATM   27  C2  UNL     1       5.440   0.508  -0.741  1.00  0.00    -0.046 A 
HETATM   28  C1  UNL     1       5.751  -0.841  -1.279  1.00  0.00     0.049 C 
HETATM   29  C3  UNL     1       6.527   1.287  -0.351  1.00  0.00     0.007 A 
HETATM   30  C4  UNL     1       6.357   2.555   0.161  1.00  0.00     0.001 A 
HETATM   31  C5  UNL     1       5.074   3.050   0.282  1.00  0.00     0.001 A 
HETATM   32  C6  UNL     1       3.967   2.315  -0.091  1.00  0.00     0.017 A 
ENDBRANCH  23  26
ENDBRANCH   1  22
TORSDOF 5
