REMARK  1 active torsions:
REMARK  status: ('A' for Active; 'I' for Inactive)
REMARK    1  A    between atoms: C2_2  and  C3_3 
ROOT
HETATM    1  C3  UNL     1       1.827  -1.017  -0.212  1.00  0.00     0.162 C 
HETATM    2  N1  UNL     1       1.267  -2.029   0.640  1.00  0.00    -0.387 N 
HETATM    3  C4  UNL     1       1.074  -3.432   0.584  1.00  0.00     0.080 C 
HETATM    4  C5  UNL     1      -0.175  -3.603   0.045  1.00  0.00    -0.004 C 
HETATM    5  C6  UNL     1      -1.378  -2.883  -0.494  1.00  0.00     0.050 C 
HETATM    6  C7  UNL     1      -1.587  -1.528  -0.631  1.00  0.00     0.008 C 
HETATM    7  C8  UNL     1      -2.715  -0.707  -1.133  1.00  0.00     0.123 C 
HETATM    8  C9  UNL     1      -2.493  -0.010  -2.414  1.00  0.00     0.114 C 
HETATM    9  N2  UNL     1      -2.363   1.295  -2.547  1.00  0.00    -0.273 NA
HETATM   10  C10 UNL     1      -2.048   2.076  -1.362  1.00  0.00     0.145 C 
HETATM   11  C11 UNL     1      -1.940   1.303  -0.293  1.00  0.00     0.059 C 
HETATM   12  N3  UNL     1      -3.040   0.362  -0.150  1.00  0.00    -0.379 N 
HETATM   13  C12 UNL     1      -0.710   1.680   0.464  1.00  0.00     0.024 A 
HETATM   14  C13 UNL     1      -1.208   2.734   1.204  1.00  0.00     0.017 A 
HETATM   15  C14 UNL     1      -0.406   3.435   2.121  1.00  0.00     0.020 A 
HETATM   16  C15 UNL     1       0.910   3.087   2.305  1.00  0.00     0.117 A 
HETATM   17  N4  UNL     1       1.326   2.057   1.551  1.00  0.00    -0.256 NA
HETATM   18  C16 UNL     1       0.607   1.367   0.675  1.00  0.00     0.117 A 
HETATM   19  C17 UNL     1       1.392   0.342   0.010  1.00  0.00     0.201 C 
HETATM   20  O1  UNL     1       2.064   1.022  -0.852  1.00  0.00    -0.288 OA
HETATM   21  H5  UNL     1       0.847  -1.915   1.611  1.00  0.00     0.159 HD
HETATM   22  H13 UNL     1      -3.857   0.424   0.488  1.00  0.00     0.160 HD
ENDROOT
BRANCH   1  23
HETATM   23  C2  UNL     1       3.301  -1.206  -0.306  1.00  0.00     0.022 C 
HETATM   24  C1  UNL     1       4.092  -0.142  -0.205  1.00  0.00     0.008 C 
ENDBRANCH   1  23
TORSDOF 1
