REMARK  6 active torsions:
REMARK  status: ('A' for Active; 'I' for Inactive)
REMARK    1  A    between atoms: C2_2  and  C3_3 
REMARK    2  A    between atoms: C6_6  and  N1_7 
REMARK    3  A    between atoms: N1_7  and  C7_8 
REMARK    4  A    between atoms: C10_13  and  N4_14 
REMARK    5  A    between atoms: N4_14  and  C11_15 
REMARK    6  A    between atoms: C17_22  and  O1_23 
ROOT
HETATM    1  C7  UNL     1      -0.381  -1.472   0.047  1.00  0.00     0.093 A 
HETATM    2  C8  UNL     1       0.371  -2.090  -0.929  1.00  0.00     0.151 A 
HETATM    3  N2  UNL     1      -0.022  -3.134  -1.664  1.00  0.00    -0.252 NA
HETATM    4  C9  UNL     1      -1.241  -3.640  -1.454  1.00  0.00     0.235 A 
HETATM    5  N3  UNL     1      -2.046  -3.104  -0.523  1.00  0.00    -0.222 NA
HETATM    6  C10 UNL     1      -1.633  -2.047   0.213  1.00  0.00     0.157 A 
ENDROOT
BRANCH   1   7
HETATM    7  N1  UNL     1       0.057  -0.364   0.815  1.00  0.00    -0.372 N 
HETATM    8  H8  UNL     1      -0.609   0.010   1.525  1.00  0.00     0.161 HD
BRANCH   7   9
HETATM    9  C6  UNL     1       1.347   0.201   0.614  1.00  0.00     0.161 C 
HETATM   10  C5  UNL     1       2.473  -0.745   0.833  1.00  0.00     0.002 C 
HETATM   11  C4  UNL     1       3.691  -0.327   0.508  1.00  0.00    -0.016 C 
HETATM   12  C3  UNL     1       3.772   1.056  -0.043  1.00  0.00     0.054 C 
HETATM   13  C18 UNL     1       2.705   1.133  -1.093  1.00  0.00     0.020 C 
HETATM   14  C17 UNL     1       1.490   0.709  -0.776  1.00  0.00     0.066 C 
BRANCH  12  15
HETATM   15  C2  UNL     1       5.092   1.400  -0.572  1.00  0.00    -0.024 C 
HETATM   16  C1  UNL     1       5.710   2.444  -0.010  1.00  0.00     0.008 C 
ENDBRANCH  12  15
BRANCH  14  17
HETATM   17  O1  UNL     1       0.585   0.826  -1.821  1.00  0.00    -0.363 OA
HETATM   18  H16 UNL     1       0.277   1.723  -2.190  1.00  0.00     0.217 HD
ENDBRANCH  14  17
ENDBRANCH   7   9
ENDBRANCH   1   7
BRANCH   6  19
HETATM   19  N4  UNL     1      -2.502  -1.484   1.205  1.00  0.00    -0.339 N 
HETATM   20  H11 UNL     1      -2.544  -1.780   2.205  1.00  0.00     0.167 HD
BRANCH  19  21
HETATM   21  C11 UNL     1      -3.354  -0.442   0.737  1.00  0.00     0.035 A 
HETATM   22  C12 UNL     1      -3.319  -0.035  -0.568  1.00  0.00     0.029 A 
HETATM   23  C13 UNL     1      -4.120   0.972  -1.089  1.00  0.00     0.004 A 
HETATM   24  C14 UNL     1      -5.000   1.579  -0.193  1.00  0.00     0.019 A 
HETATM   25  C15 UNL     1      -5.058   1.190   1.129  1.00  0.00     0.013 A 
HETATM   26 BR1  UNL     1      -6.296   2.073   2.304  1.00  0.00    -0.051 Br
HETATM   27  C16 UNL     1      -4.239   0.179   1.608  1.00  0.00     0.048 A 
ENDBRANCH  19  21
ENDBRANCH   6  19
TORSDOF 6
