REMARK  4 active torsions:
REMARK  status: ('A' for Active; 'I' for Inactive)
REMARK    1  A    between atoms: O1_1  and  C1_2 
REMARK    2  A    between atoms: C8_9  and  N1_10 
REMARK    3  A    between atoms: N1_10  and  C9_11 
REMARK    4  A    between atoms: C12_15  and  C13_16 
ROOT
HETATM    1  N1  UNL     1      -0.083  -2.763  -0.533  1.00  0.00    -0.335 N 
HETATM    2  H6  UNL     1       0.375  -3.588  -0.168  1.00  0.00     0.168 HD
ENDROOT
BRANCH   1   3
HETATM    3  C8  UNL     1      -1.426  -2.407  -0.596  1.00  0.00     0.095 C 
HETATM    4  C7  UNL     1      -2.553  -1.906  -0.033  1.00  0.00    -0.051 C 
HETATM    5  C6  UNL     1      -1.639  -1.766   1.183  1.00  0.00     0.116 C 
HETATM    6  C18 UNL     1      -3.719  -1.371   0.621  1.00  0.00     0.063 C 
HETATM    7  C5  UNL     1      -1.743  -0.326   1.644  1.00  0.00    -0.172 C 
HETATM    8  C4  UNL     1      -1.821   0.726   2.007  1.00  0.00     0.022 C 
HETATM    9  C3  UNL     1      -1.910   2.258   2.561  1.00  0.00     0.101 C 
HETATM   10  C2  UNL     1      -3.203   2.651   2.484  1.00  0.00    -0.009 C 
HETATM   11  C1  UNL     1      -3.718   2.568   1.250  1.00  0.00     0.072 C 
HETATM   12  C20 UNL     1      -3.819   1.217   0.705  1.00  0.00     0.033 C 
HETATM   13  C19 UNL     1      -3.962   0.051   0.043  1.00  0.00    -0.020 C 
BRANCH  11  14
HETATM   14  O1  UNL     1      -4.266   3.049   0.048  1.00  0.00    -0.360 OA
HETATM   15  H1  UNL     1      -4.985   3.806   0.057  1.00  0.00     0.217 HD
ENDBRANCH  11  14
ENDBRANCH   1   3
BRANCH   1  16
HETATM   16  C9  UNL     1       0.835  -1.875  -1.046  1.00  0.00     0.220 A 
HETATM   17  N2  UNL     1       0.899  -1.242  -2.112  1.00  0.00    -0.247 NA
HETATM   18  C10 UNL     1       1.405  -0.394  -2.992  1.00  0.00     0.154 A 
HETATM   19  C11 UNL     1       2.719   0.235  -2.444  1.00  0.00     0.060 A 
HETATM   20  C12 UNL     1       2.388  -0.452  -1.626  1.00  0.00     0.115 A 
HETATM   21  N4  UNL     1       2.085  -1.313  -0.458  1.00  0.00    -0.237 NA
BRANCH  20  22
HETATM   22  C13 UNL     1       3.531   0.140  -0.583  1.00  0.00    -0.008 A 
HETATM   23  C14 UNL     1       4.276   1.207  -0.869  1.00  0.00     0.013 A 
HETATM   24  C15 UNL     1       5.325   2.243  -0.633  1.00  0.00     0.020 A 
HETATM   25  C16 UNL     1       5.437   1.523   0.515  1.00  0.00     0.116 A 
HETATM   26  N3  UNL     1       5.135   0.561   1.339  1.00  0.00    -0.272 NA
HETATM   27  C17 UNL     1       4.069  -0.218   0.725  1.00  0.00     0.126 A 
ENDBRANCH  20  22
ENDBRANCH   1  16
TORSDOF 4
