REMARK  6 active torsions:
REMARK  status: ('A' for Active; 'I' for Inactive)
REMARK    1  A    between atoms: O1_2  and  C2_3 
REMARK    2  A    between atoms: C7_8  and  C8_9 
REMARK       I    between atoms: C8_9  and  N1_11 
REMARK    3  A    between atoms: N1_11  and  C9_12 
REMARK    4  A    between atoms: C10_13  and  C11_14 
REMARK    5  A    between atoms: C11_14  and  C12_15 
REMARK    6  A    between atoms: C12_15  and  C13_16 
ROOT
HETATM    1  C13 UNL     1       2.518  -3.474  -0.436  1.00  0.00     0.066 A 
HETATM    2  C14 UNL     1       2.486  -2.170  -0.302  1.00  0.00     0.124 A 
HETATM    3  N2  UNL     1       2.055  -0.848  -0.192  1.00  0.00    -0.275 NA
HETATM    4  C15 UNL     1       2.403   0.294   0.098  1.00  0.00     0.197 C 
HETATM    5  C16 UNL     1       3.707   0.753   0.533  1.00  0.00     0.035 A 
HETATM    6  C17 UNL     1       3.132   1.992   1.023  1.00  0.00     0.101 A 
HETATM    7  N3  UNL     1       3.632   3.109   1.644  1.00  0.00    -0.276 NA
HETATM    8  C18 UNL     1       4.951   3.138   1.889  1.00  0.00     0.116 A 
HETATM    9  C19 UNL     1       5.671   2.056   1.501  1.00  0.00     0.027 A 
HETATM   10  C20 UNL     1       5.077   1.016   0.901  1.00  0.00    -0.044 A 
HETATM   11  C21 UNL     1       5.987  -0.045   0.499  1.00  0.00     0.027 C 
HETATM   12  C22 UNL     1       6.260  -1.227   0.020  1.00  0.00     0.119 C 
HETATM   13  N4  UNL     1       4.933  -1.341  -0.087  1.00  0.00    -0.241 NA
HETATM   14  C23 UNL     1       3.970  -2.090  -0.190  1.00  0.00     0.158 A 
HETATM   15  N5  UNL     1       3.909  -3.505  -0.339  1.00  0.00    -0.337 N 
HETATM   16  H19 UNL     1       4.341  -4.458  -0.407  1.00  0.00     0.167 HD
ENDROOT
BRANCH   1  17
HETATM   17  C12 UNL     1       1.149  -3.776  -0.563  1.00  0.00     0.032 C 
BRANCH  17  18
HETATM   18  C11 UNL     1      -0.106  -3.761  -0.646  1.00  0.00     0.004 C 
BRANCH  18  19
HETATM   19  C10 UNL     1      -0.957  -2.583  -0.573  1.00  0.00     0.017 C 
HETATM   20  C9  UNL     1      -2.230  -2.264  -0.619  1.00  0.00     0.091 C 
BRANCH  20  21
HETATM   21  N1  UNL     1      -3.049  -1.128  -0.550  1.00  0.00    -0.333 N 
HETATM   22  C8  UNL     1      -2.752   0.240  -0.376  1.00  0.00     0.258 C 
HETATM   23  O2  UNL     1      -1.521   0.428  -0.257  1.00  0.00    -0.267 OA
HETATM   24  H8  UNL     1      -4.065  -1.405  -0.660  1.00  0.00     0.168 HD
BRANCH  22  25
HETATM   25  C7  UNL     1      -3.689   1.342  -0.331  1.00  0.00     0.065 A 
HETATM   26  C2  UNL     1      -5.050   1.328  -0.442  1.00  0.00     0.084 A 
HETATM   27  C3  UNL     1      -5.832   2.458  -0.389  1.00  0.00     0.038 A 
HETATM   28  C4  UNL     1      -5.235   3.665  -0.211  1.00  0.00     0.003 A 
HETATM   29  C5  UNL     1      -3.859   3.769  -0.088  1.00  0.00     0.001 A 
HETATM   30  C6  UNL     1      -3.141   2.609  -0.152  1.00  0.00     0.020 A 
BRANCH  26  31
HETATM   31  O1  UNL     1      -5.645   0.116  -0.621  1.00  0.00    -0.355 OA
HETATM   32  C1  UNL     1      -7.036  -0.006  -0.752  1.00  0.00     0.210 C 
ENDBRANCH  26  31
ENDBRANCH  22  25
ENDBRANCH  20  21
ENDBRANCH  18  19
ENDBRANCH  17  18
ENDBRANCH   1  17
TORSDOF 6
