REMARK  9 active torsions:
REMARK  status: ('A' for Active; 'I' for Inactive)
REMARK    1  A    between atoms: O1_2  and  C2_3 
REMARK    2  A    between atoms: C7_8  and  N1_9 
REMARK    3  A    between atoms: N1_9  and  C8_10 
REMARK    4  A    between atoms: N1_9  and  O2_27 
REMARK    5  A    between atoms: C8_10  and  C9_11 
REMARK    6  A    between atoms: C9_11  and  C10_12 
REMARK    7  A    between atoms: C11_13  and  C12_14 
REMARK    8  A    between atoms: C12_14  and  N2_15 
REMARK    9  A    between atoms: N2_15  and  C13_16 
ROOT
HETATM    1  C10 UNL     1      -0.004   1.345  -0.482  1.00  0.00    -0.004 C 
HETATM    2  C11 UNL     1       1.244   1.676  -0.753  1.00  0.00    -0.008 C 
ENDROOT
BRANCH   2   3
HETATM    3  C12 UNL     1       2.366   2.130  -1.613  1.00  0.00     0.148 C 
BRANCH   3   4
HETATM    4  N2  UNL     1       3.360   1.041  -1.596  1.00  0.00    -0.371 N 
HETATM    5  H14 UNL     1       3.617   0.438  -2.415  1.00  0.00     0.161 HD
BRANCH   4   6
HETATM    6  C13 UNL     1       4.037   0.797  -0.344  1.00  0.00     0.134 C 
HETATM    7  N3  UNL     1       4.095   1.760   0.520  1.00  0.00    -0.243 NA
HETATM    8  C14 UNL     1       4.720   1.722   1.819  1.00  0.00     0.115 C 
HETATM    9  C15 UNL     1       5.756   0.926   2.115  1.00  0.00    -0.003 C 
HETATM   10  C16 UNL     1       6.567  -0.078   1.378  1.00  0.00     0.069 C 
HETATM   11  C17 UNL     1       5.704  -0.960   0.529  1.00  0.00    -0.023 A 
HETATM   12  C18 UNL     1       6.056  -2.310   0.492  1.00  0.00     0.124 A 
HETATM   13  C21 UNL     1       4.592  -0.567  -0.220  1.00  0.00     0.019 A 
HETATM   14  N4  UNL     1       5.327  -3.160  -0.245  1.00  0.00    -0.273 NA
HETATM   15  C19 UNL     1       4.256  -2.758  -0.961  1.00  0.00     0.117 A 
HETATM   16  C20 UNL     1       3.826  -1.426  -0.987  1.00  0.00     0.035 A 
ENDBRANCH   4   6
ENDBRANCH   3   4
ENDBRANCH   2   3
BRANCH   1  17
HETATM   17  C9  UNL     1      -0.814   0.884   0.665  1.00  0.00     0.003 C 
BRANCH  17  18
HETATM   18  C8  UNL     1      -2.020   0.746   0.206  1.00  0.00     0.167 C 
BRANCH  18  19
HETATM   19  N1  UNL     1      -3.377   0.512   0.003  1.00  0.00    -0.245 N 
BRANCH  19  20
HETATM   20  C7  UNL     1      -4.027  -0.772  -0.127  1.00  0.00     0.091 A 
HETATM   21  C2  UNL     1      -5.387  -0.738  -0.304  1.00  0.00     0.097 A 
HETATM   22  C3  UNL     1      -6.009  -1.976  -0.428  1.00  0.00     0.039 A 
HETATM   23  C4  UNL     1      -5.240  -3.123  -0.366  1.00  0.00     0.003 A 
HETATM   24  C5  UNL     1      -3.853  -3.088  -0.183  1.00  0.00     0.002 A 
HETATM   25  C6  UNL     1      -3.211  -1.872  -0.057  1.00  0.00     0.034 A 
BRANCH  21  26
HETATM   26  O1  UNL     1      -6.018   0.493  -0.345  1.00  0.00    -0.354 OA
HETATM   27  C1  UNL     1      -7.415   0.553  -0.526  1.00  0.00     0.210 C 
ENDBRANCH  21  26
ENDBRANCH  19  20
BRANCH  19  28
HETATM   28  O2  UNL     1      -4.066   1.701  -0.077  1.00  0.00    -0.282 OA
HETATM   29  C22 UNL     1      -3.725   2.447   1.073  1.00  0.00     0.238 C 
ENDBRANCH  19  28
ENDBRANCH  18  19
ENDBRANCH  17  18
ENDBRANCH   1  17
TORSDOF 9
