REMARK  7 active torsions:
REMARK  status: ('A' for Active; 'I' for Inactive)
REMARK    1  A    between atoms: C3_3  and  C4_4 
REMARK    2  A    between atoms: C4_4  and  N2_18 
REMARK    3  A    between atoms: C5_5  and  C6_6 
REMARK    4  A    between atoms: C6_6  and  N1_7 
REMARK       I    between atoms: N1_7  and  C7_8 
REMARK    5  A    between atoms: C7_8  and  C8_10 
REMARK    6  A    between atoms: C13_15  and  O2_16 
REMARK    7  A    between atoms: N2_18  and  C15_19 
ROOT
HETATM    1  C4  UNL     1      -1.746  -0.757   0.731  1.00  0.00     0.046 C 
HETATM    2  C5  UNL     1      -0.753   0.057   1.110  1.00  0.00     0.022 C 
ENDROOT
BRANCH   2   3
HETATM    3  C6  UNL     1      -0.042   1.135   0.431  1.00  0.00     0.152 C 
BRANCH   3   4
HETATM    4  N1  UNL     1       1.353   1.125   0.395  1.00  0.00    -0.353 N 
HETATM    5  C7  UNL     1       2.471   0.479   0.042  1.00  0.00     0.254 C 
HETATM    6  O1  UNL     1       2.214  -0.657  -0.520  1.00  0.00    -0.268 OA
HETATM    7  H9  UNL     1       1.775   1.987   0.829  1.00  0.00     0.163 HD
BRANCH   5   8
HETATM    8  C8  UNL     1       3.808   0.188  -0.140  1.00  0.00     0.065 A 
HETATM    9  C9  UNL     1       4.094   1.555   0.450  1.00  0.00     0.020 A 
HETATM   10  C10 UNL     1       5.315   2.267   0.714  1.00  0.00     0.001 A 
HETATM   11  C11 UNL     1       6.535   1.641   0.390  1.00  0.00     0.003 A 
HETATM   12  C12 UNL     1       6.344   0.371  -0.160  1.00  0.00     0.038 A 
HETATM   13  C13 UNL     1       5.085  -0.090  -0.313  1.00  0.00     0.084 A 
BRANCH  13  14
HETATM   14  O2  UNL     1       4.619  -1.347  -0.846  1.00  0.00    -0.355 OA
HETATM   15  C14 UNL     1       5.616  -2.235  -1.271  1.00  0.00     0.210 C 
ENDBRANCH  13  14
ENDBRANCH   5   8
ENDBRANCH   3   4
ENDBRANCH   2   3
BRANCH   1  16
HETATM   16  C3  UNL     1      -2.271  -1.782   1.656  1.00  0.00     0.025 C 
HETATM   17  C2  UNL     1      -3.255  -2.590   1.360  1.00  0.00    -0.029 C 
HETATM   18  C1  UNL     1      -3.799  -3.629   2.266  1.00  0.00     0.036 C 
ENDBRANCH   1  16
BRANCH   1  19
HETATM   19  N2  UNL     1      -2.116  -0.330  -0.588  1.00  0.00    -0.189 N 
HETATM   20  H17 UNL     1      -1.421  -0.465  -1.375  1.00  0.00     0.184 HD
BRANCH  19  21
HETATM   21  C15 UNL     1      -3.388   0.280  -0.873  1.00  0.00     0.722 A 
HETATM   22  N3  UNL     1      -4.459  -0.124  -0.307  1.00  0.00    -0.100 NA
HETATM   23  C16 UNL     1      -5.559   0.690  -0.803  1.00  0.00     0.223 A 
HETATM   24  C17 UNL     1      -4.908   1.626  -1.751  1.00  0.00     0.048 A 
HETATM   25  C18 UNL     1      -5.485   2.701  -2.580  1.00  0.00     0.068 C 
HETATM   26  N4  UNL     1      -3.632   1.346  -1.757  1.00  0.00    -0.071 NA
ENDBRANCH  19  21
ENDBRANCH   1  19
TORSDOF 7
