REMARK  6 active torsions:
REMARK  status: ('A' for Active; 'I' for Inactive)
REMARK    1  A    between atoms: C2_2  and  N1_3 
REMARK    2  A    between atoms: N1_3  and  C3_4 
REMARK    3  A    between atoms: C4_5  and  C5_6 
REMARK    4  A    between atoms: C6_7  and  C7_8 
REMARK    5  A    between atoms: C8_9  and  C9_10 
REMARK    6  A    between atoms: C9_10  and  N2_11 
ROOT
HETATM    1  C7  UNL     1       0.369   0.020  -1.323  1.00  0.00    -0.017 A 
HETATM    2  C8  UNL     1      -0.962   0.109  -1.502  1.00  0.00     0.033 A 
HETATM    3  N4  UNL     1      -0.829  -0.856  -2.532  1.00  0.00    -0.387 N 
HETATM    4  C16 UNL     1       0.605  -0.992  -2.384  1.00  0.00     0.160 A 
HETATM    5  H20 UNL     1      -1.548  -1.298  -3.165  1.00  0.00     0.159 HD
ENDROOT
BRANCH   2   6
HETATM    6  C9  UNL     1      -2.084   0.871  -0.900  1.00  0.00     0.206 C 
BRANCH   6   7
HETATM    7  N2  UNL     1      -3.053  -0.046  -0.340  1.00  0.00    -0.286 NA
HETATM    8  C10 UNL     1      -4.147   0.292   0.200  1.00  0.00     0.057 A 
HETATM    9  C11 UNL     1      -4.623   1.667   0.352  1.00  0.00     0.089 A 
HETATM   10  C14 UNL     1      -4.924  -0.873   0.679  1.00  0.00     0.054 A 
HETATM   11  C12 UNL     1      -5.950   1.617   1.038  1.00  0.00    -0.001 A 
HETATM   12  C13 UNL     1      -6.598   0.536   1.444  1.00  0.00     0.113 A 
HETATM   13  N3  UNL     1      -6.075  -0.785   1.265  1.00  0.00    -0.264 NA
HETATM   14  C15 UNL     1      -4.456  -2.295   0.534  1.00  0.00     0.072 C 
ENDBRANCH   6   7
ENDBRANCH   2   6
BRANCH   1  15
HETATM   15  C6  UNL     1       1.247   0.727  -0.365  1.00  0.00     0.011 C 
HETATM   16  C5  UNL     1       2.558   0.563  -0.272  1.00  0.00     0.002 C 
BRANCH  16  17
HETATM   17  C4  UNL     1       3.544  -0.248  -0.957  1.00  0.00     0.017 C 
HETATM   18  C3  UNL     1       4.875  -0.376  -0.820  1.00  0.00     0.083 C 
BRANCH  18  19
HETATM   19  N1  UNL     1       5.493   0.417   0.179  1.00  0.00    -0.399 N 
HETATM   20  H6  UNL     1       5.482   1.459   0.257  1.00  0.00     0.158 HD
BRANCH  19  21
HETATM   21  C2  UNL     1       6.150  -0.532   1.077  1.00  0.00     0.114 C 
HETATM   22  C1  UNL     1       6.846   0.220   2.189  1.00  0.00     0.026 C 
ENDBRANCH  19  21
ENDBRANCH  18  19
ENDBRANCH  16  17
ENDBRANCH   1  15
TORSDOF 6
