REMARK  0 active torsions:
REMARK  status: ('A' for Active; 'I' for Inactive)
ROOT
HETATM    1  C1  UNL     1      -4.056  -0.658  -0.830  1.00  0.00     0.050 C 
HETATM    2  C2  UNL     1      -2.624  -1.129  -0.960  1.00  0.00    -0.035 C 
HETATM    3  C3  UNL     1      -2.159  -2.245  -1.696  1.00  0.00     0.011 C 
HETATM    4  C4  UNL     1      -0.833  -2.618  -1.758  1.00  0.00     0.041 C 
HETATM    5  C5  UNL     1       0.151  -1.965  -1.134  1.00  0.00     0.177 C 
HETATM    6  C6  UNL     1      -0.785  -1.136  -0.678  1.00  0.00     0.070 C 
HETATM    7  C7  UNL     1      -1.764  -0.267  -0.200  1.00  0.00     0.037 C 
HETATM    8  N1  UNL     1      -1.870   0.835   0.609  1.00  0.00    -0.367 N 
HETATM    9  C8  UNL     1      -0.918   1.941   0.666  1.00  0.00     0.201 C 
HETATM   10  C9  UNL     1      -1.393   2.824   1.793  1.00  0.00     0.057 C 
HETATM   11  N2  UNL     1       0.437   1.613   0.758  1.00  0.00    -0.276 NA
HETATM   12  C10 UNL     1       1.427   2.342   1.143  1.00  0.00     0.124 C 
HETATM   13  C11 UNL     1       2.311   1.168   0.885  1.00  0.00    -0.019 A 
HETATM   14  C12 UNL     1       2.798   1.087  -0.419  1.00  0.00     0.014 A 
HETATM   15  C13 UNL     1       3.461   0.087  -1.084  1.00  0.00     0.017 A 
HETATM   16  C14 UNL     1       3.366  -0.623   0.083  1.00  0.00     0.028 A 
HETATM   17  C15 UNL     1       3.104  -1.013   1.359  1.00  0.00     0.017 A 
HETATM   18  C16 UNL     1       2.467   0.117   1.803  1.00  0.00     0.014 A 
HETATM   19  C17 UNL     1       2.994  -1.926  -0.735  1.00  0.00     0.323 A 
HETATM   20  O1  UNL     1       2.576  -2.934  -1.383  1.00  0.00    -0.119 OA
HETATM   21  N3  UNL     1       1.548  -1.945  -0.937  1.00  0.00     0.138 N 
HETATM   22  H7  UNL     1      -2.737   0.778   1.196  1.00  0.00     0.161 HD
HETATM   23  H17 UNL     1       1.314  -1.097  -0.337  1.00  0.00     0.335 HD
ENDROOT
TORSDOF 0
