REMARK  4 active torsions:
REMARK  status: ('A' for Active; 'I' for Inactive)
REMARK    1  A    between atoms: C5_5  and  N5_27 
REMARK    2  A    between atoms: N1_7  and  C7_8 
REMARK    3  A    between atoms: C9_11  and  C16_20 
REMARK    4  A    between atoms: C20_24  and  C21_25 
ROOT
HETATM    1  C7  UNL     1       0.789   1.716   1.563  1.00  0.00     0.271 A 
HETATM    2  N2  UNL     1       0.333   1.164   2.779  1.00  0.00    -0.247 NA
HETATM    3  C8  UNL     1       0.683  -0.202   2.621  1.00  0.00     0.127 A 
HETATM    4  C9  UNL     1       1.255  -0.125   1.379  1.00  0.00     0.015 A 
HETATM    5  C10 UNL     1       1.758   0.226   0.178  1.00  0.00     0.077 A 
HETATM    6  C11 UNL     1       2.410  -0.045  -1.043  1.00  0.00     0.011 A 
HETATM    7  C12 UNL     1       1.736   0.356  -2.185  1.00  0.00     0.017 A 
HETATM    8  C13 UNL     1       2.389   0.127  -3.371  1.00  0.00     0.020 A 
HETATM    9  C14 UNL     1       3.638  -0.472  -3.332  1.00  0.00     0.116 A 
HETATM   10  N3  UNL     1       4.283  -0.859  -2.193  1.00  0.00    -0.272 NA
HETATM   11  C15 UNL     1       3.678  -0.650  -1.024  1.00  0.00     0.130 A 
HETATM   12  N4  UNL     1       1.414   1.600   0.311  1.00  0.00    -0.234 NA
ENDROOT
BRANCH   4  13
HETATM   13  C16 UNL     1       0.563  -1.359   0.937  1.00  0.00     0.140 C 
HETATM   14  C17 UNL     1       0.993  -2.090  -0.248  1.00  0.00    -0.001 C 
HETATM   15  C18 UNL     1       0.147  -3.169  -0.357  1.00  0.00    -0.026 C 
HETATM   16  C19 UNL     1      -0.989  -3.483   0.600  1.00  0.00     0.059 C 
HETATM   17  C20 UNL     1      -1.780  -2.176   0.721  1.00  0.00     0.145 C 
HETATM   18  N5  UNL     1      -0.881  -1.053   0.662  1.00  0.00    -0.384 N 
BRANCH  17  19
HETATM   19  C21 UNL     1      -2.757  -2.177  -0.431  1.00  0.00     0.256 C 
HETATM   20  O1  UNL     1      -3.512  -3.138  -0.350  1.00  0.00    -0.305 OA
ENDBRANCH  17  19
BRANCH  18  21
HETATM   21  C5  UNL     1      -1.508   0.235   0.340  1.00  0.00     0.032 A 
HETATM   22  C4  UNL     1      -2.481   1.208  -0.227  1.00  0.00     0.052 A 
HETATM   23  C3  UNL     1      -2.370   2.567   0.352  1.00  0.00     0.033 A 
HETATM   24  C6  UNL     1      -1.093   1.463   0.715  1.00  0.00     0.141 A 
HETATM   25  C2  UNL     1      -1.380   3.318   0.896  1.00  0.00     0.040 A 
HETATM   26  C1  UNL     1      -0.954   4.652   1.293  1.00  0.00     0.035 C 
HETATM   27  N1  UNL     1      -0.228   2.613   1.272  1.00  0.00    -0.247 N 
ENDBRANCH  18  21
ENDBRANCH   4  13
TORSDOF 4
