REMARK  3 active torsions:
REMARK  status: ('A' for Active; 'I' for Inactive)
REMARK    1  A    between atoms: C3_5  and  N3_6 
REMARK    2  A    between atoms: N3_6  and  C4_7 
REMARK    3  A    between atoms: C16_21  and  O1_22 
ROOT
HETATM    1  N1  UNL     1      -1.817  -3.274  -0.228  1.00  0.00    -0.298 NA
HETATM    2  C1  UNL     1      -0.621  -2.812  -0.146  1.00  0.00     0.105 A 
HETATM    3  C2  UNL     1       0.575  -3.593  -0.417  1.00  0.00     0.151 A 
HETATM    4  N2  UNL     1       1.706  -2.987  -0.291  1.00  0.00    -0.241 NA
HETATM    5  C3  UNL     1       1.802  -1.622   0.092  1.00  0.00     0.129 A 
HETATM    6  C10 UNL     1       0.736  -0.889   0.343  1.00  0.00     0.093 A 
HETATM    7  C11 UNL     1      -0.690  -1.369   0.265  1.00  0.00     0.228 A 
HETATM    8  N4  UNL     1      -1.232  -1.250   1.583  1.00  0.00    -0.257 NA
HETATM    9  C12 UNL     1      -1.821  -0.281   2.116  1.00  0.00     0.092 C 
HETATM   10  C13 UNL     1      -2.174   1.075   1.601  1.00  0.00     0.088 C 
HETATM   11  C14 UNL     1      -2.997   0.876   0.357  1.00  0.00    -0.017 A 
HETATM   12  C15 UNL     1      -4.176   1.571   0.298  1.00  0.00     0.046 A 
HETATM   13  C16 UNL     1      -4.963   1.402  -0.842  1.00  0.00     0.066 A 
HETATM   14  C17 UNL     1      -4.548   0.563  -1.857  1.00  0.00     0.039 A 
HETATM   15  C18 UNL     1      -3.357  -0.137  -1.793  1.00  0.00     0.040 A 
HETATM   16  C19 UNL     1      -2.574   0.036  -0.648  1.00  0.00     0.079 A 
HETATM   17  O2  UNL     1      -1.428  -0.720  -0.731  1.00  0.00    -0.308 OA
HETATM   18  H1  UNL     1      -1.889  -4.290  -0.513  1.00  0.00     0.187 HD
ENDROOT
BRANCH   5  19
HETATM   19  N3  UNL     1       3.129  -1.159   0.179  1.00  0.00    -0.341 N 
HETATM   20  H3  UNL     1       3.916  -1.769   0.553  1.00  0.00     0.167 HD
BRANCH  19  21
HETATM   21  C4  UNL     1       3.930  -0.021  -0.078  1.00  0.00     0.034 A 
HETATM   22  C5  UNL     1       4.668   0.262  -1.208  1.00  0.00     0.029 A 
HETATM   23  C6  UNL     1       5.385   1.435  -1.264  1.00  0.00     0.004 A 
HETATM   24  C7  UNL     1       5.355   2.296  -0.203  1.00  0.00     0.019 A 
HETATM   25  C8  UNL     1       4.628   2.068   0.969  1.00  0.00     0.013 A 
HETATM   26 BR1  UNL     1       4.612   3.299   2.425  1.00  0.00    -0.051 Br
HETATM   27  C9  UNL     1       3.912   0.873   0.998  1.00  0.00     0.048 A 
ENDBRANCH  19  21
ENDBRANCH   5  19
BRANCH  13  28
HETATM   28  O1  UNL     1      -6.157   2.096  -0.920  1.00  0.00    -0.361 OA
HETATM   29  H13 UNL     1      -6.168   3.060  -0.616  1.00  0.00     0.217 HD
ENDBRANCH  13  28
TORSDOF 3
