REMARK  9 active torsions:
REMARK  status: ('A' for Active; 'I' for Inactive)
REMARK    1  A    between atoms: C1_2  and  C2_3 
REMARK    2  A    between atoms: C2_3  and  C3_4 
REMARK    3  A    between atoms: C3_4  and  C4_5 
REMARK    4  A    between atoms: C4_5  and  N1_13 
REMARK    5  A    between atoms: C5_6  and  C6_7 
REMARK    6  A    between atoms: C7_8  and  O1_9 
REMARK    7  A    between atoms: O1_9  and  C8_10 
REMARK    8  A    between atoms: N1_13  and  C9_14 
REMARK    9  A    between atoms: C12_18  and  C13_19 
ROOT
HETATM    1  N1  UNL     1      -0.167  -0.055  -0.652  1.00  0.00    -0.192 N 
HETATM    2  H11 UNL     1      -0.110  -0.595  -1.535  1.00  0.00     0.184 HD
ENDROOT
BRANCH   1   3
HETATM    3  C4  UNL     1      -1.485   0.376  -0.367  1.00  0.00     0.026 C 
HETATM    4  C5  UNL     1      -2.239  -0.574   0.151  1.00  0.00     0.027 C 
BRANCH   3   5
HETATM    5  C3  UNL     1      -2.047   1.720  -0.592  1.00  0.00     0.060 C 
BRANCH   5   6
HETATM    6  C2  UNL     1      -2.038   2.167  -2.028  1.00  0.00     0.037 C 
BRANCH   6   7
HETATM    7  C1  UNL     1      -2.833   1.251  -2.928  1.00  0.00     0.222 C 
HETATM    8  F1  UNL     1      -2.774   1.721  -4.227  1.00  0.00    -0.255 F 
ENDBRANCH   6   7
ENDBRANCH   5   6
ENDBRANCH   3   5
BRANCH   4   9
HETATM    9  C6  UNL     1      -3.536  -0.977   0.679  1.00  0.00     0.026 C 
HETATM   10  C7  UNL     1      -4.373  -1.852   1.199  1.00  0.00     0.141 C 
BRANCH  10  11
HETATM   11  O1  UNL     1      -5.663  -1.424   1.480  1.00  0.00    -0.302 OA
BRANCH  11  12
HETATM   12  C8  UNL     1      -5.994  -0.562   2.554  1.00  0.00     0.504 C 
HETATM   13  F2  UNL     1      -7.349  -0.296   2.478  1.00  0.00    -0.184 F 
HETATM   14  F3  UNL     1      -5.686  -1.143   3.768  1.00  0.00    -0.184 F 
ENDBRANCH  11  12
ENDBRANCH  10  11
ENDBRANCH   4   9
ENDBRANCH   1   3
BRANCH   1  15
HETATM   15  C9  UNL     1       0.968   0.208   0.161  1.00  0.00     0.727 A 
HETATM   16  N2  UNL     1       0.823   0.933   1.303  1.00  0.00    -0.075 NA
HETATM   17  C10 UNL     1       1.939   1.162   2.061  1.00  0.00     0.139 A 
HETATM   18  C11 UNL     1       3.124   0.634   1.598  1.00  0.00     0.053 A 
HETATM   19  C12 UNL     1       3.298  -0.102   0.446  1.00  0.00     0.087 A 
HETATM   20  N4  UNL     1       2.141  -0.285  -0.250  1.00  0.00    -0.062 NA
BRANCH  19  21
HETATM   21  C13 UNL     1       4.575  -0.633   0.009  1.00  0.00    -0.004 A 
HETATM   22  C14 UNL     1       5.756  -0.470   0.682  1.00  0.00     0.033 A 
HETATM   23  C15 UNL     1       6.942  -1.018   0.188  1.00  0.00     0.117 A 
HETATM   24  N3  UNL     1       6.929  -1.713  -0.960  1.00  0.00    -0.273 NA
HETATM   25  C16 UNL     1       5.775  -1.879  -1.628  1.00  0.00     0.117 A 
HETATM   26  C17 UNL     1       4.559  -1.357  -1.186  1.00  0.00     0.033 A 
ENDBRANCH  19  21
ENDBRANCH   1  15
TORSDOF 9
