REMARK  6 active torsions:
REMARK  status: ('A' for Active; 'I' for Inactive)
REMARK    1  A    between atoms: C3_3  and  C4_4 
REMARK    2  A    between atoms: C4_4  and  N1_6 
REMARK    3  A    between atoms: N1_6  and  C6_7 
REMARK    4  A    between atoms: C9_10  and  N2_11 
REMARK    5  A    between atoms: N2_11  and  C10_12 
REMARK    6  A    between atoms: C13_16  and  C14_17 
ROOT
HETATM    1  N2  UNL     1       1.162   0.411  -1.350  1.00  0.00    -0.188 N 
HETATM    2  H14 UNL     1       1.569   0.907  -2.183  1.00  0.00     0.184 HD
ENDROOT
BRANCH   1   3
HETATM    3  C9  UNL     1      -0.237   0.093  -1.326  1.00  0.00     0.059 A 
HETATM    4  C7  UNL     1      -1.182  -0.944  -0.925  1.00  0.00    -0.008 A 
HETATM    5  C6  UNL     1      -2.213  -0.229  -1.351  1.00  0.00     0.038 A 
HETATM    6  C8  UNL     1      -0.942  -2.271  -0.284  1.00  0.00     0.053 C 
HETATM    7  C19 UNL     1      -1.279   0.823  -1.759  1.00  0.00     0.060 A 
BRANCH   5   8
HETATM    8  N1  UNL     1      -3.566  -0.662  -1.269  1.00  0.00    -0.382 N 
HETATM    9  H10 UNL     1      -3.898  -1.489  -1.851  1.00  0.00     0.160 HD
BRANCH   8  10
HETATM   10  C4  UNL     1      -4.326   0.154  -0.341  1.00  0.00     0.100 C 
HETATM   11  C5  UNL     1      -3.790   0.048   1.072  1.00  0.00     0.036 C 
BRANCH  10  12
HETATM   12  C3  UNL     1      -5.717  -0.357  -0.336  1.00  0.00    -0.007 C 
HETATM   13  C2  UNL     1      -6.779   0.235  -0.832  1.00  0.00    -0.033 C 
HETATM   14  C1  UNL     1      -6.861   1.543  -1.512  1.00  0.00     0.036 C 
ENDBRANCH  10  12
ENDBRANCH   8  10
ENDBRANCH   5   8
ENDBRANCH   1   3
BRANCH   1  15
HETATM   15  C10 UNL     1       1.945   0.035  -0.225  1.00  0.00     0.727 A 
HETATM   16  N3  UNL     1       1.374  -0.587   0.797  1.00  0.00    -0.075 NA
HETATM   17  C11 UNL     1       2.139  -0.937   1.860  1.00  0.00     0.139 A 
HETATM   18  C12 UNL     1       3.495  -0.614   1.808  1.00  0.00     0.053 A 
HETATM   19  C13 UNL     1       4.096   0.034   0.747  1.00  0.00     0.089 A 
HETATM   20  N5  UNL     1       3.238   0.326  -0.240  1.00  0.00    -0.062 NA
BRANCH  19  21
HETATM   21  C14 UNL     1       5.520   0.339   0.782  1.00  0.00     0.011 A 
HETATM   22  C15 UNL     1       6.399   0.040   1.795  1.00  0.00     0.017 A 
HETATM   23  C16 UNL     1       7.729   0.391   1.689  1.00  0.00     0.020 A 
HETATM   24  C17 UNL     1       8.149   1.053   0.531  1.00  0.00     0.116 A 
HETATM   25  N4  UNL     1       7.270   1.341  -0.460  1.00  0.00    -0.272 NA
HETATM   26  C18 UNL     1       5.964   0.988  -0.339  1.00  0.00     0.130 A 
ENDBRANCH  19  21
ENDBRANCH   1  15
TORSDOF 6
