REMARK  6 active torsions:
REMARK  status: ('A' for Active; 'I' for Inactive)
REMARK    1  A    between atoms: B1_1  and  C1_2 
REMARK    2  A    between atoms: C1_2  and  C2_4 
REMARK    3  A    between atoms: C2_4  and  O1_7 
REMARK    4  A    between atoms: O1_7  and  C3_8 
REMARK    5  A    between atoms: C7_12  and  N1_13 
REMARK    6  A    between atoms: N1_13  and  C8_14 
ROOT
HETATM    1  C3  UNL     1       3.172  -0.509  -0.921  1.00  0.00     0.077 A 
HETATM    2  C4  UNL     1       2.947   0.835  -1.112  1.00  0.00     0.037 A 
HETATM    3  C5  UNL     1       1.755   1.465  -0.803  1.00  0.00     0.005 A 
HETATM    4  C6  UNL     1       0.733   0.720  -0.277  1.00  0.00     0.030 A 
HETATM    5  C7  UNL     1       0.941  -0.633  -0.077  1.00  0.00     0.052 A 
HETATM    6  C17 UNL     1       2.138  -1.245  -0.391  1.00  0.00     0.067 A 
ENDROOT
BRANCH   5   7
HETATM    7  N1  UNL     1      -0.089  -1.404   0.474  1.00  0.00    -0.188 N 
HETATM    8  H7  UNL     1      -0.057  -2.449   0.562  1.00  0.00     0.184 HD
BRANCH   7   9
HETATM    9  C8  UNL     1      -1.334  -1.000   1.010  1.00  0.00     0.727 A 
HETATM   10  N2  UNL     1      -1.601  -0.983   2.340  1.00  0.00    -0.075 NA
HETATM   11  C9  UNL     1      -2.800  -0.587   2.846  1.00  0.00     0.139 A 
HETATM   12  C10 UNL     1      -3.757  -0.196   1.902  1.00  0.00     0.053 A 
HETATM   13  C11 UNL     1      -3.535  -0.195   0.526  1.00  0.00     0.087 A 
HETATM   14  C12 UNL     1      -4.576   0.251  -0.370  1.00  0.00    -0.004 A 
HETATM   15  N4  UNL     1      -2.326  -0.606   0.284  1.00  0.00    -0.062 NA
HETATM   16  C13 UNL     1      -5.829   0.664  -0.010  1.00  0.00     0.033 A 
HETATM   17  C16 UNL     1      -4.340   0.305  -1.741  1.00  0.00     0.033 A 
HETATM   18  C14 UNL     1      -6.785   1.096  -0.900  1.00  0.00     0.117 A 
HETATM   19  N3  UNL     1      -6.460   1.110  -2.194  1.00  0.00    -0.273 NA
HETATM   20  C15 UNL     1      -5.274   0.735  -2.678  1.00  0.00     0.117 A 
ENDBRANCH   7   9
ENDBRANCH   5   7
BRANCH   1  21
HETATM   21  O1  UNL     1       4.365  -1.104  -1.237  1.00  0.00    -0.282 OA
BRANCH  21  22
HETATM   22  C2  UNL     1       5.465  -1.267  -0.393  1.00  0.00     0.380 C 
HETATM   23  F2  UNL     1       6.461  -1.962  -1.069  1.00  0.00    -0.173 F 
HETATM   24  F3  UNL     1       5.080  -2.085   0.683  1.00  0.00    -0.173 F 
BRANCH  22  25
HETATM   25  C1  UNL     1       6.031   0.012   0.126  1.00  0.00     0.214 C 
HETATM   26  F1  UNL     1       5.050   0.650   0.861  1.00  0.00    -0.253 F 
BRANCH  25  27
HETATM   27  B1  UNL     1       6.571   0.887  -1.063  1.00  0.00     0.189 B 
HETATM   28  H1  UNL     1       6.307   2.042  -1.185  1.00  0.00    -0.029 HD
HETATM   29  H2  UNL     1       7.503   0.486  -1.652  1.00  0.00    -0.029 HD
ENDBRANCH  25  27
ENDBRANCH  22  25
ENDBRANCH  21  22
ENDBRANCH   1  21
TORSDOF 6
