REMARK  8 active torsions:
REMARK  status: ('A' for Active; 'I' for Inactive)
REMARK    1  A    between atoms: C3_3  and  C5_5 
REMARK    2  A    between atoms: C5_5  and  C6_6 
REMARK    3  A    between atoms: C6_6  and  C7_7 
REMARK    4  A    between atoms: C7_7  and  C8_8 
REMARK    5  A    between atoms: C8_8  and  N1_10 
REMARK    6  A    between atoms: N1_10  and  C10_11 
REMARK    7  A    between atoms: N2_14  and  C13_15 
REMARK    8  A    between atoms: C16_19  and  C17_20 
ROOT
HETATM    1  C1  UNL     1      -8.492  -1.820   0.056  1.00  0.00     0.097 C 
HETATM    2  C2  UNL     1      -7.985  -0.675   0.444  1.00  0.00    -0.148 C 
HETATM    3  C3  UNL     1      -7.408   0.427   0.875  1.00  0.00    -0.021 C 
HETATM    4  C4  UNL     1      -8.303   1.258   1.698  1.00  0.00     0.057 C 
ENDROOT
BRANCH   3   5
HETATM    5  C5  UNL     1      -6.042   0.609   0.467  1.00  0.00     0.011 C 
BRANCH   5   6
HETATM    6  C6  UNL     1      -5.267   1.599   0.063  1.00  0.00    -0.020 C 
BRANCH   6   7
HETATM    7  C7  UNL     1      -3.906   1.933  -0.373  1.00  0.00     0.083 C 
BRANCH   7   8
HETATM    8  C8  UNL     1      -2.977   0.776  -0.403  1.00  0.00    -0.001 C 
HETATM    9  C9  UNL     1      -2.804  -0.517  -0.200  1.00  0.00     0.038 C 
BRANCH   8  10
HETATM   10  N1  UNL     1      -1.682   1.179  -0.833  1.00  0.00    -0.382 N 
HETATM   11  H12 UNL     1      -1.743   1.249  -1.870  1.00  0.00     0.160 HD
BRANCH  10  12
HETATM   12  C10 UNL     1      -0.479   1.454  -0.040  1.00  0.00     0.131 A 
HETATM   13  C11 UNL     1      -0.162   0.197   0.679  1.00  0.00     0.020 A 
HETATM   14  C12 UNL     1       0.870  -0.609   0.517  1.00  0.00     0.113 A 
HETATM   15  N2  UNL     1       1.800  -0.215  -0.481  1.00  0.00    -0.159 N 
HETATM   16  C22 UNL     1       1.669   0.957  -1.275  1.00  0.00     0.028 A 
HETATM   17  C23 UNL     1       2.654   1.352  -2.314  1.00  0.00     0.069 C 
HETATM   18  C24 UNL     1       0.598   1.698  -1.034  1.00  0.00     0.027 A 
BRANCH  15  19
HETATM   19  C13 UNL     1       2.933  -1.034  -0.709  1.00  0.00     0.733 A 
HETATM   20  N3  UNL     1       2.893  -2.029  -1.608  1.00  0.00    -0.074 NA
HETATM   21  C14 UNL     1       3.992  -2.782  -1.793  1.00  0.00     0.139 A 
HETATM   22  C15 UNL     1       5.131  -2.511  -1.052  1.00  0.00     0.053 A 
HETATM   23  C16 UNL     1       5.168  -1.488  -0.129  1.00  0.00     0.089 A 
HETATM   24  N5  UNL     1       4.039  -0.771   0.010  1.00  0.00    -0.062 NA
BRANCH  23  25
HETATM   25  C17 UNL     1       6.326  -1.142   0.686  1.00  0.00     0.011 A 
HETATM   26  C18 UNL     1       6.188  -0.086   1.562  1.00  0.00     0.017 A 
HETATM   27  C19 UNL     1       7.291   0.233   2.330  1.00  0.00     0.020 A 
HETATM   28  C20 UNL     1       8.493  -0.441   2.262  1.00  0.00     0.116 A 
HETATM   29  N4  UNL     1       8.569  -1.472   1.381  1.00  0.00    -0.272 NA
HETATM   30  C21 UNL     1       7.523  -1.822   0.611  1.00  0.00     0.130 A 
ENDBRANCH  23  25
ENDBRANCH  15  19
ENDBRANCH  10  12
ENDBRANCH   8  10
ENDBRANCH   7   8
ENDBRANCH   6   7
ENDBRANCH   5   6
ENDBRANCH   3   5
TORSDOF 8
