REMARK  5 active torsions:
REMARK  status: ('A' for Active; 'I' for Inactive)
REMARK    1  A    between atoms: C5_5  and  N1_6 
REMARK    2  A    between atoms: C6_7  and  N2_8 
REMARK    3  A    between atoms: C10_13  and  N4_14 
REMARK    4  A    between atoms: C11_15  and  C12_16 
REMARK    5  A    between atoms: C15_20  and  P1_21 
ROOT
HETATM    1  C1  UNL     1       1.929   2.235   1.979  1.00  0.00     0.049 C 
HETATM    2  C2  UNL     1       0.633   2.025   1.315  1.00  0.00    -0.051 A 
HETATM    3  C3  UNL     1      -0.442   2.872   1.609  1.00  0.00     0.010 A 
HETATM    4  C4  UNL     1      -1.595   2.570   0.921  1.00  0.00     0.032 A 
HETATM    5  C5  UNL     1      -1.862   1.582  -0.002  1.00  0.00     0.054 A 
HETATM    6  C6  UNL     1      -0.767   0.760  -0.267  1.00  0.00     0.077 A 
HETATM    7  C11 UNL     1       0.402   1.029   0.401  1.00  0.00     0.008 A 
ENDROOT
BRANCH   6   8
HETATM    8  N2  UNL     1      -0.918  -0.297  -1.203  1.00  0.00    -0.288 N 
HETATM    9  C7  UNL     1      -1.510  -1.384  -0.631  1.00  0.00     0.216 A 
HETATM   10  N3  UNL     1      -1.763  -2.524  -1.319  1.00  0.00    -0.255 NA
HETATM   11  C8  UNL     1      -1.406  -2.561  -2.626  1.00  0.00     0.122 A 
HETATM   12  C9  UNL     1      -0.803  -1.479  -3.244  1.00  0.00     0.070 A 
HETATM   13  C10 UNL     1      -0.569  -0.341  -2.486  1.00  0.00     0.129 A 
BRANCH  13  14
HETATM   14  N4  UNL     1      -0.019   0.742  -2.915  1.00  0.00    -0.283 NA
HETATM   15  H11 UNL     1       0.273   0.750  -3.930  1.00  0.00     0.188 HD
ENDBRANCH  13  14
ENDBRANCH   6   8
BRANCH   5  16
HETATM   16  N1  UNL     1      -3.126   1.435  -0.605  1.00  0.00    -0.397 N 
HETATM   17  H6  UNL     1      -3.350   1.330  -1.617  1.00  0.00     0.156 HD
HETATM   18  H7  UNL     1      -3.873   1.444   0.141  1.00  0.00     0.156 HD
ENDBRANCH   5  16
BRANCH   7  19
HETATM   19  C12 UNL     1       1.488   0.169   0.131  1.00  0.00     0.104 A 
HETATM   20  N5  UNL     1       1.028  -0.720   1.242  1.00  0.00    -0.265 NA
HETATM   21  C13 UNL     1       1.815  -2.123   1.667  1.00  0.00     0.117 A 
HETATM   22  P1  UNL     1       2.436  -1.679   0.767  1.00  0.00    -0.053 P 
HETATM   23  C14 UNL     1       3.248  -3.378   1.404  1.00  0.00     0.077 A 
HETATM   24  C15 UNL     1       2.862  -2.554   1.088  1.00  0.00    -0.038 A 
HETATM   25  H14 UNL     1       2.282  -1.352   0.643  1.00  0.00     0.068 HD
ENDBRANCH   7  19
TORSDOF 5
