REMARK  8 active torsions:
REMARK  status: ('A' for Active; 'I' for Inactive)
REMARK    1  A    between atoms: C1_2  and  C2_3 
REMARK    2  A    between atoms: C2_3  and  C3_4 
REMARK    3  A    between atoms: C3_4  and  C4_5 
REMARK    4  A    between atoms: C3_4  and  O1_7 
REMARK    5  A    between atoms: O1_7  and  C5_8 
REMARK    6  A    between atoms: C9_12  and  N1_13 
REMARK    7  A    between atoms: N1_13  and  C10_14 
REMARK    8  A    between atoms: C13_18  and  C14_19 
ROOT
HETATM    1  N1  UNL     1       1.198  -1.397   0.590  1.00  0.00    -0.188 N 
HETATM    2  H11 UNL     1       1.762  -2.240   0.862  1.00  0.00     0.184 HD
ENDROOT
BRANCH   1   3
HETATM    3  C9  UNL     1      -0.197  -1.483   0.729  1.00  0.00     0.052 A 
HETATM    4  C8  UNL     1      -0.741  -2.676   1.218  1.00  0.00     0.030 A 
HETATM    5  C7  UNL     1      -2.084  -2.894   1.403  1.00  0.00     0.005 A 
HETATM    6  C6  UNL     1      -2.961  -1.879   1.090  1.00  0.00     0.037 A 
HETATM    7  C5  UNL     1      -2.500  -0.676   0.604  1.00  0.00     0.071 A 
HETATM    8  C19 UNL     1      -1.139  -0.522   0.442  1.00  0.00     0.066 A 
BRANCH   7   9
HETATM    9  O1  UNL     1      -3.296   0.374   0.272  1.00  0.00    -0.343 OA
BRANCH   9  10
HETATM   10  C3  UNL     1      -4.693   0.468   0.344  1.00  0.00     0.159 C 
BRANCH  10  11
HETATM   11  C2  UNL     1      -5.323   0.684  -0.996  1.00  0.00     0.066 C 
BRANCH  11  12
HETATM   12  C1  UNL     1      -6.812   0.666  -0.943  1.00  0.00     0.224 C 
HETATM   13  F1  UNL     1      -7.400   1.616  -0.177  1.00  0.00    -0.255 F 
ENDBRANCH  11  12
ENDBRANCH  10  11
BRANCH  10  14
HETATM   14  C4  UNL     1      -5.092   1.535   1.335  1.00  0.00     0.254 C 
HETATM   15  F2  UNL     1      -4.727   2.795   0.895  1.00  0.00    -0.253 F 
ENDBRANCH  10  14
ENDBRANCH   9  10
ENDBRANCH   7   9
ENDBRANCH   1   3
BRANCH   1  16
HETATM   16  C10 UNL     1       1.946  -0.289   0.117  1.00  0.00     0.727 A 
HETATM   17  N2  UNL     1       1.459   0.890  -0.287  1.00  0.00    -0.075 NA
HETATM   18  C11 UNL     1       2.171   1.929  -0.730  1.00  0.00     0.139 A 
HETATM   19  C12 UNL     1       3.537   1.806  -0.789  1.00  0.00     0.053 A 
HETATM   20  C13 UNL     1       4.092   0.612  -0.385  1.00  0.00     0.087 A 
HETATM   21  N4  UNL     1       3.281  -0.363   0.043  1.00  0.00    -0.062 NA
BRANCH  20  22
HETATM   22  C14 UNL     1       5.529   0.364  -0.402  1.00  0.00    -0.004 A 
HETATM   23  C15 UNL     1       5.987  -0.863   0.022  1.00  0.00     0.033 A 
HETATM   24  C16 UNL     1       7.332  -1.193   0.042  1.00  0.00     0.117 A 
HETATM   25  N3  UNL     1       8.208  -0.245  -0.380  1.00  0.00    -0.273 NA
HETATM   26  C17 UNL     1       7.824   0.967  -0.805  1.00  0.00     0.117 A 
HETATM   27  C18 UNL     1       6.467   1.260  -0.810  1.00  0.00     0.033 A 
ENDBRANCH  20  22
ENDBRANCH   1  16
TORSDOF 8
