REMARK  5 active torsions:
REMARK  status: ('A' for Active; 'I' for Inactive)
REMARK    1  A    between atoms: C1_2  and  C2_4 
REMARK    2  A    between atoms: C2_4  and  O1_6 
REMARK    3  A    between atoms: O1_6  and  C3_7 
REMARK    4  A    between atoms: C4_8  and  C5_9 
REMARK    5  A    between atoms: C6_10  and  C7_11 
ROOT
HETATM    1  C7  UNL     1      -0.340   0.888   1.042  1.00  0.00     0.032 C 
HETATM    2  C8  UNL     1      -0.384  -0.384   0.584  1.00  0.00     0.043 C 
HETATM    3  C9  UNL     1      -1.073  -1.690   0.926  1.00  0.00    -0.004 A 
HETATM    4  C10 UNL     1      -0.645  -2.679   0.181  1.00  0.00     0.128 A 
HETATM    5  N1  UNL     1      -1.198  -3.814   0.603  1.00  0.00    -0.272 NA
HETATM    6  C11 UNL     1      -2.051  -3.968   1.617  1.00  0.00     0.117 A 
HETATM    7  C12 UNL     1      -2.506  -2.900   2.415  1.00  0.00     0.034 A 
HETATM    8  C13 UNL     1      -1.934  -1.703   1.975  1.00  0.00     0.013 A 
HETATM    9  C14 UNL     1      -2.597  -0.883   3.042  1.00  0.00     0.173 A 
HETATM   10  C15 UNL     1      -3.723  -1.414   3.739  1.00  0.00     0.066 A 
HETATM   11  C16 UNL     1      -3.504  -0.116   4.387  1.00  0.00     0.353 A 
HETATM   12  N2  UNL     1      -2.568   0.741   4.070  1.00  0.00    -0.032 NA
HETATM   13  C17 UNL     1      -1.616   1.243   3.500  1.00  0.00     0.385 A 
HETATM   14  N3  UNL     1      -2.422   0.276   3.626  1.00  0.00     0.105 N 
HETATM   15  N4  UNL     1      -1.015   1.013   2.341  1.00  0.00    -0.336 N 
HETATM   16  H13 UNL     1      -1.038   2.118   2.516  1.00  0.00     0.163 HD
ENDROOT
BRANCH   1  17
HETATM   17  C6  UNL     1       0.224   1.948   0.395  1.00  0.00     0.029 C 
HETATM   18  C5  UNL     1       0.850   2.212  -0.699  1.00  0.00     0.004 C 
BRANCH  18  19
HETATM   19  C4  UNL     1       1.176   1.222  -1.718  1.00  0.00     0.024 C 
HETATM   20  C3  UNL     1       1.833   1.708  -2.772  1.00  0.00     0.138 C 
BRANCH  20  21
HETATM   21  O1  UNL     1       2.438   1.559  -3.976  1.00  0.00    -0.322 OA
BRANCH  21  22
HETATM   22  C2  UNL     1       3.744   0.985  -4.081  1.00  0.00     0.376 C 
HETATM   23  F3  UNL     1       3.555  -0.312  -4.542  1.00  0.00    -0.213 F 
BRANCH  22  24
HETATM   24  C1  UNL     1       4.621   1.723  -5.053  1.00  0.00     0.413 C 
HETATM   25  F1  UNL     1       5.841   1.044  -5.120  1.00  0.00    -0.209 F 
HETATM   26  F2  UNL     1       4.109   1.758  -6.335  1.00  0.00    -0.209 F 
ENDBRANCH  22  24
ENDBRANCH  21  22
ENDBRANCH  20  21
ENDBRANCH  18  19
ENDBRANCH   1  17
TORSDOF 5
