REMARK  2 active torsions:
REMARK  status: ('A' for Active; 'I' for Inactive)
REMARK    1  A    between atoms: C12_17  and  C13_18 
REMARK    2  A    between atoms: C13_18  and  C14_20 
ROOT
HETATM    1  C1  UNL     1       4.586  -2.031   0.416  1.00  0.00     0.036 C 
HETATM    2  C2  UNL     1       3.558  -1.116  -0.088  1.00  0.00    -0.024 C 
HETATM    3  C3  UNL     1       2.228  -0.920   0.095  1.00  0.00    -0.057 C 
HETATM    4  C4  UNL     1       1.607  -1.838   1.033  1.00  0.00     0.024 C 
HETATM    5  C5  UNL     1       0.394  -2.018   1.503  1.00  0.00     0.090 C 
HETATM    6  N1  UNL     1      -0.969  -1.638   1.540  1.00  0.00    -0.352 N 
HETATM    7  C6  UNL     1      -2.052  -1.927   0.667  1.00  0.00     0.143 C 
HETATM    8  N2  UNL     1      -1.562  -1.264  -0.335  1.00  0.00    -0.048 NA
HETATM    9  C7  UNL     1      -2.680  -0.878  -1.124  1.00  0.00     0.719 C 
HETATM   10  N3  UNL     1      -3.735  -1.339  -0.540  1.00  0.00    -0.098 NA
HETATM   11  C8  UNL     1      -3.360  -2.523   0.281  1.00  0.00     0.248 C 
HETATM   12  N4  UNL     1      -3.019  -0.163  -2.299  1.00  0.00    -0.222 N 
HETATM   13  C9  UNL     1      -3.520   1.189  -2.342  1.00  0.00     0.143 C 
HETATM   14  C10 UNL     1      -2.522   2.250  -1.951  1.00  0.00     0.055 C 
HETATM   15  P1  UNL     1      -1.998   2.030  -0.218  1.00  0.00    -0.104 P 
HETATM   16  C11 UNL     1      -0.269   1.685   0.075  1.00  0.00     0.010 C 
HETATM   17  C12 UNL     1       0.987   1.247   0.116  1.00  0.00    -0.036 C 
HETATM   18  C15 UNL     1       1.615   0.161  -0.669  1.00  0.00     0.075 C 
HETATM   19  H7  UNL     1      -1.499  -1.052   2.219  1.00  0.00     0.166 HD
HETATM   20  H10 UNL     1      -2.909  -0.623  -3.246  1.00  0.00     0.177 HD
HETATM   21  H15 UNL     1      -2.836   1.075   0.449  1.00  0.00     0.061 HD
ENDROOT
BRANCH  17  22
HETATM   22  C13 UNL     1       2.099   1.764   0.986  1.00  0.00     0.264 C 
HETATM   23  F1  UNL     1       3.164   2.210   0.227  1.00  0.00    -0.239 F 
BRANCH  22  24
HETATM   24  C14 UNL     1       1.692   2.888   1.882  1.00  0.00     0.391 C 
HETATM   25  F2  UNL     1       2.757   3.338   2.664  1.00  0.00    -0.211 F 
HETATM   26  F3  UNL     1       0.724   2.487   2.802  1.00  0.00    -0.211 F 
ENDBRANCH  22  24
ENDBRANCH  17  22
TORSDOF 2
