REMARK  9 active torsions:
REMARK  status: ('A' for Active; 'I' for Inactive)
REMARK    1  A    between atoms: C2_2  and  N1_3 
REMARK    2  A    between atoms: C3_4  and  C4_5 
REMARK    3  A    between atoms: C7_9  and  N3_10 
REMARK    4  A    between atoms: N3_10  and  C8_11 
REMARK    5  A    between atoms: C8_11  and  C9_12 
REMARK    6  A    between atoms: C10_13  and  C11_14 
REMARK    7  A    between atoms: C12_15  and  O1_16 
REMARK    8  A    between atoms: O1_16  and  C13_17 
REMARK    9  A    between atoms: C13_17  and  C15_20 
ROOT
HETATM    1  N3  UNL     1       0.096  -0.440   1.257  1.00  0.00    -0.219 N 
HETATM    2  H7  UNL     1      -0.047  -1.377   1.714  1.00  0.00     0.178 HD
ENDROOT
BRANCH   1   3
HETATM    3  C7  UNL     1       1.492  -0.180   1.234  1.00  0.00     0.723 A 
HETATM    4  N2  UNL     1       2.106   0.463   2.238  1.00  0.00    -0.075 NA
HETATM    5  C6  UNL     1       3.421   0.726   2.250  1.00  0.00     0.139 A 
HETATM    6  C5  UNL     1       4.239   0.331   1.185  1.00  0.00     0.053 A 
HETATM    7  C4  UNL     1       3.574  -0.324   0.177  1.00  0.00     0.094 A 
HETATM    8  N4  UNL     1       2.253  -0.570   0.198  1.00  0.00    -0.062 NA
BRANCH   7   9
HETATM    9  C3  UNL     1       4.245  -0.811  -1.012  1.00  0.00     0.148 C 
HETATM   10  N1  UNL     1       5.370  -0.894  -1.593  1.00  0.00    -0.272 NA
BRANCH  10  11
HETATM   11  C2  UNL     1       6.608  -0.419  -1.147  1.00  0.00     0.106 C 
HETATM   12  C1  UNL     1       7.480   0.490  -0.744  1.00  0.00     0.032 C 
ENDBRANCH  10  11
ENDBRANCH   7   9
ENDBRANCH   1   3
BRANCH   1  13
HETATM   13  C8  UNL     1      -0.651   0.655   0.654  1.00  0.00     0.166 C 
BRANCH  13  14
HETATM   14  C9  UNL     1      -0.303   0.912  -0.744  1.00  0.00     0.002 C 
HETATM   15  C10 UNL     1      -1.142   0.847  -1.762  1.00  0.00     0.064 C 
BRANCH  15  16
HETATM   16  C11 UNL     1      -2.529   0.510  -1.632  1.00  0.00    -0.048 C 
HETATM   17  C12 UNL     1      -3.705   0.229  -1.542  1.00  0.00     0.062 C 
BRANCH  17  18
HETATM   18  O1  UNL     1      -5.029  -0.087  -1.465  1.00  0.00    -0.253 OA
BRANCH  18  19
HETATM   19  C13 UNL     1      -5.512  -0.670  -0.281  1.00  0.00     0.273 C 
HETATM   20  C14 UNL     1      -6.997  -0.961  -0.356  1.00  0.00     0.092 C 
HETATM   21  F1  UNL     1      -4.857  -1.871  -0.099  1.00  0.00    -0.205 F 
BRANCH  19  22
HETATM   22  C15 UNL     1      -5.214   0.268   0.882  1.00  0.00     0.420 C 
HETATM   23  F2  UNL     1      -5.711  -0.361   2.006  1.00  0.00    -0.208 F 
HETATM   24  F3  UNL     1      -5.818   1.473   0.685  1.00  0.00    -0.208 F 
ENDBRANCH  19  22
ENDBRANCH  18  19
ENDBRANCH  17  18
ENDBRANCH  15  16
ENDBRANCH  13  14
ENDBRANCH   1  13
TORSDOF 9
