REMARK  0 active torsions:
REMARK  status: ('A' for Active; 'I' for Inactive)
ROOT
HETATM    1  F1  UNL     1      -0.543   2.058  -2.887  1.00  0.00    -0.172 F 
HETATM    2  C1  UNL     1      -0.956   1.828  -1.546  1.00  0.00     0.418 C 
HETATM    3  F2  UNL     1      -2.304   2.165  -1.594  1.00  0.00    -0.172 F 
HETATM    4  N1  UNL     1      -0.724   0.491  -1.198  1.00  0.00    -0.297 N 
HETATM    5  C2  UNL     1      -1.208  -0.305  -0.373  1.00  0.00     0.052 A 
HETATM    6  C3  UNL     1      -2.131  -0.633   0.687  1.00  0.00    -0.008 A 
HETATM    7  C4  UNL     1      -2.193  -1.890   1.225  1.00  0.00     0.032 A 
HETATM    8  C5  UNL     1      -3.073  -2.146   2.239  1.00  0.00     0.117 A 
HETATM    9  N2  UNL     1      -3.870  -1.178   2.707  1.00  0.00    -0.273 NA
HETATM   10  C6  UNL     1      -3.828   0.060   2.198  1.00  0.00     0.117 A 
HETATM   11  C7  UNL     1      -2.953   0.337   1.182  1.00  0.00     0.032 A 
HETATM   12  C8  UNL     1      -0.174  -1.043  -1.012  1.00  0.00     0.182 A 
HETATM   13  C9  UNL     1       0.644  -2.007  -1.345  1.00  0.00     0.121 C 
HETATM   14  N3  UNL     1       1.689  -2.225  -2.228  1.00  0.00    -0.274 NA
HETATM   15  C10 UNL     1       2.823  -1.571  -2.274  1.00  0.00     0.127 C 
HETATM   16  C11 UNL     1       2.719  -0.572  -1.184  1.00  0.00    -0.016 A 
HETATM   17  C12 UNL     1       3.198  -0.742   0.101  1.00  0.00     0.013 A 
HETATM   18  C13 UNL     1       3.058   0.198   1.126  1.00  0.00     0.004 A 
HETATM   19  C14 UNL     1       2.390   1.350   0.777  1.00  0.00     0.037 A 
HETATM   20  C15 UNL     1       1.893   1.572  -0.485  1.00  0.00     0.076 A 
HETATM   21  C16 UNL     1       2.047   0.628  -1.476  1.00  0.00     0.049 A 
HETATM   22  O1  UNL     1       1.218   2.718  -0.851  1.00  0.00    -0.277 OA
HETATM   23  C17 UNL     1      -0.186   2.863  -0.732  1.00  0.00     0.447 C 
HETATM   24  F3  UNL     1      -0.486   4.114  -1.229  1.00  0.00    -0.167 F 
HETATM   25  F4  UNL     1      -0.616   2.762   0.561  1.00  0.00    -0.167 F 
ENDROOT
TORSDOF 0
