REMARK  5 active torsions:
REMARK  status: ('A' for Active; 'I' for Inactive)
REMARK    1  A    between atoms: C5_5  and  N1_6 
REMARK    2  A    between atoms: C7_8  and  N2_9 
REMARK    3  A    between atoms: N2_9  and  C8_10 
REMARK    4  A    between atoms: N3_11  and  C9_12 
REMARK    5  A    between atoms: C10_13  and  C11_14 
ROOT
HETATM    1  N2  UNL     1      -2.385  -1.136   1.232  1.00  0.00    -0.350 N 
HETATM    2  H9  UNL     1      -2.797  -1.931   1.818  1.00  0.00     0.166 HD
ENDROOT
BRANCH   1   3
HETATM    3  C7  UNL     1      -3.268  -0.511   0.345  1.00  0.00     0.040 A 
HETATM    4  C2  UNL     1      -3.128   0.674  -0.333  1.00  0.00    -0.035 A 
HETATM    5  C1  UNL     1      -1.928   1.507  -0.085  1.00  0.00     0.050 C 
HETATM    6  C3  UNL     1      -4.030   1.213  -1.231  1.00  0.00     0.011 A 
HETATM    7  C4  UNL     1      -5.193   0.541  -1.506  1.00  0.00     0.024 A 
HETATM    8  C5  UNL     1      -5.380  -0.650  -0.850  1.00  0.00     0.008 A 
HETATM    9  C6  UNL     1      -4.454  -1.149   0.035  1.00  0.00     0.053 A 
BRANCH   8  10
HETATM   10  N1  UNL     1      -6.574  -1.359  -1.117  1.00  0.00    -0.303 NA
HETATM   11  H6  UNL     1      -7.533  -1.722  -0.993  1.00  0.00     0.124 HD
HETATM   12  H7  UNL     1      -7.197  -1.128  -0.289  1.00  0.00     0.124 HD
ENDBRANCH   8  10
ENDBRANCH   1   3
BRANCH   1  13
HETATM   13  C8  UNL     1      -1.013  -0.846   1.489  1.00  0.00     0.207 C 
HETATM   14  N3  UNL     1      -0.342  -0.942   0.383  1.00  0.00    -0.256 NA
BRANCH  14  15
HETATM   15  C9  UNL     1       1.026  -0.735   0.216  1.00  0.00     0.120 C 
HETATM   16  C10 UNL     1       1.834   0.258   0.535  1.00  0.00     0.052 C 
BRANCH  16  17
HETATM   17  C11 UNL     1       3.261   0.286   0.271  1.00  0.00     0.075 C 
HETATM   18  N4  UNL     1       3.644  -0.804  -0.325  1.00  0.00    -0.260 NA
HETATM   19  C12 UNL     1       4.874  -1.311  -0.807  1.00  0.00     0.117 C 
HETATM   20  C13 UNL     1       6.131  -0.900  -0.624  1.00  0.00     0.021 C 
HETATM   21  C14 UNL     1       6.756   0.191   0.112  1.00  0.00     0.021 C 
HETATM   22  C15 UNL     1       6.374   1.292   0.723  1.00  0.00     0.116 C 
HETATM   23  N5  UNL     1       5.096   1.878   0.908  1.00  0.00    -0.271 NA
HETATM   24  C16 UNL     1       3.867   1.523   0.745  1.00  0.00     0.147 C 
ENDBRANCH  16  17
ENDBRANCH  14  15
ENDBRANCH   1  13
TORSDOF 5
