REMARK  3 active torsions:
REMARK  status: ('A' for Active; 'I' for Inactive)
REMARK    1  A    between atoms: C6_6  and  N1_7 
REMARK    2  A    between atoms: N1_7  and  C7_8 
REMARK    3  A    between atoms: C10_12  and  C11_13 
ROOT
HETATM    1  C7  UNL     1       0.423  -0.162  -0.142  1.00  0.00     0.727 A 
HETATM    2  N2  UNL     1       0.083   1.156  -0.242  1.00  0.00    -0.075 NA
HETATM    3  C8  UNL     1       1.035   2.110  -0.326  1.00  0.00     0.139 A 
HETATM    4  C9  UNL     1       2.343   1.675  -0.306  1.00  0.00     0.053 A 
HETATM    5  C10 UNL     1       2.747   0.362  -0.207  1.00  0.00     0.089 A 
HETATM    6  N4  UNL     1       1.714  -0.487  -0.130  1.00  0.00    -0.062 NA
ENDROOT
BRANCH   1   7
HETATM    7  N1  UNL     1      -0.599  -1.151  -0.054  1.00  0.00    -0.192 N 
HETATM    8  H9  UNL     1      -0.322  -2.144   0.021  1.00  0.00     0.184 HD
BRANCH   7   9
HETATM    9  C6  UNL     1      -1.963  -0.795  -0.068  1.00  0.00     0.027 C 
HETATM   10  C5  UNL     1      -2.883  -1.504   0.878  1.00  0.00     0.084 C 
HETATM   11  C4  UNL     1      -4.087  -1.889   0.062  1.00  0.00    -0.024 C 
HETATM   12  C3  UNL     1      -4.606  -0.960  -0.737  1.00  0.00    -0.022 C 
HETATM   13  C2  UNL     1      -3.960   0.402  -0.770  1.00  0.00     0.028 C 
HETATM   14  C1  UNL     1      -4.338   1.194   0.438  1.00  0.00     0.018 C 
HETATM   15  C15 UNL     1      -2.489   0.125  -0.862  1.00  0.00     0.007 C 
ENDBRANCH   7   9
ENDBRANCH   1   7
BRANCH   5  16
HETATM   16  C11 UNL     1       4.148  -0.047  -0.189  1.00  0.00     0.011 A 
HETATM   17  C12 UNL     1       5.167   0.859  -0.271  1.00  0.00     0.018 A 
HETATM   18  C13 UNL     1       6.511   0.554  -0.260  1.00  0.00     0.037 A 
HETATM   19  P1  UNL     1       6.895  -1.152  -0.131  1.00  0.00     0.086 P 
HETATM   20  N3  UNL     1       5.476  -2.108  -0.041  1.00  0.00    -0.262 NA
HETATM   21  C14 UNL     1       4.338  -1.426  -0.083  1.00  0.00     0.130 A 
ENDBRANCH   5  16
TORSDOF 3
