REMARK  5 active torsions:
REMARK  status: ('A' for Active; 'I' for Inactive)
REMARK    1  A    between atoms: O1_2  and  C2_3 
REMARK    2  A    between atoms: N2_13  and  C11_14 
REMARK    3  A    between atoms: N3_15  and  C12_16 
REMARK    4  A    between atoms: C12_16  and  N4_17 
REMARK    5  A    between atoms: N4_17  and  C13_18 
ROOT
HETATM    1  C2  UNL     1      -5.554  -1.078   0.138  1.00  0.00     0.069 A 
HETATM    2  C3  UNL     1      -4.717  -2.165   0.111  1.00  0.00     0.039 A 
HETATM    3  C4  UNL     1      -3.352  -2.033  -0.051  1.00  0.00     0.040 A 
HETATM    4  C5  UNL     1      -2.771  -0.770  -0.195  1.00  0.00     0.085 A 
HETATM    5  C6  UNL     1      -3.662   0.286  -0.159  1.00  0.00     0.006 A 
HETATM    6  C7  UNL     1      -5.012   0.182  -0.001  1.00  0.00     0.048 A 
HETATM    7  C8  UNL     1      -3.221   1.716  -0.298  1.00  0.00     0.311 C 
HETATM    8  N1  UNL     1      -2.234   1.922   0.714  1.00  0.00     0.095 N 
HETATM    9  C9  UNL     1      -0.879   1.666   0.324  1.00  0.00     0.356 C 
HETATM   10  C10 UNL     1      -0.556   0.244   0.120  1.00  0.00     0.175 C 
HETATM   11  N2  UNL     1       0.662  -0.141   0.406  1.00  0.00    -0.220 NA
HETATM   12  O2  UNL     1      -1.384  -0.795  -0.349  1.00  0.00    -0.293 OA
HETATM   13  H9  UNL     1      -2.275   2.941   0.975  1.00  0.00     0.316 HD
ENDROOT
BRANCH  11  14
HETATM   14  C11 UNL     1       1.527   0.884   0.884  1.00  0.00     0.231 C 
HETATM   15  N3  UNL     1       2.672   0.780   0.257  1.00  0.00    -0.263 NA
BRANCH  15  16
HETATM   16  C12 UNL     1       2.752  -0.300  -0.712  1.00  0.00     0.272 C 
BRANCH  16  17
HETATM   17  N4  UNL     1       4.008  -0.123  -1.417  1.00  0.00    -0.372 N 
HETATM   18  H15 UNL     1       4.017   0.024  -2.440  1.00  0.00     0.161 HD
BRANCH  17  19
HETATM   19  C13 UNL     1       5.220  -0.154  -0.705  1.00  0.00     0.030 A 
HETATM   20  C14 UNL     1       5.324  -0.342   0.643  1.00  0.00     0.029 A 
HETATM   21  C15 UNL     1       6.502  -0.377   1.371  1.00  0.00     0.004 A 
HETATM   22  C16 UNL     1       7.692  -0.207   0.693  1.00  0.00     0.019 A 
HETATM   23  C17 UNL     1       7.643  -0.012  -0.671  1.00  0.00     0.013 A 
HETATM   24 BR1  UNL     1       9.217   0.238  -1.744  1.00  0.00    -0.051 Br
HETATM   25  C18 UNL     1       6.433   0.014  -1.355  1.00  0.00     0.048 A 
ENDBRANCH  17  19
ENDBRANCH  16  17
ENDBRANCH  15  16
ENDBRANCH  11  14
BRANCH   1  26
HETATM   26  O1  UNL     1      -6.897  -1.334   0.305  1.00  0.00    -0.356 OA
HETATM   27  C1  UNL     1      -7.911  -0.372   0.360  1.00  0.00     0.210 C 
ENDBRANCH   1  26
TORSDOF 5
