REMARK  0 active torsions:
REMARK  status: ('A' for Active; 'I' for Inactive)
ROOT
HETATM    1  C1  UNL     1      -2.779   1.696  -1.547  1.00  0.00     0.016 C 
HETATM    2  C2  UNL     1      -2.261   0.279  -1.268  1.00  0.00     0.022 C 
HETATM    3  C3  UNL     1      -2.412  -0.017   0.180  1.00  0.00    -0.016 C 
HETATM    4  C4  UNL     1      -2.099  -1.138   0.922  1.00  0.00    -0.058 A 
HETATM    5  C5  UNL     1      -1.968  -2.012   2.116  1.00  0.00     0.065 A 
HETATM    6  C6  UNL     1      -1.794  -2.622   0.760  1.00  0.00     0.117 A 
HETATM    7  N1  UNL     1      -0.374  -2.590   0.363  1.00  0.00    -0.358 N 
HETATM    8  C7  UNL     1       0.539  -1.978  -0.457  1.00  0.00     0.156 C 
HETATM    9  N2  UNL     1       1.606  -1.665  -1.041  1.00  0.00    -0.235 NA
HETATM   10  C8  UNL     1       2.707  -2.596  -0.450  1.00  0.00     0.082 A 
HETATM   11  C9  UNL     1       2.450  -1.345  -0.484  1.00  0.00     0.208 A 
HETATM   12  C10 UNL     1       2.793  -0.089  -0.139  1.00  0.00    -0.084 C 
HETATM   13  C11 UNL     1       3.057   0.952   0.140  1.00  0.00    -0.101 C 
HETATM   14  C12 UNL     1       3.378   2.301   0.517  1.00  0.00     0.122 C 
HETATM   15  C13 UNL     1       2.325   2.706   1.586  1.00  0.00    -0.004 C 
HETATM   16  C14 UNL     1       1.199   2.173   1.008  1.00  0.00     0.047 C 
HETATM   17  N3  UNL     1      -0.056   1.627   0.448  1.00  0.00    -0.295 NA
HETATM   18  C15 UNL     1       0.168   0.472  -0.190  1.00  0.00     0.353 C 
HETATM   19  N4  UNL     1      -0.082  -0.699  -0.926  1.00  0.00    -0.335 N 
HETATM   20  C16 UNL     1      -0.785   0.197  -1.749  1.00  0.00     0.135 C 
HETATM   21  H9  UNL     1       0.457  -3.225   0.711  1.00  0.00     0.162 HD
ENDROOT
TORSDOF 0
