REMARK  4 active torsions:
REMARK  status: ('A' for Active; 'I' for Inactive)
REMARK    1  A    between atoms: C5_5  and  N1_6 
REMARK    2  A    between atoms: C7_8  and  N2_9 
REMARK    3  A    between atoms: N2_9  and  C8_10 
REMARK    4  A    between atoms: C11_14  and  C12_15 
ROOT
HETATM    1  C8  UNL     1       0.200  -0.294  -0.272  1.00  0.00     0.727 A 
HETATM    2  N3  UNL     1       0.163  -1.226  -1.233  1.00  0.00    -0.075 NA
HETATM    3  C9  UNL     1       1.239  -1.857  -1.710  1.00  0.00     0.139 A 
HETATM    4  C10 UNL     1       2.475  -1.544  -1.192  1.00  0.00     0.053 A 
HETATM    5  C11 UNL     1       2.542  -0.591  -0.203  1.00  0.00     0.089 A 
HETATM    6  N5  UNL     1       1.420  -0.019   0.205  1.00  0.00    -0.062 NA
ENDROOT
BRANCH   1   7
HETATM    7  N2  UNL     1      -0.918   0.390   0.252  1.00  0.00    -0.188 N 
HETATM    8  H9  UNL     1      -0.734   1.099   1.009  1.00  0.00     0.184 HD
BRANCH   7   9
HETATM    9  C7  UNL     1      -2.271   0.259  -0.098  1.00  0.00     0.057 A 
HETATM   10  C2  UNL     1      -3.267   1.021   0.527  1.00  0.00    -0.035 A 
HETATM   11  C1  UNL     1      -2.863   1.986   1.582  1.00  0.00     0.050 C 
HETATM   12  C3  UNL     1      -4.600   0.914   0.204  1.00  0.00     0.011 A 
HETATM   13  C4  UNL     1      -5.035   0.037  -0.766  1.00  0.00     0.029 A 
HETATM   14  C5  UNL     1      -4.104  -0.723  -1.400  1.00  0.00     0.027 A 
HETATM   15  C6  UNL     1      -2.794  -0.589  -1.052  1.00  0.00     0.059 A 
BRANCH  14  16
HETATM   16  N1  UNL     1      -4.559  -1.621  -2.394  1.00  0.00    -0.399 N 
HETATM   17  H6  UNL     1      -4.723  -2.648  -2.361  1.00  0.00     0.156 HD
HETATM   18  H7  UNL     1      -4.761  -1.170  -3.311  1.00  0.00     0.156 HD
ENDBRANCH  14  16
ENDBRANCH   7   9
ENDBRANCH   1   7
BRANCH   5  19
HETATM   19  C12 UNL     1       3.791  -0.177   0.420  1.00  0.00     0.011 A 
HETATM   20  C13 UNL     1       3.768   0.779   1.398  1.00  0.00     0.017 A 
HETATM   21  C14 UNL     1       4.954   1.162   1.980  1.00  0.00     0.020 A 
HETATM   22  C15 UNL     1       6.199   0.650   1.653  1.00  0.00     0.116 A 
HETATM   23  N4  UNL     1       6.176  -0.296   0.678  1.00  0.00    -0.272 NA
HETATM   24  C16 UNL     1       5.035  -0.681   0.101  1.00  0.00     0.130 A 
ENDBRANCH   5  19
TORSDOF 4
