REMARK  4 active torsions:
REMARK  status: ('A' for Active; 'I' for Inactive)
REMARK    1  A    between atoms: C3_4  and  N2_5 
REMARK    2  A    between atoms: N2_5  and  C4_6 
REMARK    3  A    between atoms: C6_8  and  N3_9 
REMARK       I    between atoms: N3_9  and  C7_10 
REMARK    4  A    between atoms: C14_19  and  C15_20 
ROOT
HETATM    1  N2  UNL     1       1.004  -0.470   1.246  1.00  0.00    -0.343 N 
HETATM    2  H3  UNL     1       1.437  -0.744   2.144  1.00  0.00     0.167 HD
ENDROOT
BRANCH   1   3
HETATM    3  C3  UNL     1      -0.386  -0.250   1.062  1.00  0.00     0.125 A 
HETATM    4  N1  UNL     1      -0.868   0.419   0.075  1.00  0.00    -0.232 NA
HETATM    5  C2  UNL     1      -2.293   0.586  -0.026  1.00  0.00     0.078 A 
HETATM    6  C1  UNL     1      -2.706   1.273  -1.038  1.00  0.00     0.048 C 
HETATM    7  C14 UNL     1      -3.203   0.032   0.937  1.00  0.00     0.091 A 
HETATM    8  N4  UNL     1      -2.653  -0.607   1.872  1.00  0.00    -0.279 NA
HETATM    9  C13 UNL     1      -1.271  -0.837   2.077  1.00  0.00     0.227 A 
BRANCH   7  10
HETATM   10  C15 UNL     1      -4.642   0.156   0.912  1.00  0.00     0.012 A 
HETATM   11  C16 UNL     1      -5.473   0.787   0.021  1.00  0.00     0.017 A 
HETATM   12  C17 UNL     1      -6.831   0.815   0.137  1.00  0.00     0.020 A 
HETATM   13  C18 UNL     1      -7.486   0.199   1.180  1.00  0.00     0.116 A 
HETATM   14  N5  UNL     1      -6.699  -0.421   2.058  1.00  0.00    -0.272 NA
HETATM   15  C19 UNL     1      -5.380  -0.438   1.929  1.00  0.00     0.130 A 
ENDBRANCH   7  10
ENDBRANCH   1   3
BRANCH   1  16
HETATM   16  C4  UNL     1       1.900  -0.316   0.154  1.00  0.00     0.041 A 
HETATM   17  C5  UNL     1       2.924   0.607   0.142  1.00  0.00     0.059 A 
HETATM   18  C6  UNL     1       3.755   0.695  -0.957  1.00  0.00     0.036 A 
HETATM   19  C9  UNL     1       3.615  -0.112  -2.079  1.00  0.00     0.030 A 
HETATM   20  C10 UNL     1       2.598  -1.044  -2.095  1.00  0.00     0.011 A 
HETATM   21  C11 UNL     1       1.781  -1.107  -0.973  1.00  0.00    -0.035 A 
HETATM   22  C12 UNL     1       0.695  -2.132  -1.050  1.00  0.00     0.050 C 
BRANCH  18  23
HETATM   23  N3  UNL     1       4.840   1.641  -1.004  1.00  0.00    -0.327 N 
HETATM   24  C7  UNL     1       5.964   0.956  -0.447  1.00  0.00     0.218 C 
HETATM   25  C8  UNL     1       7.373   1.407  -0.225  1.00  0.00     0.117 C 
HETATM   26  O1  UNL     1       5.792  -0.247  -0.057  1.00  0.00    -0.274 OA
HETATM   27  H5  UNL     1       5.108   2.617  -1.286  1.00  0.00     0.169 HD
ENDBRANCH  18  23
ENDBRANCH   1  16
TORSDOF 4
