REMARK  1 active torsions:
REMARK  status: ('A' for Active; 'I' for Inactive)
REMARK    1  A    between atoms: C6_7  and  C7_8 
ROOT
HETATM    1  C1  UNL     1      -4.377   1.934   0.581  1.00  0.00     0.070 C 
HETATM    2  C2  UNL     1      -3.384   0.860   0.361  1.00  0.00     0.033 C 
HETATM    3  C3  UNL     1      -3.179   0.824  -0.923  1.00  0.00     0.108 C 
HETATM    4  N1  UNL     1      -2.109   0.253  -1.250  1.00  0.00    -0.257 NA
HETATM    5  C4  UNL     1      -0.853   0.818  -1.055  1.00  0.00     0.119 C 
HETATM    6  C5  UNL     1       0.433   0.634  -0.667  1.00  0.00     0.051 C 
HETATM    7  C6  UNL     1       1.468  -0.323  -0.149  1.00  0.00     0.065 C 
HETATM    8  N3  UNL     1       1.123  -1.566   0.320  1.00  0.00    -0.274 NA
HETATM    9  C12 UNL     1      -0.305  -1.707   0.216  1.00  0.00     0.098 A 
HETATM   10  C13 UNL     1      -0.630  -0.644   0.948  1.00  0.00     0.060 A 
HETATM   11  C14 UNL     1      -1.926  -1.119   0.517  1.00  0.00     0.076 A 
HETATM   12  C15 UNL     1      -1.604  -2.155  -0.159  1.00  0.00     0.027 A 
HETATM   13  C16 UNL     1      -1.939  -3.327  -0.965  1.00  0.00     0.022 C 
HETATM   14  N4  UNL     1      -2.636  -0.086   1.096  1.00  0.00    -0.378 N 
HETATM   15  H14 UNL     1      -2.809   0.276   2.012  1.00  0.00     0.160 HD
ENDROOT
BRANCH   7  16
HETATM   16  C7  UNL     1       2.846   0.073   0.009  1.00  0.00     0.010 A 
HETATM   17  C8  UNL     1       3.427   1.253  -0.401  1.00  0.00     0.017 A 
HETATM   18  C9  UNL     1       4.739   1.588  -0.214  1.00  0.00     0.020 A 
HETATM   19  C10 UNL     1       5.523   0.669   0.433  1.00  0.00     0.116 A 
HETATM   20  N2  UNL     1       4.961  -0.478   0.832  1.00  0.00    -0.272 NA
HETATM   21  C11 UNL     1       3.676  -0.804   0.648  1.00  0.00     0.130 A 
ENDBRANCH   7  16
TORSDOF 1
