REMARK  3 active torsions:
REMARK  status: ('A' for Active; 'I' for Inactive)
REMARK    1  A    between atoms: C2_2  and  C3_3 
REMARK    2  A    between atoms: C9_9  and  N1_10 
REMARK    3  A    between atoms: N1_10  and  C10_11 
ROOT
HETATM    1  C3  UNL     1      -6.428  -0.376   0.972  1.00  0.00     0.013 C 
HETATM    2  C4  UNL     1      -5.169  -0.240   0.596  1.00  0.00     0.031 C 
HETATM    3  C5  UNL     1      -4.622   1.041   0.169  1.00  0.00     0.014 C 
HETATM    4  C6  UNL     1      -3.525   1.325  -0.522  1.00  0.00    -0.011 C 
HETATM    5  C7  UNL     1      -2.494   0.444  -1.090  1.00  0.00     0.083 A 
HETATM    6  C8  UNL     1      -1.198   1.134  -1.297  1.00  0.00     0.018 A 
HETATM    7  C9  UNL     1      -0.221   0.516  -0.613  1.00  0.00     0.048 A 
HETATM    8  C19 UNL     1      -0.763  -0.631   0.110  1.00  0.00     0.056 A 
HETATM    9  C20 UNL     1      -2.076  -0.659  -0.175  1.00  0.00     0.026 A 
HETATM   10  N5  UNL     1      -2.946  -1.664   0.369  1.00  0.00    -0.326 N 
HETATM   11  C21 UNL     1      -4.351  -1.468   0.634  1.00  0.00     0.256 C 
HETATM   12  O1  UNL     1      -4.993  -2.526   0.954  1.00  0.00    -0.267 OA
HETATM   13  H17 UNL     1      -2.533  -2.582   0.582  1.00  0.00     0.169 HD
ENDROOT
BRANCH   7  14
HETATM   14  N1  UNL     1       1.140   0.947  -0.614  1.00  0.00    -0.188 N 
HETATM   15  H9  UNL     1       1.342   1.963  -0.753  1.00  0.00     0.184 HD
BRANCH  14  16
HETATM   16  C10 UNL     1       2.192   0.010  -0.430  1.00  0.00     0.727 A 
HETATM   17  N2  UNL     1       1.901  -1.289  -0.258  1.00  0.00    -0.075 NA
HETATM   18  C11 UNL     1       2.858  -2.216  -0.079  1.00  0.00     0.139 A 
HETATM   19  C12 UNL     1       4.176  -1.753  -0.082  1.00  0.00     0.053 A 
HETATM   20  C13 UNL     1       4.500  -0.425  -0.257  1.00  0.00     0.089 A 
HETATM   21  C14 UNL     1       5.870   0.040  -0.257  1.00  0.00     0.011 A 
HETATM   22  N4  UNL     1       3.464   0.447  -0.431  1.00  0.00    -0.062 NA
HETATM   23  C15 UNL     1       6.991  -0.740  -0.091  1.00  0.00     0.017 A 
HETATM   24  C18 UNL     1       6.120   1.390  -0.438  1.00  0.00     0.130 A 
HETATM   25  C16 UNL     1       8.242  -0.177  -0.111  1.00  0.00     0.020 A 
HETATM   26  C17 UNL     1       8.437   1.185  -0.296  1.00  0.00     0.116 A 
HETATM   27  N3  UNL     1       7.336   1.941  -0.457  1.00  0.00    -0.272 NA
ENDBRANCH  14  16
ENDBRANCH   7  14
BRANCH   1  28
HETATM   28  C2  UNL     1      -7.362   0.736   0.990  1.00  0.00    -0.025 C 
HETATM   29  C1  UNL     1      -8.607   0.526   1.379  1.00  0.00     0.031 C 
ENDBRANCH   1  28
TORSDOF 3
