REMARK  3 active torsions:
REMARK  status: ('A' for Active; 'I' for Inactive)
REMARK    1  A    between atoms: O1_1  and  C1_2 
REMARK    2  A    between atoms: C2_3  and  C3_4 
REMARK    3  A    between atoms: C4_5  and  C5_6 
ROOT
HETATM    1  C5  UNL     1       2.590  -0.326  -0.006  1.00  0.00     0.128 C 
HETATM    2  C6  UNL     1       2.218   0.235   1.289  1.00  0.00     0.002 C 
HETATM    3  C7  UNL     1       1.501   0.849   2.209  1.00  0.00    -0.000 C 
HETATM    4  C8  UNL     1       0.177   1.445   2.088  1.00  0.00     0.016 C 
HETATM    5  C9  UNL     1      -0.914   1.779   1.460  1.00  0.00     0.083 C 
HETATM    6  N1  UNL     1      -2.174   2.261   1.057  1.00  0.00    -0.398 N 
HETATM    7  C10 UNL     1      -2.804   1.762  -0.141  1.00  0.00     0.135 C 
HETATM    8  C11 UNL     1      -3.263   0.364  -0.045  1.00  0.00     0.024 C 
HETATM    9  C12 UNL     1      -4.671   0.212  -0.678  1.00  0.00     0.024 C 
HETATM   10  C13 UNL     1      -4.721  -1.370  -0.996  1.00  0.00     0.061 C 
HETATM   11  C14 UNL     1      -3.479  -1.431  -0.168  1.00  0.00     0.037 C 
HETATM   12  N2  UNL     1      -3.092  -1.727   1.048  1.00  0.00    -0.292 NA
HETATM   13  C15 UNL     1      -3.292  -0.178   1.367  1.00  0.00     0.165 C 
HETATM   14  C16 UNL     1      -2.460  -0.646  -0.774  1.00  0.00    -0.004 C 
HETATM   15  C17 UNL     1      -1.366  -0.496  -1.535  1.00  0.00     0.128 C 
HETATM   16  N3  UNL     1      -0.512   0.510  -1.996  1.00  0.00    -0.256 NA
HETATM   17  C18 UNL     1       0.724   0.600  -1.782  1.00  0.00     0.203 C 
HETATM   18  N4  UNL     1       1.627  -0.217  -1.056  1.00  0.00    -0.373 N 
HETATM   19  H11 UNL     1      -2.032   2.821   1.929  1.00  0.00     0.158 HD
HETATM   20  H22 UNL     1       1.429  -1.101  -1.615  1.00  0.00     0.161 HD
ENDROOT
BRANCH   1  21
HETATM   21  C4  UNL     1       3.124  -1.742   0.095  1.00  0.00    -0.002 C 
HETATM   22  C3  UNL     1       4.299  -2.348  -0.130  1.00  0.00    -0.020 C 
BRANCH  22  23
HETATM   23  C2  UNL     1       4.929  -1.121  -0.526  1.00  0.00     0.108 C 
HETATM   24  C1  UNL     1       6.110  -0.706  -0.934  1.00  0.00     0.105 C 
BRANCH  24  25
HETATM   25  O1  UNL     1       6.088   0.639  -1.167  1.00  0.00    -0.400 OA
HETATM   26  H1  UNL     1       5.710   1.267  -0.461  1.00  0.00     0.209 HD
ENDBRANCH  24  25
ENDBRANCH  22  23
ENDBRANCH   1  21
TORSDOF 3
