REMARK  4 active torsions:
REMARK  status: ('A' for Active; 'I' for Inactive)
REMARK    1  A    between atoms: O1_2  and  C2_3 
REMARK    2  A    between atoms: N1_10  and  C9_11 
REMARK    3  A    between atoms: C12_16  and  N4_17 
REMARK    4  A    between atoms: N4_17  and  C13_18 
ROOT
HETATM    1  C9  UNL     1      -0.781  -0.671  -1.994  1.00  0.00     0.121 A 
HETATM    2  C10 UNL     1      -0.567  -1.085  -3.292  1.00  0.00     0.153 A 
HETATM    3  N2  UNL     1      -1.616  -1.275  -4.124  1.00  0.00    -0.252 NA
HETATM    4  C11 UNL     1      -2.827  -1.039  -3.606  1.00  0.00     0.235 A 
HETATM    5  N3  UNL     1      -3.054  -0.637  -2.348  1.00  0.00    -0.222 NA
HETATM    6  C12 UNL     1      -2.043  -0.436  -1.490  1.00  0.00     0.160 A 
ENDROOT
BRANCH   1   7
HETATM    7  N1  UNL     1       0.446  -0.564  -1.265  1.00  0.00    -0.243 N 
HETATM    8  C8  UNL     1       1.088  -1.313  -0.207  1.00  0.00     0.198 A 
HETATM    9  C6  UNL     1       2.351  -0.518  -0.001  1.00  0.00     0.001 A 
HETATM   10  C5  UNL     1       2.389   0.552  -0.869  1.00  0.00     0.107 A 
HETATM   11  C7  UNL     1       3.343  -0.803   0.914  1.00  0.00     0.048 A 
HETATM   12  C4  UNL     1       3.497   1.370  -0.796  1.00  0.00     0.043 A 
HETATM   13  O2  UNL     1       1.220   0.528  -1.649  1.00  0.00    -0.234 OA
HETATM   14  C3  UNL     1       4.525   1.128   0.109  1.00  0.00     0.039 A 
HETATM   15  C2  UNL     1       4.454   0.043   0.967  1.00  0.00     0.069 A 
BRANCH  15  16
HETATM   16  O1  UNL     1       5.420  -0.302   1.915  1.00  0.00    -0.356 OA
HETATM   17  C1  UNL     1       6.563   0.493   2.031  1.00  0.00     0.210 C 
ENDBRANCH  15  16
ENDBRANCH   1   7
BRANCH   6  18
HETATM   18  N4  UNL     1      -2.167   0.013  -0.154  1.00  0.00    -0.339 N 
HETATM   19  H11 UNL     1      -1.300   0.200   0.391  1.00  0.00     0.167 HD
BRANCH  18  20
HETATM   20  C13 UNL     1      -3.364   0.258   0.556  1.00  0.00     0.035 A 
HETATM   21  C14 UNL     1      -4.639  -0.024   0.118  1.00  0.00     0.029 A 
HETATM   22  C15 UNL     1      -5.792   0.227   0.814  1.00  0.00     0.004 A 
HETATM   23  C16 UNL     1      -5.706   0.810   2.058  1.00  0.00     0.019 A 
HETATM   24  C17 UNL     1      -4.462   1.121   2.562  1.00  0.00     0.013 A 
HETATM   25 BR1  UNL     1      -4.298   1.927   4.273  1.00  0.00    -0.051 Br
HETATM   26  C18 UNL     1      -3.351   0.839   1.805  1.00  0.00     0.048 A 
ENDBRANCH  18  20
ENDBRANCH   6  18
TORSDOF 4
