REMARK  1 active torsions:
REMARK  status: ('A' for Active; 'I' for Inactive)
REMARK       I    between atoms: C2_2  and  N1_4 
REMARK    1  A    between atoms: N1_4  and  C3_5 
ROOT
HETATM    1  C3  UNL     1       1.739   0.140  -0.519  1.00  0.00     0.032 C 
HETATM    2  C4  UNL     1       0.675  -0.530  -0.232  1.00  0.00     0.027 C 
HETATM    3  C5  UNL     1      -0.048  -1.726  -0.147  1.00  0.00     0.006 C 
HETATM    4  C6  UNL     1      -1.130  -2.378   0.147  1.00  0.00    -0.056 C 
HETATM    5  C7  UNL     1      -1.040  -3.868  -0.098  1.00  0.00     0.045 C 
HETATM    6  C8  UNL     1      -2.498  -2.142   0.650  1.00  0.00     0.305 C 
HETATM    7  N2  UNL     1      -2.856  -0.788   0.910  1.00  0.00     0.106 N 
HETATM    8  C9  UNL     1      -2.984   0.003  -0.305  1.00  0.00     0.417 C 
HETATM    9  N3  UNL     1      -3.430   1.304   0.059  1.00  0.00    -0.276 NA
HETATM   10  C10 UNL     1      -2.858   2.399  -0.153  1.00  0.00     0.091 C 
HETATM   11  C11 UNL     1      -2.072   3.627  -0.469  1.00  0.00     0.107 C 
HETATM   12  C12 UNL     1      -0.705   3.479   0.149  1.00  0.00     0.061 A 
HETATM   13  C13 UNL     1       0.051   3.970   1.175  1.00  0.00     0.048 A 
HETATM   14  C14 UNL     1       1.256   3.309   1.103  1.00  0.00     0.114 A 
HETATM   15  N4  UNL     1       1.213   2.439   0.049  1.00  0.00    -0.275 N 
HETATM   16  N5  UNL     1       0.023   2.568  -0.499  1.00  0.00    -0.177 NA
HETATM   17  C15 UNL     1       2.188   1.520  -0.467  1.00  0.00     0.207 C 
HETATM   18  H12 UNL     1      -3.777  -0.758   1.397  1.00  0.00     0.318 HD
ENDROOT
BRANCH   1  19
HETATM   19  N1  UNL     1       2.416  -0.984  -0.930  1.00  0.00    -0.329 N 
HETATM   20  C2  UNL     1       3.582  -1.208  -0.118  1.00  0.00     0.217 C 
HETATM   21  C1  UNL     1       4.572  -2.311  -0.239  1.00  0.00     0.117 C 
HETATM   22  O1  UNL     1       3.932  -0.466   0.843  1.00  0.00    -0.274 OA
HETATM   23  H4  UNL     1       2.398  -1.750  -1.639  1.00  0.00     0.168 HD
ENDBRANCH   1  19
TORSDOF 1
