REMARK  0 active torsions:
REMARK  status: ('A' for Active; 'I' for Inactive)
ROOT
HETATM    1  C1  UNL     1      -1.470  -1.390  -1.920  1.00  0.00    -0.014 C 
HETATM    2  C2  UNL     1      -2.634  -1.816  -1.499  1.00  0.00    -0.014 C 
HETATM    3  C3  UNL     1      -3.284  -0.849  -0.850  1.00  0.00     0.014 C 
HETATM    4  C4  UNL     1      -3.106   0.544  -1.262  1.00  0.00     0.020 C 
HETATM    5  C5  UNL     1      -2.880   1.733  -0.726  1.00  0.00     0.116 C 
HETATM    6  N1  UNL     1      -2.667   2.507   0.411  1.00  0.00    -0.271 NA
HETATM    7  C6  UNL     1      -1.495   2.727   0.869  1.00  0.00     0.147 C 
HETATM    8  C7  UNL     1      -0.045   2.642   0.924  1.00  0.00     0.075 C 
HETATM    9  N2  UNL     1       0.709   1.646   1.244  1.00  0.00    -0.247 NA
HETATM   10  C8  UNL     1       1.796   1.685   0.295  1.00  0.00     0.068 C 
HETATM   11  C9  UNL     1       2.031   2.980   0.450  1.00  0.00     0.007 C 
HETATM   12  C10 UNL     1       0.930   3.686   0.622  1.00  0.00     0.048 C 
HETATM   13  C11 UNL     1       2.494   0.776  -0.573  1.00  0.00     0.028 C 
HETATM   14  C12 UNL     1       2.870  -0.473  -0.368  1.00  0.00    -0.024 C 
HETATM   15  C13 UNL     1       2.718  -1.369   0.784  1.00  0.00     0.027 C 
HETATM   16  C14 UNL     1       2.014  -2.647   0.554  1.00  0.00     0.007 C 
HETATM   17  C15 UNL     1       0.632  -2.636   0.045  1.00  0.00     0.027 C 
HETATM   18  C16 UNL     1      -0.375  -1.920   0.817  1.00  0.00    -0.027 C 
HETATM   19  C17 UNL     1      -1.124  -0.916   0.327  1.00  0.00    -0.003 C 
HETATM   20  C18 UNL     1      -0.918  -0.512  -1.087  1.00  0.00     0.013 C 
ENDROOT
TORSDOF 0
