REMARK  8 active torsions:
REMARK  status: ('A' for Active; 'I' for Inactive)
REMARK    1  A    between atoms: C2_2  and  N1_3 
REMARK    2  A    between atoms: C3_4  and  C4_5 
REMARK    3  A    between atoms: C4_5  and  N2_6 
REMARK    4  A    between atoms: C4_5  and  N4_18 
REMARK    5  A    between atoms: N2_6  and  B1_7 
REMARK    6  A    between atoms: B1_7  and  C5_8 
REMARK    7  A    between atoms: C9_12  and  N3_13 
REMARK       I    between atoms: N3_13  and  C10_14 
REMARK    8  A    between atoms: C13_19  and  C14_20 
ROOT
HETATM    1  C4  UNL     1      -1.943  -0.884   0.513  1.00  0.00     0.247 C 
ENDROOT
BRANCH   1   2
HETATM    2  C3  UNL     1      -2.183  -2.274   0.978  1.00  0.00     0.137 C 
HETATM    3  N1  UNL     1      -3.400  -2.719   1.005  1.00  0.00    -0.274 NA
BRANCH   3   4
HETATM    4  C2  UNL     1      -3.645  -4.049   1.448  1.00  0.00     0.105 C 
HETATM    5  C1  UNL     1      -2.818  -4.991   1.024  1.00  0.00     0.032 C 
ENDBRANCH   3   4
ENDBRANCH   1   2
BRANCH   1   6
HETATM    6  N2  UNL     1      -0.916  -0.314   1.364  1.00  0.00    -0.364 NA
BRANCH   6   7
HETATM    7  B1  UNL     1       0.689  -0.337   0.813  1.00  0.00     0.340 B 
BRANCH   7   8
HETATM    8  C5  UNL     1       2.257  -0.523  -0.063  1.00  0.00    -0.075 A 
HETATM    9  C6  UNL     1       2.539  -1.510  -0.974  1.00  0.00    -0.003 A 
HETATM   10  C7  UNL     1       3.794  -1.479  -1.533  1.00  0.00     0.002 A 
HETATM   11  C8  UNL     1       4.716  -0.513  -1.199  1.00  0.00     0.029 A 
HETATM   12  C9  UNL     1       4.410   0.481  -0.271  1.00  0.00     0.034 A 
HETATM   13  C12 UNL     1       3.146   0.464   0.303  1.00  0.00     0.026 A 
BRANCH  12  14
HETATM   14  N3  UNL     1       5.475   1.402  -0.039  1.00  0.00    -0.328 N 
HETATM   15  C10 UNL     1       6.378   1.059   1.005  1.00  0.00     0.218 C 
HETATM   16  C11 UNL     1       7.545   1.893   1.392  1.00  0.00     0.117 C 
HETATM   17  O1  UNL     1       6.189  -0.022   1.656  1.00  0.00    -0.274 OA
HETATM   18  H9  UNL     1       5.638   2.274  -0.555  1.00  0.00     0.169 HD
ENDBRANCH  12  14
ENDBRANCH   7   8
ENDBRANCH   6   7
ENDBRANCH   1   6
BRANCH   1  19
HETATM   19  N4  UNL     1      -3.158  -0.095   0.540  1.00  0.00    -0.270 NA
HETATM   20  C13 UNL     1      -3.248   0.866  -0.337  1.00  0.00     0.126 C 
BRANCH  20  21
HETATM   21  C14 UNL     1      -4.411   1.765  -0.450  1.00  0.00    -0.001 A 
HETATM   22  C15 UNL     1      -4.517   2.798  -1.386  1.00  0.00     0.016 A 
HETATM   23  C16 UNL     1      -5.653   3.581  -1.405  1.00  0.00     0.020 A 
HETATM   24  C17 UNL     1      -6.642   3.307  -0.491  1.00  0.00     0.116 A 
HETATM   25  N5  UNL     1      -6.547   2.318   0.409  1.00  0.00    -0.272 NA
HETATM   26  C18 UNL     1      -5.444   1.537   0.448  1.00  0.00     0.129 A 
ENDBRANCH  20  21
ENDBRANCH   1  19
TORSDOF 8
