REMARK  6 active torsions:
REMARK  status: ('A' for Active; 'I' for Inactive)
REMARK    1  A    between atoms: C5_5  and  N1_6 
REMARK    2  A    between atoms: N1_6  and  C6_7 
REMARK    3  A    between atoms: C6_7  and  O1_9 
REMARK    4  A    between atoms: C9_11  and  N2_12 
REMARK    5  A    between atoms: N2_12  and  C10_13 
REMARK    6  A    between atoms: C13_17  and  C14_18 
ROOT
HETATM    1  N2  UNL     1      -0.112  -1.702   0.457  1.00  0.00    -0.214 N 
HETATM    2  H15 UNL     1       0.196  -2.559   1.006  1.00  0.00     0.178 HD
ENDROOT
BRANCH   1   3
HETATM    3  C9  UNL     1      -1.474  -1.499  -0.015  1.00  0.00     0.134 A 
HETATM    4  C2  UNL     1      -1.527  -1.378  -1.489  1.00  0.00    -0.060 A 
HETATM    5  C1  UNL     1      -0.906  -2.630  -2.022  1.00  0.00     0.045 C 
HETATM    6  C3  UNL     1      -1.989  -0.438  -2.296  1.00  0.00     0.006 A 
HETATM    7  C4  UNL     1      -2.576   0.745  -1.685  1.00  0.00     0.025 A 
HETATM    8  C5  UNL     1      -2.570   0.723  -0.364  1.00  0.00     0.009 A 
HETATM    9  C8  UNL     1      -2.081  -0.273   0.618  1.00  0.00     0.087 A 
BRANCH   8  10
HETATM   10  N1  UNL     1      -3.112   1.813   0.383  1.00  0.00    -0.367 N 
HETATM   11  H6  UNL     1      -2.497   2.419   0.973  1.00  0.00     0.162 HD
BRANCH  10  12
HETATM   12  C6  UNL     1      -4.541   1.888   0.170  1.00  0.00     0.213 C 
HETATM   13  C7  UNL     1      -5.246   0.605   0.614  1.00  0.00     0.063 C 
BRANCH  12  14
HETATM   14  O1  UNL     1      -5.019   2.892   1.003  1.00  0.00    -0.377 OA
HETATM   15  H11 UNL     1      -5.985   3.064   0.847  1.00  0.00     0.212 HD
ENDBRANCH  12  14
ENDBRANCH  10  12
ENDBRANCH   8  10
ENDBRANCH   1   3
BRANCH   1  16
HETATM   16  C10 UNL     1       0.854  -0.704   0.169  1.00  0.00     0.723 A 
HETATM   17  N3  UNL     1       0.491   0.390  -0.524  1.00  0.00    -0.075 NA
HETATM   18  C11 UNL     1       1.342   1.365  -0.830  1.00  0.00     0.139 A 
HETATM   19  C12 UNL     1       2.646   1.205  -0.398  1.00  0.00     0.053 A 
HETATM   20  C13 UNL     1       3.061   0.100   0.315  1.00  0.00     0.089 A 
HETATM   21  N5  UNL     1       2.117  -0.824   0.568  1.00  0.00    -0.062 NA
BRANCH  20  22
HETATM   22  C14 UNL     1       4.434  -0.077   0.774  1.00  0.00     0.011 A 
HETATM   23  C15 UNL     1       5.467   0.806   0.566  1.00  0.00     0.017 A 
HETATM   24  C16 UNL     1       6.732   0.516   1.059  1.00  0.00     0.020 A 
HETATM   25  C17 UNL     1       6.987  -0.649   1.761  1.00  0.00     0.116 A 
HETATM   26  N4  UNL     1       5.976  -1.493   1.953  1.00  0.00    -0.272 NA
HETATM   27  C18 UNL     1       4.754  -1.214   1.479  1.00  0.00     0.130 A 
ENDBRANCH  20  22
ENDBRANCH   1  16
TORSDOF 6
