REMARK  4 active torsions:
REMARK  status: ('A' for Active; 'I' for Inactive)
REMARK       I    between atoms: C2_2  and  N1_4 
REMARK    1  A    between atoms: N1_4  and  C3_5 
REMARK    2  A    between atoms: C8_10  and  N2_11 
REMARK    3  A    between atoms: N2_11  and  C9_12 
REMARK    4  A    between atoms: C11_15  and  C12_16 
ROOT
HETATM    1  N2  UNL     1       0.076  -0.867  -1.790  1.00  0.00    -0.188 N 
HETATM    2  H10 UNL     1       0.394  -1.542  -2.546  1.00  0.00     0.184 HD
ENDROOT
BRANCH   1   3
HETATM    3  C8  UNL     1      -1.326  -0.708  -1.646  1.00  0.00     0.057 A 
HETATM    4  C6  UNL     1      -2.233  -1.378  -2.455  1.00  0.00    -0.035 A 
HETATM    5  C5  UNL     1      -3.599  -1.248  -2.339  1.00  0.00     0.011 A 
HETATM    6  C7  UNL     1      -1.687  -2.294  -3.514  1.00  0.00     0.050 C 
HETATM    7  C4  UNL     1      -4.135  -0.430  -1.395  1.00  0.00     0.030 A 
HETATM    8  C3  UNL     1      -3.293   0.267  -0.555  1.00  0.00     0.036 A 
HETATM    9  C17 UNL     1      -1.934   0.100  -0.715  1.00  0.00     0.060 A 
BRANCH   8  10
HETATM   10  N1  UNL     1      -3.850   1.124   0.434  1.00  0.00    -0.327 N 
HETATM   11  C2  UNL     1      -4.140   0.568   1.733  1.00  0.00     0.218 C 
HETATM   12  C1  UNL     1      -4.720   1.282   2.901  1.00  0.00     0.117 C 
HETATM   13  O1  UNL     1      -3.864  -0.658   1.874  1.00  0.00    -0.274 OA
HETATM   14  H4  UNL     1      -4.101   2.155   0.372  1.00  0.00     0.169 HD
ENDBRANCH   8  10
ENDBRANCH   1   3
BRANCH   1  15
HETATM   15  C9  UNL     1       1.035  -0.189  -0.995  1.00  0.00     0.723 A 
HETATM   16  N3  UNL     1       0.911   1.028  -0.645  1.00  0.00    -0.099 NA
HETATM   17  C10 UNL     1       2.079   1.387   0.162  1.00  0.00     0.229 A 
HETATM   18  C11 UNL     1       2.889   0.127   0.197  1.00  0.00     0.085 A 
HETATM   19  N5  UNL     1       2.234  -0.770  -0.497  1.00  0.00    -0.065 NA
BRANCH  18  20
HETATM   20  C12 UNL     1       4.162   0.002   0.896  1.00  0.00     0.009 A 
HETATM   21  C13 UNL     1       4.721   1.052   1.587  1.00  0.00     0.016 A 
HETATM   22  C14 UNL     1       5.943   0.826   2.222  1.00  0.00     0.020 A 
HETATM   23  C15 UNL     1       6.624  -0.384   2.198  1.00  0.00     0.116 A 
HETATM   24  N4  UNL     1       6.033  -1.392   1.504  1.00  0.00    -0.272 NA
HETATM   25  C16 UNL     1       4.854  -1.192   0.885  1.00  0.00     0.129 A 
ENDBRANCH  18  20
ENDBRANCH   1  15
TORSDOF 4
