REMARK  2 active torsions:
REMARK  status: ('A' for Active; 'I' for Inactive)
REMARK    1  A    between atoms: C7_10  and  C8_11 
REMARK    2  A    between atoms: C8_11  and  C9_12 
ROOT
HETATM    1  C1  UNL     1       3.850  -1.657  -0.077  1.00  0.00     0.091 C 
HETATM    2  C2  UNL     1       2.540  -0.944  -0.147  1.00  0.00     0.102 C 
HETATM    3  N1  UNL     1       1.869  -1.153  -1.264  1.00  0.00    -0.217 NA
HETATM    4  C3  UNL     1       0.603  -0.584  -1.552  1.00  0.00     0.146 C 
HETATM    5  N2  UNL     1       0.815   0.555  -2.341  1.00  0.00    -0.261 NA
HETATM    6  C4  UNL     1      -0.571   1.035  -2.593  1.00  0.00     0.166 A 
HETATM    7  C5  UNL     1      -1.708   1.519  -2.175  1.00  0.00     0.113 A 
HETATM    8  C6  UNL     1      -0.995   1.450  -1.026  1.00  0.00     0.109 A 
HETATM    9  S1  UNL     1      -2.570   1.546  -0.483  1.00  0.00    -0.148 SA
HETATM   10  C7  UNL     1      -2.877  -0.074   0.058  1.00  0.00    -0.022 C 
HETATM   11  C10 UNL     1      -1.736  -0.949  -0.203  1.00  0.00     0.018 C 
HETATM   12  C11 UNL     1      -0.540  -1.157  -0.736  1.00  0.00     0.053 C 
HETATM   13  N3  UNL     1      -0.170   1.417   0.031  1.00  0.00    -0.399 N 
HETATM   14  C12 UNL     1       0.694   1.379   1.156  1.00  0.00     0.144 C 
HETATM   15  C13 UNL     1       2.061   1.908   0.961  1.00  0.00     0.009 C 
HETATM   16  C14 UNL     1       3.072   1.070   0.973  1.00  0.00     0.087 C 
HETATM   17  N4  UNL     1       2.624  -0.290   1.174  1.00  0.00    -0.355 N 
HETATM   18  H11 UNL     1       0.357   1.941  -0.701  1.00  0.00     0.155 HD
HETATM   19  H16 UNL     1       2.375  -0.856   2.005  1.00  0.00     0.166 HD
ENDROOT
BRANCH  10  20
HETATM   20  C8  UNL     1      -4.129  -0.446   0.674  1.00  0.00     0.114 C 
BRANCH  20  21
HETATM   21  C9  UNL     1      -4.012  -0.976   2.064  1.00  0.00     0.236 C 
HETATM   22  O1  UNL     1      -5.023  -1.308   2.671  1.00  0.00    -0.307 OA
ENDBRANCH  20  21
ENDBRANCH  10  20
TORSDOF 2
