REMARK  5 active torsions:
REMARK  status: ('A' for Active; 'I' for Inactive)
REMARK    1  A    between atoms: C2_2  and  N1_3 
REMARK    2  A    between atoms: N1_3  and  O1_4 
REMARK    3  A    between atoms: N1_3  and  C3_5 
REMARK    4  A    between atoms: C8_10  and  N2_11 
REMARK    5  A    between atoms: N2_11  and  C9_12 
ROOT
HETATM    1  N2  UNL     1      -0.461  -0.187  -0.508  1.00  0.00    -0.209 N 
HETATM    2  H13 UNL     1      -0.568   0.731  -0.070  1.00  0.00     0.179 HD
ENDROOT
BRANCH   1   3
HETATM    3  C8  UNL     1      -1.660  -0.812  -0.976  1.00  0.00     0.174 A 
HETATM    4  C3  UNL     1      -2.879   0.012  -0.743  1.00  0.00     0.058 A 
HETATM    5  C4  UNL     1      -3.987  -0.548  -0.281  1.00  0.00     0.007 A 
HETATM    6  C5  UNL     1      -4.230  -1.988   0.071  1.00  0.00     0.056 A 
HETATM    7  C6  UNL     1      -2.955  -2.757  -0.031  1.00  0.00    -0.024 A 
HETATM    8  C7  UNL     1      -1.856  -2.197  -0.496  1.00  0.00     0.001 A 
BRANCH   4   9
HETATM    9  N1  UNL     1      -2.720   1.380  -1.054  1.00  0.00    -0.263 N 
BRANCH   9  10
HETATM   10  C2  UNL     1      -3.173   2.520  -0.266  1.00  0.00     0.151 C 
HETATM   11  C1  UNL     1      -4.673   2.653  -0.224  1.00  0.00     0.029 C 
ENDBRANCH   9  10
BRANCH   9  12
HETATM   12  O1  UNL     1      -2.073   1.705  -2.222  1.00  0.00    -0.287 OA
HETATM   13  H6  UNL     1      -2.182   1.030  -2.919  1.00  0.00     0.244 HD
ENDBRANCH   9  12
ENDBRANCH   4   9
ENDBRANCH   1   3
BRANCH   1  14
HETATM   14  C9  UNL     1       0.836  -0.770  -0.622  1.00  0.00     0.723 A 
HETATM   15  N3  UNL     1       1.041  -1.980  -1.192  1.00  0.00    -0.075 NA
HETATM   16  C10 UNL     1       2.285  -2.501  -1.280  1.00  0.00     0.139 A 
HETATM   17  C11 UNL     1       3.366  -1.815  -0.794  1.00  0.00     0.053 A 
HETATM   18  C12 UNL     1       3.148  -0.594  -0.220  1.00  0.00     0.089 A 
HETATM   19  C13 UNL     1       4.234   0.186   0.313  1.00  0.00     0.011 A 
HETATM   20  N5  UNL     1       1.908  -0.121  -0.155  1.00  0.00    -0.062 NA
HETATM   21  C14 UNL     1       5.569  -0.162   0.324  1.00  0.00     0.017 A 
HETATM   22  C17 UNL     1       3.999   1.435   0.898  1.00  0.00     0.130 A 
HETATM   23  C15 UNL     1       6.549   0.640   0.854  1.00  0.00     0.020 A 
HETATM   24  C16 UNL     1       6.240   1.862   1.415  1.00  0.00     0.116 A 
HETATM   25  N4  UNL     1       4.943   2.222   1.415  1.00  0.00    -0.272 NA
ENDBRANCH   1  14
TORSDOF 5
