REMARK  7 active torsions:
REMARK  status: ('A' for Active; 'I' for Inactive)
REMARK    1  A    between atoms: C5_5  and  N1_6 
REMARK       I    between atoms: N1_6  and  C6_7 
REMARK    2  A    between atoms: C6_7  and  C7_9 
REMARK    3  A    between atoms: C14_17  and  N2_18 
REMARK    4  A    between atoms: N2_18  and  C15_19 
REMARK    5  A    between atoms: C15_19  and  C16_20 
REMARK    6  A    between atoms: C17_21  and  C18_22 
REMARK    7  A    between atoms: C22_27  and  N4_28 
ROOT
HETATM    1  C1  UNL     1      -0.270  -3.702   2.724  1.00  0.00     0.050 C 
HETATM    2  C2  UNL     1       0.653  -2.765   2.004  1.00  0.00    -0.035 A 
HETATM    3  C3  UNL     1       1.973  -2.706   2.377  1.00  0.00     0.011 A 
HETATM    4  C4  UNL     1       2.793  -1.836   1.697  1.00  0.00     0.030 A 
HETATM    5  C5  UNL     1       2.410  -1.014   0.672  1.00  0.00     0.037 A 
HETATM    6  C13 UNL     1       1.078  -1.113   0.338  1.00  0.00     0.059 A 
HETATM    7  C14 UNL     1       0.183  -1.955   0.962  1.00  0.00     0.036 A 
ENDROOT
BRANCH   7   8
HETATM    8  N2  UNL     1      -1.182  -2.045   0.586  1.00  0.00    -0.386 N 
HETATM    9  H12 UNL     1      -1.765  -2.752   1.135  1.00  0.00     0.160 HD
BRANCH   8  10
HETATM   10  C15 UNL     1      -1.998  -1.391  -0.385  1.00  0.00     0.147 C 
BRANCH  10  11
HETATM   11  C16 UNL     1      -2.281   0.043  -0.107  1.00  0.00    -0.011 C 
HETATM   12  C17 UNL     1      -3.348   0.829   0.099  1.00  0.00    -0.017 C 
BRANCH  12  13
HETATM   13  C18 UNL     1      -4.805   0.961   0.208  1.00  0.00     0.081 A 
HETATM   14  C19 UNL     1      -5.583  -0.313   0.177  1.00  0.00     0.045 A 
HETATM   15  C20 UNL     1      -6.682  -0.317  -0.839  1.00  0.00    -0.006 A 
HETATM   16  C21 UNL     1      -7.101   0.582  -1.710  1.00  0.00     0.114 A 
HETATM   17  N3  UNL     1      -6.336   1.796  -1.654  1.00  0.00    -0.248 NA
HETATM   18  C22 UNL     1      -5.356   1.914  -0.812  1.00  0.00     0.105 A 
BRANCH  18  19
HETATM   19  N4  UNL     1      -4.643   3.151  -0.817  1.00  0.00    -0.387 N 
HETATM   20  H22 UNL     1      -3.974   3.839  -1.203  1.00  0.00     0.157 HD
HETATM   21  H23 UNL     1      -4.848   3.783  -0.012  1.00  0.00     0.157 HD
ENDBRANCH  18  19
ENDBRANCH  12  13
ENDBRANCH  10  11
ENDBRANCH   8  10
ENDBRANCH   7   8
BRANCH   5  22
HETATM   22  N1  UNL     1       3.238  -0.119  -0.034  1.00  0.00    -0.323 N 
HETATM   23  C6  UNL     1       4.596   0.154   0.118  1.00  0.00     0.256 C 
HETATM   24  O1  UNL     1       5.234  -0.453   0.993  1.00  0.00    -0.267 OA
HETATM   25  H6  UNL     1       2.826   0.461  -0.803  1.00  0.00     0.169 HD
BRANCH  23  26
HETATM   26  C7  UNL     1       5.372   1.102  -0.661  1.00  0.00     0.032 A 
HETATM   27  C8  UNL     1       6.716   1.270  -0.401  1.00  0.00     0.018 A 
HETATM   28  C9  UNL     1       7.504   2.172  -1.126  1.00  0.00     0.025 A 
HETATM   29  C10 UNL     1       6.951   2.929  -2.137  1.00  0.00     0.034 A 
HETATM   30 CL1  UNL     1       7.986   4.040  -3.009  1.00  0.00    -0.084 Cl
HETATM   31  C11 UNL     1       5.609   2.778  -2.416  1.00  0.00     0.025 A 
HETATM   32  C12 UNL     1       4.883   1.888  -1.682  1.00  0.00     0.018 A 
ENDBRANCH  23  26
ENDBRANCH   5  22
TORSDOF 7
