REMARK  5 active torsions:
REMARK  status: ('A' for Active; 'I' for Inactive)
REMARK    1  A    between atoms: O1_2  and  C2_3 
REMARK    2  A    between atoms: C7_9  and  N1_10 
REMARK    3  A    between atoms: N1_10  and  C8_11 
REMARK    4  A    between atoms: C12_15  and  C13_16 
REMARK    5  A    between atoms: C16_20  and  C17_21 
ROOT
HETATM    1  C8  UNL     1       2.001  -1.522  -0.193  1.00  0.00     0.033 C 
HETATM    2  C9  UNL     1       1.275  -2.041  -1.168  1.00  0.00     0.027 C 
HETATM    3  C10 UNL     1      -0.164  -2.076  -1.370  1.00  0.00     0.001 C 
HETATM    4  C11 UNL     1      -1.002  -1.362  -0.648  1.00  0.00     0.013 C 
HETATM    5  C12 UNL     1      -0.765  -0.409   0.466  1.00  0.00     0.216 C 
HETATM    6  O2  UNL     1       0.501   0.083   0.570  1.00  0.00    -0.368 OA
HETATM    7  C22 UNL     1       1.469  -0.796   1.013  1.00  0.00     0.226 C 
ENDROOT
BRANCH   5   8
HETATM    8  C13 UNL     1      -1.699   0.726   0.224  1.00  0.00     0.159 A 
HETATM    9  N2  UNL     1      -1.519   2.030  -0.034  1.00  0.00    -0.243 NA
HETATM   10  C14 UNL     1      -2.538   2.884  -0.248  1.00  0.00     0.121 A 
HETATM   11  C15 UNL     1      -3.806   2.336  -0.191  1.00  0.00     0.052 A 
HETATM   12  C16 UNL     1      -4.071   1.013   0.064  1.00  0.00     0.072 A 
HETATM   13  N4  UNL     1      -2.954   0.306   0.255  1.00  0.00    -0.230 NA
BRANCH  12  14
HETATM   14  C17 UNL     1      -5.386   0.398   0.089  1.00  0.00     0.010 A 
HETATM   15  C18 UNL     1      -6.618   0.926  -0.056  1.00  0.00     0.017 A 
HETATM   16  C19 UNL     1      -7.804   0.230  -0.035  1.00  0.00     0.020 A 
HETATM   17  C20 UNL     1      -7.685  -1.149   0.158  1.00  0.00     0.116 A 
HETATM   18  N3  UNL     1      -6.506  -1.743   0.309  1.00  0.00    -0.272 NA
HETATM   19  C21 UNL     1      -5.393  -0.992   0.276  1.00  0.00     0.130 A 
ENDBRANCH  12  14
ENDBRANCH   5   8
BRANCH   1  20
HETATM   20  N1  UNL     1       3.398  -1.673  -0.316  1.00  0.00    -0.356 N 
HETATM   21  H7  UNL     1       3.672  -2.539  -0.880  1.00  0.00     0.166 HD
BRANCH  20  22
HETATM   22  C7  UNL     1       4.521  -0.927   0.138  1.00  0.00     0.066 A 
HETATM   23  C2  UNL     1       4.683   0.457   0.084  1.00  0.00     0.096 A 
HETATM   24  C3  UNL     1       5.845   0.984   0.596  1.00  0.00     0.062 A 
HETATM   25  C4  UNL     1       6.824   0.189   1.146  1.00  0.00     0.036 A 
HETATM   26 CL1  UNL     1       8.321   0.836   1.789  1.00  0.00    -0.084 Cl
HETATM   27  C5  UNL     1       6.707  -1.176   1.220  1.00  0.00     0.026 A 
HETATM   28  C6  UNL     1       5.526  -1.720   0.701  1.00  0.00     0.034 A 
BRANCH  23  29
HETATM   29  O1  UNL     1       3.645   1.148  -0.482  1.00  0.00    -0.354 OA
HETATM   30  C1  UNL     1       3.650   2.544  -0.614  1.00  0.00     0.210 C 
ENDBRANCH  23  29
ENDBRANCH  20  22
ENDBRANCH   1  20
TORSDOF 5
