REMARK  4 active torsions:
REMARK  status: ('A' for Active; 'I' for Inactive)
REMARK    1  A    between atoms: C6_6  and  C7_7 
REMARK    2  A    between atoms: C8_8  and  C9_9 
REMARK    3  A    between atoms: C9_9  and  N1_10 
REMARK    4  A    between atoms: N1_10  and  C10_11 
ROOT
HETATM    1  N1  UNL     1       1.319   1.689  -0.750  1.00  0.00    -0.396 N 
HETATM    2  H9  UNL     1       1.303   2.030  -1.715  1.00  0.00     0.155 HD
ENDROOT
BRANCH   1   3
HETATM    3  C9  UNL     1       0.697   0.435  -0.519  1.00  0.00     0.143 C 
BRANCH   3   4
HETATM    4  C8  UNL     1       0.019   0.325   0.769  1.00  0.00    -0.008 C 
HETATM    5  C7  UNL     1      -1.292   0.082   0.894  1.00  0.00    -0.001 C 
BRANCH   5   6
HETATM    6  C6  UNL     1      -2.199  -0.104  -0.224  1.00  0.00     0.024 C 
HETATM    7  C5  UNL     1      -3.481  -0.341  -0.052  1.00  0.00     0.008 C 
HETATM    8  C4  UNL     1      -4.401  -0.496   1.109  1.00  0.00     0.084 C 
HETATM    9  N5  UNL     1      -4.422  -0.583  -1.071  1.00  0.00    -0.393 N 
HETATM   10  C3  UNL     1      -5.212  -1.737   1.070  1.00  0.00    -0.008 C 
HETATM   11  C2  UNL     1      -6.181  -1.871   1.939  1.00  0.00    -0.018 C 
HETATM   12  C1  UNL     1      -6.820  -0.729   2.069  1.00  0.00    -0.018 C 
HETATM   13  C22 UNL     1      -6.912  -0.184   0.851  1.00  0.00    -0.012 C 
HETATM   14  C21 UNL     1      -6.816  -0.691  -0.507  1.00  0.00     0.047 C 
HETATM   15  C20 UNL     1      -5.732  -0.214  -1.404  1.00  0.00     0.123 C 
HETATM   16  H18 UNL     1      -3.898  -1.232  -1.701  1.00  0.00     0.159 HD
ENDBRANCH   5   6
ENDBRANCH   3   4
ENDBRANCH   1   3
BRANCH   1  17
HETATM   17  C10 UNL     1       2.471   2.028   0.013  1.00  0.00     0.222 C 
HETATM   18  C11 UNL     1       2.150   2.142   1.488  1.00  0.00     0.277 C 
HETATM   19  N2  UNL     1       3.051   2.053   2.459  1.00  0.00    -0.310 NA
HETATM   20  C12 UNL     1       4.416   1.830   1.980  1.00  0.00     0.051 C 
HETATM   21  C13 UNL     1       4.660   0.621   1.530  1.00  0.00     0.043 C 
HETATM   22  C14 UNL     1       5.573  -0.321   0.951  1.00  0.00     0.069 A 
HETATM   23  N3  UNL     1       6.421  -1.211   1.437  1.00  0.00    -0.260 NA
HETATM   24  C18 UNL     1       5.349  -0.052  -0.422  1.00  0.00     0.010 A 
HETATM   25  C15 UNL     1       7.172  -1.964   0.583  1.00  0.00     0.117 A 
HETATM   26  C16 UNL     1       7.044  -1.794  -0.777  1.00  0.00     0.020 A 
HETATM   27  C17 UNL     1       6.150  -0.858  -1.242  1.00  0.00     0.017 A 
HETATM   28  C19 UNL     1       4.416   0.921  -1.056  1.00  0.00     0.126 C 
HETATM   29  N4  UNL     1       3.596   1.227  -0.188  1.00  0.00    -0.274 NA
ENDBRANCH   1  17
TORSDOF 4
