REMARK  6 active torsions:
REMARK  status: ('A' for Active; 'I' for Inactive)
REMARK    1  A    between atoms: O1_2  and  C2_3 
REMARK    2  A    between atoms: C9_11  and  C10_12 
REMARK    3  A    between atoms: C10_12  and  N2_13 
REMARK    4  A    between atoms: N2_13  and  C11_14 
REMARK    5  A    between atoms: C11_14  and  N3_15 
REMARK    6  A    between atoms: N3_15  and  C12_16 
ROOT
HETATM    1  C2  UNL     1       5.445   0.594  -0.212  1.00  0.00     0.069 A 
HETATM    2  C3  UNL     1       5.531  -0.644   0.382  1.00  0.00     0.039 A 
HETATM    3  C4  UNL     1       4.419  -1.146   0.985  1.00  0.00     0.040 A 
HETATM    4  C5  UNL     1       3.233  -0.425   1.000  1.00  0.00     0.086 A 
HETATM    5  C6  UNL     1       3.081   0.825   0.421  1.00  0.00    -0.004 A 
HETATM    6  C7  UNL     1       4.255   1.289  -0.183  1.00  0.00     0.048 A 
HETATM    7  C8  UNL     1       2.023   1.821   0.259  1.00  0.00     0.162 C 
HETATM    8  N1  UNL     1       0.689   1.280   0.100  1.00  0.00    -0.374 N 
HETATM    9  C9  UNL     1       0.208   0.153   0.817  1.00  0.00     0.147 C 
HETATM   10  C18 UNL     1       0.804  -0.960   1.541  1.00  0.00     0.199 C 
HETATM   11  N4  UNL     1       0.034  -1.845   2.078  1.00  0.00    -0.275 NA
HETATM   12  O2  UNL     1       2.183  -1.089   1.665  1.00  0.00    -0.289 OA
HETATM   13  H9  UNL     1       0.049   1.758  -0.588  1.00  0.00     0.160 HD
HETATM   14  H17 UNL     1      -0.990  -1.694   1.951  1.00  0.00     0.189 HD
ENDROOT
BRANCH   9  15
HETATM   15  C10 UNL     1      -1.116   0.086   0.830  1.00  0.00     0.014 C 
BRANCH  15  16
HETATM   16  N2  UNL     1      -2.331  -0.174   0.480  1.00  0.00    -0.226 NA
BRANCH  16  17
HETATM   17  C11 UNL     1      -2.562  -0.971  -0.722  1.00  0.00     0.281 C 
BRANCH  17  18
HETATM   18  N3  UNL     1      -3.853  -1.607  -0.546  1.00  0.00    -0.371 N 
HETATM   19  H12 UNL     1      -3.954  -2.653  -0.539  1.00  0.00     0.161 HD
BRANCH  18  20
HETATM   20  C12 UNL     1      -5.009  -0.835  -0.378  1.00  0.00     0.030 A 
HETATM   21  C13 UNL     1      -5.007   0.543  -0.370  1.00  0.00     0.029 A 
HETATM   22  C14 UNL     1      -6.131   1.328  -0.206  1.00  0.00     0.004 A 
HETATM   23  C15 UNL     1      -7.352   0.673  -0.038  1.00  0.00     0.019 A 
HETATM   24  C16 UNL     1      -7.447  -0.705  -0.034  1.00  0.00     0.013 A 
HETATM   25 BR1  UNL     1      -9.112  -1.584   0.195  1.00  0.00    -0.051 Br
HETATM   26  C17 UNL     1      -6.256  -1.391  -0.206  1.00  0.00     0.048 A 
ENDBRANCH  18  20
ENDBRANCH  17  18
ENDBRANCH  16  17
ENDBRANCH  15  16
ENDBRANCH   9  15
BRANCH   1  27
HETATM   27  O1  UNL     1       6.540   1.165  -0.845  1.00  0.00    -0.356 OA
HETATM   28  C1  UNL     1       7.792   0.563  -0.940  1.00  0.00     0.210 C 
ENDBRANCH   1  27
TORSDOF 6
