REMARK  6 active torsions:
REMARK  status: ('A' for Active; 'I' for Inactive)
REMARK    1  A    between atoms: C2_2  and  C3_3 
REMARK    2  A    between atoms: C3_3  and  C4_4 
REMARK    3  A    between atoms: C4_4  and  C5_5 
REMARK    4  A    between atoms: C5_5  and  C6_6 
REMARK       I    between atoms: C6_6  and  N1_8 
REMARK    5  A    between atoms: N1_8  and  C7_9 
REMARK    6  A    between atoms: C7_9  and  C8_10 
ROOT
HETATM    1  C8  UNL     1      -0.921   0.524  -0.921  1.00  0.00     0.021 C 
HETATM    2  C9  UNL     1      -2.090   0.278  -0.362  1.00  0.00     0.006 C 
HETATM    3  C10 UNL     1      -2.097   1.729   0.130  1.00  0.00     0.052 C 
HETATM    4  C11 UNL     1      -2.984   2.530   0.834  1.00  0.00     0.105 C 
HETATM    5  C12 UNL     1      -4.074   3.284   1.617  1.00  0.00     0.243 C 
HETATM    6  N2  UNL     1      -5.414   3.171   1.974  1.00  0.00     0.325 N 
HETATM    7  C13 UNL     1      -5.966   1.871   1.351  1.00  0.00     0.462 C 
HETATM    8  N3  UNL     1      -5.366   1.770   0.077  1.00  0.00    -0.270 NA
HETATM    9  C14 UNL     1      -4.827   0.918  -0.630  1.00  0.00     0.115 C 
HETATM   10  C15 UNL     1      -4.688  -0.434  -0.217  1.00  0.00     0.050 C 
HETATM   11  C16 UNL     1      -4.226  -1.613  -0.276  1.00  0.00     0.058 A 
HETATM   12  N4  UNL     1      -3.825  -2.922  -0.216  1.00  0.00    -0.363 N 
HETATM   13  C17 UNL     1      -2.733  -3.761  -0.195  1.00  0.00     0.107 A 
HETATM   14  C18 UNL     1      -1.576  -3.175  -0.246  1.00  0.00     0.134 A 
HETATM   15  N5  UNL     1      -1.669  -1.769  -0.309  1.00  0.00    -0.261 NA
HETATM   16  C19 UNL     1      -2.785  -1.068  -0.332  1.00  0.00     0.066 A 
HETATM   17  H23 UNL     1      -4.892  -3.222  -0.169  1.00  0.00     0.165 HD
ENDROOT
BRANCH   1  18
HETATM   18  C7  UNL     1      -0.053   1.679  -1.010  1.00  0.00     0.128 C 
BRANCH  18  19
HETATM   19  N1  UNL     1       1.244   1.379  -0.405  1.00  0.00    -0.361 N 
HETATM   20  C6  UNL     1       2.123   0.362  -0.836  1.00  0.00     0.217 C 
HETATM   21  O1  UNL     1       1.860  -0.392  -1.804  1.00  0.00    -0.274 OA
HETATM   22  H12 UNL     1       1.599   1.940   0.425  1.00  0.00     0.162 HD
BRANCH  20  23
HETATM   23  C5  UNL     1       3.424   0.124  -0.160  1.00  0.00     0.103 C 
BRANCH  23  24
HETATM   24  C4  UNL     1       4.168  -1.025  -0.821  1.00  0.00     0.009 C 
BRANCH  24  25
HETATM   25  C3  UNL     1       5.490  -1.280  -0.146  1.00  0.00     0.000 C 
BRANCH  25  26
HETATM   26  C2  UNL     1       6.416  -0.087  -0.185  1.00  0.00    -0.005 C 
HETATM   27  C1  UNL     1       7.707  -0.482   0.529  1.00  0.00     0.005 C 
ENDBRANCH  25  26
ENDBRANCH  24  25
ENDBRANCH  23  24
ENDBRANCH  20  23
ENDBRANCH  18  19
ENDBRANCH   1  18
TORSDOF 6
