REMARK  5 active torsions:
REMARK  status: ('A' for Active; 'I' for Inactive)
REMARK    1  A    between atoms: N1_3  and  C2_4 
REMARK    2  A    between atoms: C4_6  and  N2_7 
REMARK       I    between atoms: N2_7  and  C5_8 
REMARK    3  A    between atoms: C5_8  and  C6_10 
REMARK    4  A    between atoms: C9_13  and  C10_14 
REMARK    5  A    between atoms: C10_14  and  N3_15 
ROOT
HETATM    1  B1  UNL     1      -8.245   1.627   2.229  1.00  0.00     0.222 B 
HETATM    2  C1  UNL     1      -7.772   1.110   0.540  1.00  0.00    -0.158 C 
HETATM    3  N1  UNL     1      -7.420   0.691  -0.758  1.00  0.00    -0.339 N 
HETATM    4  H1  UNL     1      -7.924   1.121  -1.551  1.00  0.00     0.174 HD
ENDROOT
BRANCH   3   5
HETATM    5  C2  UNL     1      -6.389  -0.292  -0.749  1.00  0.00     0.046 A 
HETATM    6  C3  UNL     1      -5.054   0.054  -0.799  1.00  0.00     0.060 A 
HETATM    7  C4  UNL     1      -4.063  -0.905  -0.789  1.00  0.00     0.037 A 
HETATM    8  C18 UNL     1      -4.389  -2.251  -0.729  1.00  0.00     0.030 A 
HETATM    9  C19 UNL     1      -5.703  -2.618  -0.679  1.00  0.00     0.011 A 
HETATM   10  C20 UNL     1      -6.698  -1.644  -0.689  1.00  0.00    -0.035 A 
HETATM   11  C21 UNL     1      -8.127  -2.039  -0.635  1.00  0.00     0.050 C 
BRANCH   7  12
HETATM   12  N2  UNL     1      -2.741  -0.367  -0.846  1.00  0.00    -0.323 N 
HETATM   13  C5  UNL     1      -2.047  -0.052   0.354  1.00  0.00     0.256 C 
HETATM   14  O1  UNL     1      -2.616  -0.255   1.450  1.00  0.00    -0.267 OA
HETATM   15  H3  UNL     1      -2.291  -0.208  -1.774  1.00  0.00     0.169 HD
BRANCH  13  16
HETATM   16  C6  UNL     1      -0.699   0.499   0.366  1.00  0.00     0.032 A 
HETATM   17  C7  UNL     1      -0.115   0.769   1.585  1.00  0.00     0.017 A 
HETATM   18  C8  UNL     1       1.181   1.298   1.588  1.00  0.00     0.010 A 
HETATM   19  C9  UNL     1       1.920   1.570   0.445  1.00  0.00    -0.041 A 
HETATM   20  C16 UNL     1       1.292   1.283  -0.748  1.00  0.00     0.010 A 
HETATM   21  C17 UNL     1       0.016   0.762  -0.783  1.00  0.00     0.017 A 
BRANCH  19  22
HETATM   22  C10 UNL     1       3.261   2.139   0.689  1.00  0.00     0.155 C 
BRANCH  22  23
HETATM   23  N3  UNL     1       4.252   1.152   0.905  1.00  0.00    -0.405 N 
HETATM   24  C11 UNL     1       5.555   1.701   1.137  1.00  0.00     0.147 C 
HETATM   25  C12 UNL     1       6.591   0.603   1.228  1.00  0.00     0.291 C 
HETATM   26  N4  UNL     1       6.645  -0.221   0.063  1.00  0.00     0.087 N 
HETATM   27  C13 UNL     1       7.137  -1.560   0.344  1.00  0.00     0.310 C 
HETATM   28  C14 UNL     1       5.429  -0.258  -0.714  1.00  0.00     0.291 C 
HETATM   29  C15 UNL     1       4.195  -0.034   0.137  1.00  0.00     0.147 C 
ENDBRANCH  22  23
ENDBRANCH  19  22
ENDBRANCH  13  16
ENDBRANCH   7  12
ENDBRANCH   3   5
TORSDOF 5
