REMARK  6 active torsions:
REMARK  status: ('A' for Active; 'I' for Inactive)
REMARK    1  A    between atoms: N1_1  and  C1_2 
REMARK    2  A    between atoms: N2_4  and  C3_5 
REMARK    3  A    between atoms: C3_5  and  C4_6 
REMARK    4  A    between atoms: C16_19  and  C17_20 
REMARK    5  A    between atoms: C20_24  and  C21_25 
REMARK    6  A    between atoms: C22_26  and  O1_27 
ROOT
HETATM    1  C1  UNL     1       0.924  -0.752  -0.799  1.00  0.00     0.055 A 
HETATM    2  C2  UNL     1      -0.312  -1.206  -0.851  1.00  0.00     0.115 A 
HETATM    3  N2  UNL     1      -0.721  -2.353  -0.075  1.00  0.00    -0.384 N 
HETATM    4  C14 UNL     1       0.263  -3.041   0.722  1.00  0.00     0.150 A 
HETATM    5  C15 UNL     1       1.600  -2.412   0.678  1.00  0.00     0.010 A 
HETATM    6  C16 UNL     1       1.984  -1.349  -0.004  1.00  0.00     0.037 A 
ENDROOT
BRANCH   6   7
HETATM    7  C17 UNL     1       3.361  -0.904   0.110  1.00  0.00     0.162 A 
HETATM    8  N4  UNL     1       4.154  -1.629   0.917  1.00  0.00    -0.241 NA
HETATM    9  C18 UNL     1       5.451  -1.369   1.153  1.00  0.00     0.121 A 
HETATM   10  C19 UNL     1       5.920  -0.262   0.481  1.00  0.00     0.052 A 
HETATM   11  C20 UNL     1       5.173   0.529  -0.360  1.00  0.00     0.075 A 
HETATM   12  N6  UNL     1       3.889   0.164  -0.514  1.00  0.00    -0.228 NA
BRANCH  11  13
HETATM   13  C21 UNL     1       5.720   1.685  -1.044  1.00  0.00     0.040 C 
HETATM   14  C22 UNL     1       4.999   2.469  -1.906  1.00  0.00     0.067 C 
HETATM   15  C23 UNL     1       5.432   3.569  -2.590  1.00  0.00    -0.021 C 
HETATM   16  B1  UNL     1       6.913   4.327  -2.026  1.00  0.00     0.336 B 
HETATM   17  N5  UNL     1       7.922   2.895  -1.166  1.00  0.00    -0.366 NA
HETATM   18  C24 UNL     1       7.033   1.985  -0.795  1.00  0.00     0.105 C 
BRANCH  14  19
HETATM   19  O1  UNL     1       3.670   2.187  -2.177  1.00  0.00    -0.361 OA
HETATM   20  H23 UNL     1       2.885   2.743  -1.842  1.00  0.00     0.217 HD
ENDBRANCH  14  19
ENDBRANCH  11  13
ENDBRANCH   6   7
BRANCH   1  21
HETATM   21  N1  UNL     1       1.262   0.378  -1.582  1.00  0.00    -0.397 N 
HETATM   22  H1  UNL     1       1.376  -0.070  -2.530  1.00  0.00     0.156 HD
HETATM   23  H2  UNL     1       1.263   1.174  -0.935  1.00  0.00     0.156 HD
ENDBRANCH   1  21
BRANCH   3  24
HETATM   24  C3  UNL     1      -2.112  -2.685  -0.216  1.00  0.00     0.133 C 
BRANCH  24  25
HETATM   25  C4  UNL     1      -3.027  -1.629   0.357  1.00  0.00     0.007 C 
HETATM   26  C5  UNL     1      -3.785  -1.204  -0.728  1.00  0.00     0.153 C 
HETATM   27  N3  UNL     1      -4.801  -0.168  -0.565  1.00  0.00    -0.405 N 
HETATM   28  C6  UNL     1      -6.123   0.444  -0.386  1.00  0.00     0.118 C 
HETATM   29  C13 UNL     1      -4.052   1.115  -0.541  1.00  0.00     0.118 C 
HETATM   30  C7  UNL     1      -5.954   1.530   0.695  1.00  0.00     0.025 C 
HETATM   31  C8  UNL     1      -5.084   0.924   1.782  1.00  0.00    -0.038 C 
HETATM   32  C9  UNL     1      -4.363   0.461   2.884  1.00  0.00     0.053 C 
HETATM   33  C12 UNL     1      -3.846   1.364   0.905  1.00  0.00     0.025 C 
HETATM   34  C10 UNL     1      -3.345  -0.619   2.668  1.00  0.00    -0.024 C 
HETATM   35  C11 UNL     1      -2.692  -1.516   1.838  1.00  0.00    -0.021 C 
ENDBRANCH  24  25
ENDBRANCH   3  24
TORSDOF 6
