REMARK  5 active torsions:
REMARK  status: ('A' for Active; 'I' for Inactive)
REMARK    1  A    between atoms: C2_2  and  N1_3 
REMARK    2  A    between atoms: N1_3  and  C4_5 
REMARK    3  A    between atoms: C4_5  and  N2_6 
REMARK    4  A    between atoms: C9_11  and  C10_12 
REMARK       I    between atoms: C10_12  and  N3_14 
REMARK    5  A    between atoms: N3_14  and  C11_15 
ROOT
HETATM    1  N2  UNL     1      -1.219  -1.513   0.289  1.00  0.00    -0.377 N 
HETATM    2  C5  UNL     1      -1.821  -2.051   1.424  1.00  0.00     0.147 C 
HETATM    3  C6  UNL     1      -1.534  -1.378   2.715  1.00  0.00    -0.008 C 
HETATM    4  C7  UNL     1      -0.603  -0.486   3.009  1.00  0.00    -0.002 C 
HETATM    5  C8  UNL     1       0.382   0.045   2.074  1.00  0.00     0.014 C 
HETATM    6  C9  UNL     1       0.803  -0.303   0.857  1.00  0.00     0.032 C 
HETATM    7  C16 UNL     1       0.193  -1.490   0.213  1.00  0.00     0.116 C 
HETATM    8  C17 UNL     1       0.714  -1.809  -1.146  1.00  0.00     0.037 C 
ENDROOT
BRANCH   6   9
HETATM    9  C10 UNL     1       1.830   0.442   0.153  1.00  0.00     0.254 C 
HETATM   10  O1  UNL     1       2.235   0.125  -0.989  1.00  0.00    -0.268 OA
HETATM   11  N3  UNL     1       2.493   1.576   0.620  1.00  0.00    -0.323 N 
HETATM   12  H16 UNL     1       2.284   1.984   1.555  1.00  0.00     0.169 HD
BRANCH  11  13
HETATM   13  C11 UNL     1       3.484   2.161  -0.250  1.00  0.00     0.041 A 
HETATM   14  C12 UNL     1       3.910   3.207  -0.942  1.00  0.00     0.031 A 
HETATM   15  C13 UNL     1       5.080   2.533  -1.423  1.00  0.00     0.011 A 
HETATM   16  C14 UNL     1       4.690   1.467  -0.746  1.00  0.00    -0.035 A 
HETATM   17  C15 UNL     1       5.366   0.129  -0.642  1.00  0.00     0.050 C 
ENDBRANCH  11  13
ENDBRANCH   6   9
BRANCH   1  18
HETATM   18  C4  UNL     1      -1.997  -1.263  -0.847  1.00  0.00     0.393 C 
BRANCH  18  19
HETATM   19  N1  UNL     1      -3.063  -0.310  -0.499  1.00  0.00     0.100 N 
HETATM   20  C3  UNL     1      -2.452   0.931  -0.034  1.00  0.00     0.311 C 
BRANCH  19  21
HETATM   21  C2  UNL     1      -3.879  -0.051  -1.695  1.00  0.00     0.269 C 
HETATM   22  C1  UNL     1      -5.066   0.774  -1.307  1.00  0.00     0.037 C 
ENDBRANCH  19  21
ENDBRANCH  18  19
ENDBRANCH   1  18
TORSDOF 5
