REMARK  2 active torsions:
REMARK  status: ('A' for Active; 'I' for Inactive)
REMARK    1  A    between atoms: C13_15  and  C14_16 
REMARK    2  A    between atoms: C14_16  and  N3_17 
ROOT
HETATM    1  C1  UNL     1      -3.693   3.021   1.282  1.00  0.00     0.016 C 
HETATM    2  C2  UNL     1      -3.057   1.948   0.514  1.00  0.00     0.026 C 
HETATM    3  C3  UNL     1      -2.009   1.227   1.248  1.00  0.00     0.088 C 
HETATM    4  N1  UNL     1      -1.142   0.859   0.417  1.00  0.00    -0.299 NA
HETATM    5  C4  UNL     1       0.059   0.089   0.814  1.00  0.00     0.117 C 
HETATM    6  C5  UNL     1      -0.496  -1.161   1.478  1.00  0.00     0.054 C 
HETATM    7  C6  UNL     1      -0.884  -2.163   0.514  1.00  0.00    -0.028 C 
HETATM    8  C7  UNL     1      -2.068  -2.354  -0.010  1.00  0.00    -0.026 C 
HETATM    9  C8  UNL     1      -2.916  -1.295   0.596  1.00  0.00     0.062 C 
HETATM   10  C9  UNL     1      -3.062  -0.210  -0.443  1.00  0.00    -0.061 C 
HETATM   11  C10 UNL     1      -2.331  -0.067  -1.569  1.00  0.00     0.086 C 
HETATM   12  N2  UNL     1      -1.251  -0.965  -1.928  1.00  0.00    -0.394 N 
HETATM   13  C11 UNL     1       0.040  -0.409  -1.727  1.00  0.00     0.087 A 
HETATM   14  C12 UNL     1       1.123  -1.471  -2.008  1.00  0.00     0.032 A 
HETATM   15  C13 UNL     1       1.757  -1.195  -0.635  1.00  0.00     0.024 A 
HETATM   16  C18 UNL     1       0.722  -0.127  -0.490  1.00  0.00     0.039 A 
HETATM   17  C19 UNL     1      -4.021   0.895  -0.073  1.00  0.00     0.045 C 
HETATM   18  H14 UNL     1      -1.348  -1.938  -2.323  1.00  0.00     0.159 HD
ENDROOT
BRANCH  15  19
HETATM   19  C14 UNL     1       3.191  -0.745  -0.859  1.00  0.00     0.277 C 
BRANCH  19  20
HETATM   20  N3  UNL     1       3.941  -0.471   0.295  1.00  0.00     0.088 N 
HETATM   21  C15 UNL     1       3.704   0.624   1.147  1.00  0.00     0.274 A 
HETATM   22  C16 UNL     1       5.059   1.247   0.861  1.00  0.00     0.060 A 
HETATM   23  C17 UNL     1       5.264   0.014   0.016  1.00  0.00     0.274 A 
ENDBRANCH  19  20
ENDBRANCH  15  19
TORSDOF 2
