REMARK  9 active torsions:
REMARK  status: ('A' for Active; 'I' for Inactive)
REMARK    1  A    between atoms: C3_3  and  C4_4 
REMARK    2  A    between atoms: C7_7  and  N1_8 
REMARK    3  A    between atoms: N1_8  and  C9_10 
REMARK    4  A    between atoms: C11_12  and  C12_13 
REMARK    5  A    between atoms: C15_19  and  N5_20 
REMARK    6  A    between atoms: C16_21  and  C17_22 
REMARK    7  A    between atoms: C17_22  and  O1_23 
REMARK    8  A    between atoms: O1_23  and  C18_24 
REMARK    9  A    between atoms: C18_24  and  C19_25 
ROOT
HETATM    1  C4  UNL     1      -1.454  -0.961   2.813  1.00  0.00    -0.011 C 
HETATM    2  C5  UNL     1      -0.854  -1.885   1.763  1.00  0.00     0.041 C 
HETATM    3  C6  UNL     1       0.244  -1.121   1.019  1.00  0.00     0.024 C 
HETATM    4  C7  UNL     1       1.009  -0.110   0.533  1.00  0.00     0.123 C 
HETATM    5  N3  UNL     1       1.050   1.273   0.456  1.00  0.00    -0.225 NA
HETATM    6  C14 UNL     1       0.889   2.234   1.242  1.00  0.00     0.237 C 
HETATM    7  N4  UNL     1       0.606   1.618   2.460  1.00  0.00    -0.224 NA
HETATM    8  C15 UNL     1      -0.350   0.718   2.563  1.00  0.00     0.131 C 
HETATM    9  C16 UNL     1      -1.534   0.121   1.913  1.00  0.00     0.014 C 
ENDROOT
BRANCH   4  10
HETATM   10  N1  UNL     1       2.186  -0.115  -0.314  1.00  0.00    -0.366 N 
HETATM   11  C8  UNL     1       3.515  -0.104   0.321  1.00  0.00     0.151 C 
BRANCH  10  12
HETATM   12  C9  UNL     1       2.109  -0.132  -1.775  1.00  0.00     0.086 A 
HETATM   13  C10 UNL     1       3.442  -0.174  -2.477  1.00  0.00     0.035 A 
HETATM   14  C11 UNL     1       3.202   1.145  -3.160  1.00  0.00     0.029 A 
HETATM   15  C13 UNL     1       1.938   1.272  -2.364  1.00  0.00     0.035 A 
BRANCH  14  16
HETATM   16  C12 UNL     1       4.253   2.177  -2.881  1.00  0.00     0.085 C 
HETATM   17  N2  UNL     1       4.250   3.448  -2.687  1.00  0.00    -0.316 NA
HETATM   18  H16 UNL     1       5.054   4.031  -2.505  1.00  0.00     0.185 HD
ENDBRANCH  14  16
ENDBRANCH  10  12
ENDBRANCH   4  10
BRANCH   1  19
HETATM   19  C3  UNL     1      -1.344  -1.420   3.995  1.00  0.00     0.040 A 
HETATM   20  C2  UNL     1      -1.817  -0.782   5.196  1.00  0.00    -0.004 A 
HETATM   21  C1  UNL     1      -1.254  -1.932   5.625  1.00  0.00     0.011 A 
ENDBRANCH   1  19
BRANCH   9  22
HETATM   22  C17 UNL     1      -1.621   1.001   1.077  1.00  0.00     0.146 C 
BRANCH  22  23
HETATM   23  O1  UNL     1      -1.931   0.166   0.018  1.00  0.00    -0.358 OA
BRANCH  23  24
HETATM   24  C18 UNL     1      -3.267  -0.241  -0.245  1.00  0.00     0.213 C 
BRANCH  24  25
HETATM   25  C19 UNL     1      -3.265  -0.802  -1.617  1.00  0.00    -0.034 A 
HETATM   26  C20 UNL     1      -3.519   0.115  -2.621  1.00  0.00     0.009 A 
HETATM   27  C21 UNL     1      -3.555  -0.234  -3.959  1.00  0.00     0.001 A 
HETATM   28  C22 UNL     1      -3.326  -1.562  -4.309  1.00  0.00     0.000 A 
HETATM   29  C23 UNL     1      -3.069  -2.500  -3.307  1.00  0.00     0.001 A 
HETATM   30  C24 UNL     1      -3.042  -2.110  -1.984  1.00  0.00     0.009 A 
ENDBRANCH  24  25
ENDBRANCH  23  24
ENDBRANCH  22  23
ENDBRANCH   9  22
BRANCH   8  31
HETATM   31  N5  UNL     1       0.125   0.737   3.863  1.00  0.00    -0.383 N 
HETATM   32  H20 UNL     1       0.108   1.302   4.752  1.00  0.00     0.157 HD
HETATM   33  H21 UNL     1       0.726  -0.091   4.187  1.00  0.00     0.157 HD
ENDBRANCH   8  31
TORSDOF 9
