REMARK  4 active torsions:
REMARK  status: ('A' for Active; 'I' for Inactive)
REMARK    1  A    between atoms: C5_6  and  C6_7 
REMARK    2  A    between atoms: N1_9  and  C8_10 
REMARK    3  A    between atoms: C10_12  and  C11_13 
REMARK    4  A    between atoms: C11_13  and  N2_14 
ROOT
HETATM    1  C6  UNL     1       2.542  -0.297  -0.479  1.00  0.00     0.003 A 
HETATM    2  C7  UNL     1       1.281  -0.623   0.022  1.00  0.00     0.108 A 
HETATM    3  N1  UNL     1       0.334  -0.493  -0.913  1.00  0.00    -0.319 N 
HETATM    4  C16 UNL     1       0.903  -0.076  -2.082  1.00  0.00     0.145 A 
HETATM    5  N4  UNL     1       0.436   0.217  -3.304  1.00  0.00    -0.223 NA
HETATM    6  C17 UNL     1       1.283   0.625  -4.251  1.00  0.00     0.234 A 
HETATM    7  N5  UNL     1       2.616   0.743  -3.973  1.00  0.00    -0.253 NA
HETATM    8  C18 UNL     1       3.086   0.450  -2.751  1.00  0.00     0.134 A 
HETATM    9  C19 UNL     1       2.238   0.031  -1.775  1.00  0.00     0.040 A 
ENDROOT
BRANCH   3  10
HETATM   10  C8  UNL     1      -1.094  -0.716  -0.875  1.00  0.00     0.186 C 
HETATM   11  C9  UNL     1      -1.675  -0.589   0.532  1.00  0.00     0.054 C 
HETATM   12  C10 UNL     1      -2.427   0.694   0.553  1.00  0.00     0.035 C 
HETATM   13  C15 UNL     1      -2.068   1.379  -0.794  1.00  0.00     0.122 C 
HETATM   14  N3  UNL     1      -1.873   0.220  -1.598  1.00  0.00    -0.401 N 
HETATM   15  H22 UNL     1      -1.784   0.311  -2.592  1.00  0.00     0.155 HD
BRANCH  12  16
HETATM   16  C11 UNL     1      -3.907   0.671   0.592  1.00  0.00     0.278 C 
BRANCH  16  17
HETATM   17  N2  UNL     1      -4.551   0.029   1.688  1.00  0.00     0.088 N 
HETATM   18  C12 UNL     1      -5.976   0.437   1.708  1.00  0.00     0.274 C 
HETATM   19  C13 UNL     1      -6.291  -0.720   0.842  1.00  0.00     0.060 C 
HETATM   20  C14 UNL     1      -5.030  -1.308   1.452  1.00  0.00     0.274 C 
ENDBRANCH  16  17
ENDBRANCH  12  16
ENDBRANCH   3  10
BRANCH   1  21
HETATM   21  C5  UNL     1       3.719  -0.332   0.354  1.00  0.00    -0.022 C 
HETATM   22  C4  UNL     1       3.449  -0.441   1.809  1.00  0.00     0.207 C 
HETATM   23  O1  UNL     1       4.508  -0.752   2.600  1.00  0.00    -0.383 OA
HETATM   24  C3  UNL     1       5.398   0.285   2.874  1.00  0.00     0.195 C 
HETATM   25  C2  UNL     1       6.513   0.075   1.868  1.00  0.00    -0.001 C 
HETATM   26  C1  UNL     1       6.264  -0.147   0.562  1.00  0.00    -0.001 C 
HETATM   27  C20 UNL     1       4.950  -0.215  -0.052  1.00  0.00     0.010 C 
ENDBRANCH   1  21
TORSDOF 4
