REMARK  3 active torsions:
REMARK  status: ('A' for Active; 'I' for Inactive)
REMARK    1  A    between atoms: N1_1  and  C1_2 
REMARK    2  A    between atoms: C10_13  and  O1_14 
REMARK    3  A    between atoms: N4_17  and  C13_18 
ROOT
HETATM    1  C1  UNL     1       3.183  -1.555  -1.231  1.00  0.00     0.137 A 
HETATM    2  N2  UNL     1       3.163  -1.906  -2.538  1.00  0.00    -0.224 NA
HETATM    3  C2  UNL     1       2.046  -1.676  -3.234  1.00  0.00     0.237 A 
HETATM    4  N3  UNL     1       0.943  -1.111  -2.695  1.00  0.00    -0.223 NA
HETATM    5  C3  UNL     1       0.917  -0.741  -1.385  1.00  0.00     0.146 A 
HETATM    6  C4  UNL     1       2.059  -0.978  -0.675  1.00  0.00     0.068 A 
HETATM    7  C5  UNL     1       1.938  -0.573   0.623  1.00  0.00     0.008 A 
HETATM    8  C6  UNL     1       2.743  -0.569   1.819  1.00  0.00    -0.021 A 
HETATM    9  C7  UNL     1       3.441  -1.592   2.417  1.00  0.00     0.012 A 
HETATM   10  C8  UNL     1       4.179  -1.426   3.558  1.00  0.00     0.004 A 
HETATM   11  C9  UNL     1       4.262  -0.197   4.181  1.00  0.00     0.036 A 
HETATM   12  C10 UNL     1       3.583   0.869   3.630  1.00  0.00     0.066 A 
HETATM   13  C11 UNL     1       2.854   0.659   2.482  1.00  0.00     0.049 A 
HETATM   14  C12 UNL     1       0.636  -0.062   0.680  1.00  0.00     0.106 A 
HETATM   15  N4  UNL     1       0.040  -0.173  -0.536  1.00  0.00    -0.335 N 
ENDROOT
BRANCH  15  16
HETATM   16  C13 UNL     1      -1.295   0.227  -0.925  1.00  0.00     0.093 C 
HETATM   17  C14 UNL     1      -1.299   1.569  -1.638  1.00  0.00     0.027 C 
HETATM   18  C15 UNL     1      -2.379   1.494  -2.697  1.00  0.00     0.032 C 
HETATM   19  C16 UNL     1      -3.714   1.360  -2.025  1.00  0.00     0.273 C 
HETATM   20  N5  UNL     1      -3.979   0.063  -1.494  1.00  0.00     0.093 N 
HETATM   21  C17 UNL     1      -5.356   0.025  -1.012  1.00  0.00     0.275 C 
HETATM   22  C19 UNL     1      -3.568  -0.174  -0.159  1.00  0.00     0.226 C 
HETATM   23  C18 UNL     1      -4.806   0.472   0.347  1.00  0.00     0.066 C 
HETATM   24  C20 UNL     1      -2.238   0.377   0.241  1.00  0.00     0.061 C 
ENDBRANCH  15  16
BRANCH   1  25
HETATM   25  N1  UNL     1       4.372  -1.796  -0.514  1.00  0.00    -0.383 N 
HETATM   26  H1  UNL     1       4.910  -0.966  -0.143  1.00  0.00     0.157 HD
HETATM   27  H2  UNL     1       4.973  -2.567  -0.183  1.00  0.00     0.157 HD
ENDBRANCH   1  25
BRANCH  12  28
HETATM   28  O1  UNL     1       3.655   2.104   4.238  1.00  0.00    -0.361 OA
HETATM   29  H7  UNL     1       3.387   2.201   5.225  1.00  0.00     0.217 HD
ENDBRANCH  12  28
TORSDOF 3
