REMARK  2 active torsions:
REMARK  status: ('A' for Active; 'I' for Inactive)
REMARK    1  A    between atoms: C14_14  and  C15_15 
REMARK    2  A    between atoms: C15_15  and  N1_16 
ROOT
HETATM    1  C1  UNL     1      -2.615   1.497  -0.864  1.00  0.00     0.010 C 
HETATM    2  C2  UNL     1      -4.021   1.701  -0.509  1.00  0.00     0.039 C 
HETATM    3  C3  UNL     1      -4.173   0.680   0.642  1.00  0.00    -0.051 A 
HETATM    4  C4  UNL     1      -5.520   0.513   0.854  1.00  0.00     0.007 A 
HETATM    5  C5  UNL     1      -6.064  -0.317   1.787  1.00  0.00     0.001 A 
HETATM    6  C6  UNL     1      -5.210  -1.049   2.585  1.00  0.00     0.001 A 
HETATM    7  C7  UNL     1      -3.868  -0.848   2.336  1.00  0.00     0.008 A 
HETATM    8  C8  UNL     1      -3.235  -0.016   1.398  1.00  0.00    -0.048 A 
HETATM    9  C9  UNL     1      -1.758  -0.031   1.404  1.00  0.00     0.078 C 
HETATM   10  C10 UNL     1      -0.992  -0.265   0.213  1.00  0.00    -0.045 C 
HETATM   11  C11 UNL     1      -0.176   0.569  -0.499  1.00  0.00    -0.035 C 
HETATM   12  C12 UNL     1       1.170   0.219  -1.120  1.00  0.00    -0.006 C 
HETATM   13  C13 UNL     1       1.973  -0.819  -0.758  1.00  0.00    -0.039 C 
HETATM   14  C14 UNL     1       3.177  -1.270   0.031  1.00  0.00     0.048 C 
HETATM   15  C19 UNL     1       2.322  -2.530   0.288  1.00  0.00     0.040 C 
HETATM   16  C20 UNL     1       1.899  -2.293  -1.118  1.00  0.00     0.116 C 
HETATM   17  N2  UNL     1       0.555  -2.649  -1.514  1.00  0.00    -0.364 N 
HETATM   18  C21 UNL     1      -0.726  -2.609  -0.900  1.00  0.00     0.088 C 
HETATM   19  C22 UNL     1      -1.308  -1.715  -0.066  1.00  0.00     0.025 C 
HETATM   20  C23 UNL     1       0.424  -3.157  -2.917  1.00  0.00     0.274 C 
HETATM   21  N3  UNL     1       1.155  -2.030  -3.599  1.00  0.00    -0.263 NA
HETATM   22  C24 UNL     1       0.909  -0.823  -3.189  1.00  0.00     0.228 C 
HETATM   23  N4  UNL     1       1.146   0.584  -3.283  1.00  0.00    -0.254 NA
HETATM   24  C25 UNL     1       1.312   1.280  -2.163  1.00  0.00     0.130 C 
HETATM   25  C26 UNL     1      -0.269   1.944  -0.866  1.00  0.00     0.024 A 
HETATM   26  C27 UNL     1      -0.656   2.964  -1.756  1.00  0.00     0.015 A 
HETATM   27  C28 UNL     1      -1.610   1.908  -1.741  1.00  0.00    -0.005 A 
ENDROOT
BRANCH  14  28
HETATM   28  C15 UNL     1       3.474  -0.447   1.232  1.00  0.00     0.281 C 
BRANCH  28  29
HETATM   29  N1  UNL     1       3.728   0.907   0.878  1.00  0.00     0.089 N 
HETATM   30  C16 UNL     1       4.032   1.796   2.003  1.00  0.00     0.274 A 
HETATM   31  C17 UNL     1       5.375   2.161   1.452  1.00  0.00     0.060 A 
HETATM   32  C18 UNL     1       5.016   1.220   0.332  1.00  0.00     0.274 A 
ENDBRANCH  28  29
ENDBRANCH  14  28
TORSDOF 2
