REMARK  2 active torsions:
REMARK  status: ('A' for Active; 'I' for Inactive)
REMARK    1  A    between atoms: C16_18  and  N3_19 
REMARK    2  A    between atoms: C26_32  and  O2_33 
ROOT
HETATM    1  C1  UNL     1       0.587   1.883  -1.278  1.00  0.00     0.032 A 
HETATM    2  C2  UNL     1       1.560   0.919  -1.123  1.00  0.00     0.036 A 
HETATM    3  C3  UNL     1       0.376   0.634  -0.600  1.00  0.00     0.011 A 
HETATM    4  C4  UNL     1       1.086  -0.581  -0.212  1.00  0.00    -0.064 C 
HETATM    5  C5  UNL     1       0.754  -1.939   0.522  1.00  0.00     0.023 C 
HETATM    6  C6  UNL     1      -0.201  -2.731   1.028  1.00  0.00     0.112 C 
HETATM    7  N1  UNL     1      -1.640  -2.804   1.187  1.00  0.00    -0.280 N 
HETATM    8  C7  UNL     1      -2.968  -2.597   1.638  1.00  0.00     0.151 C 
HETATM    9  C8  UNL     1      -3.692  -1.354   1.239  1.00  0.00     0.029 C 
HETATM   10  C9  UNL     1      -2.929  -0.128   1.335  1.00  0.00     0.031 C 
HETATM   11  C10 UNL     1      -3.913   1.011   1.679  1.00  0.00     0.278 C 
HETATM   12  N2  UNL     1      -3.799   2.015   0.705  1.00  0.00     0.094 N 
HETATM   13  C11 UNL     1      -4.659   1.998  -0.435  1.00  0.00     0.275 A 
HETATM   14  C12 UNL     1      -3.495   1.763  -1.356  1.00  0.00     0.067 A 
HETATM   15  C13 UNL     1      -2.669   1.797  -0.116  1.00  0.00     0.239 A 
HETATM   16  C14 UNL     1      -2.089   0.459   0.312  1.00  0.00     0.067 A 
HETATM   17  C15 UNL     1      -0.861   0.334  -0.052  1.00  0.00     0.058 A 
HETATM   18  C16 UNL     1      -1.542  -0.972  -0.436  1.00  0.00     0.269 A 
HETATM   19  N4  UNL     1      -2.296  -1.956  -0.679  1.00  0.00    -0.238 NA
HETATM   20  C17 UNL     1      -1.992  -3.166  -1.195  1.00  0.00     0.252 C 
HETATM   21  N5  UNL     1      -1.609  -3.614  -0.021  1.00  0.00    -0.166 NA
HETATM   22  C18 UNL     1       2.554  -0.850  -0.606  1.00  0.00     0.074 C 
HETATM   23  C19 UNL     1       3.530  -0.326   0.323  1.00  0.00    -0.046 A 
HETATM   24  C20 UNL     1       3.638  -0.719   1.613  1.00  0.00     0.008 A 
HETATM   25  C21 UNL     1       4.576  -0.257   2.542  1.00  0.00     0.001 A 
HETATM   26  C22 UNL     1       5.477   0.685   2.107  1.00  0.00     0.001 A 
HETATM   27  C23 UNL     1       5.457   1.163   0.791  1.00  0.00     0.010 A 
HETATM   28  C24 UNL     1       4.475   0.642  -0.074  1.00  0.00    -0.028 A 
HETATM   29  C25 UNL     1       4.666   1.231  -1.440  1.00  0.00     0.210 C 
HETATM   30  O1  UNL     1       3.563   1.081  -2.225  1.00  0.00    -0.356 OA
HETATM   31  C26 UNL     1       2.462   1.851  -1.798  1.00  0.00     0.267 C 
ENDROOT
BRANCH  18  32
HETATM   32  N3  UNL     1      -0.531  -1.604  -1.321  1.00  0.00     0.111 N 
HETATM   33  H17 UNL     1      -0.370  -1.209  -2.257  1.00  0.00     0.316 HD
HETATM   34  H18 UNL     1      -0.428  -1.132  -2.269  1.00  0.00     0.316 HD
ENDBRANCH  18  32
BRANCH  31  35
HETATM   35  O2  UNL     1       2.038   2.522  -2.898  1.00  0.00    -0.370 OA
HETATM   36  H29 UNL     1       1.670   3.414  -2.701  1.00  0.00     0.212 HD
ENDBRANCH  31  35
TORSDOF 2
