REMARK  1 active torsions:
REMARK  status: ('A' for Active; 'I' for Inactive)
REMARK    1  A    between atoms: C14_18  and  O2_19 
ROOT
HETATM    1  C1  UNL     1       5.143  -0.893  -1.010  1.00  0.00     0.049 C 
HETATM    2  C2  UNL     1       4.018   0.074  -1.002  1.00  0.00    -0.049 A 
HETATM    3  C3  UNL     1       3.775   1.272  -1.553  1.00  0.00     0.010 A 
HETATM    4  C4  UNL     1       2.462   1.813  -1.214  1.00  0.00     0.039 A 
HETATM    5  C5  UNL     1       1.918   0.898  -0.436  1.00  0.00     0.089 A 
HETATM    6  O1  UNL     1       0.616   1.101   0.087  1.00  0.00    -0.277 OA
HETATM    7  C6  UNL     1      -0.032   0.211   0.975  1.00  0.00     0.252 C 
HETATM    8  N1  UNL     1      -0.750   0.590   2.008  1.00  0.00    -0.221 NA
HETATM    9  C7  UNL     1      -0.845   1.984   2.187  1.00  0.00     0.121 C 
HETATM   10  C8  UNL     1      -1.755   2.826   1.821  1.00  0.00     0.018 C 
HETATM   11  C9  UNL     1      -2.923   2.297   1.087  1.00  0.00    -0.014 C 
HETATM   12  C10 UNL     1      -3.631   1.293   0.537  1.00  0.00    -0.080 C 
HETATM   13  B1  UNL     1      -5.165   0.718  -0.414  1.00  0.00     0.210 B 
HETATM   14  C11 UNL     1      -4.678   0.357  -2.092  1.00  0.00    -0.109 C 
HETATM   15  C12 UNL     1      -3.491  -0.174  -2.235  1.00  0.00    -0.003 C 
HETATM   16  C13 UNL     1      -3.025  -1.060  -1.104  1.00  0.00     0.302 C 
HETATM   17  N2  UNL     1      -1.657  -0.877  -0.790  1.00  0.00     0.135 N 
HETATM   18  C14 UNL     1      -1.192  -1.806   0.252  1.00  0.00     0.468 C 
HETATM   19  N3  UNL     1       0.024  -1.206   0.845  1.00  0.00    -0.290 N 
HETATM   20  C15 UNL     1       1.267  -1.694   1.336  1.00  0.00     0.159 C 
HETATM   21  C16 UNL     1       2.457  -1.302   0.534  1.00  0.00     0.008 C 
HETATM   22  C17 UNL     1       2.826  -0.259  -0.233  1.00  0.00     0.002 A 
HETATM   23  H13 UNL     1      -1.082  -1.077  -1.618  1.00  0.00     0.322 HD
ENDROOT
BRANCH  18  24
HETATM   24  O2  UNL     1      -2.129  -1.797   1.268  1.00  0.00    -0.352 OA
HETATM   25  H15 UNL     1      -1.721  -1.986   2.135  1.00  0.00     0.214 HD
ENDBRANCH  18  24
TORSDOF 1
