REMARK  2 active torsions:
REMARK  status: ('A' for Active; 'I' for Inactive)
REMARK    1  A    between atoms: C13_13  and  N1_14 
REMARK    2  A    between atoms: N4_19  and  O1_20 
ROOT
HETATM    1  C1  UNL     1      -0.387  -1.813  -1.102  1.00  0.00     0.016 C 
HETATM    2  C2  UNL     1       0.470  -0.853  -0.196  1.00  0.00    -0.034 C 
HETATM    3  C3  UNL     1       1.841  -1.075  -0.761  1.00  0.00     0.010 C 
HETATM    4  C4  UNL     1       3.011  -1.006   0.157  1.00  0.00     0.005 C 
HETATM    5  C5  UNL     1       3.658   0.383  -0.113  1.00  0.00     0.038 C 
HETATM    6  C6  UNL     1       2.461   1.309  -0.206  1.00  0.00    -0.061 C 
HETATM    7  C7  UNL     1       1.648   2.101  -0.888  1.00  0.00    -0.011 C 
HETATM    8  C8  UNL     1       0.387   1.736  -0.138  1.00  0.00     0.040 C 
HETATM    9  C9  UNL     1       0.814   2.002   1.253  1.00  0.00    -0.017 C 
HETATM   10  C10 UNL     1       1.927   1.247   1.188  1.00  0.00     0.003 C 
HETATM   11  C11 UNL     1      -0.161   0.445  -0.512  1.00  0.00     0.046 C 
HETATM   12  C12 UNL     1      -1.638   0.440  -0.285  1.00  0.00     0.041 A 
HETATM   13  C13 UNL     1      -2.279   1.319  -1.171  1.00  0.00     0.133 A 
HETATM   14  N2  UNL     1      -3.611   1.520  -1.163  1.00  0.00    -0.224 NA
HETATM   15  C14 UNL     1      -4.379   0.857  -0.272  1.00  0.00     0.237 A 
HETATM   16  N3  UNL     1      -3.836  -0.008   0.612  1.00  0.00    -0.222 NA
HETATM   17  C15 UNL     1      -2.491  -0.214   0.607  1.00  0.00     0.161 A 
HETATM   18  N4  UNL     1      -2.078  -1.185   1.569  1.00  0.00    -0.242 N 
HETATM   19  C16 UNL     1      -1.057  -2.183   1.338  1.00  0.00     0.158 C 
HETATM   20  C17 UNL     1       0.284  -1.454   1.141  1.00  0.00     0.032 C 
ENDROOT
BRANCH  13  21
HETATM   21  N1  UNL     1      -1.629   2.076  -2.184  1.00  0.00    -0.383 N 
HETATM   22  H15 UNL     1      -1.476   3.077  -2.371  1.00  0.00     0.157 HD
HETATM   23  H16 UNL     1      -1.145   1.626  -3.004  1.00  0.00     0.157 HD
ENDBRANCH  13  21
BRANCH  18  24
HETATM   24  O1  UNL     1      -2.778  -1.063   2.747  1.00  0.00    -0.286 OA
HETATM   25  H18 UNL     1      -2.382  -0.354   3.314  1.00  0.00     0.244 HD
ENDBRANCH  18  24
TORSDOF 2
