REMARK  2 active torsions:
REMARK  status: ('A' for Active; 'I' for Inactive)
REMARK    1  A    between atoms: C2_2  and  C3_3 
REMARK    2  A    between atoms: C11_11  and  C12_12 
ROOT
HETATM    1  C3  UNL     1       2.904  -1.281   0.181  1.00  0.00    -0.026 A 
HETATM    2  C4  UNL     1       3.854  -1.101   1.124  1.00  0.00     0.012 A 
HETATM    3  C5  UNL     1       4.064   0.089   1.771  1.00  0.00     0.003 A 
HETATM    4  C6  UNL     1       3.357   1.238   1.557  1.00  0.00     0.032 A 
HETATM    5  C7  UNL     1       2.363   1.163   0.614  1.00  0.00     0.065 A 
HETATM    6  C8  UNL     1       2.164  -0.129  -0.061  1.00  0.00     0.014 A 
HETATM    7  C9  UNL     1       1.019  -0.032  -1.073  1.00  0.00    -0.009 C 
HETATM    8  C10 UNL     1      -0.374  -0.169  -1.035  1.00  0.00    -0.008 C 
HETATM    9  C11 UNL     1      -1.117   0.386   0.200  1.00  0.00     0.015 C 
HETATM   10  C17 UNL     1      -1.042   1.849   0.371  1.00  0.00     0.030 C 
HETATM   11  C18 UNL     1       0.101   2.680   0.653  1.00  0.00     0.152 C 
HETATM   12  N1  UNL     1       1.461   2.262   0.204  1.00  0.00    -0.268 N 
HETATM   13  N2  UNL     1       1.744   3.152  -0.943  1.00  0.00    -0.165 NA
HETATM   14  C19 UNL     1       1.781   2.823  -2.268  1.00  0.00     0.254 C 
HETATM   15  N3  UNL     1       1.751   1.503  -3.017  1.00  0.00    -0.252 NA
HETATM   16  C20 UNL     1       1.004   0.462  -2.538  1.00  0.00     0.130 C 
ENDROOT
BRANCH   9  17
HETATM   17  C12 UNL     1      -2.580   0.050  -0.101  1.00  0.00    -0.003 C 
HETATM   18  C13 UNL     1      -3.483   0.531   1.039  1.00  0.00     0.006 C 
HETATM   19  C14 UNL     1      -4.215  -0.797   0.965  1.00  0.00     0.005 C 
HETATM   20  C15 UNL     1      -2.964  -1.356   0.300  1.00  0.00    -0.014 C 
HETATM   21  C16 UNL     1      -3.340  -2.196  -0.886  1.00  0.00     0.010 C 
ENDBRANCH   9  17
BRANCH   1  22
HETATM   22  C2  UNL     1       2.447  -2.345  -0.640  1.00  0.00    -0.014 C 
HETATM   23  C1  UNL     1       3.221  -3.344  -0.302  1.00  0.00     0.032 C 
ENDBRANCH   1  22
TORSDOF 2
