REMARK  5 active torsions:
REMARK  status: ('A' for Active; 'I' for Inactive)
REMARK    1  A    between atoms: N1_1  and  C1_2 
REMARK    2  A    between atoms: C5_10  and  C6_11 
REMARK    3  A    between atoms: C6_11  and  N4_12 
REMARK    4  A    between atoms: C12_19  and  C13_20 
REMARK    5  A    between atoms: C17_24  and  O1_25 
ROOT
HETATM    1  C1  UNL     1      -2.528   1.842  -0.901  1.00  0.00     0.135 C 
HETATM    2  N2  UNL     1      -2.324   3.092  -0.554  1.00  0.00    -0.226 NA
HETATM    3  C2  UNL     1      -1.116   3.537   0.045  1.00  0.00     0.210 C 
HETATM    4  N3  UNL     1      -0.320   4.471  -0.315  1.00  0.00    -0.354 NA
HETATM    5  B1  UNL     1       0.929   4.776   0.480  1.00  0.00     0.309 B 
HETATM    6  C3  UNL     1       1.565   3.751   1.484  1.00  0.00     0.047 C 
HETATM    7  S1  UNL     1       1.402   2.036   1.050  1.00  0.00    -0.175 SA
HETATM    8  C4  UNL     1       2.327   1.512  -0.406  1.00  0.00     0.100 C 
HETATM    9  C5  UNL     1       2.030   0.052  -0.699  1.00  0.00     0.126 C 
HETATM   10  N5  UNL     1       0.562  -0.046  -0.626  1.00  0.00    -0.357 N 
HETATM   11  C10 UNL     1      -0.212   1.019  -0.864  1.00  0.00     0.107 A 
HETATM   12  C11 UNL     1      -1.545   0.761  -0.708  1.00  0.00     0.037 A 
HETATM   13  C12 UNL     1      -1.604  -0.568  -0.350  1.00  0.00     0.005 A 
HETATM   14  C19 UNL     1      -0.312  -1.002  -0.317  1.00  0.00     0.104 A 
HETATM   15  H4  UNL     1       1.551   5.791   0.271  1.00  0.00     0.002 HD
ENDROOT
BRANCH  13  16
HETATM   16  C13 UNL     1      -2.877  -1.230  -0.090  1.00  0.00    -0.021 A 
HETATM   17  C14 UNL     1      -3.873  -0.682   0.717  1.00  0.00     0.012 A 
HETATM   18  C15 UNL     1      -5.073  -1.314   0.956  1.00  0.00     0.004 A 
HETATM   19  C16 UNL     1      -5.328  -2.561   0.375  1.00  0.00     0.036 A 
HETATM   20  C17 UNL     1      -4.348  -3.128  -0.436  1.00  0.00     0.066 A 
HETATM   21  C18 UNL     1      -3.177  -2.474  -0.647  1.00  0.00     0.049 A 
BRANCH  20  22
HETATM   22  O1  UNL     1      -4.724  -4.346  -0.941  1.00  0.00    -0.361 OA
HETATM   23  H22 UNL     1      -4.083  -4.875  -1.496  1.00  0.00     0.217 HD
ENDBRANCH  20  22
ENDBRANCH  13  16
BRANCH   1  24
HETATM   24  N1  UNL     1      -3.756   1.448  -1.499  1.00  0.00    -0.383 N 
HETATM   25  H1  UNL     1      -3.727   1.331  -2.540  1.00  0.00     0.157 HD
HETATM   26  H2  UNL     1      -4.771   1.210  -1.283  1.00  0.00     0.157 HD
ENDBRANCH   1  24
BRANCH   9  27
HETATM   27  C6  UNL     1       2.536  -0.811   0.444  1.00  0.00     0.298 C 
BRANCH  27  28
HETATM   28  N4  UNL     1       3.943  -0.697   0.660  1.00  0.00     0.090 N 
HETATM   29  C7  UNL     1       4.672  -1.286  -0.454  1.00  0.00     0.274 C 
HETATM   30  C8  UNL     1       4.738  -2.620   0.260  1.00  0.00     0.060 C 
HETATM   31  C9  UNL     1       4.413  -1.802   1.501  1.00  0.00     0.274 C 
ENDBRANCH  27  28
ENDBRANCH   9  27
TORSDOF 5
