REMARK  7 active torsions:
REMARK  status: ('A' for Active; 'I' for Inactive)
REMARK    1  A    between atoms: N1_2  and  C2_3 
REMARK    2  A    between atoms: N1_2  and  C12_17 
REMARK    3  A    between atoms: C4_7  and  N4_8 
REMARK    4  A    between atoms: C5_9  and  C6_10 
REMARK    5  A    between atoms: C10_14  and  O1_15 
REMARK    6  A    between atoms: C14_19  and  C15_20 
REMARK    7  A    between atoms: C15_20  and  N5_21 
ROOT
HETATM    1  C2  UNL     1      -1.114  -0.873   0.702  1.00  0.00     0.142 A 
HETATM    2  N2  UNL     1      -0.206  -1.509   1.471  1.00  0.00    -0.224 NA
HETATM    3  C3  UNL     1      -0.540  -1.832   2.744  1.00  0.00     0.237 A 
HETATM    4  N3  UNL     1      -1.742  -1.567   3.334  1.00  0.00    -0.224 NA
HETATM    5  C4  UNL     1      -2.641  -0.933   2.560  1.00  0.00     0.137 A 
HETATM    6  C5  UNL     1      -2.362  -0.576   1.256  1.00  0.00     0.066 A 
ENDROOT
BRANCH   1   7
HETATM    7  N1  UNL     1      -0.689  -0.569  -0.616  1.00  0.00    -0.365 N 
HETATM    8  C1  UNL     1      -1.337  -1.057  -1.844  1.00  0.00     0.151 C 
BRANCH   7   9
HETATM    9  C12 UNL     1       0.450   0.269  -0.839  1.00  0.00     0.086 A 
HETATM   10  C13 UNL     1       1.184   0.819   0.336  1.00  0.00     0.031 A 
HETATM   11  C14 UNL     1       2.413   0.058  -0.045  1.00  0.00     0.018 A 
HETATM   12  C19 UNL     1       1.669  -0.595  -1.167  1.00  0.00     0.031 A 
BRANCH  11  13
HETATM   13  C15 UNL     1       3.552   0.917  -0.606  1.00  0.00     0.277 C 
BRANCH  13  14
HETATM   14  N5  UNL     1       4.678   0.094  -0.938  1.00  0.00     0.088 N 
HETATM   15  C16 UNL     1       5.777   0.873  -1.473  1.00  0.00     0.274 C 
HETATM   16  C17 UNL     1       6.229   1.126  -0.055  1.00  0.00     0.060 C 
HETATM   17  C18 UNL     1       5.486  -0.161   0.238  1.00  0.00     0.274 C 
ENDBRANCH  13  14
ENDBRANCH  11  13
ENDBRANCH   7   9
ENDBRANCH   1   7
BRANCH   6  18
HETATM   18  C6  UNL     1      -3.293   0.112   0.366  1.00  0.00    -0.016 A 
HETATM   19  C7  UNL     1      -3.473   1.468   0.175  1.00  0.00     0.012 A 
HETATM   20  C8  UNL     1      -4.433   1.882  -0.738  1.00  0.00     0.004 A 
HETATM   21  C9  UNL     1      -5.191   0.991  -1.439  1.00  0.00     0.036 A 
HETATM   22  C10 UNL     1      -5.024  -0.376  -1.259  1.00  0.00     0.066 A 
HETATM   23  C11 UNL     1      -4.080  -0.786  -0.362  1.00  0.00     0.049 A 
BRANCH  22  24
HETATM   24  O1  UNL     1      -5.823  -1.240  -1.999  1.00  0.00    -0.361 OA
HETATM   25  H10 UNL     1      -6.774  -1.358  -1.649  1.00  0.00     0.217 HD
ENDBRANCH  22  24
ENDBRANCH   6  18
BRANCH   5  26
HETATM   26  N4  UNL     1      -3.934  -0.595   3.048  1.00  0.00    -0.383 N 
HETATM   27  H5  UNL     1      -4.553  -1.405   3.266  1.00  0.00     0.157 HD
HETATM   28  H6  UNL     1      -4.520   0.215   3.279  1.00  0.00     0.157 HD
ENDBRANCH   5  26
TORSDOF 7
