REMARK  5 active torsions:
REMARK  status: ('A' for Active; 'I' for Inactive)
REMARK    1  A    between atoms: N1_1  and  C1_2 
REMARK    2  A    between atoms: C10_13  and  O1_14 
REMARK    3  A    between atoms: O1_14  and  C11_15 
REMARK    4  A    between atoms: C11_15  and  C12_16 
REMARK    5  A    between atoms: C15_20  and  P1_21 
ROOT
HETATM    1  C1  UNL     1      -2.500   1.709   1.754  1.00  0.00     0.135 A 
HETATM    2  N2  UNL     1      -3.538   0.903   2.002  1.00  0.00    -0.204 NA
HETATM    3  C2  UNL     1      -3.946  -0.169   1.391  1.00  0.00     0.181 A 
HETATM    4  N3  UNL     1      -3.039   0.061   0.730  1.00  0.00    -0.371 NA
HETATM    5  C3  UNL     1      -2.075   0.300   0.021  1.00  0.00     0.189 A 
HETATM    6  C4  UNL     1      -1.613   1.502   0.702  1.00  0.00     0.046 A 
HETATM    7  C5  UNL     1      -0.521   2.640   0.716  1.00  0.00     0.061 C 
HETATM    8  C6  UNL     1       0.273   2.348  -0.552  1.00  0.00     0.005 A 
HETATM    9  C7  UNL     1      -0.047   2.449  -1.817  1.00  0.00     0.015 A 
HETATM   10  C8  UNL     1       0.098   0.954  -1.538  1.00  0.00    -0.002 A 
HETATM   11  C9  UNL     1       0.475   0.299  -0.383  1.00  0.00     0.034 C 
HETATM   12  C10 UNL     1       1.463   1.543  -0.140  1.00  0.00     0.137 C 
HETATM   13  C16 UNL     1      -0.486  -0.366  -2.095  1.00  0.00     0.137 C 
HETATM   14  N4  UNL     1      -1.683  -0.550  -1.156  1.00  0.00    -0.350 N 
HETATM   15  C17 UNL     1      -2.377  -1.752  -1.646  1.00  0.00     0.087 C 
HETATM   16  C18 UNL     1      -2.688  -2.638  -0.423  1.00  0.00     0.030 C 
HETATM   17  C19 UNL     1      -4.029  -2.094  -0.310  1.00  0.00    -0.003 C 
HETATM   18  C20 UNL     1      -4.512  -1.335   0.845  1.00  0.00     0.099 C 
HETATM   19  C21 UNL     1      -3.839  -1.378  -1.621  1.00  0.00     0.030 C 
ENDROOT
BRANCH  12  20
HETATM   20  O1  UNL     1       2.470   1.541  -1.024  1.00  0.00    -0.382 OA
BRANCH  20  21
HETATM   21  C11 UNL     1       3.752   1.637  -0.565  1.00  0.00     0.200 C 
BRANCH  21  22
HETATM   22  C12 UNL     1       4.252   0.519   0.304  1.00  0.00     0.153 C 
HETATM   23  O2  UNL     1       3.501   0.270   1.421  1.00  0.00    -0.383 OA
HETATM   24  C13 UNL     1       3.946  -0.956   1.873  1.00  0.00     0.169 C 
HETATM   25  C14 UNL     1       4.186  -1.822   0.662  1.00  0.00     0.037 C 
HETATM   26  C15 UNL     1       4.504  -0.765  -0.402  1.00  0.00     0.042 C 
BRANCH  26  27
HETATM   27  P1  UNL     1       3.444  -1.112  -1.853  1.00  0.00    -0.134 P 
HETATM   28  H16 UNL     1       2.314  -1.934  -1.476  1.00  0.00     0.055 HD
HETATM   29  H17 UNL     1       3.107   0.019  -2.656  1.00  0.00     0.055 HD
ENDBRANCH  26  27
ENDBRANCH  21  22
ENDBRANCH  20  21
ENDBRANCH  12  20
BRANCH   1  30
HETATM   30  N1  UNL     1      -2.284   2.843   2.610  1.00  0.00    -0.383 N 
HETATM   31  H1  UNL     1      -2.599   3.767   2.240  1.00  0.00     0.157 HD
HETATM   32  H2  UNL     1      -1.820   2.513   3.503  1.00  0.00     0.157 HD
ENDBRANCH   1  30
TORSDOF 5
