REMARK  7 active torsions:
REMARK  status: ('A' for Active; 'I' for Inactive)
REMARK    1  A    between atoms: N1_1  and  C1_2 
REMARK    2  A    between atoms: C5_8  and  C6_9 
REMARK    3  A    between atoms: C10_13  and  C11_14 
REMARK    4  A    between atoms: C11_14  and  C12_15 
REMARK    5  A    between atoms: N4_22  and  C18_23 
REMARK    6  A    between atoms: C20_25  and  C21_26 
REMARK    7  A    between atoms: C21_26  and  N5_27 
ROOT
HETATM    1  C1  UNL     1      -0.414   1.149  -3.571  1.00  0.00     0.137 A 
HETATM    2  N2  UNL     1       0.368   1.829  -4.428  1.00  0.00    -0.224 NA
HETATM    3  C2  UNL     1       1.685   1.955  -4.139  1.00  0.00     0.237 A 
HETATM    4  N3  UNL     1       2.233   1.426  -3.029  1.00  0.00    -0.223 NA
HETATM    5  C3  UNL     1       1.516   0.734  -2.126  1.00  0.00     0.146 A 
HETATM    6  C4  UNL     1       0.178   0.620  -2.444  1.00  0.00     0.068 A 
HETATM    7  C5  UNL     1      -0.475  -0.103  -1.468  1.00  0.00     0.008 A 
HETATM    8  C17 UNL     1       0.537  -0.409  -0.567  1.00  0.00     0.106 A 
HETATM    9  N4  UNL     1       1.713   0.084  -0.953  1.00  0.00    -0.335 N 
ENDROOT
BRANCH   7  10
HETATM   10  C6  UNL     1      -1.836  -0.546  -1.196  1.00  0.00    -0.023 A 
HETATM   11  C7  UNL     1      -1.976  -1.911  -0.914  1.00  0.00     0.012 A 
HETATM   12  C8  UNL     1      -3.155  -2.543  -0.620  1.00  0.00     0.001 A 
HETATM   13  C9  UNL     1      -4.290  -1.765  -0.601  1.00  0.00     0.007 A 
HETATM   14  C10 UNL     1      -4.208  -0.417  -0.871  1.00  0.00    -0.055 A 
HETATM   15  C16 UNL     1      -2.994   0.171  -1.162  1.00  0.00     0.019 A 
BRANCH  14  16
HETATM   16  C11 UNL     1      -5.373   0.497  -0.874  1.00  0.00     0.070 C 
BRANCH  16  17
HETATM   17  C12 UNL     1      -5.654   1.128   0.462  1.00  0.00     0.125 C 
HETATM   18  C13 UNL     1      -5.934   0.046   1.478  1.00  0.00     0.034 C 
HETATM   19  C14 UNL     1      -6.811   0.834   2.453  1.00  0.00     0.029 C 
HETATM   20  C15 UNL     1      -7.475   1.826   1.553  1.00  0.00     0.168 C 
HETATM   21  O1  UNL     1      -6.796   1.888   0.353  1.00  0.00    -0.386 OA
ENDBRANCH  16  17
ENDBRANCH  14  16
ENDBRANCH   7  10
BRANCH   1  22
HETATM   22  N1  UNL     1      -1.794   1.005  -3.874  1.00  0.00    -0.383 N 
HETATM   23  H1  UNL     1      -2.540   1.734  -3.953  1.00  0.00     0.157 HD
HETATM   24  H2  UNL     1      -2.425   0.202  -4.089  1.00  0.00     0.157 HD
ENDBRANCH   1  22
BRANCH   9  25
HETATM   25  C18 UNL     1       3.014   0.001  -0.317  1.00  0.00     0.092 C 
HETATM   26  C19 UNL     1       3.024  -0.290   1.153  1.00  0.00     0.032 C 
HETATM   27  C20 UNL     1       4.166  -1.248   0.896  1.00  0.00     0.018 C 
HETATM   28  C25 UNL     1       3.586  -1.409  -0.515  1.00  0.00     0.032 C 
BRANCH  27  29
HETATM   29  C21 UNL     1       5.535  -0.604   0.771  1.00  0.00     0.277 C 
BRANCH  29  30
HETATM   30  N5  UNL     1       5.924   0.112   1.950  1.00  0.00     0.088 N 
HETATM   31  C22 UNL     1       7.243   0.744   1.853  1.00  0.00     0.274 C 
HETATM   32  C23 UNL     1       7.900  -0.421   2.543  1.00  0.00     0.060 C 
HETATM   33  C24 UNL     1       6.483  -0.763   2.970  1.00  0.00     0.274 C 
ENDBRANCH  29  30
ENDBRANCH  27  29
ENDBRANCH   9  25
TORSDOF 7
