REMARK  9 active torsions:
REMARK  status: ('A' for Active; 'I' for Inactive)
REMARK    1  A    between atoms: C2_2  and  N1_3 
REMARK    2  A    between atoms: N1_3  and  C3_4 
REMARK    3  A    between atoms: N1_3  and  C8_11 
REMARK    4  A    between atoms: C3_4  and  N2_5 
REMARK    5  A    between atoms: C6_8  and  C7_9 
REMARK    6  A    between atoms: C7_9  and  N3_10 
REMARK    7  A    between atoms: C12_17  and  C13_18 
REMARK    8  A    between atoms: C13_18  and  C14_19 
REMARK    9  A    between atoms: C17_23  and  C18_24 
ROOT
HETATM    1  C8  UNL     1      -1.657  -1.696  -0.391  1.00  0.00     0.136 A 
HETATM    2  N4  UNL     1      -2.370  -2.298  -1.369  1.00  0.00    -0.224 NA
HETATM    3  C9  UNL     1      -1.863  -3.376  -1.969  1.00  0.00     0.235 A 
HETATM    4  N5  UNL     1      -0.674  -3.799  -1.563  1.00  0.00    -0.246 NA
HETATM    5  C10 UNL     1       0.071  -3.218  -0.582  1.00  0.00     0.042 A 
HETATM    6  C11 UNL     1       1.367  -3.801  -0.232  1.00  0.00     0.071 C 
HETATM    7  C12 UNL     1      -0.418  -2.083   0.076  1.00  0.00     0.013 A 
ENDROOT
BRANCH   7   8
HETATM    8  C13 UNL     1       0.329  -1.395   1.106  1.00  0.00     0.057 C 
BRANCH   8   9
HETATM    9  C14 UNL     1       1.020  -0.115   0.677  1.00  0.00     0.037 C 
HETATM   10  C15 UNL     1       1.716   0.387   1.919  1.00  0.00     0.006 C 
HETATM   11  C16 UNL     1       3.007   0.353   2.272  1.00  0.00     0.132 C 
HETATM   12  O1  UNL     1       4.052  -0.183   1.531  1.00  0.00    -0.351 OA
HETATM   13  C17 UNL     1       4.323  -0.005   0.177  1.00  0.00     0.185 C 
HETATM   14  C21 UNL     1       3.212  -0.258  -0.741  1.00  0.00    -0.055 C 
HETATM   15  C22 UNL     1       3.556  -0.518  -2.161  1.00  0.00     0.046 C 
HETATM   16  C23 UNL     1       1.925  -0.283  -0.459  1.00  0.00    -0.013 C 
BRANCH  13  17
HETATM   17  C18 UNL     1       4.933   1.355  -0.126  1.00  0.00     0.157 C 
HETATM   18  C19 UNL     1       5.722   1.439  -1.392  1.00  0.00     0.061 C 
HETATM   19  C20 UNL     1       6.730   2.117  -0.512  1.00  0.00     0.171 C 
HETATM   20  O2  UNL     1       6.148   1.488   0.583  1.00  0.00    -0.383 OA
ENDBRANCH  13  17
ENDBRANCH   8   9
ENDBRANCH   7   8
BRANCH   1  21
HETATM   21  N1  UNL     1      -2.359  -0.579   0.177  1.00  0.00    -0.340 N 
BRANCH  21  22
HETATM   22  C2  UNL     1      -2.935  -0.831   1.481  1.00  0.00     0.122 C 
HETATM   23  C1  UNL     1      -2.814  -2.262   1.920  1.00  0.00     0.026 C 
ENDBRANCH  21  22
BRANCH  21  24
HETATM   24  C3  UNL     1      -2.378   0.640  -0.610  1.00  0.00     0.399 C 
BRANCH  24  25
HETATM   25  N2  UNL     1      -3.722   0.959  -0.969  1.00  0.00     0.112 N 
HETATM   26  C4  UNL     1      -3.847   2.098  -1.882  1.00  0.00     0.277 C 
HETATM   27  C5  UNL     1      -5.134   2.458  -1.142  1.00  0.00     0.068 C 
HETATM   28  C6  UNL     1      -4.570   1.596  -0.000  1.00  0.00     0.254 C 
BRANCH  28  29
HETATM   29  C7  UNL     1      -3.949   2.487   1.018  1.00  0.00     0.302 C 
BRANCH  29  30
HETATM   30  N3  UNL     1      -5.042   2.991   1.864  1.00  0.00     0.080 N 
HETATM   31  H15 UNL     1      -5.178   4.007   1.739  1.00  0.00     0.312 HD
HETATM   32  H16 UNL     1      -5.919   2.426   1.732  1.00  0.00     0.312 HD
ENDBRANCH  29  30
ENDBRANCH  28  29
ENDBRANCH  24  25
ENDBRANCH  21  24
ENDBRANCH   1  21
TORSDOF 9
