REMARK  6 active torsions:
REMARK  status: ('A' for Active; 'I' for Inactive)
REMARK    1  A    between atoms: C4_5  and  C5_6 
REMARK    2  A    between atoms: C6_7  and  C7_8 
REMARK    3  A    between atoms: C8_9  and  C9_10 
REMARK    4  A    between atoms: C9_10  and  O1_12 
REMARK    5  A    between atoms: O1_12  and  C11_13 
REMARK    6  A    between atoms: C16_19  and  N2_20 
ROOT
HETATM    1  C1  UNL     1       6.326   1.033  -2.742  1.00  0.00     0.037 C 
HETATM    2  C2  UNL     1       5.642   0.617  -1.828  1.00  0.00     0.008 C 
HETATM    3  N1  UNL     1       4.859   0.157  -0.761  1.00  0.00    -0.264 N 
HETATM    4  C3  UNL     1       3.508   0.149  -0.724  1.00  0.00     0.121 A 
HETATM    5  C4  UNL     1       3.174  -0.386   0.512  1.00  0.00    -0.002 A 
HETATM    6  C15 UNL     1       4.305  -0.701   1.221  1.00  0.00     0.068 A 
HETATM    7  C16 UNL     1       4.579  -1.247   2.475  1.00  0.00     0.137 A 
HETATM    8  N3  UNL     1       5.872  -1.409   2.830  1.00  0.00    -0.224 NA
HETATM    9  C17 UNL     1       6.866  -1.055   2.001  1.00  0.00     0.237 A 
HETATM   10  N4  UNL     1       6.619  -0.522   0.778  1.00  0.00    -0.222 NA
HETATM   11  C18 UNL     1       5.357  -0.351   0.399  1.00  0.00     0.157 A 
ENDROOT
BRANCH   5  12
HETATM   12  C5  UNL     1       1.816  -0.580   0.983  1.00  0.00     0.014 C 
HETATM   13  C6  UNL     1       0.663  -0.318   0.400  1.00  0.00     0.001 C 
BRANCH  13  14
HETATM   14  C7  UNL     1      -0.650  -0.553   0.950  1.00  0.00    -0.001 C 
HETATM   15  C8  UNL     1      -1.795  -0.290   0.377  1.00  0.00     0.004 C 
BRANCH  15  16
HETATM   16  C9  UNL     1      -2.340   0.263  -0.860  1.00  0.00     0.143 C 
HETATM   17  C10 UNL     1      -1.384   1.163  -1.602  1.00  0.00     0.044 C 
BRANCH  16  18
HETATM   18  O1  UNL     1      -3.539   0.950  -0.661  1.00  0.00    -0.353 OA
BRANCH  18  19
HETATM   19  C11 UNL     1      -4.613   0.385  -1.339  1.00  0.00     0.260 C 
HETATM   20  C12 UNL     1      -5.537  -0.159  -0.248  1.00  0.00     0.063 C 
HETATM   21  C13 UNL     1      -6.255   1.163   0.092  1.00  0.00     0.031 C 
HETATM   22  C14 UNL     1      -6.494   1.642  -1.331  1.00  0.00     0.171 C 
HETATM   23  O2  UNL     1      -5.378   1.258  -2.053  1.00  0.00    -0.361 OA
ENDBRANCH  18  19
ENDBRANCH  16  18
ENDBRANCH  15  16
ENDBRANCH  13  14
ENDBRANCH   5  12
BRANCH   7  24
HETATM   24  N2  UNL     1       3.501  -1.612   3.328  1.00  0.00    -0.383 N 
HETATM   25  H18 UNL     1       3.078  -1.054   4.127  1.00  0.00     0.157 HD
HETATM   26  H19 UNL     1       3.187  -2.558   3.021  1.00  0.00     0.157 HD
ENDBRANCH   7  24
TORSDOF 6
