REMARK  6 active torsions:
REMARK  status: ('A' for Active; 'I' for Inactive)
REMARK    1  A    between atoms: N1_2  and  C2_3 
REMARK    2  A    between atoms: C2_3  and  C3_4 
REMARK    3  A    between atoms: C4_5  and  O1_6 
REMARK    4  A    between atoms: O1_6  and  C5_7 
REMARK    5  A    between atoms: C6_8  and  C7_9 
REMARK    6  A    between atoms: C11_14  and  O2_15 
ROOT
HETATM    1  C7  UNL     1      -0.171   0.762  -0.202  1.00  0.00     0.138 C 
HETATM    2  N2  UNL     1      -0.867   0.639   1.125  1.00  0.00    -0.401 N 
HETATM    3  C8  UNL     1      -2.320   0.566   1.120  1.00  0.00     0.039 A 
HETATM    4  C9  UNL     1      -3.374   0.837   2.013  1.00  0.00    -0.002 A 
HETATM    5  C10 UNL     1      -4.643   0.516   1.495  1.00  0.00     0.010 A 
HETATM    6  C11 UNL     1      -4.765  -0.023   0.192  1.00  0.00     0.102 A 
HETATM    7  C13 UNL     1      -4.062  -0.431  -0.968  1.00  0.00     0.072 A 
HETATM    8  C14 UNL     1      -3.145   0.070   0.073  1.00  0.00     0.179 A 
HETATM    9  C15 UNL     1      -2.741  -0.551  -1.543  1.00  0.00     0.167 A 
HETATM   10  N3  UNL     1      -2.077  -1.651  -0.943  1.00  0.00    -0.266 NA
HETATM   11  C16 UNL     1      -0.759  -1.160  -0.753  1.00  0.00     0.124 A 
HETATM   12  C17 UNL     1      -0.989   0.119  -1.303  1.00  0.00     0.002 A 
HETATM   13  C18 UNL     1      -1.496   1.301  -1.902  1.00  0.00     0.124 A 
HETATM   14  N4  UNL     1      -2.797   0.769  -2.069  1.00  0.00    -0.266 NA
HETATM   15  H10 UNL     1      -0.759   0.572   2.147  1.00  0.00     0.154 HD
ENDROOT
BRANCH   1  16
HETATM   16  C6  UNL     1       1.203   0.386  -0.073  1.00  0.00     0.027 C 
HETATM   17  C5  UNL     1       2.161  -0.507   0.017  1.00  0.00     0.139 C 
BRANCH  17  18
HETATM   18  O1  UNL     1       3.471  -0.937   0.140  1.00  0.00    -0.335 OA
BRANCH  18  19
HETATM   19  C4  UNL     1       4.427  -0.057   0.660  1.00  0.00     0.139 C 
HETATM   20  C3  UNL     1       5.685  -0.126   0.212  1.00  0.00     0.019 C 
BRANCH  20  21
HETATM   21  C2  UNL     1       6.026  -1.137  -0.824  1.00  0.00     0.176 C 
BRANCH  21  22
HETATM   22  N1  UNL     1       7.038  -2.002  -0.266  1.00  0.00    -0.309 NA
HETATM   23  C1  UNL     1       8.076  -1.382   0.204  1.00  0.00     0.142 C 
ENDBRANCH  21  22
ENDBRANCH  20  21
ENDBRANCH  18  19
ENDBRANCH  17  18
ENDBRANCH   1  16
BRANCH   6  24
HETATM   24  O2  UNL     1      -5.773  -0.460  -0.668  1.00  0.00    -0.379 OA
HETATM   25  C12 UNL     1      -7.104  -0.407  -0.255  1.00  0.00     0.203 C 
ENDBRANCH   6  24
TORSDOF 6
