REMARK  4 active torsions:
REMARK  status: ('A' for Active; 'I' for Inactive)
REMARK    1  A    between atoms: N1_1  and  C1_2 
REMARK    2  A    between atoms: N2_5  and  C4_6 
REMARK    3  A    between atoms: C4_6  and  C5_7 
REMARK    4  A    between atoms: C7_9  and  N3_10 
ROOT
HETATM    1  N3  UNL     1      -0.477  -0.248   0.789  1.00  0.00    -0.336 N 
HETATM    2  C8  UNL     1      -1.161  -0.032  -0.419  1.00  0.00     0.098 C 
HETATM    3  C9  UNL     1      -1.865  -0.346  -1.487  1.00  0.00    -0.032 C 
HETATM    4  C10 UNL     1      -2.189  -1.781  -1.574  1.00  0.00     0.064 C 
HETATM    5  C11 UNL     1      -2.912  -1.804  -2.929  1.00  0.00     0.173 C 
HETATM    6  O1  UNL     1      -2.432  -0.671  -3.590  1.00  0.00    -0.379 OA
HETATM    7  C12 UNL     1      -2.475   0.345  -2.608  1.00  0.00     0.176 C 
HETATM    8  C13 UNL     1      -3.808   0.936  -2.489  1.00  0.00     0.212 C 
HETATM    9  O2  UNL     1      -4.507   0.844  -1.262  1.00  0.00    -0.348 OA
HETATM   10  C14 UNL     1      -3.863   1.431  -0.149  1.00  0.00     0.069 A 
HETATM   11  C15 UNL     1      -3.669   2.780  -0.004  1.00  0.00     0.037 A 
HETATM   12  C16 UNL     1      -3.010   3.285   1.098  1.00  0.00     0.004 A 
HETATM   13  C17 UNL     1      -2.535   2.388   2.070  1.00  0.00     0.012 A 
HETATM   14  C18 UNL     1      -2.820   1.087   1.754  1.00  0.00    -0.024 A 
HETATM   15  C19 UNL     1      -3.459   0.453   0.727  1.00  0.00     0.048 A 
HETATM   16  C20 UNL     1      -2.121   0.143   2.643  1.00  0.00    -0.001 A 
HETATM   17  C21 UNL     1      -1.039  -0.428   2.095  1.00  0.00     0.136 A 
HETATM   18  N4  UNL     1      -0.325  -1.362   2.935  1.00  0.00    -0.247 NA
HETATM   19  C22 UNL     1      -0.872  -1.491   4.117  1.00  0.00     0.092 A 
HETATM   20  C23 UNL     1      -2.049  -0.912   4.808  1.00  0.00     0.051 A 
HETATM   21  C24 UNL     1      -2.782   0.105   3.941  1.00  0.00     0.048 A 
ENDROOT
BRANCH   1  22
HETATM   22  C7  UNL     1       0.972  -0.264   0.711  1.00  0.00     0.092 C 
HETATM   23  C6  UNL     1       1.484   1.095   0.278  1.00  0.00     0.032 C 
HETATM   24  C5  UNL     1       2.353   0.351  -0.755  1.00  0.00     0.018 C 
HETATM   25  C25 UNL     1       1.515  -0.883  -0.560  1.00  0.00     0.032 C 
BRANCH  24  26
HETATM   26  C4  UNL     1       3.769   0.348  -0.305  1.00  0.00     0.280 C 
BRANCH  26  27
HETATM   27  N2  UNL     1       4.633  -0.296  -1.204  1.00  0.00     0.122 N 
HETATM   28  C1  UNL     1       6.030  -0.319  -0.775  1.00  0.00     0.453 C 
HETATM   29  C2  UNL     1       6.108  -1.668  -1.487  1.00  0.00     0.098 C 
HETATM   30  C3  UNL     1       4.564  -1.720  -1.361  1.00  0.00     0.279 C 
BRANCH  28  31
HETATM   31  N1  UNL     1       6.794   0.743  -1.398  1.00  0.00     0.112 N 
HETATM   32  H1  UNL     1       7.339   1.240  -0.649  1.00  0.00     0.315 HD
HETATM   33  H2  UNL     1       6.134   1.446  -1.776  1.00  0.00     0.315 HD
ENDBRANCH  28  31
ENDBRANCH  26  27
ENDBRANCH  24  26
ENDBRANCH   1  22
TORSDOF 4
