REMARK  1 active torsions:
REMARK  status: ('A' for Active; 'I' for Inactive)
REMARK    1  A    between atoms: C10_11  and  O1_12 
ROOT
HETATM    1  C1  UNL     1      -1.385  -3.404  -0.779  1.00  0.00     0.039 C 
HETATM    2  C2  UNL     1      -1.678  -2.588   0.245  1.00  0.00     0.021 C 
HETATM    3  C3  UNL     1      -2.941  -1.791   0.188  1.00  0.00     0.097 C 
HETATM    4  C4  UNL     1      -2.671  -0.322   0.219  1.00  0.00    -0.026 C 
HETATM    5  C5  UNL     1      -2.035   0.035   1.383  1.00  0.00     0.010 C 
HETATM    6  C6  UNL     1      -1.316   1.346   1.601  1.00  0.00     0.001 C 
HETATM    7  C7  UNL     1      -0.735   2.206   0.712  1.00  0.00     0.011 C 
HETATM    8  C8  UNL     1      -0.926   1.989  -0.760  1.00  0.00    -0.014 C 
HETATM    9  C9  UNL     1       0.073   1.274  -1.256  1.00  0.00     0.129 C 
HETATM   10  N1  UNL     1       1.197   0.717  -0.693  1.00  0.00    -0.236 NA
HETATM   11  C10 UNL     1       2.374   1.087  -0.460  1.00  0.00     0.174 C 
HETATM   12  C11 UNL     1       3.169   0.036   0.181  1.00  0.00     0.042 C 
HETATM   13  C12 UNL     1       4.436   0.193   0.518  1.00  0.00    -0.013 C 
HETATM   14  C13 UNL     1       5.430   1.286   0.420  1.00  0.00     0.037 C 
HETATM   15  C14 UNL     1       2.593  -1.276   0.477  1.00  0.00     0.091 A 
HETATM   16  C15 UNL     1       3.321  -2.448   0.485  1.00  0.00     0.053 A 
HETATM   17  C16 UNL     1       2.716  -3.662   0.760  1.00  0.00     0.139 A 
HETATM   18  N2  UNL     1       1.372  -3.628   1.018  1.00  0.00    -0.075 NA
HETATM   19  C17 UNL     1       0.691  -2.472   1.003  1.00  0.00     0.727 A 
HETATM   20  N3  UNL     1       1.248  -1.249   0.737  1.00  0.00    -0.062 NA
HETATM   21  N4  UNL     1      -0.712  -2.583   1.288  1.00  0.00    -0.192 N 
HETATM   22  C18 UNL     1      -1.924   2.262  -1.866  1.00  0.00     0.139 C 
HETATM   23  C19 UNL     1      -3.021   3.134  -1.468  1.00  0.00     0.003 C 
HETATM   24  C20 UNL     1      -4.147   2.687  -0.879  1.00  0.00     0.001 C 
HETATM   25  C21 UNL     1      -4.182   1.236  -0.556  1.00  0.00     0.029 C 
HETATM   26  C22 UNL     1      -3.056   0.586  -0.915  1.00  0.00     0.035 C 
HETATM   27  N5  UNL     1      -2.543   0.956  -2.234  1.00  0.00    -0.377 N 
HETATM   28  H16 UNL     1      -0.698  -2.641   2.324  1.00  0.00     0.184 HD
HETATM   29  H21 UNL     1      -2.514   0.584  -3.210  1.00  0.00     0.160 HD
ENDROOT
BRANCH  11  30
HETATM   30  O1  UNL     1       2.782   2.362  -0.806  1.00  0.00    -0.344 OA
HETATM   31  H9  UNL     1       2.135   3.169  -0.774  1.00  0.00     0.219 HD
ENDBRANCH  11  30
TORSDOF 1
