REMARK  2 active torsions:
REMARK  status: ('A' for Active; 'I' for Inactive)
REMARK    1  A    between atoms: O1_2  and  C2_3 
REMARK    2  A    between atoms: C22_27  and  O2_28 
ROOT
HETATM    1  C2  UNL     1       1.963   2.658   0.920  1.00  0.00     0.095 A 
HETATM    2  C3  UNL     1       0.822   3.048   1.588  1.00  0.00     0.041 A 
HETATM    3  C4  UNL     1      -0.411   2.471   1.263  1.00  0.00     0.032 A 
HETATM    4  C5  UNL     1      -0.419   1.517   0.266  1.00  0.00     0.031 A 
HETATM    5  C6  UNL     1       0.723   1.125  -0.404  1.00  0.00     0.062 A 
HETATM    6  C7  UNL     1       1.933   1.703  -0.073  1.00  0.00     0.084 A 
HETATM    7  N1  UNL     1       3.082   1.289  -0.770  1.00  0.00    -0.185 N 
HETATM    8  C8  UNL     1       3.377  -0.028  -1.204  1.00  0.00     0.727 A 
HETATM    9  N2  UNL     1       4.197  -0.239  -2.248  1.00  0.00    -0.075 NA
HETATM   10  C9  UNL     1       4.441  -1.502  -2.615  1.00  0.00     0.139 A 
HETATM   11  C10 UNL     1       3.855  -2.546  -1.924  1.00  0.00     0.053 A 
HETATM   12  C11 UNL     1       3.024  -2.262  -0.863  1.00  0.00     0.094 A 
HETATM   13  N3  UNL     1       2.761  -0.988  -0.471  1.00  0.00    -0.061 NA
HETATM   14  C12 UNL     1       2.282  -3.137   0.034  1.00  0.00     0.148 C 
HETATM   15  N4  UNL     1       0.998  -3.003   0.261  1.00  0.00    -0.271 NA
HETATM   16  C13 UNL     1       0.330  -3.889   1.148  1.00  0.00     0.116 C 
HETATM   17  C14 UNL     1      -0.906  -3.649   1.518  1.00  0.00     0.019 C 
HETATM   18  C15 UNL     1      -1.728  -2.532   1.116  1.00  0.00     0.001 C 
HETATM   19  C16 UNL     1      -1.843  -1.425   0.416  1.00  0.00     0.015 C 
HETATM   20  C17 UNL     1      -2.533  -0.217  -0.104  1.00  0.00     0.115 C 
HETATM   21  C18 UNL     1      -3.685   0.030   0.841  1.00  0.00     0.011 C 
HETATM   22  C19 UNL     1      -4.829   0.573   0.443  1.00  0.00    -0.024 C 
HETATM   23  C20 UNL     1      -5.020   0.964  -0.967  1.00  0.00     0.056 C 
HETATM   24  C21 UNL     1      -4.233   0.102  -1.883  1.00  0.00     0.012 C 
HETATM   25  C22 UNL     1      -3.094  -0.434  -1.475  1.00  0.00     0.075 C 
HETATM   26  N5  UNL     1      -1.686   0.949  -0.039  1.00  0.00    -0.368 N 
HETATM   27  H7  UNL     1       3.741   2.076  -0.955  1.00  0.00     0.184 HD
HETATM   28  H21 UNL     1      -2.301   1.722  -0.369  1.00  0.00     0.161 HD
ENDROOT
BRANCH  25  29
HETATM   29  O2  UNL     1      -2.296  -1.251  -2.267  1.00  0.00    -0.362 OA
HETATM   30  H20 UNL     1      -2.796  -1.885  -2.901  1.00  0.00     0.217 HD
ENDBRANCH  25  29
BRANCH   1  31
HETATM   31  O1  UNL     1       3.200   3.197   1.205  1.00  0.00    -0.354 OA
HETATM   32  C1  UNL     1       3.391   4.192   2.204  1.00  0.00     0.210 C 
ENDBRANCH   1  31
TORSDOF 2
