REMARK  4 active torsions:
REMARK  status: ('A' for Active; 'I' for Inactive)
REMARK    1  A    between atoms: C4_4  and  C5_5 
REMARK    2  A    between atoms: C6_6  and  N1_7 
REMARK    3  A    between atoms: N1_7  and  C7_8 
REMARK    4  A    between atoms: C14_18  and  O1_19 
ROOT
HETATM    1  C1  UNL     1       7.658   1.523   0.261  1.00  0.00     0.017 C 
HETATM    2  C2  UNL     1       6.461   1.694   0.251  1.00  0.00    -0.089 C 
HETATM    3  C3  UNL     1       5.041   1.898   0.216  1.00  0.00     0.063 C 
HETATM    4  C4  UNL     1       4.219   0.904  -0.129  1.00  0.00     0.010 C 
ENDROOT
BRANCH   4   5
HETATM    5  C5  UNL     1       4.773  -0.399  -0.472  1.00  0.00     0.018 C 
HETATM    6  C6  UNL     1       3.954  -1.387  -0.816  1.00  0.00     0.090 C 
BRANCH   6   7
HETATM    7  N1  UNL     1       2.560  -1.124  -0.832  1.00  0.00    -0.349 N 
HETATM    8  H6  UNL     1       2.579  -0.841  -1.822  1.00  0.00     0.167 HD
BRANCH   7   9
HETATM    9  C7  UNL     1       1.751  -1.309   0.317  1.00  0.00     0.159 A 
HETATM   10  N2  UNL     1       2.439  -1.750   1.387  1.00  0.00    -0.222 NA
HETATM   11  C8  UNL     1       1.776  -1.969   2.558  1.00  0.00     0.238 A 
HETATM   12  N3  UNL     1       0.453  -1.734   2.603  1.00  0.00    -0.215 NA
HETATM   13  C9  UNL     1      -0.232  -1.290   1.523  1.00  0.00     0.202 A 
HETATM   14  C10 UNL     1       0.398  -1.055   0.316  1.00  0.00     0.129 A 
HETATM   15  O2  UNL     1      -1.605  -1.100   1.752  1.00  0.00    -0.289 OA
HETATM   16  N4  UNL     1      -0.058  -0.597  -0.955  1.00  0.00    -0.379 N 
HETATM   17  C11 UNL     1      -1.410  -0.826  -1.463  1.00  0.00     0.161 C 
HETATM   18  H8  UNL     1       0.741  -0.083  -1.431  1.00  0.00     0.160 HD
HETATM   19  C12 UNL     1      -2.431  -0.402  -0.475  1.00  0.00    -0.004 A 
HETATM   20  C13 UNL     1      -3.467   0.226  -1.146  1.00  0.00     0.048 A 
HETATM   21  C18 UNL     1      -2.547  -0.501   0.894  1.00  0.00     0.086 A 
HETATM   22  C14 UNL     1      -4.597   0.753  -0.544  1.00  0.00     0.069 A 
HETATM   23  C16 UNL     1      -4.645   0.617   0.829  1.00  0.00     0.039 A 
HETATM   24  C17 UNL     1      -3.651   0.005   1.568  1.00  0.00     0.040 A 
BRANCH  22  25
HETATM   25  O1  UNL     1      -5.590   1.367  -1.295  1.00  0.00    -0.356 OA
HETATM   26  C15 UNL     1      -6.733   1.897  -0.656  1.00  0.00     0.210 C 
ENDBRANCH  22  25
ENDBRANCH   7   9
ENDBRANCH   6   7
ENDBRANCH   4   5
TORSDOF 4
