REMARK  0 active torsions:
REMARK  status: ('A' for Active; 'I' for Inactive)
ROOT
HETATM    1  C1  UNL     1      -1.435   1.297  -0.916  1.00  0.00     0.048 C 
HETATM    2  C2  UNL     1      -1.903   0.053  -1.117  1.00  0.00     0.029 C 
HETATM    3  C3  UNL     1      -3.199   0.150  -1.828  1.00  0.00     0.018 C 
HETATM    4  C4  UNL     1      -4.069  -1.067  -1.568  1.00  0.00     0.027 C 
HETATM    5  C5  UNL     1      -3.371  -2.340  -2.000  1.00  0.00     0.171 C 
HETATM    6  O1  UNL     1      -1.996  -2.052  -2.116  1.00  0.00    -0.360 OA
HETATM    7  C6  UNL     1      -1.647  -1.448  -0.924  1.00  0.00     0.269 C 
HETATM    8  O2  UNL     1      -0.307  -1.651  -0.718  1.00  0.00    -0.360 OA
HETATM    9  C7  UNL     1       0.078  -2.636   0.136  1.00  0.00     0.175 C 
HETATM   10  C8  UNL     1       1.607  -2.618   0.216  1.00  0.00     0.067 C 
HETATM   11  C9  UNL     1       2.041  -1.264   0.707  1.00  0.00    -0.025 A 
HETATM   12  C10 UNL     1       1.864  -0.259  -0.221  1.00  0.00     0.100 A 
HETATM   13  N1  UNL     1       2.238   0.935   0.268  1.00  0.00    -0.340 N 
HETATM   14  C11 UNL     1       2.670   0.699   1.543  1.00  0.00     0.143 A 
HETATM   15  N2  UNL     1       3.159   1.496   2.517  1.00  0.00    -0.223 NA
HETATM   16  C12 UNL     1       3.500   0.925   3.691  1.00  0.00     0.234 A 
HETATM   17  N3  UNL     1       3.384  -0.405   3.965  1.00  0.00    -0.253 NA
HETATM   18  C13 UNL     1       2.895  -1.257   3.015  1.00  0.00     0.134 A 
HETATM   19  C14 UNL     1       2.555  -0.646   1.826  1.00  0.00     0.035 A 
HETATM   20  C15 UNL     1       2.150   2.182  -0.462  1.00  0.00     0.133 C 
HETATM   21  C16 UNL     1       0.872   2.252  -1.216  1.00  0.00     0.064 C 
HETATM   22  C17 UNL     1      -0.382   2.171  -0.379  1.00  0.00     0.190 A 
HETATM   23  C18 UNL     1      -0.836   3.551   0.124  1.00  0.00     0.312 A 
HETATM   24  N4  UNL     1      -0.354   2.554   1.019  1.00  0.00     0.098 N 
HETATM   25  H22 UNL     1       0.543   2.670   1.502  1.00  0.00     0.317 HD
ENDROOT
TORSDOF 0
