REMARK  3 active torsions:
REMARK  status: ('A' for Active; 'I' for Inactive)
REMARK       I    between atoms: C1_2  and  N1_3 
REMARK    1  A    between atoms: C1_2  and  C15_21 
REMARK    2  A    between atoms: N1_3  and  C2_4 
REMARK    3  A    between atoms: N2_8  and  C6_9 
ROOT
HETATM    1  C2  UNL     1       1.015  -1.100   0.744  1.00  0.00     0.026 C 
HETATM    2  C3  UNL     1       0.823  -1.841   1.814  1.00  0.00     0.002 C 
HETATM    3  C4  UNL     1      -0.457  -2.598   2.038  1.00  0.00     0.049 C 
HETATM    4  C5  UNL     1      -1.659  -1.779   1.630  1.00  0.00     0.128 C 
HETATM    5  N2  UNL     1      -1.308  -0.755   0.663  1.00  0.00    -0.361 N 
HETATM    6  C14 UNL     1      -0.152  -1.107  -0.176  1.00  0.00     0.181 C 
ENDROOT
BRANCH   5   7
HETATM    7  C6  UNL     1      -1.975   0.486   0.493  1.00  0.00     0.112 C 
HETATM    8  N3  UNL     1      -1.248   1.515   0.761  1.00  0.00    -0.341 NA
HETATM    9  B1  UNL     1      -1.638   3.206   0.695  1.00  0.00     0.346 B 
HETATM   10  C7  UNL     1      -3.474   3.450   1.269  1.00  0.00    -0.079 C 
HETATM   11  C8  UNL     1      -4.214   2.833   0.396  1.00  0.00     0.006 C 
HETATM   12  C9  UNL     1      -4.295   1.450  -0.006  1.00  0.00    -0.029 C 
HETATM   13  C10 UNL     1      -3.367   0.538   0.050  1.00  0.00    -0.001 C 
HETATM   14  C13 UNL     1      -5.654   1.121  -0.542  1.00  0.00     0.187 C 
HETATM   15  C11 UNL     1      -3.747  -0.820  -0.444  1.00  0.00     0.089 C 
HETATM   16  C12 UNL     1      -4.720  -0.736  -1.579  1.00  0.00     0.088 C 
HETATM   17  N4  UNL     1      -5.605   0.174  -1.613  1.00  0.00    -0.301 NA
ENDBRANCH   5   7
BRANCH   1  18
HETATM   18  N1  UNL     1       2.249  -0.410   0.595  1.00  0.00    -0.325 N 
HETATM   19  C1  UNL     1       3.165  -0.589  -0.480  1.00  0.00     0.256 C 
HETATM   20  O1  UNL     1       2.919  -1.408  -1.404  1.00  0.00    -0.267 OA
HETATM   21  H1  UNL     1       2.454   0.270   1.360  1.00  0.00     0.169 HD
BRANCH  19  22
HETATM   22  C15 UNL     1       4.416   0.152  -0.575  1.00  0.00     0.032 A 
HETATM   23  C16 UNL     1       5.238  -0.091  -1.654  1.00  0.00     0.017 A 
HETATM   24  C17 UNL     1       6.444   0.606  -1.767  1.00  0.00     0.001 A 
HETATM   25  C18 UNL     1       6.850   1.535  -0.837  1.00  0.00     0.000 A 
HETATM   26  C19 UNL     1       6.030   1.776   0.238  1.00  0.00     0.001 A 
HETATM   27  C20 UNL     1       4.838   1.084   0.347  1.00  0.00     0.017 A 
ENDBRANCH  19  22
ENDBRANCH   1  18
TORSDOF 3
