REMARK  3 active torsions:
REMARK  status: ('A' for Active; 'I' for Inactive)
REMARK    1  A    between atoms: C3_3  and  O1_4 
REMARK    2  A    between atoms: C6_8  and  C7_9 
REMARK    3  A    between atoms: C16_18  and  O2_19 
ROOT
HETATM    1  C1  UNL     1      -2.790  -3.155  -1.164  1.00  0.00     0.050 C 
HETATM    2  C2  UNL     1      -1.935  -2.681  -0.307  1.00  0.00     0.024 C 
HETATM    3  C3  UNL     1      -0.573  -3.230  -0.167  1.00  0.00     0.170 C 
HETATM    4  N1  UNL     1       0.444  -2.984   0.553  1.00  0.00    -0.237 NA
HETATM    5  C4  UNL     1       0.461  -1.961   1.517  1.00  0.00     0.116 C 
HETATM    6  C5  UNL     1       0.932  -0.749   1.860  1.00  0.00     0.007 C 
HETATM    7  C6  UNL     1       1.810   0.315   1.338  1.00  0.00     0.075 C 
HETATM    8  C13 UNL     1       0.989   1.350   0.661  1.00  0.00    -0.044 A 
HETATM    9  C14 UNL     1       1.444   2.365  -0.153  1.00  0.00     0.011 A 
HETATM   10  C15 UNL     1       0.572   3.252  -0.750  1.00  0.00     0.039 A 
HETATM   11  C16 UNL     1      -0.792   3.175  -0.570  1.00  0.00     0.095 A 
HETATM   12  C18 UNL     1      -1.266   2.173   0.236  1.00  0.00     0.083 A 
HETATM   13  C19 UNL     1      -0.381   1.296   0.826  1.00  0.00     0.041 A 
HETATM   14  N2  UNL     1      -2.676   1.985   0.472  1.00  0.00    -0.185 N 
HETATM   15  C20 UNL     1      -3.083   0.607   0.637  1.00  0.00     0.727 A 
HETATM   16  N3  UNL     1      -4.198   0.428   1.368  1.00  0.00    -0.075 NA
HETATM   17  C21 UNL     1      -4.643  -0.828   1.585  1.00  0.00     0.139 A 
HETATM   18  C22 UNL     1      -3.906  -1.881   1.029  1.00  0.00     0.053 A 
HETATM   19  C23 UNL     1      -2.753  -1.647   0.277  1.00  0.00     0.087 A 
HETATM   20  N4  UNL     1      -2.355  -0.382   0.090  1.00  0.00    -0.062 NA
HETATM   21  H18 UNL     1      -3.270   2.815   0.505  1.00  0.00     0.184 HD
ENDROOT
BRANCH   7  22
HETATM   22  C7  UNL     1       2.855  -0.249   0.496  1.00  0.00    -0.046 A 
HETATM   23  C8  UNL     1       2.679  -0.957  -0.668  1.00  0.00     0.008 A 
HETATM   24  C9  UNL     1       3.671  -1.494  -1.447  1.00  0.00     0.001 A 
HETATM   25  C10 UNL     1       4.982  -1.319  -1.042  1.00  0.00     0.000 A 
HETATM   26  C11 UNL     1       5.276  -0.624   0.110  1.00  0.00     0.001 A 
HETATM   27  C12 UNL     1       4.212  -0.122   0.827  1.00  0.00     0.008 A 
ENDBRANCH   7  22
BRANCH   3  28
HETATM   28  O1  UNL     1      -0.386  -4.278  -1.057  1.00  0.00    -0.344 OA
HETATM   29  H3  UNL     1       0.511  -4.769  -1.057  1.00  0.00     0.219 HD
ENDBRANCH   3  28
BRANCH  11  30
HETATM   30  O2  UNL     1      -1.745   4.017  -1.126  1.00  0.00    -0.354 OA
HETATM   31  C17 UNL     1      -1.358   5.085  -1.975  1.00  0.00     0.210 C 
ENDBRANCH  11  30
TORSDOF 3
