REMARK  6 active torsions:
REMARK  status: ('A' for Active; 'I' for Inactive)
REMARK    1  A    between atoms: C6_6  and  N1_7 
REMARK       I    between atoms: N1_7  and  C7_8 
REMARK    2  A    between atoms: C7_8  and  C8_10 
REMARK    3  A    between atoms: C15_17  and  N2_18 
REMARK    4  A    between atoms: N2_18  and  C16_19 
REMARK    5  A    between atoms: C18_22  and  C19_23 
REMARK    6  A    between atoms: C19_23  and  C20_24 
ROOT
HETATM    1  C1  UNL     1       1.678   2.709  -1.932  1.00  0.00     0.014 C 
HETATM    2  C2  UNL     1       0.529   2.177  -1.689  1.00  0.00     0.005 C 
HETATM    3  C3  UNL     1      -0.728   1.552  -1.349  1.00  0.00    -0.013 A 
HETATM    4  C4  UNL     1      -1.744   1.747  -2.252  1.00  0.00     0.015 A 
HETATM    5  C5  UNL     1      -2.972   1.230  -1.916  1.00  0.00     0.030 A 
HETATM    6  C6  UNL     1      -3.097   0.565  -0.723  1.00  0.00     0.037 A 
HETATM    7  C14 UNL     1      -2.046   0.401   0.135  1.00  0.00     0.059 A 
HETATM    8  C15 UNL     1      -0.762   0.904  -0.146  1.00  0.00     0.045 A 
ENDROOT
BRANCH   8   9
HETATM    9  N2  UNL     1       0.257   0.624   0.784  1.00  0.00    -0.339 N 
HETATM   10  H13 UNL     1      -0.036   0.421   1.796  1.00  0.00     0.167 HD
BRANCH   9  11
HETATM   11  C16 UNL     1       1.656   0.593   0.627  1.00  0.00     0.148 A 
HETATM   12  N3  UNL     1       2.045  -0.040  -0.425  1.00  0.00    -0.239 NA
HETATM   13  C17 UNL     1       3.351  -0.249  -0.863  1.00  0.00     0.144 A 
HETATM   14  C18 UNL     1       4.410   0.198  -0.226  1.00  0.00     0.027 A 
HETATM   15  N5  UNL     1       4.448   0.979   0.951  1.00  0.00    -0.363 N 
HETATM   16  P1  UNL     1       2.885   1.321   1.763  1.00  0.00     0.044 P 
HETATM   17  H21 UNL     1       5.183   1.422   1.472  1.00  0.00     0.164 HD
HETATM   18  H22 UNL     1       2.721   2.743   1.920  1.00  0.00     0.088 HD
BRANCH  14  19
HETATM   19  C19 UNL     1       5.744  -0.099  -0.806  1.00  0.00     0.072 C 
BRANCH  19  20
HETATM   20  C20 UNL     1       6.547  -1.017   0.037  1.00  0.00     0.056 A 
HETATM   21  C21 UNL     1       6.849  -0.563   1.406  1.00  0.00     0.003 A 
HETATM   22  C22 UNL     1       8.191  -0.448   1.507  1.00  0.00     0.112 A 
HETATM   23  N4  UNL     1       8.806  -0.804   0.268  1.00  0.00    -0.277 NA
HETATM   24  C23 UNL     1       7.896  -1.134  -0.592  1.00  0.00     0.098 A 
ENDBRANCH  19  20
ENDBRANCH  14  19
ENDBRANCH   9  11
ENDBRANCH   8   9
BRANCH   6  25
HETATM   25  N1  UNL     1      -4.408   0.085  -0.471  1.00  0.00    -0.323 N 
HETATM   26  C7  UNL     1      -4.903  -0.611   0.642  1.00  0.00     0.256 C 
HETATM   27  O1  UNL     1      -4.158  -0.896   1.598  1.00  0.00    -0.267 OA
HETATM   28  H6  UNL     1      -5.187   0.226  -1.168  1.00  0.00     0.169 HD
BRANCH  26  29
HETATM   29  C8  UNL     1      -6.280  -1.052   0.784  1.00  0.00     0.032 A 
HETATM   30  C9  UNL     1      -7.294  -0.844  -0.127  1.00  0.00     0.017 A 
HETATM   31  C10 UNL     1      -8.593  -1.258   0.001  1.00  0.00     0.001 A 
HETATM   32  C11 UNL     1      -8.909  -1.944   1.145  1.00  0.00     0.000 A 
HETATM   33  C12 UNL     1      -7.979  -2.210   2.123  1.00  0.00     0.001 A 
HETATM   34  C13 UNL     1      -6.706  -1.749   1.894  1.00  0.00     0.017 A 
ENDBRANCH  26  29
ENDBRANCH   6  25
TORSDOF 6
