REMARK  2 active torsions:
REMARK  status: ('A' for Active; 'I' for Inactive)
REMARK    1  A    between atoms: O1_2  and  C2_3 
REMARK    2  A    between atoms: C8_12  and  N3_13 
ROOT
HETATM    1  C2  UNL     1      -1.011   1.466  -1.447  1.00  0.00     0.090 A 
HETATM    2  C3  UNL     1      -1.005   0.292  -0.551  1.00  0.00     0.070 A 
HETATM    3  C4  UNL     1      -0.202   0.331  -1.579  1.00  0.00     0.029 A 
HETATM    4  C5  UNL     1      -1.514  -0.532  -1.180  1.00  0.00     0.080 A 
HETATM    5  O2  UNL     1      -2.081  -0.250   0.076  1.00  0.00     0.000 OA
HETATM    6  C6  UNL     1      -3.434  -0.433   0.176  1.00  0.00     0.137 C 
HETATM    7  N1  UNL     1      -3.264  -1.705   0.470  1.00  0.00    -0.253 NA
HETATM    8  C7  UNL     1      -1.878  -2.081   0.500  1.00  0.00     0.230 C 
HETATM    9  N2  UNL     1      -0.647  -1.902   0.268  1.00  0.00    -0.240 NA
HETATM   10  C8  UNL     1       0.043  -0.805  -0.362  1.00  0.00     0.156 A 
HETATM   11  N4  UNL     1       0.805  -1.364  -1.391  1.00  0.00    -0.282 NA
HETATM   12  C14 UNL     1       1.331  -0.745  -2.603  1.00  0.00     0.102 C 
HETATM   13  C15 UNL     1       0.588   0.589  -2.757  1.00  0.00     0.001 A 
HETATM   14  C16 UNL     1      -0.170   1.757  -2.731  1.00  0.00     0.041 A 
HETATM   15  H13 UNL     1       1.693  -1.815  -0.958  1.00  0.00     0.125 HD
ENDROOT
BRANCH  10  16
HETATM   16  N3  UNL     1       0.980  -0.352   0.703  1.00  0.00    -0.317 N 
HETATM   17  C9  UNL     1       1.576   0.955   0.481  1.00  0.00     0.144 A 
HETATM   18  S1  UNL     1       2.651   1.755   1.451  1.00  0.00    -0.096 SA
HETATM   19  C10 UNL     1       3.027   0.878   2.813  1.00  0.00     0.053 A 
HETATM   20  C11 UNL     1       2.278  -0.371   2.746  1.00  0.00     0.032 A 
HETATM   21  C12 UNL     1       1.429  -0.915   1.901  1.00  0.00     0.012 A 
HETATM   22  C13 UNL     1       0.840  -2.250   2.157  1.00  0.00     0.068 C 
ENDBRANCH  10  16
BRANCH   1  23
HETATM   23  O1  UNL     1      -1.941   2.425  -0.986  1.00  0.00    -0.383 OA
HETATM   24  C1  UNL     1      -1.483   3.584  -0.330  1.00  0.00     0.202 C 
ENDBRANCH   1  23
TORSDOF 2
