REMARK  5 active torsions:
REMARK  status: ('A' for Active; 'I' for Inactive)
REMARK    1  A    between atoms: O1_2  and  C2_3 
REMARK    2  A    between atoms: C5_6  and  C6_7 
REMARK    3  A    between atoms: C9_12  and  N2_13 
REMARK    4  A    between atoms: N2_13  and  C10_14 
REMARK    5  A    between atoms: C13_18  and  C14_19 
ROOT
HETATM    1  N2  UNL     1      -0.489   0.437  -0.632  1.00  0.00    -0.186 N 
HETATM    2  H11 UNL     1      -0.571   0.731  -1.630  1.00  0.00     0.184 HD
ENDROOT
BRANCH   1   3
HETATM    3  C9  UNL     1      -1.752   0.282  -0.047  1.00  0.00     0.080 C 
HETATM    4  C2  UNL     1      -2.678  -0.546  -0.847  1.00  0.00     0.095 C 
HETATM    5  C3  UNL     1      -3.820  -1.156  -0.593  1.00  0.00     0.041 C 
HETATM    6  C4  UNL     1      -4.676  -1.292   0.570  1.00  0.00     0.035 C 
HETATM    7  C5  UNL     1      -4.784  -0.748   1.750  1.00  0.00     0.066 C 
HETATM    8  N1  UNL     1      -3.998   0.286   2.359  1.00  0.00    -0.384 N 
HETATM    9  C7  UNL     1      -2.879   1.154   2.211  1.00  0.00     0.149 C 
HETATM   10  H7  UNL     1      -4.423   0.493   3.314  1.00  0.00     0.160 HD
HETATM   11  C8  UNL     1      -1.954   0.885   1.126  1.00  0.00     0.025 C 
BRANCH   4  12
HETATM   12  O1  UNL     1      -2.218  -0.702  -2.164  1.00  0.00    -0.354 OA
HETATM   13  C1  UNL     1      -1.492  -1.863  -2.551  1.00  0.00     0.210 C 
ENDBRANCH   4  12
BRANCH   7  14
HETATM   14  C6  UNL     1      -5.862  -1.236   2.630  1.00  0.00     0.287 C 
HETATM   15  O2  UNL     1      -6.055  -0.781   3.788  1.00  0.00    -0.300 OA
ENDBRANCH   7  14
ENDBRANCH   1   3
BRANCH   1  16
HETATM   16  C10 UNL     1       0.753   0.240  -0.012  1.00  0.00     0.727 A 
HETATM   17  N3  UNL     1       0.829  -0.141   1.276  1.00  0.00    -0.075 NA
HETATM   18  C11 UNL     1       2.006  -0.340   1.905  1.00  0.00     0.139 A 
HETATM   19  C12 UNL     1       3.134  -0.127   1.137  1.00  0.00     0.053 A 
HETATM   20  C13 UNL     1       3.107   0.263  -0.185  1.00  0.00     0.089 A 
HETATM   21  N5  UNL     1       1.878   0.436  -0.724  1.00  0.00    -0.062 NA
BRANCH  20  22
HETATM   22  C14 UNL     1       4.310   0.482  -0.977  1.00  0.00     0.011 A 
HETATM   23  C15 UNL     1       5.601   0.331  -0.517  1.00  0.00     0.017 A 
HETATM   24  C16 UNL     1       6.688   0.562  -1.341  1.00  0.00     0.020 A 
HETATM   25  C17 UNL     1       6.489   0.951  -2.654  1.00  0.00     0.116 A 
HETATM   26  N4  UNL     1       5.227   1.102  -3.114  1.00  0.00    -0.272 NA
HETATM   27  C18 UNL     1       4.178   0.871  -2.290  1.00  0.00     0.130 A 
ENDBRANCH  20  22
ENDBRANCH   1  16
TORSDOF 5
