REMARK  6 active torsions:
REMARK  status: ('A' for Active; 'I' for Inactive)
REMARK    1  A    between atoms: C3_3  and  N1_4 
REMARK    2  A    between atoms: C3_3  and  O2_13 
REMARK       I    between atoms: N1_4  and  C4_5 
REMARK    3  A    between atoms: C4_5  and  C5_7 
REMARK    4  A    between atoms: O2_13  and  C11_14 
REMARK    5  A    between atoms: C11_14  and  C12_15 
REMARK    6  A    between atoms: C12_15  and  C13_16 
ROOT
HETATM    1  C11 UNL     1       0.292   0.422  -2.128  1.00  0.00     0.185 C 
ENDROOT
BRANCH   1   2
HETATM    2  O2  UNL     1       0.759   1.383  -1.172  1.00  0.00    -0.336 OA
BRANCH   2   3
HETATM    3  C3  UNL     1       2.116   1.620  -1.011  1.00  0.00     0.140 C 
HETATM    4  C2  UNL     1       2.413   2.830  -1.452  1.00  0.00     0.025 C 
HETATM    5  C1  UNL     1       1.508   3.872  -2.052  1.00  0.00     0.040 C 
BRANCH   3   6
HETATM    6  N1  UNL     1       2.947   0.632  -0.447  1.00  0.00    -0.304 N 
HETATM    7  C4  UNL     1       4.343   0.701  -0.210  1.00  0.00     0.257 C 
HETATM    8  O1  UNL     1       4.923   1.783  -0.545  1.00  0.00    -0.267 OA
HETATM    9  H5  UNL     1       2.514  -0.269  -0.159  1.00  0.00     0.171 HD
BRANCH   7  10
HETATM   10  C5  UNL     1       5.109  -0.388   0.383  1.00  0.00     0.032 A 
HETATM   11  C6  UNL     1       4.624  -1.606   0.793  1.00  0.00     0.017 A 
HETATM   12  C7  UNL     1       5.431  -2.577   1.345  1.00  0.00     0.001 A 
HETATM   13  C8  UNL     1       6.785  -2.361   1.513  1.00  0.00     0.000 A 
HETATM   14  C9  UNL     1       7.309  -1.153   1.114  1.00  0.00     0.001 A 
HETATM   15  C10 UNL     1       6.475  -0.213   0.569  1.00  0.00     0.017 A 
ENDBRANCH   7  10
ENDBRANCH   3   6
ENDBRANCH   2   3
ENDBRANCH   1   2
BRANCH   1  16
HETATM   16  C12 UNL     1      -1.221   0.427  -2.035  1.00  0.00     0.107 C 
BRANCH  16  17
HETATM   17  C13 UNL     1      -1.561   0.041  -0.621  1.00  0.00     0.128 A 
HETATM   18  N2  UNL     1      -0.588  -0.234   0.295  1.00  0.00    -0.245 NA
HETATM   19  C14 UNL     1      -0.995  -0.573   1.544  1.00  0.00     0.121 A 
HETATM   20  C15 UNL     1      -2.337  -0.623   1.826  1.00  0.00     0.052 A 
HETATM   21  C16 UNL     1      -3.324  -0.347   0.912  1.00  0.00     0.072 A 
HETATM   22  C17 UNL     1      -4.731  -0.406   1.236  1.00  0.00     0.016 A 
HETATM   23  N4  UNL     1      -2.866  -0.019  -0.305  1.00  0.00    -0.233 NA
HETATM   24  C18 UNL     1      -5.206  -0.745   2.486  1.00  0.00     0.130 A 
HETATM   25  C21 UNL     1      -5.671  -0.116   0.271  1.00  0.00    -0.047 A 
HETATM   26  N3  UNL     1      -6.519  -0.808   2.818  1.00  0.00    -0.272 NA
HETATM   27  C19 UNL     1      -7.475  -0.528   1.893  1.00  0.00     0.116 A 
HETATM   28  C20 UNL     1      -7.011  -0.189   0.641  1.00  0.00     0.027 A 
HETATM   29  C22 UNL     1      -5.285   0.265  -1.122  1.00  0.00     0.049 C 
ENDBRANCH  16  17
ENDBRANCH   1  16
TORSDOF 6
