REMARK  2 active torsions:
REMARK  status: ('A' for Active; 'I' for Inactive)
REMARK    1  A    between atoms: C2_4  and  C3_5 
REMARK    2  A    between atoms: C3_5  and  C4_6 
ROOT
HETATM    1  B1  UNL     1       8.083   0.124  -0.859  1.00  0.00     0.225 B 
HETATM    2  C1  UNL     1       6.556   2.056  -0.498  1.00  0.00    -0.132 C 
HETATM    3  N1  UNL     1       5.671   3.138  -0.303  1.00  0.00    -0.243 NA
HETATM    4  C2  UNL     1       4.448   2.832  -0.742  1.00  0.00     0.104 C 
ENDROOT
BRANCH   4   5
HETATM    5  C3  UNL     1       4.123   1.497  -1.351  1.00  0.00     0.106 C 
BRANCH   5   6
HETATM    6  C4  UNL     1       2.731   1.103  -1.014  1.00  0.00     0.035 C 
HETATM    7  N2  UNL     1       1.970   0.259  -0.465  1.00  0.00    -0.289 NA
HETATM    8  C5  UNL     1       2.384  -0.977   0.219  1.00  0.00     0.188 C 
HETATM    9  C6  UNL     1       1.067  -1.659   0.500  1.00  0.00    -0.030 A 
HETATM   10  C7  UNL     1       0.141  -0.798   1.105  1.00  0.00     0.038 A 
HETATM   11  C11 UNL     1       0.725  -2.948   0.182  1.00  0.00    -0.054 A 
HETATM   12  C8  UNL     1      -1.134  -1.250   1.382  1.00  0.00     0.030 A 
HETATM   13  C9  UNL     1      -1.441  -2.554   1.047  1.00  0.00     0.030 A 
HETATM   14  N3  UNL     1      -2.083  -0.343   1.963  1.00  0.00    -0.360 N 
HETATM   15  C10 UNL     1      -0.539  -3.417   0.453  1.00  0.00     0.009 A 
HETATM   16  C13 UNL     1      -2.404   0.659   0.921  1.00  0.00     0.149 C 
HETATM   17  H12 UNL     1      -2.128  -0.808   2.888  1.00  0.00     0.162 HD
HETATM   18  C14 UNL     1      -3.170  -0.131  -0.142  1.00  0.00     0.086 C 
HETATM   19  C18 UNL     1      -3.263   1.744   1.499  1.00  0.00     0.063 C 
HETATM   20  N4  UNL     1      -1.252   1.166   0.298  1.00  0.00    -0.160 NA
HETATM   21  C15 UNL     1      -4.477  -0.601   0.390  1.00  0.00    -0.003 C 
HETATM   22  C16 UNL     1      -5.194   0.407   0.875  1.00  0.00     0.008 C 
HETATM   23 CL1  UNL     1      -6.771   0.140   1.562  1.00  0.00    -0.089 Cl
HETATM   24  C17 UNL     1      -4.616   1.783   0.817  1.00  0.00     0.055 C 
HETATM   25  N5  UNL     1      -0.878   1.313  -0.859  1.00  0.00    -0.165 NA
HETATM   26  C19 UNL     1       0.365   1.864  -1.277  1.00  0.00     0.142 C 
HETATM   27  C20 UNL     1       1.653   1.962  -1.433  1.00  0.00     0.048 C 
HETATM   28  C12 UNL     1       1.776  -3.775  -0.451  1.00  0.00     0.049 C 
ENDBRANCH   5   6
ENDBRANCH   4   5
TORSDOF 2
