REMARK  5 active torsions:
REMARK  status: ('A' for Active; 'I' for Inactive)
REMARK    1  A    between atoms: N1_1  and  C1_2 
REMARK    2  A    between atoms: C4_6  and  C5_7 
REMARK    3  A    between atoms: C13_16  and  N4_17 
REMARK       I    between atoms: N4_17  and  C14_18 
REMARK    4  A    between atoms: C14_18  and  C15_20 
REMARK    5  A    between atoms: C18_23  and  C19_24 
ROOT
HETATM    1  C1  UNL     1      -2.217   3.891  -0.151  1.00  0.00     0.698 C 
HETATM    2  N2  UNL     1      -3.400   3.791   0.409  1.00  0.00    -0.078 NA
HETATM    3  C2  UNL     1      -4.083   2.621   0.909  1.00  0.00     0.133 C 
HETATM    4  C3  UNL     1      -4.104   1.366   0.499  1.00  0.00     0.007 C 
HETATM    5  C4  UNL     1      -3.547   0.487  -0.552  1.00  0.00     0.079 C 
HETATM    6  C10 UNL     1      -2.082   0.528  -0.482  1.00  0.00    -0.018 A 
HETATM    7  C11 UNL     1      -1.562  -0.749  -0.425  1.00  0.00     0.013 A 
HETATM    8  C12 UNL     1      -0.231  -1.048  -0.355  1.00  0.00     0.030 A 
HETATM    9  C13 UNL     1       0.700  -0.029  -0.336  1.00  0.00     0.037 A 
HETATM   10  C21 UNL     1       0.214   1.261  -0.392  1.00  0.00     0.060 A 
HETATM   11  C22 UNL     1      -1.152   1.547  -0.464  1.00  0.00     0.058 A 
HETATM   12  N5  UNL     1      -1.144   2.991  -0.501  1.00  0.00    -0.190 N 
HETATM   13  H20 UNL     1      -0.273   3.436  -0.813  1.00  0.00     0.184 HD
ENDROOT
BRANCH   9  14
HETATM   14  N4  UNL     1       2.079  -0.312  -0.264  1.00  0.00    -0.323 N 
HETATM   15  C14 UNL     1       2.882  -0.459   0.894  1.00  0.00     0.252 C 
HETATM   16  O1  UNL     1       2.313  -0.325   2.000  1.00  0.00    -0.268 OA
HETATM   17  H12 UNL     1       2.549  -0.423  -1.200  1.00  0.00     0.169 HD
BRANCH  15  18
HETATM   18  C15 UNL     1       4.311  -0.755   0.806  1.00  0.00     0.014 A 
HETATM   19  C16 UNL     1       5.115  -0.905   1.851  1.00  0.00     0.013 A 
HETATM   20  C17 UNL     1       6.456  -1.189   1.324  1.00  0.00     0.005 A 
HETATM   21  C18 UNL     1       6.418  -1.202   0.005  1.00  0.00    -0.062 A 
HETATM   22  C20 UNL     1       5.054  -0.928  -0.478  1.00  0.00     0.079 A 
BRANCH  21  23
HETATM   23  C19 UNL     1       7.454  -1.431  -1.029  1.00  0.00     0.149 C 
HETATM   24 CL1  UNL     1       9.036  -1.746  -0.309  1.00  0.00    -0.126 Cl
ENDBRANCH  21  23
ENDBRANCH  15  18
ENDBRANCH   9  14
BRANCH   5  25
HETATM   25  C5  UNL     1      -4.115  -0.858  -0.542  1.00  0.00    -0.028 A 
HETATM   26  C6  UNL     1      -4.487  -1.599   0.587  1.00  0.00     0.011 A 
HETATM   27  C7  UNL     1      -5.017  -2.861   0.497  1.00  0.00     0.020 A 
HETATM   28  C8  UNL     1      -5.210  -3.465  -0.729  1.00  0.00     0.116 A 
HETATM   29  N3  UNL     1      -4.866  -2.789  -1.858  1.00  0.00    -0.273 NA
HETATM   30  C9  UNL     1      -4.348  -1.552  -1.734  1.00  0.00     0.124 A 
ENDBRANCH   5  25
BRANCH   1  31
HETATM   31  N1  UNL     1      -1.903   5.211  -0.506  1.00  0.00    -0.233 N 
HETATM   32  H1  UNL     1      -1.695   6.139  -0.096  1.00  0.00     0.174 HD
HETATM   33  H2  UNL     1      -1.884   5.200  -1.565  1.00  0.00     0.174 HD
ENDBRANCH   1  31
TORSDOF 5
