REMARK  7 active torsions:
REMARK  status: ('A' for Active; 'I' for Inactive)
REMARK    1  A    between atoms: C6_6  and  C7_7 
REMARK    2  A    between atoms: C7_7  and  N1_8 
REMARK    3  A    between atoms: N1_8  and  C8_9 
REMARK    4  A    between atoms: C8_9  and  C9_10 
REMARK    5  A    between atoms: C15_17  and  N2_18 
REMARK    6  A    between atoms: N2_18  and  C16_19 
REMARK    7  A    between atoms: C19_23  and  C20_24 
ROOT
HETATM    1  C1  UNL     1       1.197  -3.347  -1.114  1.00  0.00     0.020 C 
HETATM    2  C2  UNL     1       0.763  -2.600   0.125  1.00  0.00     0.054 C 
HETATM    3  C3  UNL     1       0.444  -3.493   1.253  1.00  0.00    -0.020 C 
HETATM    4  C4  UNL     1      -0.851  -3.809   1.447  1.00  0.00    -0.026 C 
HETATM    5  C5  UNL     1      -1.929  -3.282   0.562  1.00  0.00     0.065 C 
HETATM    6  C6  UNL     1      -1.578  -1.947   0.023  1.00  0.00    -0.025 C 
HETATM    7  C15 UNL     1      -0.301  -1.632  -0.181  1.00  0.00     0.038 C 
ENDROOT
BRANCH   7   8
HETATM    8  N2  UNL     1      -0.097  -0.323  -0.701  1.00  0.00    -0.191 N 
HETATM    9  H18 UNL     1      -0.580   0.103  -1.504  1.00  0.00     0.184 HD
BRANCH   8  10
HETATM   10  C16 UNL     1       0.880   0.448  -0.015  1.00  0.00     0.727 A 
HETATM   11  N3  UNL     1       0.472   1.222   1.033  1.00  0.00    -0.075 NA
HETATM   12  C17 UNL     1       1.381   1.974   1.714  1.00  0.00     0.139 A 
HETATM   13  C18 UNL     1       2.689   1.875   1.258  1.00  0.00     0.053 A 
HETATM   14  C19 UNL     1       3.105   1.094   0.200  1.00  0.00     0.089 A 
HETATM   15  N5  UNL     1       2.150   0.364  -0.442  1.00  0.00    -0.062 NA
BRANCH  14  16
HETATM   16  C20 UNL     1       4.503   1.050  -0.213  1.00  0.00     0.011 A 
HETATM   17  C21 UNL     1       5.563   1.733   0.346  1.00  0.00     0.017 A 
HETATM   18  C22 UNL     1       6.840   1.588  -0.159  1.00  0.00     0.020 A 
HETATM   19  C23 UNL     1       7.125   0.764  -1.235  1.00  0.00     0.116 A 
HETATM   20  N4  UNL     1       6.078   0.088  -1.789  1.00  0.00    -0.272 NA
HETATM   21  C24 UNL     1       4.832   0.233  -1.292  1.00  0.00     0.130 A 
ENDBRANCH  14  16
ENDBRANCH   8  10
ENDBRANCH   7   8
BRANCH   6  22
HETATM   22  C7  UNL     1      -2.778  -1.087  -0.233  1.00  0.00     0.306 C 
BRANCH  22  23
HETATM   23  N1  UNL     1      -3.542  -0.853   0.982  1.00  0.00     0.091 N 
HETATM   24  H11 UNL     1      -2.966  -0.370   1.708  1.00  0.00     0.316 HD
BRANCH  23  25
HETATM   25  C8  UNL     1      -4.698  -0.017   0.705  1.00  0.00     0.308 C 
BRANCH  25  26
HETATM   26  C9  UNL     1      -4.320   1.313   0.155  1.00  0.00    -0.030 A 
HETATM   27  C10 UNL     1      -4.070   2.433   0.936  1.00  0.00     0.010 A 
HETATM   28  C11 UNL     1      -3.721   3.640   0.333  1.00  0.00     0.024 A 
HETATM   29  C12 UNL     1      -3.621   3.731  -1.035  1.00  0.00     0.034 A 
HETATM   30 CL1  UNL     1      -3.181   5.246  -1.828  1.00  0.00    -0.084 Cl
HETATM   31  C13 UNL     1      -3.862   2.638  -1.852  1.00  0.00     0.024 A 
HETATM   32  C14 UNL     1      -4.204   1.464  -1.223  1.00  0.00     0.010 A 
ENDBRANCH  25  26
ENDBRANCH  23  25
ENDBRANCH  22  23
ENDBRANCH   6  22
TORSDOF 7
