REMARK  3 active torsions:
REMARK  status: ('A' for Active; 'I' for Inactive)
REMARK    1  A    between atoms: O1_2  and  C2_3 
REMARK    2  A    between atoms: C10_15  and  N4_16 
REMARK    3  A    between atoms: N4_16  and  C11_17 
ROOT
HETATM    1  C2  UNL     1       0.179  -0.634  -1.023  1.00  0.00     0.170 C 
HETATM    2  N1  UNL     1       1.441  -0.504  -1.021  1.00  0.00    -0.144 NA
HETATM    3  C3  UNL     1       2.356  -1.280  -1.752  1.00  0.00     0.178 A 
HETATM    4  N2  UNL     1       2.624  -0.857  -0.628  1.00  0.00    -0.348 N 
HETATM    5  B1  UNL     1       3.796  -0.942   0.302  1.00  0.00     0.317 B 
HETATM    6  C4  UNL     1       5.124  -0.197  -0.229  1.00  0.00    -0.017 C 
HETATM    7  C5  UNL     1       5.043   1.230   0.149  1.00  0.00     0.019 C 
HETATM    8  C6  UNL     1       3.812   1.706   0.772  1.00  0.00    -0.024 C 
HETATM    9  C7  UNL     1       2.865   0.988   1.404  1.00  0.00    -0.073 C 
HETATM   10  C8  UNL     1       1.526   1.633   1.561  1.00  0.00     0.153 C 
HETATM   11  N3  UNL     1       0.578   1.289   0.551  1.00  0.00    -0.382 N 
HETATM   12  C9  UNL     1      -0.296   0.397  -0.115  1.00  0.00     0.091 C 
HETATM   13  C10 UNL     1      -1.593   0.451   0.066  1.00  0.00     0.121 C 
HETATM   14  C17 UNL     1       3.449  -0.353   1.785  1.00  0.00     0.014 C 
HETATM   15  H12 UNL     1       0.308   2.048  -0.151  1.00  0.00     0.160 HD
ENDROOT
BRANCH   1  16
HETATM   16  O1  UNL     1      -0.434  -1.590  -1.777  1.00  0.00    -0.342 OA
HETATM   17  C1  UNL     1      -0.113  -2.948  -1.645  1.00  0.00     0.211 C 
ENDBRANCH   1  16
BRANCH  13  18
HETATM   18  N4  UNL     1      -2.681  -0.283  -0.430  1.00  0.00    -0.364 N 
HETATM   19  H14 UNL     1      -2.501  -1.108  -1.024  1.00  0.00     0.165 HD
BRANCH  18  20
HETATM   20  C11 UNL     1      -4.041   0.014  -0.178  1.00  0.00     0.031 A 
HETATM   21  C12 UNL     1      -4.479   1.056   0.600  1.00  0.00     0.029 A 
HETATM   22  C13 UNL     1      -5.795   1.370   0.863  1.00  0.00     0.002 A 
HETATM   23  C14 UNL     1      -6.780   0.558   0.288  1.00  0.00     0.000 A 
HETATM   24  C15 UNL     1      -6.359  -0.493  -0.496  1.00  0.00     0.002 A 
HETATM   25  C16 UNL     1      -5.036  -0.764  -0.727  1.00  0.00     0.029 A 
ENDBRANCH  18  20
ENDBRANCH  13  18
TORSDOF 3
