REMARK  1 active torsions:
REMARK  status: ('A' for Active; 'I' for Inactive)
REMARK    1  A    between atoms: C7_10  and  C8_11 
ROOT
HETATM    1  O1  UNL     1      -2.622  -1.102  -1.397  1.00  0.00    -0.280 OA
HETATM    2  C1  UNL     1      -2.347  -0.487  -0.303  1.00  0.00     0.219 A 
HETATM    3  C2  UNL     1      -2.786  -1.021   1.007  1.00  0.00     0.047 C 
HETATM    4  C3  UNL     1      -2.575  -0.528   2.215  1.00  0.00     0.090 C 
HETATM    5  N1  UNL     1      -1.958   0.553   2.982  1.00  0.00    -0.342 N 
HETATM    6  C4  UNL     1      -1.067   0.698   1.912  1.00  0.00     0.173 A 
HETATM    7  N2  UNL     1      -1.678   1.721   1.220  1.00  0.00    -0.270 NA
HETATM    8  C5  UNL     1      -1.206   2.068   0.012  1.00  0.00     0.274 A 
HETATM    9  C6  UNL     1      -0.153   1.241  -0.230  1.00  0.00    -0.015 A 
HETATM   10  C7  UNL     1       0.565   0.222   0.322  1.00  0.00     0.077 A 
HETATM   11  N4  UNL     1       0.012  -0.060   1.548  1.00  0.00    -0.220 NA
HETATM   12  C13 UNL     1       0.056   1.581  -1.688  1.00  0.00     0.139 C 
HETATM   13  N5  UNL     1      -1.232   1.359  -2.361  1.00  0.00    -0.248 NA
HETATM   14  S1  UNL     1      -1.991  -0.147  -1.965  1.00  0.00     0.032 SA
HETATM   15  H3  UNL     1      -2.208   0.915   3.896  1.00  0.00     0.167 HD
HETATM   16  H11 UNL     1      -1.240   1.609  -3.344  1.00  0.00     0.136 HD
ENDROOT
BRANCH  10  17
HETATM   17  C8  UNL     1       1.703  -0.547  -0.071  1.00  0.00     0.011 A 
HETATM   18  C9  UNL     1       1.980  -1.244  -1.198  1.00  0.00     0.017 A 
HETATM   19  C10 UNL     1       3.165  -1.907  -1.420  1.00  0.00     0.020 A 
HETATM   20  C11 UNL     1       4.077  -1.814  -0.395  1.00  0.00     0.116 A 
HETATM   21  N3  UNL     1       3.877  -1.142   0.754  1.00  0.00    -0.272 NA
HETATM   22  C12 UNL     1       2.680  -0.504   0.918  1.00  0.00     0.130 A 
ENDBRANCH  10  17
TORSDOF 1
