REMARK  6 active torsions:
REMARK  status: ('A' for Active; 'I' for Inactive)
REMARK    1  A    between atoms: C5_5  and  N1_6 
REMARK       I    between atoms: N1_6  and  C6_7 
REMARK    2  A    between atoms: C6_7  and  C7_9 
REMARK    3  A    between atoms: C7_9  and  C8_10 
REMARK    4  A    between atoms: C15_18  and  N2_19 
REMARK    5  A    between atoms: N2_19  and  C16_20 
REMARK    6  A    between atoms: C19_24  and  C20_25 
ROOT
HETATM    1  C1  UNL     1       2.030  -0.480  -4.554  1.00  0.00     0.050 C 
HETATM    2  C2  UNL     1       0.827  -0.445  -3.661  1.00  0.00    -0.035 A 
HETATM    3  C3  UNL     1      -0.444  -0.194  -4.105  1.00  0.00     0.011 A 
HETATM    4  C4  UNL     1      -1.555  -0.160  -3.262  1.00  0.00     0.030 A 
HETATM    5  C5  UNL     1      -1.346  -0.395  -1.904  1.00  0.00     0.037 A 
HETATM    6  C14 UNL     1      -0.068  -0.648  -1.459  1.00  0.00     0.060 A 
HETATM    7  C15 UNL     1       1.016  -0.678  -2.308  1.00  0.00     0.057 A 
ENDROOT
BRANCH   7   8
HETATM    8  N2  UNL     1       2.295  -0.961  -1.814  1.00  0.00    -0.188 N 
HETATM    9  H14 UNL     1       3.114  -0.992  -2.478  1.00  0.00     0.184 HD
BRANCH   8  10
HETATM   10  C16 UNL     1       2.842  -1.238  -0.536  1.00  0.00     0.727 A 
HETATM   11  N3  UNL     1       2.454  -2.382   0.099  1.00  0.00    -0.075 NA
HETATM   12  C17 UNL     1       2.998  -2.641   1.306  1.00  0.00     0.139 A 
HETATM   13  C18 UNL     1       3.913  -1.812   1.913  1.00  0.00     0.053 A 
HETATM   14  C19 UNL     1       4.295  -0.661   1.261  1.00  0.00     0.089 A 
HETATM   15  N5  UNL     1       3.728  -0.447   0.067  1.00  0.00    -0.062 NA
BRANCH  14  16
HETATM   16  C20 UNL     1       5.263   0.273   1.803  1.00  0.00     0.011 A 
HETATM   17  C21 UNL     1       5.639   1.413   1.129  1.00  0.00     0.017 A 
HETATM   18  C22 UNL     1       6.565   2.303   1.633  1.00  0.00     0.020 A 
HETATM   19  C23 UNL     1       7.170   2.074   2.876  1.00  0.00     0.116 A 
HETATM   20  N4  UNL     1       6.799   0.944   3.548  1.00  0.00    -0.272 NA
HETATM   21  C24 UNL     1       5.893   0.106   3.018  1.00  0.00     0.130 A 
ENDBRANCH  14  16
ENDBRANCH   8  10
ENDBRANCH   7   8
BRANCH   5  22
HETATM   22  N1  UNL     1      -2.554  -0.338  -1.163  1.00  0.00    -0.324 N 
HETATM   23  C6  UNL     1      -3.047   0.868  -0.655  1.00  0.00     0.246 C 
HETATM   24  O1  UNL     1      -2.130   1.656  -1.079  1.00  0.00    -0.268 OA
HETATM   25  H6  UNL     1      -3.146  -1.190  -0.955  1.00  0.00     0.169 HD
BRANCH  23  26
HETATM   26  C7  UNL     1      -4.174   1.311   0.110  1.00  0.00     0.087 C 
BRANCH  26  27
HETATM   27  C8  UNL     1      -5.227   0.826   0.679  1.00  0.00    -0.010 A 
HETATM   28  C9  UNL     1      -5.594  -0.555   0.688  1.00  0.00     0.009 A 
HETATM   29  C10 UNL     1      -6.670  -1.022   1.261  1.00  0.00    -0.022 A 
HETATM   30  C11 UNL     1      -7.619  -0.146   1.960  1.00  0.00     0.056 A 
HETATM   31  C12 UNL     1      -7.263   1.292   1.967  1.00  0.00     0.002 A 
HETATM   32  C13 UNL     1      -6.162   1.663   1.365  1.00  0.00     0.041 A 
HETATM   33 CL1  UNL     1      -5.872   3.399   1.448  1.00  0.00    -0.084 Cl
ENDBRANCH  26  27
ENDBRANCH  23  26
ENDBRANCH   5  22
TORSDOF 6
