REMARK  8 active torsions:
REMARK  status: ('A' for Active; 'I' for Inactive)
REMARK    1  A    between atoms: N1_2  and  C2_3 
REMARK    2  A    between atoms: C7_8  and  N2_9 
REMARK    3  A    between atoms: N2_9  and  C8_10 
REMARK    4  A    between atoms: C11_14  and  C12_15 
REMARK    5  A    between atoms: C12_15  and  C13_16 
REMARK    6  A    between atoms: N4_17  and  C14_18 
REMARK    7  A    between atoms: C15_19  and  C16_20 
REMARK    8  A    between atoms: C17_21  and  N5_22 
ROOT
HETATM    1  C8  UNL     1      -0.856   0.579  -1.513  1.00  0.00     0.112 A 
HETATM    2  N3  UNL     1      -1.135  -0.377  -2.334  1.00  0.00    -0.247 NA
HETATM    3  C9  UNL     1       0.041  -0.940  -2.906  1.00  0.00     0.115 A 
HETATM    4  C10 UNL     1       1.079  -0.278  -2.392  1.00  0.00     0.005 A 
HETATM    5  C11 UNL     1       0.595   0.778  -1.433  1.00  0.00     0.084 A 
ENDROOT
BRANCH   1   6
HETATM    6  N2  UNL     1      -1.872   1.295  -0.817  1.00  0.00    -0.343 N 
HETATM    7  H10 UNL     1      -1.724   2.341  -0.675  1.00  0.00     0.167 HD
BRANCH   6   8
HETATM    8  C7  UNL     1      -3.040   0.722  -0.310  1.00  0.00     0.041 A 
HETATM    9  C5  UNL     1      -4.001   1.503   0.349  1.00  0.00    -0.035 A 
HETATM   10  C4  UNL     1      -5.163   1.005   0.870  1.00  0.00     0.011 A 
HETATM   11  C6  UNL     1      -3.710   2.973   0.476  1.00  0.00     0.050 C 
HETATM   12  C3  UNL     1      -5.445  -0.338   0.762  1.00  0.00     0.030 A 
HETATM   13  C2  UNL     1      -4.541  -1.162   0.125  1.00  0.00     0.029 A 
HETATM   14  C18 UNL     1      -3.371  -0.591  -0.385  1.00  0.00     0.059 A 
BRANCH  13  15
HETATM   15  N1  UNL     1      -4.810  -2.564   0.000  1.00  0.00    -0.394 N 
HETATM   16  C1  UNL     1      -6.059  -3.022   0.575  1.00  0.00     0.146 C 
HETATM   17  H4  UNL     1      -4.115  -3.146  -0.480  1.00  0.00     0.159 HD
ENDBRANCH  13  15
ENDBRANCH   6   8
ENDBRANCH   1   6
BRANCH   5  18
HETATM   18  C12 UNL     1       1.115   0.338  -0.073  1.00  0.00     0.063 C 
BRANCH  18  19
HETATM   19  C13 UNL     1       2.588   0.552  -0.022  1.00  0.00     0.090 C 
HETATM   20  N4  UNL     1       3.116   0.082   1.069  1.00  0.00    -0.277 NA
BRANCH  20  21
HETATM   21  C14 UNL     1       4.515   0.225   1.234  1.00  0.00     0.116 C 
HETATM   22  C15 UNL     1       5.513  -0.225   0.526  1.00  0.00     0.021 C 
BRANCH  22  23
HETATM   23  C16 UNL     1       6.881   0.074   0.924  1.00  0.00     0.018 C 
HETATM   24  C17 UNL     1       7.882  -0.391   0.196  1.00  0.00     0.080 C 
BRANCH  24  25
HETATM   25  N5  UNL     1       9.233  -0.109   0.568  1.00  0.00    -0.408 N 
HETATM   26  H21 UNL     1      10.074   0.378   0.168  1.00  0.00     0.155 HD
HETATM   27  H22 UNL     1       9.858  -0.302   1.393  1.00  0.00     0.155 HD
ENDBRANCH  24  25
ENDBRANCH  22  23
ENDBRANCH  20  21
ENDBRANCH  18  19
ENDBRANCH   5  18
TORSDOF 8
