REMARK  4 active torsions:
REMARK  status: ('A' for Active; 'I' for Inactive)
REMARK    1  A    between atoms: N1_2  and  C2_3 
REMARK    2  A    between atoms: C6_8  and  N2_9 
REMARK    3  A    between atoms: N2_9  and  C7_10 
REMARK    4  A    between atoms: C10_14  and  C11_15 
ROOT
HETATM    1  C7  UNL     1      -0.527  -0.035   0.005  1.00  0.00     0.727 A 
HETATM    2  N3  UNL     1      -0.150   1.236  -0.094  1.00  0.00    -0.075 NA
HETATM    3  C8  UNL     1      -1.008   2.256  -0.152  1.00  0.00     0.139 A 
HETATM    4  C9  UNL     1      -2.343   2.032  -0.111  1.00  0.00     0.053 A 
HETATM    5  C10 UNL     1      -2.781   0.732  -0.009  1.00  0.00     0.089 A 
HETATM    6  N5  UNL     1      -1.838  -0.215   0.042  1.00  0.00    -0.062 NA
ENDROOT
BRANCH   1   7
HETATM    7  N2  UNL     1       0.329  -1.158   0.070  1.00  0.00    -0.185 N 
HETATM    8  H7  UNL     1      -0.120  -2.103   0.147  1.00  0.00     0.184 HD
BRANCH   7   9
HETATM    9  C6  UNL     1       1.735  -1.174   0.045  1.00  0.00     0.090 A 
HETATM   10  C5  UNL     1       2.444  -2.375   0.119  1.00  0.00     0.143 A 
HETATM   11  C4  UNL     1       3.816  -2.446   0.098  1.00  0.00     0.047 A 
HETATM   12  F1  UNL     1       1.744  -3.553   0.217  1.00  0.00    -0.204 F 
HETATM   13  C3  UNL     1       4.584  -1.320   0.002  1.00  0.00     0.032 A 
HETATM   14  C2  UNL     1       3.939  -0.112  -0.073  1.00  0.00     0.029 A 
HETATM   15  C16 UNL     1       2.568  -0.081  -0.050  1.00  0.00     0.062 A 
BRANCH  14  16
HETATM   16  N1  UNL     1       4.729   1.057  -0.172  1.00  0.00    -0.394 N 
HETATM   17  C1  UNL     1       6.160   0.979  -0.193  1.00  0.00     0.146 C 
HETATM   18  H4  UNL     1       4.240   1.994  -0.231  1.00  0.00     0.159 HD
ENDBRANCH  14  16
ENDBRANCH   7   9
ENDBRANCH   1   7
BRANCH   5  19
HETATM   19  C11 UNL     1      -4.183   0.342   0.045  1.00  0.00     0.011 A 
HETATM   20  C12 UNL     1      -4.489  -0.998   0.148  1.00  0.00     0.017 A 
HETATM   21  C13 UNL     1      -5.796  -1.455   0.205  1.00  0.00     0.020 A 
HETATM   22  C14 UNL     1      -6.808  -0.494   0.155  1.00  0.00     0.116 A 
HETATM   23  N4  UNL     1      -6.511   0.831   0.053  1.00  0.00    -0.272 NA
HETATM   24  C15 UNL     1      -5.227   1.237   0.000  1.00  0.00     0.130 A 
ENDBRANCH   5  19
TORSDOF 4
