REMARK  3 active torsions:
REMARK  status: ('A' for Active; 'I' for Inactive)
REMARK    1  A    between atoms: O1_2  and  C2_3 
REMARK    2  A    between atoms: C6_7  and  N1_8 
REMARK    3  A    between atoms: N1_8  and  C7_9 
ROOT
HETATM    1  C2  UNL     1      -3.200  -1.370   0.660  1.00  0.00     0.080 A 
HETATM    2  C3  UNL     1      -2.329  -2.135  -0.101  1.00  0.00     0.050 A 
HETATM    3  C4  UNL     1      -1.604  -1.028  -0.438  1.00  0.00    -0.017 A 
HETATM    4  C5  UNL     1      -0.591  -0.384  -1.061  1.00  0.00     0.063 C 
HETATM    5  C6  UNL     1       0.475   0.455  -0.952  1.00  0.00     0.130 C 
HETATM    6  N2  UNL     1       0.659   1.761  -0.587  1.00  0.00    -0.224 NA
HETATM    7  C13 UNL     1       0.722   2.725  -1.540  1.00  0.00     0.237 C 
HETATM    8  N3  UNL     1      -0.409   3.429  -1.740  1.00  0.00    -0.230 NA
HETATM    9  C14 UNL     1      -1.066   3.871  -0.645  1.00  0.00     0.258 C 
HETATM   10  O2  UNL     1      -1.908   3.005  -1.155  1.00  0.00    -0.316 OA
HETATM   11  C15 UNL     1      -2.627   2.193  -0.419  1.00  0.00     0.144 C 
HETATM   12  C16 UNL     1      -2.357   1.183   0.489  1.00  0.00     0.040 C 
HETATM   13  C17 UNL     1      -2.485  -0.206   0.341  1.00  0.00     0.009 A 
ENDROOT
BRANCH   5  14
HETATM   14  N1  UNL     1       1.836   0.141  -1.221  1.00  0.00    -0.341 N 
HETATM   15  H6  UNL     1       1.927   0.233  -2.276  1.00  0.00     0.167 HD
BRANCH  14  16
HETATM   16  C7  UNL     1       2.928  -0.234  -0.410  1.00  0.00     0.033 A 
HETATM   17  C8  UNL     1       4.144  -0.457  -1.020  1.00  0.00     0.029 A 
HETATM   18  C9  UNL     1       5.207  -0.815  -0.218  1.00  0.00     0.002 A 
HETATM   19  C10 UNL     1       5.026  -0.938   1.159  1.00  0.00     0.000 A 
HETATM   20  C11 UNL     1       3.782  -0.705   1.752  1.00  0.00     0.002 A 
HETATM   21  C12 UNL     1       2.721  -0.348   0.950  1.00  0.00     0.029 A 
ENDBRANCH  14  16
ENDBRANCH   5  14
BRANCH   1  22
HETATM   22  O1  UNL     1      -4.334  -1.500   1.457  1.00  0.00    -0.355 OA
HETATM   23  C1  UNL     1      -4.894  -2.769   1.643  1.00  0.00     0.210 C 
ENDBRANCH   1  22
TORSDOF 3
