REMARK  2 active torsions:
REMARK  status: ('A' for Active; 'I' for Inactive)
REMARK    1  A    between atoms: C5_5  and  C6_6 
REMARK       I    between atoms: C6_6  and  N1_7 
REMARK    2  A    between atoms: C7_9  and  C8_10 
ROOT
HETATM    1  C1  UNL     1       0.075   3.020  -1.780  1.00  0.00     0.042 C 
HETATM    2  C2  UNL     1       0.832   1.773  -1.545  1.00  0.00    -0.067 A 
HETATM    3  C3  UNL     1       1.601   0.687  -1.917  1.00  0.00     0.079 A 
HETATM    4  C4  UNL     1       1.929  -0.117  -0.848  1.00  0.00     0.078 A 
HETATM    5  C5  UNL     1       2.163  -0.803   0.331  1.00  0.00     0.026 A 
HETATM    6  C7  UNL     1       1.373   0.313   0.655  1.00  0.00     0.089 A 
HETATM    7  C8  UNL     1       1.051   1.106  -0.396  1.00  0.00     0.069 A 
HETATM    8  N2  UNL     1      -0.222   1.355   0.332  1.00  0.00    -0.381 N 
HETATM    9  C9  UNL     1      -1.444   0.585   0.510  1.00  0.00     0.254 C 
HETATM   10  N3  UNL     1      -1.621   0.127   1.857  1.00  0.00    -0.272 NA
HETATM   11  C10 UNL     1      -2.663  -0.487   2.198  1.00  0.00     0.108 C 
HETATM   12  C11 UNL     1      -3.587  -0.626   1.022  1.00  0.00     0.195 C 
HETATM   13  N4  UNL     1      -2.818  -1.134  -0.116  1.00  0.00    -0.285 NA
HETATM   14  C12 UNL     1      -1.711  -0.548  -0.420  1.00  0.00     0.074 C 
HETATM   15  C13 UNL     1      -0.615  -0.580  -1.333  1.00  0.00     0.047 C 
HETATM   16  C14 UNL     1       0.465  -1.259  -0.896  1.00  0.00     0.086 C 
HETATM   17  N5  UNL     1       1.799  -1.483  -1.538  1.00  0.00    -0.384 N 
HETATM   18  H8  UNL     1      -0.293   2.290   0.844  1.00  0.00     0.156 HD
HETATM   19  H15 UNL     1       1.634  -2.404  -1.974  1.00  0.00     0.160 HD
ENDROOT
BRANCH   5  20
HETATM   20  C6  UNL     1       2.849  -1.966   0.827  1.00  0.00     0.244 C 
HETATM   21  N1  UNL     1       2.528  -1.885   2.222  1.00  0.00    -0.366 N 
HETATM   22  H5  UNL     1       1.585  -2.263   2.523  1.00  0.00     0.159 HD
HETATM   23  H6  UNL     1       3.199  -1.470   2.912  1.00  0.00     0.159 HD
HETATM   24  O1  UNL     1       3.404  -2.511  -0.163  1.00  0.00    -0.268 OA
ENDBRANCH   5  20
TORSDOF 2
