REMARK  1 active torsions:
REMARK  status: ('A' for Active; 'I' for Inactive)
REMARK    1  A    between atoms: N1_1  and  C1_2 
ROOT
HETATM    1  C1  UNL     1       1.765   0.836  -1.935  1.00  0.00     0.033 C 
HETATM    2  C2  UNL     1       0.447   0.956  -1.598  1.00  0.00     0.117 C 
HETATM    3  C3  UNL     1       0.217   1.286  -0.243  1.00  0.00     0.009 C 
HETATM    4  C4  UNL     1      -0.681   1.483   0.671  1.00  0.00     0.033 C 
HETATM    5  N2  UNL     1      -1.282   1.783   1.911  1.00  0.00    -0.374 N 
HETATM    6  C5  UNL     1      -2.718   1.608   1.896  1.00  0.00     0.267 C 
HETATM    7  N3  UNL     1      -2.922   0.796   0.715  1.00  0.00    -0.270 N 
HETATM    8  N4  UNL     1      -4.226   0.343   0.486  1.00  0.00    -0.168 NA
HETATM    9  C6  UNL     1      -4.655  -0.732  -0.136  1.00  0.00     0.256 C 
HETATM   10  N5  UNL     1      -4.119  -1.861  -0.819  1.00  0.00    -0.234 NA
HETATM   11  C7  UNL     1      -2.936  -2.371  -0.808  1.00  0.00     0.234 C 
HETATM   12  N6  UNL     1      -1.739  -1.974  -0.097  1.00  0.00    -0.247 NA
HETATM   13  C8  UNL     1      -1.211  -0.834   0.244  1.00  0.00     0.052 C 
HETATM   14  C9  UNL     1      -0.004  -1.409   0.934  1.00  0.00     0.072 C 
HETATM   15  C10 UNL     1       1.350  -1.540   0.919  1.00  0.00    -0.015 C 
HETATM   16  C11 UNL     1       2.823  -1.514   0.651  1.00  0.00    -0.003 C 
HETATM   17  C12 UNL     1       3.635  -0.976  -0.224  1.00  0.00    -0.001 C 
HETATM   18  C13 UNL     1       4.050  -0.190  -1.364  1.00  0.00    -0.002 C 
HETATM   19  C14 UNL     1       3.242   0.597  -2.140  1.00  0.00    -0.001 C 
HETATM   20  C15 UNL     1      -1.698   0.621   0.006  1.00  0.00     0.203 C 
HETATM   21  H5  UNL     1      -0.491   2.074   2.557  1.00  0.00     0.161 HD
ENDROOT
BRANCH   1  22
HETATM   22  N1  UNL     1       2.381   1.100  -0.623  1.00  0.00    -0.422 N 
HETATM   23  H1  UNL     1       2.871   1.340   0.308  1.00  0.00     0.150 HD
HETATM   24  H2  UNL     1       2.910   1.392   0.248  1.00  0.00     0.150 HD
ENDBRANCH   1  22
TORSDOF 1
