REMARK  7 active torsions:
REMARK  status: ('A' for Active; 'I' for Inactive)
REMARK    1  A    between atoms: C5_5  and  C6_6 
REMARK       I    between atoms: C6_6  and  N1_8 
REMARK    2  A    between atoms: N1_8  and  C7_9 
REMARK    3  A    between atoms: C12_14  and  N2_15 
REMARK    4  A    between atoms: N2_15  and  C13_16 
REMARK    5  A    between atoms: C13_16  and  N5_27 
REMARK    6  A    between atoms: C14_18  and  C15_19 
REMARK    7  A    between atoms: C16_20  and  C17_21 
ROOT
HETATM    1  C7  UNL     1      -1.554  -1.952  -0.101  1.00  0.00     0.061 A 
HETATM    2  C8  UNL     1      -2.257  -3.069  -0.573  1.00  0.00     0.032 A 
HETATM    3  C9  UNL     1      -1.589  -4.255  -0.800  1.00  0.00     0.002 A 
HETATM    4  C10 UNL     1      -0.233  -4.315  -0.555  1.00  0.00     0.002 A 
HETATM    5  C11 UNL     1       0.525  -3.266  -0.093  1.00  0.00     0.031 A 
HETATM    6  C12 UNL     1      -0.211  -2.125   0.107  1.00  0.00     0.058 A 
ENDROOT
BRANCH   6   7
HETATM    7  N2  UNL     1       0.416  -0.928   0.572  1.00  0.00    -0.342 N 
HETATM    8  H11 UNL     1      -0.008   0.015   0.698  1.00  0.00     0.164 HD
BRANCH   7   9
HETATM    9  C13 UNL     1       1.856  -1.025   0.934  1.00  0.00     0.240 A 
HETATM   10  N3  UNL     1       2.543  -1.340   2.669  1.00  0.00    -0.233 NA
HETATM   11  C14 UNL     1       3.237  -1.230   1.874  1.00  0.00     0.120 A 
BRANCH  11  12
HETATM   12  C15 UNL     1       3.809  -1.134   1.185  1.00  0.00     0.055 A 
HETATM   13  C16 UNL     1       4.435  -1.023   0.395  1.00  0.00     0.121 A 
HETATM   14  N5  UNL     1       3.024  -0.920   0.073  1.00  0.00    -0.209 NA
BRANCH  13  15
HETATM   15  C17 UNL     1       5.001  -0.824  -0.921  1.00  0.00    -0.009 A 
HETATM   16  C18 UNL     1       6.080   0.067  -0.802  1.00  0.00     0.012 A 
HETATM   17  C19 UNL     1       6.812   0.434  -1.942  1.00  0.00     0.020 A 
HETATM   18  C20 UNL     1       6.398  -0.130  -3.128  1.00  0.00     0.116 A 
HETATM   19  N4  UNL     1       5.352  -0.998  -3.269  1.00  0.00    -0.272 NA
HETATM   20  C21 UNL     1       4.650  -1.345  -2.149  1.00  0.00     0.126 A 
ENDBRANCH  13  15
ENDBRANCH  11  12
ENDBRANCH   7   9
ENDBRANCH   6   7
BRANCH   1  21
HETATM   21  N1  UNL     1      -2.185  -0.711   0.162  1.00  0.00    -0.321 N 
HETATM   22  C6  UNL     1      -2.822   0.002   1.185  1.00  0.00     0.256 C 
HETATM   23  O1  UNL     1      -2.879  -0.637   2.274  1.00  0.00    -0.267 OA
HETATM   24  H6  UNL     1      -2.040  -0.336  -0.818  1.00  0.00     0.169 HD
BRANCH  22  25
HETATM   25  C5  UNL     1      -3.336   1.338   0.922  1.00  0.00     0.032 A 
HETATM   26  C4  UNL     1      -3.259   2.041  -0.258  1.00  0.00     0.017 A 
HETATM   27  C3  UNL     1      -3.808   3.302  -0.364  1.00  0.00     0.007 A 
HETATM   28  C2  UNL     1      -4.457   3.893   0.730  1.00  0.00    -0.062 A 
HETATM   29  C1  UNL     1      -5.067   5.262   0.621  1.00  0.00     0.048 C 
HETATM   30  C23 UNL     1      -4.519   3.158   1.911  1.00  0.00     0.007 A 
HETATM   31  C22 UNL     1      -3.968   1.896   2.012  1.00  0.00     0.017 A 
ENDBRANCH  22  25
ENDBRANCH   1  21
TORSDOF 7
