REMARK  8 active torsions:
REMARK  status: ('A' for Active; 'I' for Inactive)
REMARK    1  A    between atoms: N1_1  and  C1_2 
REMARK    2  A    between atoms: C1_2  and  C2_3 
REMARK    3  A    between atoms: C4_5  and  C5_6 
REMARK    4  A    between atoms: C5_6  and  C6_7 
REMARK    5  A    between atoms: C5_6  and  C7_9 
REMARK    6  A    between atoms: C8_10  and  C9_11 
REMARK    7  A    between atoms: N3_16  and  C12_17 
REMARK    8  A    between atoms: C13_18  and  C14_19 
ROOT
HETATM    1  C2  UNL     1       0.455   0.078  -1.629  1.00  0.00     0.108 A 
HETATM    2  C3  UNL     1       1.424  -0.807  -0.974  1.00  0.00    -0.003 A 
HETATM    3  C4  UNL     1       1.807  -0.723   0.271  1.00  0.00    -0.029 A 
HETATM    4  C10 UNL     1       1.261   0.308   1.117  1.00  0.00     0.126 A 
HETATM    5  N2  UNL     1       0.400   1.144   0.651  1.00  0.00    -0.244 NA
HETATM    6  C11 UNL     1      -0.064   1.117  -0.687  1.00  0.00     0.134 A 
HETATM    7  N3  UNL     1      -0.929   1.974  -1.113  1.00  0.00    -0.245 NA
ENDROOT
BRANCH   1   8
HETATM    8  C1  UNL     1      -0.678  -0.681  -2.274  1.00  0.00     0.283 C 
BRANCH   8   9
HETATM    9  N1  UNL     1      -1.637   0.190  -2.923  1.00  0.00     0.079 N 
HETATM   10  H1  UNL     1      -1.353   0.420  -3.903  1.00  0.00     0.312 HD
HETATM   11  H2  UNL     1      -2.570  -0.265  -2.954  1.00  0.00     0.312 HD
ENDBRANCH   8   9
ENDBRANCH   1   8
BRANCH   7  12
HETATM   12  C12 UNL     1      -1.453   2.981  -0.258  1.00  0.00     0.121 C 
HETATM   13  C13 UNL     1      -2.555   3.093   0.423  1.00  0.00     0.051 C 
BRANCH  13  14
HETATM   14  C14 UNL     1      -3.550   2.048   0.399  1.00  0.00     0.057 A 
HETATM   15  C15 UNL     1      -4.723   2.164   1.122  1.00  0.00     0.031 A 
HETATM   16  C16 UNL     1      -5.695   1.171   1.114  1.00  0.00     0.004 A 
HETATM   17  C17 UNL     1      -5.430   0.040   0.335  1.00  0.00     0.019 A 
HETATM   18  C18 UNL     1      -4.258  -0.060  -0.379  1.00  0.00     0.117 A 
HETATM   19  N4  UNL     1      -3.353   0.939  -0.330  1.00  0.00    -0.261 NA
ENDBRANCH  13  14
ENDBRANCH   7  12
BRANCH   3  20
HETATM   20  C5  UNL     1       2.804  -1.647   0.917  1.00  0.00     0.103 C 
BRANCH  20  21
HETATM   21  C6  UNL     1       2.046  -2.330   2.026  1.00  0.00     0.244 C 
HETATM   22  O1  UNL     1       2.435  -2.197   3.174  1.00  0.00    -0.306 OA
ENDBRANCH  20  21
BRANCH  20  23
HETATM   23  C7  UNL     1       3.973  -0.923   1.419  1.00  0.00    -0.012 C 
HETATM   24  C8  UNL     1       5.270  -0.961   1.231  1.00  0.00     0.001 C 
BRANCH  24  25
HETATM   25  C9  UNL     1       6.051  -1.858   0.344  1.00  0.00     0.249 C 
HETATM   26  F1  UNL     1       5.283  -2.749  -0.354  1.00  0.00    -0.251 F 
ENDBRANCH  24  25
ENDBRANCH  20  23
ENDBRANCH   3  20
TORSDOF 8
