REMARK  6 active torsions:
REMARK  status: ('A' for Active; 'I' for Inactive)
REMARK    1  A    between atoms: C1_2  and  C2_3 
REMARK    2  A    between atoms: C2_3  and  N1_4 
REMARK    3  A    between atoms: C7_9  and  C8_10 
REMARK    4  A    between atoms: C8_10  and  N2_11 
REMARK    5  A    between atoms: N2_11  and  C9_12 
REMARK    6  A    between atoms: C12_16  and  C13_17 
ROOT
HETATM    1  C9  UNL     1       1.115   0.316   0.957  1.00  0.00     0.722 A 
HETATM    2  N3  UNL     1       1.183   1.535   1.516  1.00  0.00    -0.075 NA
HETATM    3  C10 UNL     1       2.213   2.396   1.271  1.00  0.00     0.139 A 
HETATM    4  C11 UNL     1       3.242   2.012   0.410  1.00  0.00     0.053 A 
HETATM    5  C12 UNL     1       3.152   0.756  -0.151  1.00  0.00     0.089 A 
HETATM    6  N5  UNL     1       2.112  -0.041   0.132  1.00  0.00    -0.062 NA
ENDROOT
BRANCH   1   7
HETATM    7  N2  UNL     1      -0.039  -0.420   1.330  1.00  0.00    -0.220 N 
HETATM    8  H13 UNL     1       0.441  -0.951   2.076  1.00  0.00     0.177 HD
BRANCH   7   9
HETATM    9  C8  UNL     1      -1.081   0.084   0.404  1.00  0.00     0.174 C 
BRANCH   9  10
HETATM   10  C7  UNL     1      -2.357  -0.634   0.791  1.00  0.00     0.245 C 
HETATM   11  N1  UNL     1      -3.496  -0.278   0.016  1.00  0.00     0.104 N 
HETATM   12  C3  UNL     1      -4.574  -1.183   0.354  1.00  0.00     0.300 C 
HETATM   13  C4  UNL     1      -4.762  -1.368   1.814  1.00  0.00    -0.001 C 
HETATM   14  C5  UNL     1      -3.888  -1.015   2.719  1.00  0.00    -0.027 C 
HETATM   15  C6  UNL     1      -2.642  -0.397   2.260  1.00  0.00     0.064 C 
BRANCH  11  16
HETATM   16  C2  UNL     1      -3.295  -0.144  -1.390  1.00  0.00     0.342 C 
BRANCH  16  17
HETATM   17  C1  UNL     1      -4.372   0.569  -2.128  1.00  0.00     0.261 C 
HETATM   18  O1  UNL     1      -5.044   0.949  -1.172  1.00  0.00    -0.305 OA
ENDBRANCH  16  17
ENDBRANCH  11  16
ENDBRANCH   9  10
ENDBRANCH   7   9
ENDBRANCH   1   7
BRANCH   5  19
HETATM   19  C13 UNL     1       4.194   0.302  -1.054  1.00  0.00     0.011 A 
HETATM   20  C14 UNL     1       5.267   1.078  -1.379  1.00  0.00     0.017 A 
HETATM   21  C15 UNL     1       6.164   0.508  -2.253  1.00  0.00     0.020 A 
HETATM   22  C16 UNL     1       6.092  -0.724  -2.813  1.00  0.00     0.116 A 
HETATM   23  N4  UNL     1       5.003  -1.475  -2.462  1.00  0.00    -0.272 NA
HETATM   24  C17 UNL     1       4.077  -0.976  -1.605  1.00  0.00     0.130 A 
ENDBRANCH   5  19
TORSDOF 6
