REMARK  7 active torsions:
REMARK  status: ('A' for Active; 'I' for Inactive)
REMARK    1  A    between atoms: C4_4  and  C5_5 
REMARK    2  A    between atoms: C5_5  and  C6_6 
REMARK    3  A    between atoms: C6_6  and  C7_7 
REMARK    4  A    between atoms: C7_7  and  N1_8 
REMARK    5  A    between atoms: N1_8  and  C8_9 
REMARK    6  A    between atoms: C12_16  and  C13_17 
REMARK    7  A    between atoms: C12_16  and  N5_23 
ROOT
HETATM    1  C1  UNL     1       0.793  -0.982   1.557  1.00  0.00     0.051 C 
HETATM    2  C2  UNL     1       0.590   0.291   0.870  1.00  0.00    -0.028 A 
HETATM    3  C3  UNL     1       1.117   1.443   0.485  1.00  0.00     0.043 A 
HETATM    4  C4  UNL     1       2.452   1.674   0.812  1.00  0.00     0.081 C 
HETATM    5  N2  UNL     1       0.145   2.218  -0.208  1.00  0.00    -0.359 N 
HETATM    6  C9  UNL     1      -1.209   2.154  -0.621  1.00  0.00     0.191 A 
HETATM    7  N3  UNL     1      -1.598   1.036  -0.208  1.00  0.00     0.000 N 
HETATM    8  C10 UNL     1      -0.788   0.222   0.452  1.00  0.00    -0.035 A 
HETATM    9  C11 UNL     1      -1.961  -0.475   0.405  1.00  0.00     0.062 A 
HETATM   10  C12 UNL     1      -2.878   0.366  -0.303  1.00  0.00     0.095 A 
HETATM   11  N5  UNL     1      -2.380   1.546  -0.710  1.00  0.00    -0.193 NA
HETATM   12  H10 UNL     1       0.084   3.142  -0.675  1.00  0.00     0.162 HD
ENDROOT
BRANCH   4  13
HETATM   13  C5  UNL     1       3.389   1.282  -0.041  1.00  0.00    -0.146 C 
BRANCH  13  14
HETATM   14  C6  UNL     1       4.196   0.672  -0.899  1.00  0.00     0.091 C 
BRANCH  14  15
HETATM   15  C7  UNL     1       4.500  -0.752  -0.623  1.00  0.00     0.139 C 
BRANCH  15  16
HETATM   16  N1  UNL     1       5.588  -0.947   0.294  1.00  0.00    -0.367 N 
HETATM   17  H8  UNL     1       5.519  -1.451   1.223  1.00  0.00     0.161 HD
BRANCH  16  18
HETATM   18  C8  UNL     1       6.829  -0.386  -0.158  1.00  0.00     0.348 C 
HETATM   19  O1  UNL     1       6.659   0.161  -1.289  1.00  0.00    -0.284 OA
ENDBRANCH  16  18
ENDBRANCH  15  16
ENDBRANCH  14  15
ENDBRANCH  13  14
ENDBRANCH   4  13
BRANCH  10  20
HETATM   20  C13 UNL     1      -4.181  -0.327  -0.395  1.00  0.00    -0.013 A 
HETATM   21  C14 UNL     1      -5.017   0.509  -1.073  1.00  0.00     0.012 A 
HETATM   22  C15 UNL     1      -6.302  -0.002  -1.247  1.00  0.00     0.020 A 
HETATM   23  C16 UNL     1      -6.612  -1.244  -0.748  1.00  0.00     0.116 A 
HETATM   24  N4  UNL     1      -5.674  -1.944  -0.102  1.00  0.00    -0.273 NA
HETATM   25  C17 UNL     1      -4.417  -1.549   0.119  1.00  0.00     0.125 A 
ENDBRANCH  10  20
TORSDOF 7
