REMARK  7 active torsions:
REMARK  status: ('A' for Active; 'I' for Inactive)
REMARK    1  A    between atoms: C2_2  and  C4_4 
REMARK    2  A    between atoms: C4_4  and  N1_11 
REMARK    3  A    between atoms: C5_5  and  C6_6 
REMARK    4  A    between atoms: C6_6  and  C8_8 
REMARK    5  A    between atoms: C8_8  and  C9_9 
REMARK    6  A    between atoms: N1_11  and  C10_12 
REMARK    7  A    between atoms: C13_16  and  C14_17 
ROOT
HETATM    1  C10 UNL     1       0.839   1.285   0.045  1.00  0.00     0.727 A 
HETATM    2  N2  UNL     1       0.626   2.586   0.229  1.00  0.00    -0.075 NA
HETATM    3  C11 UNL     1       1.650   3.449   0.366  1.00  0.00     0.139 A 
HETATM    4  C12 UNL     1       2.878   2.833   0.287  1.00  0.00     0.053 A 
HETATM    5  C13 UNL     1       3.188   1.509   0.100  1.00  0.00     0.089 A 
HETATM    6  N4  UNL     1       2.104   0.732  -0.026  1.00  0.00    -0.062 NA
ENDROOT
BRANCH   1   7
HETATM    7  N1  UNL     1      -0.273   0.415  -0.071  1.00  0.00    -0.188 N 
HETATM    8  H14 UNL     1      -0.183   0.437  -1.140  1.00  0.00     0.184 HD
BRANCH   7   9
HETATM    9  C4  UNL     1      -1.384  -0.452  -0.168  1.00  0.00     0.048 C 
HETATM   10  C5  UNL     1      -2.479  -0.027  -0.802  1.00  0.00     0.008 C 
BRANCH   9  11
HETATM   11  C2  UNL     1      -0.881  -1.732   0.428  1.00  0.00    -0.057 C 
HETATM   12  C1  UNL     1       0.207  -2.042   1.084  1.00  0.00     0.040 C 
HETATM   13  C3  UNL     1      -1.538  -3.100   0.427  1.00  0.00     0.046 C 
ENDBRANCH   9  11
BRANCH  10  14
HETATM   14  C6  UNL     1      -3.809  -0.146  -1.397  1.00  0.00     0.012 C 
HETATM   15  C7  UNL     1      -4.382  -1.541  -1.166  1.00  0.00     0.015 C 
BRANCH  14  16
HETATM   16  C8  UNL     1      -4.820   0.831  -0.796  1.00  0.00     0.077 C 
BRANCH  16  17
HETATM   17  C9  UNL     1      -4.927   0.554   0.681  1.00  0.00     0.231 C 
HETATM   18  O1  UNL     1      -4.524  -0.114   1.612  1.00  0.00    -0.307 OA
ENDBRANCH  16  17
ENDBRANCH  14  16
ENDBRANCH  10  14
ENDBRANCH   7   9
ENDBRANCH   1   7
BRANCH   5  19
HETATM   19  C14 UNL     1       4.484   0.850   0.070  1.00  0.00     0.012 A 
HETATM   20  C15 UNL     1       4.548  -0.493  -0.110  1.00  0.00     0.130 A 
HETATM   21  N3  UNL     1       5.579  -1.308  -0.132  1.00  0.00    -0.271 NA
HETATM   22  C16 UNL     1       6.869  -1.022   0.025  1.00  0.00     0.131 A 
HETATM   23  P1  UNL     1       7.140   0.682   0.280  1.00  0.00    -0.014 P 
HETATM   24  C17 UNL     1       5.660   1.578   0.273  1.00  0.00     0.032 A 
ENDBRANCH   5  19
TORSDOF 7
