REMARK  3 active torsions:
REMARK  status: ('A' for Active; 'I' for Inactive)
REMARK    1  A    between atoms: C2_2  and  C3_3 
REMARK    2  A    between atoms: C3_3  and  N1_4 
REMARK    3  A    between atoms: C9_11  and  O1_12 
ROOT
HETATM    1  N1  UNL     1      -1.313   0.468  -0.621  1.00  0.00     0.026 N 
HETATM    2  C4  UNL     1       0.045   0.142   0.017  1.00  0.00     0.217 A 
HETATM    3  C5  UNL     1      -0.024   0.764  -1.082  1.00  0.00     0.388 A 
HETATM    4  N2  UNL     1       1.394   0.824  -1.140  1.00  0.00    -0.338 N 
HETATM    5  C6  UNL     1       2.364   0.207  -2.082  1.00  0.00     0.084 C 
HETATM    6  C7  UNL     1       2.543  -1.150  -1.795  1.00  0.00    -0.004 C 
HETATM    7  C8  UNL     1       1.834  -1.716  -0.726  1.00  0.00     0.093 C 
HETATM    8  C9  UNL     1       1.583  -2.357   0.468  1.00  0.00     0.050 C 
HETATM    9  C11 UNL     1       0.744  -1.721   1.364  1.00  0.00     0.048 C 
HETATM   10  C12 UNL     1       0.022  -0.449   1.303  1.00  0.00     0.026 C 
HETATM   11  C13 UNL     1      -0.785   0.495   1.833  1.00  0.00     0.148 C 
HETATM   12  O2  UNL     1      -1.172   1.538   0.947  1.00  0.00    -0.357 OA
HETATM   13  C14 UNL     1      -0.230   2.588   0.786  1.00  0.00     0.223 C 
HETATM   14  C15 UNL     1      -0.106   3.078  -0.634  1.00  0.00     0.145 C 
HETATM   15  N3  UNL     1       0.010   2.899  -1.944  1.00  0.00    -0.143 NA
HETATM   16  O3  UNL     1       0.054   1.478  -2.337  1.00  0.00    -0.187 OA
HETATM   17  H6  UNL     1      -1.997  -0.143  -0.053  1.00  0.00     0.293 HD
HETATM   18  H7  UNL     1       2.270   1.200  -0.711  1.00  0.00     0.164 HD
ENDROOT
BRANCH   1  19
HETATM   19  C3  UNL     1      -2.537   0.853  -1.326  1.00  0.00     0.274 C 
BRANCH  19  20
HETATM   20  C2  UNL     1      -3.812   0.678  -0.659  1.00  0.00    -0.009 C 
HETATM   21  C1  UNL     1      -4.315   0.261   0.483  1.00  0.00     0.008 C 
ENDBRANCH  19  20
ENDBRANCH   1  19
BRANCH   8  22
HETATM   22  O1  UNL     1       1.931  -3.513   1.094  1.00  0.00    -0.360 OA
HETATM   23  C10 UNL     1       2.835  -3.487   2.178  1.00  0.00     0.209 C 
ENDBRANCH   8  22
TORSDOF 3
