REMARK  6 active torsions:
REMARK  status: ('A' for Active; 'I' for Inactive)
REMARK    1  A    between atoms: C2_2  and  C3_3 
REMARK    2  A    between atoms: C3_3  and  N1_4 
REMARK    3  A    between atoms: C3_3  and  C13_17 
REMARK    4  A    between atoms: N1_4  and  C4_5 
REMARK    5  A    between atoms: C7_9  and  C8_10 
REMARK       I    between atoms: C13_17  and  N5_19 
REMARK    6  A    between atoms: N5_19  and  C14_20 
ROOT
HETATM    1  C4  UNL     1       1.202  -0.440   0.335  1.00  0.00     0.723 A 
HETATM    2  N2  UNL     1       1.387  -1.138   1.464  1.00  0.00    -0.075 NA
HETATM    3  C5  UNL     1       2.539  -1.551   1.960  1.00  0.00     0.139 A 
HETATM    4  C6  UNL     1       3.694  -1.252   1.270  1.00  0.00     0.053 A 
HETATM    5  C7  UNL     1       3.571  -0.536   0.101  1.00  0.00     0.089 A 
HETATM    6  N4  UNL     1       2.358  -0.181  -0.288  1.00  0.00    -0.062 NA
ENDROOT
BRANCH   1   7
HETATM    7  N1  UNL     1      -0.022   0.015  -0.223  1.00  0.00    -0.209 N 
HETATM    8  H7  UNL     1       0.031   0.536  -1.124  1.00  0.00     0.178 HD
BRANCH   7   9
HETATM    9  C3  UNL     1      -1.249  -0.293   0.523  1.00  0.00     0.191 C 
BRANCH   9  10
HETATM   10  C2  UNL     1      -1.254   0.406   1.845  1.00  0.00     0.031 C 
HETATM   11  C1  UNL     1      -2.512   0.060   2.600  1.00  0.00     0.007 C 
ENDBRANCH   9  10
BRANCH   9  12
HETATM   12  C13 UNL     1      -2.430   0.092  -0.267  1.00  0.00     0.241 C 
HETATM   13  O1  UNL     1      -1.849   0.662  -1.240  1.00  0.00    -0.271 OA
HETATM   14  N5  UNL     1      -3.825   0.050  -0.315  1.00  0.00    -0.355 N 
HETATM   15  H14 UNL     1      -4.102  -0.465   0.548  1.00  0.00     0.162 HD
BRANCH  14  16
HETATM   16  C14 UNL     1      -4.567   0.620  -1.385  1.00  0.00     0.076 C 
HETATM   17  C15 UNL     1      -5.313  -0.516  -2.073  1.00  0.00     0.032 C 
HETATM   18  C16 UNL     1      -5.624   1.602  -0.948  1.00  0.00     0.032 C 
ENDBRANCH  14  16
ENDBRANCH   9  12
ENDBRANCH   7   9
ENDBRANCH   1   7
BRANCH   5  19
HETATM   19  C8  UNL     1       4.718  -0.163  -0.714  1.00  0.00     0.011 A 
HETATM   20  C9  UNL     1       6.021  -0.481  -0.403  1.00  0.00     0.017 A 
HETATM   21  C10 UNL     1       7.087  -0.113  -1.198  1.00  0.00     0.020 A 
HETATM   22  C11 UNL     1       6.831   0.604  -2.355  1.00  0.00     0.116 A 
HETATM   23  N3  UNL     1       5.556   0.936  -2.694  1.00  0.00    -0.272 NA
HETATM   24  C12 UNL     1       4.554   0.551  -1.881  1.00  0.00     0.130 A 
ENDBRANCH   5  19
TORSDOF 6
