REMARK  2 active torsions:
REMARK  status: ('A' for Active; 'I' for Inactive)
REMARK       I    between atoms: C2_2  and  N1_4 
REMARK    1  A    between atoms: N1_4  and  C3_5 
REMARK    2  A    between atoms: C7_9  and  C8_10 
ROOT
HETATM    1  C3  UNL     1       2.228   0.614  -0.230  1.00  0.00     0.008 C 
HETATM    2  C4  UNL     1       0.894   0.670  -0.503  1.00  0.00     0.067 C 
HETATM    3  C5  UNL     1      -0.228   1.551  -0.976  1.00  0.00    -0.018 C 
HETATM    4  C6  UNL     1      -1.482   1.035  -1.073  1.00  0.00    -0.017 C 
HETATM    5  C7  UNL     1      -2.267  -0.214  -0.867  1.00  0.00     0.066 C 
HETATM    6  C13 UNL     1      -1.504  -1.243  -0.125  1.00  0.00     0.006 C 
HETATM    7  C14 UNL     1      -0.996  -2.211   0.660  1.00  0.00     0.115 C 
HETATM    8  N3  UNL     1       0.294  -2.717   0.659  1.00  0.00    -0.256 NA
HETATM    9  C15 UNL     1       0.840  -3.741   0.249  1.00  0.00     0.206 C 
HETATM   10  N4  UNL     1       2.010  -3.086   0.810  1.00  0.00    -0.363 N 
HETATM   11  C16 UNL     1       2.822  -1.889   0.609  1.00  0.00     0.073 C 
HETATM   12  C17 UNL     1       2.086  -0.827   0.163  1.00  0.00     0.085 C 
HETATM   13  H16 UNL     1       2.266  -3.774   1.594  1.00  0.00     0.165 HD
ENDROOT
BRANCH   5  14
HETATM   14  C8  UNL     1      -3.549   0.106  -0.135  1.00  0.00    -0.029 A 
HETATM   15  C9  UNL     1      -3.431   0.624   1.147  1.00  0.00     0.011 A 
HETATM   16  C10 UNL     1      -4.631   0.903   1.780  1.00  0.00     0.020 A 
HETATM   17  C11 UNL     1      -5.853   0.679   1.171  1.00  0.00     0.116 A 
HETATM   18  N2  UNL     1      -5.937   0.177  -0.073  1.00  0.00    -0.273 NA
HETATM   19  C12 UNL     1      -4.791  -0.117  -0.742  1.00  0.00     0.124 A 
ENDBRANCH   5  14
BRANCH   1  20
HETATM   20  N1  UNL     1       3.363   1.583  -0.295  1.00  0.00    -0.333 N 
HETATM   21  C2  UNL     1       4.499   1.368  -1.109  1.00  0.00     0.217 C 
HETATM   22  C1  UNL     1       5.514   2.459  -1.024  1.00  0.00     0.117 C 
HETATM   23  O1  UNL     1       4.699   0.378  -1.854  1.00  0.00    -0.274 OA
HETATM   24  H4  UNL     1       3.226   2.418   0.313  1.00  0.00     0.168 HD
ENDBRANCH   1  20
TORSDOF 2
