REMARK  6 active torsions:
REMARK  status: ('A' for Active; 'I' for Inactive)
REMARK    1  A    between atoms: C2_2  and  C3_3 
REMARK    2  A    between atoms: C2_2  and  N1_13 
REMARK    3  A    between atoms: C3_3  and  C4_4 
REMARK    4  A    between atoms: C10_10  and  C11_11 
REMARK    5  A    between atoms: C11_11  and  O1_12 
REMARK    6  A    between atoms: N1_13  and  C12_14 
ROOT
HETATM    1  C12 UNL     1       0.421   2.264  -0.166  1.00  0.00     0.130 A 
HETATM    2  C13 UNL     1       1.146   2.701  -1.407  1.00  0.00     0.020 A 
HETATM    3  C14 UNL     1       2.194   1.992  -1.761  1.00  0.00     0.113 A 
HETATM    4  N2  UNL     1       2.767   0.867  -1.162  1.00  0.00    -0.159 N 
HETATM    5  C15 UNL     1       2.174   0.359   0.014  1.00  0.00     0.032 A 
HETATM    6  C16 UNL     1       1.114   1.057   0.392  1.00  0.00     0.028 A 
HETATM    7  C17 UNL     1       2.714  -0.827   0.691  1.00  0.00     0.063 C 
HETATM    8  C18 UNL     1       4.072  -0.636   1.312  1.00  0.00     0.052 C 
HETATM    9  C19 UNL     1       4.477  -1.943   1.934  1.00  0.00     0.255 C 
HETATM   10  N3  UNL     1       4.793  -2.974   1.221  1.00  0.00    -0.401 NA
HETATM   11  C20 UNL     1       4.810  -3.046  -0.175  1.00  0.00     0.073 C 
HETATM   12  C21 UNL     1       4.799  -3.262  -1.470  1.00  0.00    -0.005 C 
HETATM   13  C22 UNL     1       4.916  -2.752  -2.875  1.00  0.00     0.088 C 
HETATM   14  C23 UNL     1       5.129  -1.282  -2.872  1.00  0.00     0.058 A 
HETATM   15  C24 UNL     1       6.088  -0.424  -3.383  1.00  0.00     0.048 A 
HETATM   16  C25 UNL     1       5.861   0.902  -3.102  1.00  0.00     0.138 A 
HETATM   17  N4  UNL     1       4.814   1.352  -2.398  1.00  0.00    -0.074 NA
HETATM   18  C26 UNL     1       3.900   0.442  -1.921  1.00  0.00     0.733 A 
HETATM   19  N5  UNL     1       4.091  -0.829  -2.175  1.00  0.00    -0.067 NA
ENDROOT
BRANCH   1  20
HETATM   20  N1  UNL     1      -0.963   2.015  -0.412  1.00  0.00    -0.385 N 
HETATM   21  H14 UNL     1      -1.222   2.066  -1.444  1.00  0.00     0.160 HD
BRANCH  20  22
HETATM   22  C2  UNL     1      -2.269   1.692   0.033  1.00  0.00    -0.014 C 
HETATM   23  C1  UNL     1      -3.419   2.299  -0.173  1.00  0.00     0.058 C 
BRANCH  22  24
HETATM   24  C3  UNL     1      -2.421   0.447   0.843  1.00  0.00     0.079 C 
BRANCH  24  25
HETATM   25  C4  UNL     1      -3.776   0.116   1.228  1.00  0.00    -0.013 C 
HETATM   26  C5  UNL     1      -4.783  -0.166   1.981  1.00  0.00    -0.052 A 
HETATM   27  C6  UNL     1      -4.346  -0.177   3.399  1.00  0.00     0.007 A 
HETATM   28  C10 UNL     1      -6.165  -0.464   1.548  1.00  0.00     0.064 A 
HETATM   29  C7  UNL     1      -5.167  -0.481   4.421  1.00  0.00     0.000 A 
HETATM   30  C8  UNL     1      -6.502  -0.784   3.926  1.00  0.00    -0.003 A 
HETATM   31  C9  UNL     1      -6.991  -0.796   2.723  1.00  0.00    -0.015 A 
BRANCH  28  32
HETATM   32  C11 UNL     1      -6.770   0.656   0.728  1.00  0.00     0.177 C 
BRANCH  32  33
HETATM   33  O1  UNL     1      -6.804   1.835   1.488  1.00  0.00    -0.400 OA
HETATM   34  H13 UNL     1      -5.922   2.275   1.449  1.00  0.00     0.209 HD
ENDBRANCH  32  33
ENDBRANCH  28  32
ENDBRANCH  24  25
ENDBRANCH  22  24
ENDBRANCH  20  22
ENDBRANCH   1  20
TORSDOF 6
