REMARK  6 active torsions:
REMARK  status: ('A' for Active; 'I' for Inactive)
REMARK    1  A    between atoms: C8_8  and  C9_9 
REMARK    2  A    between atoms: C9_9  and  C10_10 
REMARK    3  A    between atoms: C10_10  and  C11_11 
REMARK    4  A    between atoms: C11_11  and  C12_12 
REMARK    5  A    between atoms: C17_17  and  N1_18 
REMARK    6  A    between atoms: C18_20  and  C19_21 
ROOT
HETATM    1  C1  UNL     1      -5.690  -3.964  -0.166  1.00  0.00     0.097 C 
HETATM    2  C2  UNL     1      -5.882  -2.685  -0.211  1.00  0.00    -0.143 C 
HETATM    3  C3  UNL     1      -6.069  -1.375  -0.173  1.00  0.00     0.015 A 
HETATM    4  C4  UNL     1      -7.349  -0.978  -0.349  1.00  0.00     0.020 A 
HETATM    5  C5  UNL     1      -7.541   0.411  -0.308  1.00  0.00     0.002 A 
HETATM    6  C6  UNL     1      -6.466   1.272  -0.099  1.00  0.00     0.001 A 
HETATM    7  C7  UNL     1      -5.193   0.748   0.070  1.00  0.00     0.012 A 
HETATM    8  C8  UNL     1      -4.961  -0.625   0.036  1.00  0.00    -0.022 A 
ENDROOT
BRANCH   8   9
HETATM    9  C9  UNL     1      -3.766  -1.136   0.193  1.00  0.00    -0.014 C 
BRANCH   9  10
HETATM   10  C10 UNL     1      -2.530  -0.388   0.421  1.00  0.00     0.029 C 
BRANCH  10  11
HETATM   11  C11 UNL     1      -1.731  -0.154  -0.867  1.00  0.00     0.018 C 
BRANCH  11  12
HETATM   12  C12 UNL     1      -0.488   0.612  -0.550  1.00  0.00     0.016 A 
HETATM   13  C13 UNL     1       0.156   1.828  -0.866  1.00  0.00     0.033 A 
HETATM   14  C14 UNL     1       1.234   2.845  -0.795  1.00  0.00    -0.016 C 
HETATM   15  C17 UNL     1       0.732   0.774   0.087  1.00  0.00     0.098 A 
HETATM   16  C15 UNL     1       1.798   2.839   0.421  1.00  0.00    -0.027 C 
HETATM   17  C16 UNL     1       1.070   1.767   1.212  1.00  0.00     0.064 C 
BRANCH  15  18
HETATM   18  N1  UNL     1       1.986   0.220  -0.475  1.00  0.00    -0.199 N 
HETATM   19  N2  UNL     1       3.237   0.350   0.130  1.00  0.00    -0.155 NA
HETATM   20  C18 UNL     1       4.314  -0.130  -0.360  1.00  0.00     0.091 A 
HETATM   21  C24 UNL     1       4.278  -0.855  -1.608  1.00  0.00     0.053 A 
HETATM   22  C25 UNL     1       3.113  -0.986  -2.189  1.00  0.00     0.111 A 
HETATM   23  N4  UNL     1       1.861  -0.476  -1.701  1.00  0.00    -0.293 N 
HETATM   24  H22 UNL     1       0.990  -0.631  -2.232  1.00  0.00     0.187 HD
BRANCH  20  25
HETATM   25  C19 UNL     1       5.555   0.077   0.372  1.00  0.00     0.012 A 
HETATM   26  C20 UNL     1       6.760  -0.395  -0.066  1.00  0.00     0.017 A 
HETATM   27  C21 UNL     1       7.887  -0.163   0.674  1.00  0.00     0.020 A 
HETATM   28  C22 UNL     1       7.900   0.541   1.882  1.00  0.00     0.116 A 
HETATM   29  N3  UNL     1       6.700   0.988   2.280  1.00  0.00    -0.272 NA
HETATM   30  C23 UNL     1       5.592   0.767   1.563  1.00  0.00     0.130 A 
ENDBRANCH  20  25
ENDBRANCH  15  18
ENDBRANCH  11  12
ENDBRANCH  10  11
ENDBRANCH   9  10
ENDBRANCH   8   9
TORSDOF 6
