REMARK  4 active torsions:
REMARK  status: ('A' for Active; 'I' for Inactive)
REMARK    1  A    between atoms: C5_5  and  N1_6 
REMARK       I    between atoms: N1_6  and  C6_7 
REMARK    2  A    between atoms: C6_7  and  P1_9 
REMARK    3  A    between atoms: C8_11  and  N2_12 
REMARK    4  A    between atoms: N2_12  and  C9_13 
ROOT
HETATM    1  C1  UNL     1      -1.736   3.466   1.638  1.00  0.00     0.050 C 
HETATM    2  C2  UNL     1      -2.291   2.177   1.152  1.00  0.00    -0.035 A 
HETATM    3  C3  UNL     1      -3.654   1.998   1.071  1.00  0.00     0.011 A 
HETATM    4  C4  UNL     1      -4.215   0.820   0.626  1.00  0.00     0.030 A 
HETATM    5  C5  UNL     1      -3.360  -0.197   0.256  1.00  0.00     0.037 A 
HETATM    6  C7  UNL     1      -2.003   0.025   0.353  1.00  0.00     0.060 A 
HETATM    7  C8  UNL     1      -1.391   1.172   0.787  1.00  0.00     0.057 A 
ENDROOT
BRANCH   7   8
HETATM    8  N2  UNL     1       0.001   1.350   0.869  1.00  0.00    -0.188 N 
HETATM    9  H10 UNL     1       0.295   2.308   1.230  1.00  0.00     0.184 HD
BRANCH   8  10
HETATM   10  C9  UNL     1       1.034   0.457   0.546  1.00  0.00     0.727 A 
HETATM   11  N3  UNL     1       0.892  -0.789   0.079  1.00  0.00    -0.074 NA
HETATM   12  C10 UNL     1       1.850  -1.648  -0.231  1.00  0.00     0.151 A 
HETATM   13  C11 UNL     1       3.141  -1.216  -0.056  1.00  0.00     0.025 A 
HETATM   14  C12 UNL     1       3.362   0.057   0.422  1.00  0.00     0.070 A 
HETATM   15  C16 UNL     1       4.101  -2.252  -0.433  1.00  0.00     0.131 C 
HETATM   16  N4  UNL     1       2.312   0.839   0.703  1.00  0.00    -0.066 NA
HETATM   17  C13 UNL     1       4.621   0.772   0.702  1.00  0.00     0.089 C 
HETATM   18  C14 UNL     1       5.817   0.161   0.096  1.00  0.00    -0.002 C 
HETATM   19  C15 UNL     1       6.221  -0.977  -0.446  1.00  0.00     0.112 C 
HETATM   20  N5  UNL     1       5.365  -2.126  -0.586  1.00  0.00    -0.272 NA
ENDBRANCH   8  10
ENDBRANCH   7   8
BRANCH   5  21
HETATM   21  N1  UNL     1      -3.934  -1.414  -0.204  1.00  0.00    -0.324 N 
HETATM   22  C6  UNL     1      -4.299  -1.829  -1.520  1.00  0.00     0.240 C 
HETATM   23  O1  UNL     1      -4.148  -1.115  -2.538  1.00  0.00    -0.268 OA
HETATM   24  H6  UNL     1      -4.037  -1.961   0.663  1.00  0.00     0.169 HD
BRANCH  22  25
HETATM   25  P1  UNL     1      -5.008  -3.500  -1.601  1.00  0.00    -0.043 P 
HETATM   26  H7  UNL     1      -5.665  -3.896  -0.382  1.00  0.00     0.064 HD
HETATM   27  H8  UNL     1      -5.819  -3.678  -2.779  1.00  0.00     0.064 HD
ENDBRANCH  22  25
ENDBRANCH   5  21
TORSDOF 4
