REMARK  2 active torsions:
REMARK  status: ('A' for Active; 'I' for Inactive)
REMARK    1  A    between atoms: C7_9  and  N2_10 
REMARK    2  A    between atoms: N2_10  and  C8_11 
ROOT
HETATM    1  C1  UNL     1      -4.986   1.005   0.266  1.00  0.00     0.026 C 
HETATM    2  C2  UNL     1      -4.627  -0.259   0.355  1.00  0.00     0.134 C 
HETATM    3  O1  UNL     1      -3.296  -0.690   0.583  1.00  0.00    -0.363 OA
HETATM    4  C3  UNL     1      -3.082  -2.045   0.345  1.00  0.00     0.176 C 
HETATM    5  C4  UNL     1      -1.851  -2.659   0.860  1.00  0.00     0.046 C 
HETATM    6  C5  UNL     1      -0.528  -2.292   0.373  1.00  0.00     0.122 C 
HETATM    7  N1  UNL     1      -0.019  -0.967   0.451  1.00  0.00    -0.383 N 
HETATM    8  C6  UNL     1      -0.172   0.318  -0.107  1.00  0.00     0.128 A 
HETATM    9  C7  UNL     1       0.888   0.421  -1.038  1.00  0.00     0.160 A 
HETATM   10  N3  UNL     1       1.182   1.460  -1.864  1.00  0.00    -0.222 NA
HETATM   11  C14 UNL     1       0.326   2.524  -1.756  1.00  0.00     0.238 A 
HETATM   12  N4  UNL     1      -0.684   2.472  -0.891  1.00  0.00    -0.215 NA
HETATM   13  C15 UNL     1      -0.947   1.442  -0.095  1.00  0.00     0.201 A 
HETATM   14  O2  UNL     1      -2.040   1.562   0.748  1.00  0.00    -0.302 OA
HETATM   15  C16 UNL     1      -2.891   2.642   0.573  1.00  0.00     0.144 C 
HETATM   16  C17 UNL     1      -4.004   2.027   0.403  1.00  0.00     0.026 C 
HETATM   17  H9  UNL     1       0.767  -0.826   1.160  1.00  0.00     0.159 HD
ENDROOT
BRANCH   9  18
HETATM   18  N2  UNL     1       1.923  -0.573  -1.254  1.00  0.00    -0.339 N 
HETATM   19  H10 UNL     1       1.784  -1.472  -1.757  1.00  0.00     0.167 HD
BRANCH  18  20
HETATM   20  C8  UNL     1       3.216  -0.232  -0.718  1.00  0.00     0.033 A 
HETATM   21  C9  UNL     1       3.393   0.982  -0.121  1.00  0.00     0.029 A 
HETATM   22  C10 UNL     1       4.590   1.450   0.434  1.00  0.00     0.002 A 
HETATM   23  C11 UNL     1       5.683   0.619   0.372  1.00  0.00     0.000 A 
HETATM   24  C12 UNL     1       5.530  -0.629  -0.234  1.00  0.00     0.002 A 
HETATM   25  C13 UNL     1       4.314  -1.056  -0.776  1.00  0.00     0.029 A 
ENDBRANCH  18  20
ENDBRANCH   9  18
TORSDOF 2
