REMARK  9 active torsions:
REMARK  status: ('A' for Active; 'I' for Inactive)
REMARK    1  A    between atoms: C2_2  and  C3_3 
REMARK    2  A    between atoms: C3_3  and  B1_4 
REMARK    3  A    between atoms: C3_3  and  N1_12 
REMARK    4  A    between atoms: B1_4  and  C4_5 
REMARK    5  A    between atoms: C4_5  and  C5_6 
REMARK    6  A    between atoms: C5_6  and  C6_7 
REMARK    7  A    between atoms: C12_14  and  N2_15 
REMARK    8  A    between atoms: N2_15  and  C13_16 
REMARK    9  A    between atoms: C16_20  and  C17_21 
ROOT
HETATM    1  N1  UNL     1       1.009   0.703  -2.170  1.00  0.00    -0.385 N 
HETATM    2  C11 UNL     1       0.240  -0.362  -1.601  1.00  0.00     0.116 A 
HETATM    3  C12 UNL     1      -1.061  -0.289  -1.367  1.00  0.00     0.070 A 
HETATM    4  C22 UNL     1      -1.784   0.935  -1.670  1.00  0.00    -0.035 A 
HETATM    5  C23 UNL     1      -3.240   1.074  -1.436  1.00  0.00     0.050 C 
HETATM    6  C24 UNL     1      -1.039   1.900  -2.169  1.00  0.00     0.002 A 
HETATM    7  C25 UNL     1       0.405   1.988  -2.484  1.00  0.00     0.150 A 
ENDROOT
BRANCH   3   8
HETATM    8  N2  UNL     1      -1.670  -1.414  -0.808  1.00  0.00    -0.186 N 
HETATM    9  H12 UNL     1      -1.718  -2.394  -1.158  1.00  0.00     0.184 HD
BRANCH   8  10
HETATM   10  C13 UNL     1      -2.376  -1.377   0.429  1.00  0.00     0.727 A 
HETATM   11  N3  UNL     1      -1.612  -1.487   1.531  1.00  0.00    -0.075 NA
HETATM   12  C14 UNL     1      -2.221  -1.464   2.754  1.00  0.00     0.139 A 
HETATM   13  C15 UNL     1      -3.603  -1.329   2.836  1.00  0.00     0.053 A 
HETATM   14  C16 UNL     1      -4.367  -1.218   1.695  1.00  0.00     0.089 A 
HETATM   15  N5  UNL     1      -3.723  -1.246   0.515  1.00  0.00    -0.062 NA
BRANCH  14  16
HETATM   16  C17 UNL     1      -5.818  -1.081   1.651  1.00  0.00     0.011 A 
HETATM   17  C18 UNL     1      -6.439  -0.990   0.425  1.00  0.00     0.017 A 
HETATM   18  C19 UNL     1      -7.816  -0.861   0.323  1.00  0.00     0.020 A 
HETATM   19  C20 UNL     1      -8.579  -0.823   1.485  1.00  0.00     0.116 A 
HETATM   20  N4  UNL     1      -7.969  -0.913   2.703  1.00  0.00    -0.272 NA
HETATM   21  C21 UNL     1      -6.629  -1.037   2.761  1.00  0.00     0.130 A 
ENDBRANCH  14  16
ENDBRANCH   8  10
ENDBRANCH   3   8
BRANCH   1  22
HETATM   22  C3  UNL     1       2.429   0.441  -2.434  1.00  0.00     0.070 C 
BRANCH  22  23
HETATM   23  C2  UNL     1       2.994   1.695  -2.997  1.00  0.00    -0.022 C 
HETATM   24  C1  UNL     1       3.235   2.483  -1.938  1.00  0.00     0.008 C 
ENDBRANCH  22  23
BRANCH  22  25
HETATM   25  B1  UNL     1       3.153  -0.107  -0.992  1.00  0.00     0.267 B 
BRANCH  25  26
HETATM   26  C4  UNL     1       4.153  -0.777   0.318  1.00  0.00    -0.221 C 
BRANCH  26  27
HETATM   27  C5  UNL     1       4.878  -1.444   1.179  1.00  0.00     0.035 C 
BRANCH  27  28
HETATM   28  C6  UNL     1       6.268  -1.834   0.935  1.00  0.00     0.014 C 
HETATM   29  C7  UNL     1       7.227  -0.937   1.068  1.00  0.00    -0.054 A 
HETATM   30  C8  UNL     1       7.094   0.475   1.446  1.00  0.00     0.004 A 
HETATM   31  C10 UNL     1       8.700  -0.822   0.944  1.00  0.00     0.065 A 
HETATM   32  C9  UNL     1       8.418   0.592   1.339  1.00  0.00    -0.022 A 
ENDBRANCH  27  28
ENDBRANCH  26  27
ENDBRANCH  25  26
ENDBRANCH  22  25
ENDBRANCH   1  22
TORSDOF 9
