REMARK  3 active torsions:
REMARK  status: ('A' for Active; 'I' for Inactive)
REMARK    1  A    between atoms: O1_2  and  C2_3 
REMARK    2  A    between atoms: C10_12  and  N2_13 
REMARK    3  A    between atoms: N2_13  and  C11_14 
ROOT
HETATM    1  C2  UNL     1       4.813   0.588  -0.231  1.00  0.00     0.069 A 
HETATM    2  C3  UNL     1       4.953  -0.670  -0.772  1.00  0.00     0.039 A 
HETATM    3  C4  UNL     1       3.810  -1.417  -0.941  1.00  0.00     0.040 A 
HETATM    4  C5  UNL     1       2.535  -0.995  -0.607  1.00  0.00     0.086 A 
HETATM    5  C6  UNL     1       2.407   0.252  -0.072  1.00  0.00    -0.004 A 
HETATM    6  C7  UNL     1       3.554   1.030   0.109  1.00  0.00     0.048 A 
HETATM    7  C8  UNL     1       1.296   1.071   0.406  1.00  0.00     0.161 A 
HETATM    8  N1  UNL     1       0.008   0.416   0.416  1.00  0.00    -0.381 N 
HETATM    9  C9  UNL     1      -0.563  -0.869   0.075  1.00  0.00     0.092 A 
HETATM   10  C10 UNL     1      -1.919  -0.911   0.400  1.00  0.00    -0.011 C 
HETATM   11  B1  UNL     1      -2.389  -2.468   1.153  1.00  0.00     0.242 B 
HETATM   12  C17 UNL     1      -1.446  -3.623  -0.821  1.00  0.00     0.082 C 
HETATM   13  N3  UNL     1      -0.230  -3.088  -0.905  1.00  0.00    -0.269 NA
HETATM   14  C18 UNL     1       0.169  -1.890  -0.520  1.00  0.00     0.192 A 
HETATM   15  O2  UNL     1       1.520  -1.905  -0.860  1.00  0.00    -0.290 OA
HETATM   16  H9  UNL     1      -0.693   1.125   0.788  1.00  0.00     0.160 HD
ENDROOT
BRANCH  10  17
HETATM   17  N2  UNL     1      -2.682   0.245   0.096  1.00  0.00    -0.368 N 
HETATM   18  H10 UNL     1      -2.268   1.066  -0.385  1.00  0.00     0.165 HD
BRANCH  17  19
HETATM   19  C11 UNL     1      -4.060   0.547   0.333  1.00  0.00     0.031 A 
HETATM   20  C12 UNL     1      -4.736   1.695  -0.098  1.00  0.00     0.029 A 
HETATM   21  C13 UNL     1      -6.059   1.906   0.176  1.00  0.00     0.002 A 
HETATM   22  C14 UNL     1      -6.803   1.017   0.883  1.00  0.00     0.000 A 
HETATM   23  C15 UNL     1      -6.177  -0.134   1.331  1.00  0.00     0.002 A 
HETATM   24  C16 UNL     1      -4.853  -0.326   1.046  1.00  0.00     0.029 A 
ENDBRANCH  17  19
ENDBRANCH  10  17
BRANCH   1  25
HETATM   25  O1  UNL     1       5.941   1.398  -0.033  1.00  0.00    -0.356 OA
HETATM   26  C1  UNL     1       7.229   0.939  -0.385  1.00  0.00     0.210 C 
ENDBRANCH   1  25
TORSDOF 3
