REMARK  4 active torsions:
REMARK  status: ('A' for Active; 'I' for Inactive)
REMARK    1  A    between atoms: C5_5  and  N1_6 
REMARK    2  A    between atoms: C7_8  and  N2_9 
REMARK    3  A    between atoms: N2_9  and  C8_10 
REMARK    4  A    between atoms: C11_14  and  C12_15 
ROOT
HETATM    1  C8  UNL     1       0.326  -1.750   0.136  1.00  0.00     0.727 A 
HETATM    2  N3  UNL     1       1.013  -2.899   0.266  1.00  0.00    -0.075 NA
HETATM    3  C9  UNL     1       2.322  -3.004   0.416  1.00  0.00     0.139 A 
HETATM    4  C10 UNL     1       3.060  -1.865   0.444  1.00  0.00     0.053 A 
HETATM    5  C11 UNL     1       2.434  -0.649   0.318  1.00  0.00     0.087 A 
HETATM    6  N5  UNL     1       1.102  -0.656   0.171  1.00  0.00    -0.062 NA
ENDROOT
BRANCH   1   7
HETATM    7  N2  UNL     1      -1.067  -1.777  -0.017  1.00  0.00    -0.188 N 
HETATM    8  H9  UNL     1      -1.522  -2.737  -0.022  1.00  0.00     0.184 HD
BRANCH   7   9
HETATM    9  C7  UNL     1      -1.970  -0.713  -0.168  1.00  0.00     0.057 A 
HETATM   10  C2  UNL     1      -3.342  -0.930  -0.310  1.00  0.00    -0.035 A 
HETATM   11  C1  UNL     1      -3.849  -2.332  -0.300  1.00  0.00     0.050 C 
HETATM   12  C3  UNL     1      -4.252   0.090  -0.458  1.00  0.00     0.011 A 
HETATM   13  C4  UNL     1      -3.839   1.404  -0.474  1.00  0.00     0.029 A 
HETATM   14  C5  UNL     1      -2.494   1.682  -0.338  1.00  0.00     0.027 A 
HETATM   15  C6  UNL     1      -1.626   0.621  -0.192  1.00  0.00     0.059 A 
BRANCH  14  16
HETATM   16  N1  UNL     1      -2.063   3.038  -0.354  1.00  0.00    -0.399 N 
HETATM   17  H6  UNL     1      -2.291   3.350   0.623  1.00  0.00     0.156 HD
HETATM   18  H7  UNL     1      -1.642   3.507  -1.176  1.00  0.00     0.156 HD
ENDBRANCH  14  16
ENDBRANCH   7   9
ENDBRANCH   1   7
BRANCH   5  19
HETATM   19  C12 UNL     1       3.244   0.555   0.355  1.00  0.00    -0.003 C 
HETATM   20  C13 UNL     1       4.610   0.494   0.506  1.00  0.00    -0.065 C 
HETATM   21  B1  UNL     1       5.256   2.092   1.411  1.00  0.00     0.223 B 
HETATM   22  C14 UNL     1       4.342   3.447   0.360  1.00  0.00     0.029 C 
HETATM   23  N4  UNL     1       3.069   3.066   0.235  1.00  0.00    -0.288 NA
HETATM   24  C15 UNL     1       2.683   1.799   0.244  1.00  0.00     0.127 C 
ENDBRANCH   5  19
TORSDOF 4
