REMARK  3 active torsions:
REMARK  status: ('A' for Active; 'I' for Inactive)
REMARK    1  A    between atoms: C8_9  and  N2_10 
REMARK    2  A    between atoms: N2_10  and  C9_11 
REMARK    3  A    between atoms: C12_15  and  C13_16 
ROOT
HETATM    1  C9  UNL     1       0.387   0.134   0.567  1.00  0.00     0.723 A 
HETATM    2  N3  UNL     1       0.100   1.265   1.231  1.00  0.00    -0.075 NA
HETATM    3  C10 UNL     1       1.111   2.080   1.638  1.00  0.00     0.139 A 
HETATM    4  C11 UNL     1       2.388   1.667   1.328  1.00  0.00     0.053 A 
HETATM    5  C12 UNL     1       2.712   0.520   0.652  1.00  0.00     0.089 A 
HETATM    6  N5  UNL     1       1.643  -0.226   0.288  1.00  0.00    -0.062 NA
ENDROOT
BRANCH   1   7
HETATM    7  N2  UNL     1      -0.688  -0.712   0.146  1.00  0.00    -0.211 N 
HETATM    8  H11 UNL     1      -0.500  -1.598  -0.372  1.00  0.00     0.179 HD
BRANCH   7   9
HETATM    9  C8  UNL     1      -2.064  -0.332   0.444  1.00  0.00     0.151 C 
HETATM   10  C2  UNL     1      -2.990  -1.356  -0.087  1.00  0.00    -0.056 C 
HETATM   11  C1  UNL     1      -2.435  -2.735   0.127  1.00  0.00     0.046 C 
HETATM   12  C3  UNL     1      -4.153  -1.525  -0.697  1.00  0.00     0.024 C 
HETATM   13  C4  UNL     1      -5.126  -0.530  -1.148  1.00  0.00     0.111 C 
HETATM   14  N1  UNL     1      -5.430   0.727  -0.937  1.00  0.00    -0.298 NA
HETATM   15  C5  UNL     1      -4.757   1.650  -0.028  1.00  0.00     0.175 C 
HETATM   16  C6  UNL     1      -3.323   1.808  -0.377  1.00  0.00    -0.007 C 
HETATM   17  C7  UNL     1      -2.263   0.999  -0.177  1.00  0.00     0.001 C 
ENDBRANCH   7   9
ENDBRANCH   1   7
BRANCH   5  18
HETATM   18  C13 UNL     1       4.075   0.117   0.342  1.00  0.00     0.011 A 
HETATM   19  C14 UNL     1       5.203   0.831   0.685  1.00  0.00     0.017 A 
HETATM   20  C15 UNL     1       6.461   0.377   0.352  1.00  0.00     0.020 A 
HETATM   21  C16 UNL     1       6.606  -0.814  -0.338  1.00  0.00     0.116 A 
HETATM   22  N4  UNL     1       5.498  -1.528  -0.681  1.00  0.00    -0.272 NA
HETATM   23  C17 UNL     1       4.260  -1.065  -0.344  1.00  0.00     0.130 A 
ENDBRANCH   5  18
TORSDOF 3
