REMARK  3 active torsions:
REMARK  status: ('A' for Active; 'I' for Inactive)
REMARK    1  A    between atoms: C6_7  and  N2_8 
REMARK    2  A    between atoms: N2_8  and  C7_9 
REMARK    3  A    between atoms: C10_13  and  C11_14 
ROOT
HETATM    1  C7  UNL     1      -0.390   0.046  -0.743  1.00  0.00     0.727 A 
HETATM    2  N3  UNL     1      -0.571  -0.961  -1.618  1.00  0.00    -0.075 NA
HETATM    3  C8  UNL     1       0.460  -1.706  -2.115  1.00  0.00     0.139 A 
HETATM    4  C9  UNL     1       1.699  -1.331  -1.637  1.00  0.00     0.053 A 
HETATM    5  C10 UNL     1       1.936  -0.313  -0.745  1.00  0.00     0.089 A 
HETATM    6  N5  UNL     1       0.834   0.368  -0.312  1.00  0.00    -0.062 NA
ENDROOT
BRANCH   1   7
HETATM    7  N2  UNL     1      -1.675   0.580  -0.478  1.00  0.00    -0.186 N 
HETATM    8  H7  UNL     1      -1.824   1.459  -1.040  1.00  0.00     0.184 HD
BRANCH   7   9
HETATM    9  C6  UNL     1      -2.629   0.021   0.416  1.00  0.00     0.072 A 
HETATM   10  C2  UNL     1      -3.875   0.551   0.656  1.00  0.00    -0.032 A 
HETATM   11  C1  UNL     1      -4.218   1.805  -0.071  1.00  0.00     0.050 C 
HETATM   12  C3  UNL     1      -4.772  -0.041   1.525  1.00  0.00     0.028 A 
HETATM   13  C4  UNL     1      -4.356  -1.197   2.147  1.00  0.00     0.117 A 
HETATM   14  N1  UNL     1      -3.125  -1.717   1.909  1.00  0.00    -0.271 NA
HETATM   15  C5  UNL     1      -2.263  -1.136   1.064  1.00  0.00     0.146 A 
ENDBRANCH   7   9
ENDBRANCH   1   7
BRANCH   5  16
HETATM   16  C11 UNL     1       3.242   0.087  -0.250  1.00  0.00     0.011 A 
HETATM   17  C12 UNL     1       4.333  -0.613  -0.706  1.00  0.00     0.017 A 
HETATM   18  C13 UNL     1       5.580  -0.248  -0.250  1.00  0.00     0.020 A 
HETATM   19  C14 UNL     1       5.672   0.795   0.638  1.00  0.00     0.116 A 
HETATM   20  N4  UNL     1       4.610   1.484   1.090  1.00  0.00    -0.272 NA
HETATM   21  C15 UNL     1       3.374   1.126   0.640  1.00  0.00     0.130 A 
ENDBRANCH   5  16
TORSDOF 3
