REMARK  3 active torsions:
REMARK  status: ('A' for Active; 'I' for Inactive)
REMARK    1  A    between atoms: N1_2  and  C2_3 
REMARK    2  A    between atoms: N2_7  and  C5_8 
REMARK    3  A    between atoms: C8_12  and  C9_13 
ROOT
HETATM    1  C5  UNL     1       0.746  -1.372  -0.009  1.00  0.00     0.725 A 
HETATM    2  N3  UNL     1       0.676  -2.350   0.916  1.00  0.00    -0.075 NA
HETATM    3  C6  UNL     1      -0.479  -2.560   1.586  1.00  0.00     0.139 A 
HETATM    4  C7  UNL     1      -1.579  -1.770   1.316  1.00  0.00     0.052 A 
HETATM    5  C8  UNL     1      -1.520  -0.762   0.367  1.00  0.00     0.084 A 
HETATM    6  N5  UNL     1      -0.333  -0.602  -0.269  1.00  0.00    -0.063 NA
ENDROOT
BRANCH   1   7
HETATM    7  N2  UNL     1       1.964  -1.164  -0.717  1.00  0.00    -0.211 N 
HETATM    8  C4  UNL     1       3.008  -2.148  -0.536  1.00  0.00     0.131 C 
HETATM    9  C3  UNL     1       4.124  -1.654   0.353  1.00  0.00    -0.030 C 
HETATM   10  B1  UNL     1       4.426   0.010   0.016  1.00  0.00     0.203 B 
HETATM   11  C2  UNL     1       3.253   0.841  -1.085  1.00  0.00    -0.053 C 
HETATM   12  C15 UNL     1       2.143  -0.013  -1.582  1.00  0.00     0.179 C 
BRANCH  11  13
HETATM   13  N1  UNL     1       3.856   2.118  -1.082  1.00  0.00    -0.410 N 
HETATM   14  C1  UNL     1       3.626   2.943   0.111  1.00  0.00     0.144 C 
HETATM   15  H4  UNL     1       4.441   2.520  -1.835  1.00  0.00     0.157 HD
ENDBRANCH  11  13
ENDBRANCH   1   7
BRANCH   5  16
HETATM   16  C9  UNL     1      -2.582   0.145  -0.027  1.00  0.00    -0.020 C 
HETATM   17  C10 UNL     1      -3.418   0.673   0.848  1.00  0.00    -0.055 C 
HETATM   18  C11 UNL     1      -3.447   0.467   2.304  1.00  0.00     0.046 C 
HETATM   19  C12 UNL     1      -4.412   1.565   0.155  1.00  0.00     0.182 C 
HETATM   20  N4  UNL     1      -4.990   0.746  -0.898  1.00  0.00    -0.301 NA
HETATM   21  C13 UNL     1      -4.202   0.176  -1.761  1.00  0.00     0.088 C 
HETATM   22  C14 UNL     1      -2.754   0.502  -1.475  1.00  0.00     0.087 C 
ENDBRANCH   5  16
TORSDOF 3
