REMARK  4 active torsions:
REMARK  status: ('A' for Active; 'I' for Inactive)
REMARK       I    between atoms: C1_2  and  N1_3 
REMARK    1  A    between atoms: C1_2  and  C15_20 
REMARK    2  A    between atoms: N1_3  and  C2_4 
REMARK    3  A    between atoms: C6_8  and  N2_9 
REMARK    4  A    between atoms: N2_9  and  C7_10 
ROOT
HETATM    1  C2  UNL     1       1.015   0.148   0.292  1.00  0.00     0.037 A 
HETATM    2  C3  UNL     1       0.680   0.234   1.608  1.00  0.00     0.029 A 
HETATM    3  C4  UNL     1      -0.603   0.314   2.077  1.00  0.00     0.004 A 
HETATM    4  C5  UNL     1      -1.627   0.307   1.185  1.00  0.00     0.029 A 
HETATM    5  C6  UNL     1      -1.397   0.222  -0.161  1.00  0.00     0.037 A 
HETATM    6  C14 UNL     1      -0.087   0.145  -0.567  1.00  0.00     0.059 A 
ENDROOT
BRANCH   5   7
HETATM    7  N2  UNL     1      -2.401   0.194  -1.154  1.00  0.00    -0.325 N 
HETATM    8  H5  UNL     1      -2.370   0.301  -2.184  1.00  0.00     0.169 HD
BRANCH   7   9
HETATM    9  C7  UNL     1      -3.732   0.011  -0.791  1.00  0.00     0.229 C 
HETATM   10  N3  UNL     1      -4.051  -0.849   0.271  1.00  0.00    -0.218 NA
HETATM   11  C8  UNL     1      -5.481  -0.771   0.582  1.00  0.00     0.044 C 
HETATM   12  C9  UNL     1      -6.431  -0.486   1.454  1.00  0.00     0.027 C 
HETATM   13  C13 UNL     1      -6.101  -1.043  -0.844  1.00  0.00     0.118 C 
HETATM   14  C10 UNL     1      -7.397   0.589   0.988  1.00  0.00     0.004 C 
HETATM   15  C11 UNL     1      -7.150   1.128  -0.256  1.00  0.00     0.027 C 
HETATM   16  C12 UNL     1      -6.026   0.506  -0.948  1.00  0.00     0.044 C 
HETATM   17  N4  UNL     1      -4.855   0.797  -1.511  1.00  0.00    -0.218 NA
ENDBRANCH   7   9
ENDBRANCH   5   7
BRANCH   1  18
HETATM   18  N1  UNL     1       2.307   0.063  -0.277  1.00  0.00    -0.323 N 
HETATM   19  C1  UNL     1       3.591   0.042   0.310  1.00  0.00     0.252 C 
HETATM   20  O1  UNL     1       3.541   0.115   1.576  1.00  0.00    -0.268 OA
HETATM   21  H1  UNL     1       2.364   0.002  -1.314  1.00  0.00     0.169 HD
BRANCH  19  22
HETATM   22  C15 UNL     1       4.885  -0.050  -0.389  1.00  0.00     0.010 A 
HETATM   23  C16 UNL     1       4.837  -0.121  -1.689  1.00  0.00     0.012 A 
HETATM   24  C17 UNL     1       6.086  -0.213  -2.436  1.00  0.00    -0.003 A 
HETATM   25  C18 UNL     1       7.142  -0.211  -1.619  1.00  0.00    -0.026 A 
HETATM   26  C19 UNL     1       7.323  -0.136  -0.158  1.00  0.00     0.032 A 
HETATM   27  C20 UNL     1       6.024  -0.048   0.538  1.00  0.00     0.048 A 
ENDBRANCH  19  22
ENDBRANCH   1  18
TORSDOF 4
