REMARK  5 active torsions:
REMARK  status: ('A' for Active; 'I' for Inactive)
REMARK       I    between atoms: C1_2  and  N1_3 
REMARK    1  A    between atoms: C1_2  and  C17_23 
REMARK    2  A    between atoms: N1_3  and  C2_4 
REMARK    3  A    between atoms: C6_8  and  N2_9 
REMARK    4  A    between atoms: N2_9  and  C7_10 
REMARK    5  A    between atoms: C7_10  and  N3_11 
ROOT
HETATM    1  C2  UNL     1       2.136  -1.190   1.077  1.00  0.00     0.037 A 
HETATM    2  C3  UNL     1       2.016  -2.351   1.825  1.00  0.00     0.029 A 
HETATM    3  C4  UNL     1       0.785  -2.663   2.365  1.00  0.00     0.004 A 
HETATM    4  C5  UNL     1      -0.343  -1.872   2.199  1.00  0.00     0.029 A 
HETATM    5  C6  UNL     1      -0.199  -0.721   1.451  1.00  0.00     0.031 A 
HETATM    6  C16 UNL     1       1.014  -0.374   0.894  1.00  0.00     0.058 A 
ENDROOT
BRANCH   5   7
HETATM    7  N2  UNL     1      -1.311   0.140   1.237  1.00  0.00    -0.372 N 
HETATM    8  H5  UNL     1      -1.241   1.001   0.688  1.00  0.00     0.161 HD
BRANCH   7   9
HETATM    9  C7  UNL     1      -2.618  -0.168   1.798  1.00  0.00     0.271 C 
BRANCH   9  10
HETATM   10  N3  UNL     1      -3.621   0.792   1.492  1.00  0.00    -0.270 NA
HETATM   11  C8  UNL     1      -4.143   0.966   0.295  1.00  0.00     0.054 C 
HETATM   12  C9  UNL     1      -4.994   2.039   0.861  1.00  0.00     0.040 C 
HETATM   13  C15 UNL     1      -3.620   0.098  -0.810  1.00  0.00     0.047 C 
HETATM   14  C10 UNL     1      -6.312   1.860   0.795  1.00  0.00    -0.026 C 
HETATM   15  C11 UNL     1      -6.855   1.624  -0.402  1.00  0.00     0.139 A 
HETATM   16  N4  UNL     1      -6.906   0.287   0.013  1.00  0.00    -0.255 N 
HETATM   17  C13 UNL     1      -5.892   0.719  -1.112  1.00  0.00     0.371 A 
HETATM   18  C12 UNL     1      -6.151  -0.597  -0.477  1.00  0.00     0.077 A 
HETATM   19  N5  UNL     1      -4.872   0.988  -1.883  1.00  0.00    -0.404 NA
HETATM   20  C14 UNL     1      -3.902  -0.047  -2.134  1.00  0.00     0.076 C 
ENDBRANCH   9  10
ENDBRANCH   7   9
ENDBRANCH   5   7
BRANCH   1  21
HETATM   21  N1  UNL     1       3.341  -0.747   0.463  1.00  0.00    -0.323 N 
HETATM   22  C1  UNL     1       3.954  -0.943  -0.797  1.00  0.00     0.256 C 
HETATM   23  O1  UNL     1       3.319  -1.675  -1.593  1.00  0.00    -0.267 OA
HETATM   24  H1  UNL     1       3.702  -0.177   1.259  1.00  0.00     0.169 HD
BRANCH  22  25
HETATM   25  C17 UNL     1       5.235  -0.283  -1.028  1.00  0.00     0.032 A 
HETATM   26  C18 UNL     1       5.954   0.525  -0.173  1.00  0.00     0.017 A 
HETATM   27  C19 UNL     1       7.157   1.053  -0.595  1.00  0.00     0.001 A 
HETATM   28  C20 UNL     1       7.684   0.804  -1.858  1.00  0.00     0.000 A 
HETATM   29  C21 UNL     1       6.985  -0.001  -2.731  1.00  0.00     0.001 A 
HETATM   30  C22 UNL     1       5.769  -0.530  -2.295  1.00  0.00     0.017 A 
ENDBRANCH  22  25
ENDBRANCH   1  21
TORSDOF 5
