REMARK  3 active torsions:
REMARK  status: ('A' for Active; 'I' for Inactive)
REMARK    1  A    between atoms: N3_10  and  C8_11 
REMARK    2  A    between atoms: C12_15  and  N4_16 
REMARK       I    between atoms: N4_16  and  C13_17 
REMARK    3  A    between atoms: C13_17  and  C14_19 
ROOT
HETATM    1  C8  UNL     1       0.465   0.385  -1.557  1.00  0.00     0.154 A 
HETATM    2  C9  UNL     1       1.065   1.679  -2.089  1.00  0.00     0.001 A 
HETATM    3  C10 UNL     1       0.195   2.680  -2.064  1.00  0.00     0.000 A 
HETATM    4  C11 UNL     1      -1.066   2.151  -1.515  1.00  0.00     0.027 A 
HETATM    5  C12 UNL     1      -0.897   0.867  -1.239  1.00  0.00     0.035 A 
ENDROOT
BRANCH   1   6
HETATM    6  N3  UNL     1       1.183   0.076  -0.361  1.00  0.00    -0.194 NA
HETATM    7  C7  UNL     1       0.998  -1.279   0.127  1.00  0.00     0.263 C 
HETATM    8  N2  UNL     1       2.051  -2.195  -0.279  1.00  0.00    -0.280 NA
HETATM    9  C6  UNL     1       3.266  -1.832  -0.442  1.00  0.00     0.031 C 
HETATM   10  C5  UNL     1       4.519  -2.282   0.139  1.00  0.00     0.084 C 
HETATM   11  C20 UNL     1       3.104  -0.661  -1.415  1.00  0.00     0.199 C 
HETATM   12  C4  UNL     1       5.258  -1.211   0.860  1.00  0.00    -0.002 C 
HETATM   13  C3  UNL     1       5.290   0.077   1.261  1.00  0.00     0.115 C 
HETATM   14  N1  UNL     1       4.459   1.171   0.790  1.00  0.00    -0.247 NA
HETATM   15  C2  UNL     1       3.188   1.216   0.464  1.00  0.00     0.112 C 
HETATM   16  C1  UNL     1       2.117   2.147   0.894  1.00  0.00     0.092 C 
HETATM   17  N5  UNL     1       2.555   0.293  -0.406  1.00  0.00    -0.290 N 
ENDBRANCH   1   6
BRANCH   5  18
HETATM   18  N4  UNL     1      -2.045   0.229  -0.712  1.00  0.00    -0.325 N 
HETATM   19  C13 UNL     1      -3.302   0.760  -0.425  1.00  0.00     0.256 C 
HETATM   20  O1  UNL     1      -3.518   1.982  -0.643  1.00  0.00    -0.267 OA
HETATM   21  H14 UNL     1      -2.030  -0.786  -0.487  1.00  0.00     0.169 HD
BRANCH  19  22
HETATM   22  C14 UNL     1      -4.425   0.009   0.119  1.00  0.00     0.032 A 
HETATM   23  C15 UNL     1      -4.399  -1.333   0.427  1.00  0.00     0.017 A 
HETATM   24  C16 UNL     1      -5.459  -2.048   0.943  1.00  0.00     0.001 A 
HETATM   25  C17 UNL     1      -6.650  -1.393   1.179  1.00  0.00     0.000 A 
HETATM   26  C18 UNL     1      -6.724  -0.047   0.886  1.00  0.00     0.001 A 
HETATM   27  C19 UNL     1      -5.637   0.609   0.375  1.00  0.00     0.017 A 
ENDBRANCH  19  22
ENDBRANCH   5  18
TORSDOF 3
