REMARK  8 active torsions:
REMARK  status: ('A' for Active; 'I' for Inactive)
REMARK    1  A    between atoms: O1_1  and  N1_2 
REMARK    2  A    between atoms: N1_2  and  C1_3 
REMARK    3  A    between atoms: N1_2  and  C14_20 
REMARK    4  A    between atoms: C1_3  and  N2_4 
REMARK    5  A    between atoms: C2_5  and  C3_6 
REMARK    6  A    between atoms: C3_6  and  C4_7 
REMARK    7  A    between atoms: C7_11  and  N4_12 
REMARK    8  A    between atoms: N4_12  and  C8_13 
ROOT
HETATM    1  C4  UNL     1      -1.313  -1.966  -0.291  1.00  0.00     0.059 A 
HETATM    2  C5  UNL     1      -1.813  -3.156   0.234  1.00  0.00     0.048 A 
HETATM    3  C6  UNL     1      -3.174  -3.349   0.190  1.00  0.00     0.138 A 
HETATM    4  N3  UNL     1      -3.997  -2.423  -0.341  1.00  0.00    -0.075 NA
HETATM    5  C7  UNL     1      -3.510  -1.272  -0.848  1.00  0.00     0.727 A 
HETATM    6  N5  UNL     1      -2.189  -1.082  -0.806  1.00  0.00    -0.067 NA
ENDROOT
BRANCH   1   7
HETATM    7  C3  UNL     1       0.167  -1.722  -0.259  1.00  0.00     0.106 C 
BRANCH   7   8
HETATM    8  C2  UNL     1       0.547  -1.026   1.017  1.00  0.00     0.091 C 
HETATM    9  N2  UNL     1       1.687  -0.447   1.083  1.00  0.00    -0.283 NA
BRANCH   9  10
HETATM   10  C1  UNL     1       2.524  -0.509  -0.083  1.00  0.00     0.303 C 
BRANCH  10  11
HETATM   11  N1  UNL     1       3.932  -0.481   0.283  1.00  0.00    -0.241 N 
BRANCH  11  12
HETATM   12  O1  UNL     1       4.176  -1.566   1.081  1.00  0.00    -0.286 OA
HETATM   13  H1  UNL     1       4.171  -2.393   0.509  1.00  0.00     0.245 HD
ENDBRANCH  11  12
BRANCH  11  14
HETATM   14  C14 UNL     1       4.997   0.413  -0.029  1.00  0.00     0.059 A 
HETATM   15  C15 UNL     1       6.269   0.174   0.479  1.00  0.00     0.031 A 
HETATM   16  C16 UNL     1       7.204   1.113   0.101  1.00  0.00     0.002 A 
HETATM   17  C17 UNL     1       7.037   2.215  -0.688  1.00  0.00     0.000 A 
HETATM   18  C18 UNL     1       5.734   2.394  -1.164  1.00  0.00     0.002 A 
HETATM   19  C19 UNL     1       4.728   1.499  -0.835  1.00  0.00     0.031 A 
ENDBRANCH  11  14
ENDBRANCH  10  11
ENDBRANCH   9  10
ENDBRANCH   7   8
ENDBRANCH   1   7
BRANCH   5  20
HETATM   20  N4  UNL     1      -4.397  -0.307  -1.404  1.00  0.00    -0.188 N 
HETATM   21  H9  UNL     1      -4.586  -0.425  -2.444  1.00  0.00     0.184 HD
BRANCH  20  22
HETATM   22  C8  UNL     1      -4.957   0.704  -0.607  1.00  0.00     0.049 A 
HETATM   23  C9  UNL     1      -4.602   0.706   0.725  1.00  0.00     0.030 A 
HETATM   24  C10 UNL     1      -5.151   1.704   1.527  1.00  0.00     0.002 A 
HETATM   25  C11 UNL     1      -6.019   2.652   0.991  1.00  0.00     0.000 A 
HETATM   26  C12 UNL     1      -6.347   2.609  -0.359  1.00  0.00     0.002 A 
HETATM   27  C13 UNL     1      -5.813   1.622  -1.185  1.00  0.00     0.030 A 
ENDBRANCH  20  22
ENDBRANCH   5  20
TORSDOF 8
