REMARK  6 active torsions:
REMARK  status: ('A' for Active; 'I' for Inactive)
REMARK    1  A    between atoms: N1_2  and  C2_3 
REMARK    2  A    between atoms: C3_4  and  N2_5 
REMARK    3  A    between atoms: N2_5  and  C4_6 
REMARK    4  A    between atoms: C11_15  and  O1_16 
REMARK    5  A    between atoms: O1_16  and  C12_17 
REMARK    6  A    between atoms: C14_19  and  O2_20 
ROOT
HETATM    1  C2  UNL     1       0.219  -0.603   0.014  1.00  0.00     0.128 A 
HETATM    2  C3  UNL     1       1.306  -1.189   0.703  1.00  0.00     0.160 A 
HETATM    3  N3  UNL     1       0.977  -2.363   1.047  1.00  0.00    -0.222 NA
HETATM    4  C10 UNL     1       0.004  -3.198   0.986  1.00  0.00     0.238 A 
HETATM    5  N4  UNL     1      -0.941  -2.574   0.335  1.00  0.00    -0.215 NA
HETATM    6  C11 UNL     1      -0.976  -1.338  -0.185  1.00  0.00     0.202 A 
ENDROOT
BRANCH   2   7
HETATM    7  N2  UNL     1       2.505  -0.540   0.924  1.00  0.00    -0.339 N 
HETATM    8  H5  UNL     1       2.793  -0.927  -0.037  1.00  0.00     0.167 HD
BRANCH   7   9
HETATM    9  C4  UNL     1       3.716   0.106   1.127  1.00  0.00     0.033 A 
HETATM   10  C5  UNL     1       4.776   0.484   0.296  1.00  0.00     0.029 A 
HETATM   11  C6  UNL     1       5.863   1.143   0.772  1.00  0.00     0.002 A 
HETATM   12  C7  UNL     1       5.841   1.402   2.097  1.00  0.00     0.000 A 
HETATM   13  C8  UNL     1       4.896   1.102   3.031  1.00  0.00     0.002 A 
HETATM   14  C9  UNL     1       3.783   0.417   2.499  1.00  0.00     0.029 A 
ENDBRANCH   7   9
ENDBRANCH   2   7
BRANCH   1  15
HETATM   15  N1  UNL     1       0.237   0.761  -0.433  1.00  0.00    -0.388 N 
HETATM   16  C1  UNL     1       1.125   1.883  -0.320  1.00  0.00     0.146 C 
HETATM   17  H4  UNL     1      -0.559   1.091  -0.971  1.00  0.00     0.159 HD
ENDBRANCH   1  15
BRANCH   6  18
HETATM   18  O1  UNL     1      -1.967  -0.712  -0.854  1.00  0.00    -0.289 OA
BRANCH  18  19
HETATM   19  C12 UNL     1      -3.176  -1.207  -1.167  1.00  0.00     0.092 A 
HETATM   20  C13 UNL     1      -3.719  -0.002  -1.035  1.00  0.00     0.047 A 
HETATM   21  C14 UNL     1      -5.031  -0.005  -1.262  1.00  0.00     0.082 A 
HETATM   22  C16 UNL     1      -5.337  -1.397  -1.588  1.00  0.00     0.040 A 
HETATM   23  C17 UNL     1      -4.225  -2.161  -1.541  1.00  0.00     0.041 A 
BRANCH  21  24
HETATM   24  O2  UNL     1      -6.123   0.799  -1.294  1.00  0.00    -0.355 OA
HETATM   25  C15 UNL     1      -6.498   1.507  -2.461  1.00  0.00     0.210 C 
ENDBRANCH  21  24
ENDBRANCH  18  19
ENDBRANCH   6  18
TORSDOF 6
