REMARK  4 active torsions:
REMARK  status: ('A' for Active; 'I' for Inactive)
REMARK       I    between atoms: C1_2  and  N1_3 
REMARK    1  A    between atoms: C1_2  and  C17_22 
REMARK    2  A    between atoms: N1_3  and  C2_4 
REMARK    3  A    between atoms: C6_8  and  C7_9 
REMARK    4  A    between atoms: C10_13  and  C11_14 
ROOT
HETATM    1  C2  UNL     1      -1.313  -0.645  -1.981  1.00  0.00     0.035 A 
HETATM    2  C3  UNL     1      -0.856  -1.187  -3.157  1.00  0.00     0.029 A 
HETATM    3  C4  UNL     1       0.451  -1.004  -3.552  1.00  0.00     0.003 A 
HETATM    4  C5  UNL     1       1.324  -0.288  -2.800  1.00  0.00     0.015 A 
HETATM    5  C6  UNL     1       0.946   0.293  -1.604  1.00  0.00     0.012 A 
HETATM    6  C16 UNL     1      -0.390   0.071  -1.257  1.00  0.00     0.044 A 
ENDROOT
BRANCH   5   7
HETATM    7  C7  UNL     1       1.841   1.074  -0.737  1.00  0.00     0.134 A 
HETATM    8  N2  UNL     1       1.197   2.044  -0.189  1.00  0.00    -0.243 NA
HETATM    9  C8  UNL     1       1.868   2.950   0.709  1.00  0.00     0.117 A 
HETATM   10  C9  UNL     1       3.146   2.657   0.875  1.00  0.00     0.022 A 
HETATM   11  C10 UNL     1       4.038   1.605   0.342  1.00  0.00     0.142 A 
HETATM   12  N4  UNL     1       3.220   0.792  -0.538  1.00  0.00    -0.362 N 
HETATM   13  H12 UNL     1       3.509  -0.034  -1.092  1.00  0.00     0.162 HD
BRANCH  11  14
HETATM   14  C11 UNL     1       4.601   0.754   1.419  1.00  0.00    -0.014 A 
HETATM   15  C12 UNL     1       5.921   0.789   1.846  1.00  0.00     0.012 A 
HETATM   16  C13 UNL     1       6.235  -0.091   2.873  1.00  0.00     0.020 A 
HETATM   17  C14 UNL     1       5.298  -0.935   3.422  1.00  0.00     0.116 A 
HETATM   18  N3  UNL     1       4.014  -0.947   2.982  1.00  0.00    -0.272 NA
HETATM   19  C15 UNL     1       3.672  -0.096   1.976  1.00  0.00     0.125 A 
ENDBRANCH  11  14
ENDBRANCH   5   7
BRANCH   1  20
HETATM   20  N1  UNL     1      -2.650  -0.836  -1.568  1.00  0.00    -0.323 N 
HETATM   21  C1  UNL     1      -3.412  -0.437  -0.472  1.00  0.00     0.256 C 
HETATM   22  O1  UNL     1      -2.782   0.267   0.399  1.00  0.00    -0.267 OA
HETATM   23  H1  UNL     1      -3.265  -1.419  -2.213  1.00  0.00     0.169 HD
BRANCH  21  24
HETATM   24  C17 UNL     1      -4.810  -0.715  -0.194  1.00  0.00     0.032 A 
HETATM   25  C18 UNL     1      -5.622  -1.254  -1.211  1.00  0.00     0.017 A 
HETATM   26  C19 UNL     1      -6.909  -1.481  -0.798  1.00  0.00     0.001 A 
HETATM   27  C20 UNL     1      -7.515  -1.270   0.417  1.00  0.00     0.000 A 
HETATM   28  C21 UNL     1      -6.624  -0.743   1.318  1.00  0.00     0.001 A 
HETATM   29  C22 UNL     1      -5.293  -0.447   1.093  1.00  0.00     0.017 A 
ENDBRANCH  21  24
ENDBRANCH   1  20
TORSDOF 4
