REMARK  5 active torsions:
REMARK  status: ('A' for Active; 'I' for Inactive)
REMARK    1  A    between atoms: C1_2  and  C2_3 
REMARK    2  A    between atoms: C1_2  and  C3_5 
REMARK    3  A    between atoms: C6_8  and  C7_9 
REMARK    4  A    between atoms: C10_13  and  C11_14 
REMARK    5  A    between atoms: C11_14  and  C12_15 
ROOT
HETATM    1  C7  UNL     1       0.683  -0.761  -0.182  1.00  0.00     0.156 A 
HETATM    2  N1  UNL     1       0.980  -1.794   0.626  1.00  0.00    -0.241 NA
HETATM    3  C8  UNL     1       0.058  -2.306   1.462  1.00  0.00     0.121 A 
HETATM    4  C9  UNL     1      -1.199  -1.712   1.439  1.00  0.00     0.051 A 
HETATM    5  C10 UNL     1      -1.546  -0.647   0.624  1.00  0.00     0.062 A 
HETATM    6  N4  UNL     1      -0.545  -0.225  -0.163  1.00  0.00    -0.229 NA
ENDROOT
BRANCH   1   7
HETATM    7  C6  UNL     1       1.694  -0.223  -1.077  1.00  0.00    -0.006 A 
HETATM    8  C5  UNL     1       1.507   0.920  -2.020  1.00  0.00     0.070 A 
HETATM    9  C4  UNL     1       2.828   1.025  -2.652  1.00  0.00    -0.007 A 
HETATM   10  C3  UNL     1       3.601   0.091  -2.135  1.00  0.00     0.008 A 
HETATM   11  C16 UNL     1       2.906  -0.707  -1.140  1.00  0.00     0.026 A 
BRANCH  10  12
HETATM   12  C1  UNL     1       4.971  -0.089  -2.533  1.00  0.00     0.169 C 
HETATM   13  O1  UNL     1       5.641  -1.017  -1.980  1.00  0.00    -0.292 OA
BRANCH  12  14
HETATM   14  C2  UNL     1       5.955   0.492  -3.450  1.00  0.00     0.169 C 
HETATM   15 BR1  UNL     1       5.227   1.947  -4.476  1.00  0.00    -0.088 Br
ENDBRANCH  12  14
ENDBRANCH  10  12
ENDBRANCH   1   7
BRANCH   5  16
HETATM   16  C11 UNL     1      -2.865  -0.040   0.637  1.00  0.00     0.061 C 
BRANCH  16  17
HETATM   17  C12 UNL     1      -3.693   0.301   1.586  1.00  0.00     0.036 A 
HETATM   18  C13 UNL     1      -3.487   0.147   3.019  1.00  0.00     0.049 A 
HETATM   19  C14 UNL     1      -4.341   0.491   3.956  1.00  0.00     0.120 A 
HETATM   20  N2  UNL     1      -5.572   1.063   3.545  1.00  0.00    -0.256 NA
HETATM   21  C15 UNL     1      -5.844   1.239   2.281  1.00  0.00     0.207 A 
HETATM   22  N3  UNL     1      -4.942   0.877   1.257  1.00  0.00    -0.351 N 
HETATM   23  H12 UNL     1      -5.229   1.049   0.267  1.00  0.00     0.166 HD
ENDBRANCH  16  17
ENDBRANCH   5  16
TORSDOF 5
