REMARK  6 active torsions:
REMARK  status: ('A' for Active; 'I' for Inactive)
REMARK    1  A    between atoms: S1_2  and  C2_3 
REMARK    2  A    between atoms: C2_3  and  C3_4 
REMARK    3  A    between atoms: C3_4  and  C4_5 
REMARK    4  A    between atoms: C4_5  and  C5_6 
REMARK    5  A    between atoms: C8_10  and  N2_11 
REMARK    6  A    between atoms: C13_16  and  C14_17 
ROOT
HETATM    1  N2  UNL     1      -0.540   1.660  -1.409  1.00  0.00    -0.194 N 
HETATM    2  C9  UNL     1      -1.595   0.854  -1.088  1.00  0.00     0.028 A 
HETATM    3  C10 UNL     1      -2.228  -0.344  -0.910  1.00  0.00     0.084 A 
HETATM    4  C11 UNL     1      -3.507  -0.610  -0.511  1.00  0.00     0.051 A 
HETATM    5  C12 UNL     1      -4.778  -0.333  -0.110  1.00  0.00    -0.014 A 
HETATM    6  C13 UNL     1      -4.179   0.885  -0.276  1.00  0.00     0.058 A 
HETATM    7  C14 UNL     1      -2.851   0.878  -0.693  1.00  0.00     0.047 A 
HETATM    8  C15 UNL     1      -2.773   2.231  -0.060  1.00  0.00    -0.009 C 
HETATM    9  C16 UNL     1      -2.548   2.025   1.266  1.00  0.00    -0.006 C 
HETATM   10  C17 UNL     1      -2.369   0.769   2.089  1.00  0.00    -0.020 C 
HETATM   11  C18 UNL     1      -2.376  -0.367   1.407  1.00  0.00     0.035 C 
HETATM   12  C19 UNL     1      -2.337  -1.823   0.990  1.00  0.00     0.126 C 
HETATM   13  N3  UNL     1      -3.409  -2.014  -0.060  1.00  0.00    -0.404 N 
HETATM   14  C20 UNL     1      -4.217  -2.967  -0.782  1.00  0.00     0.144 C 
HETATM   15  H10 UNL     1      -0.727   2.674  -1.346  1.00  0.00     0.184 HD
ENDROOT
BRANCH   1  16
HETATM   16  C8  UNL     1       0.461   0.715  -1.726  1.00  0.00     0.726 A 
HETATM   17  N1  UNL     1       0.714   0.171  -2.941  1.00  0.00    -0.075 NA
HETATM   18  C7  UNL     1       1.719  -0.736  -3.054  1.00  0.00     0.138 A 
HETATM   19  C6  UNL     1       2.481  -1.103  -1.936  1.00  0.00     0.048 A 
HETATM   20  C5  UNL     1       2.190  -0.522  -0.714  1.00  0.00     0.058 A 
HETATM   21  N4  UNL     1       1.174   0.389  -0.622  1.00  0.00    -0.067 NA
BRANCH  20  22
HETATM   22  C4  UNL     1       3.048  -0.989   0.397  1.00  0.00     0.087 C 
BRANCH  22  23
HETATM   23  C3  UNL     1       4.321  -0.212   0.334  1.00  0.00    -0.014 C 
BRANCH  23  24
HETATM   24  C2  UNL     1       5.345   0.568   0.101  1.00  0.00     0.041 C 
BRANCH  24  25
HETATM   25  S1  UNL     1       7.007   1.157   0.515  1.00  0.00    -0.146 SA
HETATM   26  C1  UNL     1       7.389   0.738   2.248  1.00  0.00     0.095 C 
ENDBRANCH  24  25
ENDBRANCH  23  24
ENDBRANCH  22  23
ENDBRANCH  20  22
ENDBRANCH   1  16
TORSDOF 6
