REMARK  7 active torsions:
REMARK  status: ('A' for Active; 'I' for Inactive)
REMARK    1  A    between atoms: C5_5  and  N1_6 
REMARK       I    between atoms: N1_6  and  C6_7 
REMARK    2  A    between atoms: C6_7  and  C7_9 
REMARK    3  A    between atoms: C14_16  and  N2_17 
REMARK    4  A    between atoms: N4_20  and  C16_21 
REMARK    5  A    between atoms: C16_21  and  C17_22 
REMARK    6  A    between atoms: C17_22  and  C18_23 
REMARK    7  A    between atoms: C18_23  and  C19_24 
ROOT
HETATM    1  C1  UNL     1      -0.448  -2.091   2.959  1.00  0.00     0.050 C 
HETATM    2  C2  UNL     1       0.698  -1.339   2.333  1.00  0.00    -0.033 A 
HETATM    3  C3  UNL     1       1.942  -1.643   2.900  1.00  0.00     0.011 A 
HETATM    4  C4  UNL     1       3.066  -1.010   2.412  1.00  0.00     0.030 A 
HETATM    5  C5  UNL     1       2.903  -0.104   1.386  1.00  0.00     0.037 A 
HETATM    6  C13 UNL     1       1.687   0.205   0.819  1.00  0.00     0.062 A 
HETATM    7  C14 UNL     1       0.552  -0.415   1.289  1.00  0.00     0.083 A 
ENDROOT
BRANCH   7   8
HETATM    8  N2  UNL     1      -0.810  -0.302   0.898  1.00  0.00    -0.068 N 
HETATM    9  N3  UNL     1      -1.965   0.376   1.418  1.00  0.00    -0.107 N 
HETATM   10  C15 UNL     1      -2.005  -0.426   0.227  1.00  0.00     0.741 A 
HETATM   11  H13 UNL     1      -2.526   0.976   2.068  1.00  0.00     0.207 HD
HETATM   12  N4  UNL     1      -2.641  -0.928  -0.802  1.00  0.00    -0.074 NA
BRANCH  12  13
HETATM   13  C16 UNL     1      -4.038  -0.618  -0.886  1.00  0.00     0.132 C 
BRANCH  13  14
HETATM   14  C17 UNL     1      -5.208  -0.520  -0.282  1.00  0.00    -0.002 C 
BRANCH  14  15
HETATM   15  C18 UNL     1      -6.619  -0.328   0.139  1.00  0.00     0.074 C 
BRANCH  15  16
HETATM   16  C19 UNL     1      -7.395   0.123  -1.026  1.00  0.00    -0.014 A 
HETATM   17  C20 UNL     1      -7.559   1.387  -1.462  1.00  0.00     0.015 A 
HETATM   18  C21 UNL     1      -8.327   1.641  -2.574  1.00  0.00     0.008 A 
HETATM   19  C22 UNL     1      -8.907   0.486  -3.195  1.00  0.00     0.050 A 
HETATM   20  S1  UNL     1      -8.303  -0.922  -2.123  1.00  0.00    -0.106 SA
ENDBRANCH  15  16
ENDBRANCH  14  15
ENDBRANCH  13  14
ENDBRANCH  12  13
ENDBRANCH   7   8
BRANCH   5  21
HETATM   21  N1  UNL     1       4.059   0.549   0.882  1.00  0.00    -0.323 N 
HETATM   22  C6  UNL     1       4.779  -0.093  -0.189  1.00  0.00     0.256 C 
HETATM   23  O1  UNL     1       4.246  -1.169  -0.523  1.00  0.00    -0.267 OA
HETATM   24  H6  UNL     1       4.367   1.463   1.284  1.00  0.00     0.169 HD
BRANCH  22  25
HETATM   25  C7  UNL     1       5.970   0.520  -0.743  1.00  0.00     0.032 A 
HETATM   26  C8  UNL     1       6.508   1.727  -0.409  1.00  0.00     0.017 A 
HETATM   27  C9  UNL     1       7.647   2.272  -0.948  1.00  0.00     0.001 A 
HETATM   28  C10 UNL     1       8.296   1.525  -1.910  1.00  0.00     0.000 A 
HETATM   29  C11 UNL     1       7.831   0.293  -2.315  1.00  0.00     0.001 A 
HETATM   30  C12 UNL     1       6.668  -0.199  -1.725  1.00  0.00     0.017 A 
ENDBRANCH  22  25
ENDBRANCH   5  21
TORSDOF 7
