REMARK  10 active torsions:
REMARK  status: ('A' for Active; 'I' for Inactive)
REMARK    1  A    between atoms: C5_5  and  C6_6 
REMARK    2  A    between atoms: C6_6  and  C7_7 
REMARK    3  A    between atoms: C8_8  and  C9_9 
REMARK    4  A    between atoms: C10_10  and  O1_11 
REMARK    5  A    between atoms: N1_12  and  O2_13 
REMARK    6  A    between atoms: O2_13  and  C11_14 
REMARK    7  A    between atoms: C11_14  and  C12_15 
REMARK    8  A    between atoms: C12_15  and  C13_16 
REMARK    9  A    between atoms: C12_15  and  C15_19 
REMARK   10  A    between atoms: C14_17  and  N2_18 
ROOT
HETATM    1  C1  UNL     1       2.346  -4.240   1.389  1.00  0.00     0.045 C 
HETATM    2  C2  UNL     1       2.074  -2.874   0.880  1.00  0.00    -0.064 A 
HETATM    3  C3  UNL     1       3.088  -2.032   1.006  1.00  0.00     0.006 A 
HETATM    4  C4  UNL     1       2.799  -0.687   0.496  1.00  0.00     0.027 A 
HETATM    5  C5  UNL     1       1.660  -0.294  -0.046  1.00  0.00     0.038 A 
HETATM    6  N1  UNL     1       0.601  -1.248  -0.158  1.00  0.00    -0.259 N 
HETATM    7  C19 UNL     1       0.752  -2.606   0.308  1.00  0.00     0.189 A 
ENDROOT
BRANCH   6   8
HETATM    8  O2  UNL     1      -0.554  -0.845  -0.716  1.00  0.00    -0.277 OA
BRANCH   8   9
HETATM    9  C11 UNL     1      -1.671  -1.051   0.094  1.00  0.00     0.215 C 
BRANCH   9  10
HETATM   10  C12 UNL     1      -2.850  -0.517  -0.686  1.00  0.00     0.075 C 
BRANCH  10  11
HETATM   11  C13 UNL     1      -2.602   0.928  -0.939  1.00  0.00    -0.004 C 
HETATM   12  C14 UNL     1      -2.399   1.502   0.217  1.00  0.00     0.051 C 
BRANCH  12  13
HETATM   13  N2  UNL     1      -2.116   2.780   0.752  1.00  0.00    -0.312 NA
HETATM   14  H18 UNL     1      -1.828   3.377  -0.076  1.00  0.00     0.123 HD
HETATM   15  H19 UNL     1      -1.830   3.366  -0.086  1.00  0.00     0.123 HD
ENDBRANCH  12  13
ENDBRANCH  10  11
BRANCH  10  16
HETATM   16  C15 UNL     1      -4.123  -0.703  -0.076  1.00  0.00    -0.008 A 
HETATM   17  C16 UNL     1      -5.231  -1.399  -0.447  1.00  0.00     0.016 A 
HETATM   18  C17 UNL     1      -6.365  -1.438   0.312  1.00  0.00     0.008 A 
HETATM   19  C18 UNL     1      -6.278  -0.644   1.593  1.00  0.00     0.050 A 
HETATM   20  S1  UNL     1      -4.523   0.066   1.516  1.00  0.00    -0.106 SA
ENDBRANCH  10  16
ENDBRANCH   9  10
ENDBRANCH   8   9
ENDBRANCH   6   8
BRANCH   5  21
HETATM   21  C6  UNL     1       1.429   1.098  -0.547  1.00  0.00     0.086 C 
BRANCH  21  22
HETATM   22  C7  UNL     1       2.620   1.927  -0.353  1.00  0.00    -0.021 C 
HETATM   23  C8  UNL     1       3.381   2.576  -1.227  1.00  0.00    -0.002 C 
BRANCH  23  24
HETATM   24  C9  UNL     1       4.549   3.364  -0.822  1.00  0.00     0.023 C 
HETATM   25  C10 UNL     1       5.226   3.963  -1.771  1.00  0.00     0.131 C 
BRANCH  25  26
HETATM   26  O1  UNL     1       4.512   3.585  -2.880  1.00  0.00    -0.373 OA
HETATM   27  H12 UNL     1       3.857   4.176  -3.349  1.00  0.00     0.216 HD
ENDBRANCH  25  26
ENDBRANCH  23  24
ENDBRANCH  21  22
ENDBRANCH   5  21
TORSDOF 10
