REMARK  6 active torsions:
REMARK  status: ('A' for Active; 'I' for Inactive)
REMARK    1  A    between atoms: C1_2  and  C2_3 
REMARK       I    between atoms: C1_2  and  N1_10 
REMARK    2  A    between atoms: C2_3  and  C3_4 
REMARK    3  A    between atoms: N1_10  and  C9_11 
REMARK    4  A    between atoms: C12_14  and  N2_15 
REMARK    5  A    between atoms: N2_15  and  C13_16 
REMARK    6  A    between atoms: C16_20  and  C17_21 
ROOT
HETATM    1  C9  UNL     1       0.590   1.275   0.966  1.00  0.00     0.032 A 
HETATM    2  C10 UNL     1       0.302   2.162   1.853  1.00  0.00     0.003 A 
HETATM    3  C11 UNL     1      -0.312   3.041   0.874  1.00  0.00     0.061 A 
HETATM    4  C12 UNL     1       0.017   2.020  -0.143  1.00  0.00     0.152 A 
ENDROOT
BRANCH   4   5
HETATM    5  N2  UNL     1      -1.103   1.359  -0.813  1.00  0.00    -0.212 N 
HETATM    6  H13 UNL     1      -1.028   1.162  -1.833  1.00  0.00     0.178 HD
BRANCH   5   7
HETATM    7  C13 UNL     1      -2.279   0.982  -0.114  1.00  0.00     0.723 A 
HETATM    8  N3  UNL     1      -2.494   1.175   1.197  1.00  0.00    -0.075 NA
HETATM    9  C14 UNL     1      -3.615   0.811   1.839  1.00  0.00     0.139 A 
HETATM   10  C15 UNL     1      -4.637   0.196   1.145  1.00  0.00     0.053 A 
HETATM   11  C16 UNL     1      -4.430  -0.009  -0.203  1.00  0.00     0.094 A 
HETATM   12  N4  UNL     1      -3.277   0.387  -0.767  1.00  0.00    -0.062 NA
BRANCH  11  13
HETATM   13  C17 UNL     1      -5.407  -0.652  -1.117  1.00  0.00     0.034 A 
HETATM   14  C18 UNL     1      -6.608  -1.128  -0.817  1.00  0.00     0.021 A 
HETATM   15  C19 UNL     1      -7.408  -1.695  -1.744  1.00  0.00     0.008 A 
HETATM   16  C20 UNL     1      -6.881  -1.742  -3.032  1.00  0.00     0.050 A 
HETATM   17  S1  UNL     1      -5.191  -0.934  -2.834  1.00  0.00    -0.100 SA
ENDBRANCH  11  13
ENDBRANCH   5   7
ENDBRANCH   4   5
BRANCH   1  18
HETATM   18  N1  UNL     1       1.258   0.057   1.284  1.00  0.00    -0.329 N 
HETATM   19  C1  UNL     1       2.492  -0.085   0.599  1.00  0.00     0.226 C 
HETATM   20  O1  UNL     1       2.942   0.789  -0.209  1.00  0.00    -0.273 OA
HETATM   21  H8  UNL     1       1.006  -0.731   1.916  1.00  0.00     0.168 HD
BRANCH  19  22
HETATM   22  C2  UNL     1       3.441  -1.224   0.693  1.00  0.00     0.138 C 
BRANCH  22  23
HETATM   23  C3  UNL     1       4.579  -0.899  -0.213  1.00  0.00    -0.057 C 
HETATM   24  C4  UNL     1       5.073  -1.500  -1.261  1.00  0.00    -0.023 C 
HETATM   25  C5  UNL     1       6.303  -1.948  -1.209  1.00  0.00     0.012 C 
HETATM   26  C6  UNL     1       7.254  -1.190  -0.369  1.00  0.00    -0.003 C 
HETATM   27  C7  UNL     1       6.793  -0.088   0.238  1.00  0.00    -0.022 C 
HETATM   28  C8  UNL     1       5.362   0.332   0.052  1.00  0.00     0.062 C 
ENDBRANCH  22  23
ENDBRANCH  19  22
ENDBRANCH   1  18
TORSDOF 6
