REMARK  5 active torsions:
REMARK  status: ('A' for Active; 'I' for Inactive)
REMARK    1  A    between atoms: P1_7  and  N2_8 
REMARK    2  A    between atoms: N2_8  and  C6_9 
REMARK    3  A    between atoms: C15_20  and  C16_21 
REMARK    4  A    between atoms: C16_21  and  C17_22 
REMARK    5  A    between atoms: C17_22  and  O2_23 
ROOT
HETATM    1  C1  UNL     1       3.814   0.583  -0.093  1.00  0.00     0.017 C 
HETATM    2  C2  UNL     1       2.586   0.068  -0.288  1.00  0.00     0.014 A 
HETATM    3  C3  UNL     1       1.861   1.348  -0.631  1.00  0.00     0.232 C 
HETATM    4  N1  UNL     1       0.802   1.536   0.416  1.00  0.00    -0.105 N 
HETATM    5  C4  UNL     1      -0.442   0.868   1.034  1.00  0.00     0.614 A 
HETATM    6  C5  UNL     1      -1.456   0.565   0.179  1.00  0.00    -0.004 A 
HETATM    7  P1  UNL     1      -2.275  -0.079   1.640  1.00  0.00    -0.003 P 
HETATM    8  C12 UNL     1      -1.128   0.995  -1.199  1.00  0.00     0.181 C 
HETATM    9  N3  UNL     1      -0.968  -0.094  -2.067  1.00  0.00    -0.316 NA
HETATM   10  C13 UNL     1      -0.491  -1.229  -2.042  1.00  0.00     0.155 C 
HETATM   11  O1  UNL     1      -0.004  -1.243  -0.622  1.00  0.00     0.000 OA
HETATM   12  C14 UNL     1       1.354  -0.713  -0.430  1.00  0.00     0.039 A 
HETATM   13  C15 UNL     1       2.271  -1.479  -0.173  1.00  0.00    -0.061 A 
HETATM   14  H5  UNL     1       1.134   2.563   0.705  1.00  0.00     0.261 HD
HETATM   15  H7  UNL     1      -1.602  -0.142   2.873  1.00  0.00     0.081 HD
ENDROOT
BRANCH   7  16
HETATM   16  N2  UNL     1      -3.995   0.440   1.800  1.00  0.00    -0.366 N 
HETATM   17  H8  UNL     1      -4.299   0.586   2.821  1.00  0.00     0.164 HD
BRANCH  16  18
HETATM   18  C6  UNL     1      -4.673   0.567   0.564  1.00  0.00     0.031 A 
HETATM   19  C7  UNL     1      -4.522   1.835  -0.015  1.00  0.00     0.029 A 
HETATM   20  C8  UNL     1      -5.117   2.096  -1.284  1.00  0.00     0.002 A 
HETATM   21  C9  UNL     1      -5.836   1.132  -1.939  1.00  0.00     0.000 A 
HETATM   22  C10 UNL     1      -5.898  -0.029  -1.264  1.00  0.00     0.002 A 
HETATM   23  C11 UNL     1      -5.419  -0.451  -0.111  1.00  0.00     0.029 A 
ENDBRANCH  16  18
ENDBRANCH   7  16
BRANCH  13  24
HETATM   24  C16 UNL     1       3.402  -2.339   0.114  1.00  0.00     0.028 C 
BRANCH  24  25
HETATM   25  C17 UNL     1       4.664  -2.769   0.244  1.00  0.00     0.134 C 
BRANCH  25  26
HETATM   26  O2  UNL     1       5.689  -1.872  -0.113  1.00  0.00    -0.368 OA
HETATM   27  C18 UNL     1       6.843  -1.626   0.706  1.00  0.00     0.208 C 
ENDBRANCH  25  26
ENDBRANCH  24  25
ENDBRANCH  13  24
TORSDOF 5
