REMARK  5 active torsions:
REMARK  status: ('A' for Active; 'I' for Inactive)
REMARK    1  A    between atoms: O1_2  and  C2_3 
REMARK    2  A    between atoms: C7_8  and  C8_9 
REMARK       I    between atoms: C8_9  and  N1_11 
REMARK    3  A    between atoms: N1_11  and  C9_12 
REMARK    4  A    between atoms: C14_17  and  N2_18 
REMARK    5  A    between atoms: C17_21  and  C18_22 
ROOT
HETATM    1  C9  UNL     1      -1.720  -1.468   0.574  1.00  0.00     0.037 A 
HETATM    2  C10 UNL     1      -1.651  -2.764   1.035  1.00  0.00     0.030 A 
HETATM    3  C11 UNL     1      -0.500  -3.461   1.325  1.00  0.00     0.011 A 
HETATM    4  C12 UNL     1       0.698  -2.808   1.139  1.00  0.00    -0.035 A 
HETATM    5  C13 UNL     1       1.959  -3.549   1.444  1.00  0.00     0.050 C 
HETATM    6  C14 UNL     1       0.720  -1.513   0.682  1.00  0.00     0.043 A 
HETATM    7  C23 UNL     1      -0.479  -0.892   0.417  1.00  0.00     0.059 A 
ENDROOT
BRANCH   6   8
HETATM    8  N2  UNL     1       1.937  -0.808   0.484  1.00  0.00    -0.338 N 
HETATM    9  C15 UNL     1       2.129  -0.438  -0.882  1.00  0.00     0.095 A 
HETATM   10  C16 UNL     1       3.224   0.237  -1.271  1.00  0.00     0.049 A 
HETATM   11  C17 UNL     1       4.204   0.576  -0.248  1.00  0.00     0.065 A 
HETATM   12  N5  UNL     1       4.033   0.243   0.982  1.00  0.00    -0.269 NA
HETATM   13  C22 UNL     1       2.906  -0.477   1.510  1.00  0.00     0.279 A 
BRANCH  11  14
HETATM   14  C18 UNL     1       5.420   1.307  -0.584  1.00  0.00     0.009 A 
HETATM   15  C19 UNL     1       6.327   1.628   0.320  1.00  0.00     0.009 A 
HETATM   16  C20 UNL     1       7.588   2.359   0.111  1.00  0.00     0.169 A 
HETATM   17  N3  UNL     1       7.725   2.702  -1.270  1.00  0.00    -0.311 N 
HETATM   18  N4  UNL     1       6.793   2.383  -2.256  1.00  0.00    -0.191 NA
HETATM   19  H19 UNL     1       8.625   3.222  -1.409  1.00  0.00     0.182 HD
HETATM   20  C21 UNL     1       5.729   1.735  -1.920  1.00  0.00     0.151 A 
ENDBRANCH  11  14
ENDBRANCH   6   8
BRANCH   1  21
HETATM   21  N1  UNL     1      -2.892  -0.742   0.273  1.00  0.00    -0.323 N 
HETATM   22  C8  UNL     1      -4.246  -1.104   0.350  1.00  0.00     0.259 C 
HETATM   23  O2  UNL     1      -4.450  -2.277   0.757  1.00  0.00    -0.267 OA
HETATM   24  H8  UNL     1      -2.723   0.227  -0.063  1.00  0.00     0.169 HD
BRANCH  22  25
HETATM   25  C7  UNL     1      -5.424  -0.322   0.029  1.00  0.00     0.065 A 
HETATM   26  C2  UNL     1      -5.504   0.972  -0.432  1.00  0.00     0.084 A 
HETATM   27  C3  UNL     1      -6.664   1.648  -0.715  1.00  0.00     0.038 A 
HETATM   28  C4  UNL     1      -7.855   0.999  -0.530  1.00  0.00     0.003 A 
HETATM   29  C5  UNL     1      -7.874  -0.297  -0.073  1.00  0.00     0.001 A 
HETATM   30  C6  UNL     1      -6.679  -0.908   0.189  1.00  0.00     0.020 A 
BRANCH  26  31
HETATM   31  O1  UNL     1      -4.319   1.641  -0.624  1.00  0.00    -0.355 OA
HETATM   32  C1  UNL     1      -4.280   2.968  -1.091  1.00  0.00     0.210 C 
ENDBRANCH  26  31
ENDBRANCH  22  25
ENDBRANCH   1  21
TORSDOF 5
