REMARK  3 active torsions:
REMARK  status: ('A' for Active; 'I' for Inactive)
REMARK       I    between atoms: C1_2  and  N1_3 
REMARK    1  A    between atoms: C1_2  and  C16_21 
REMARK    2  A    between atoms: N1_3  and  C2_4 
REMARK    3  A    between atoms: N2_8  and  C6_9 
ROOT
HETATM    1  C2  UNL     1      -1.443  -0.083   0.001  1.00  0.00     0.041 C 
HETATM    2  C3  UNL     1      -1.031   0.881  -0.732  1.00  0.00    -0.002 C 
HETATM    3  C4  UNL     1       0.084   1.527  -0.555  1.00  0.00     0.007 C 
HETATM    4  C5  UNL     1       0.881   1.075   0.640  1.00  0.00     0.153 C 
HETATM    5  N2  UNL     1       0.902  -0.391   0.530  1.00  0.00    -0.356 N 
HETATM    6  C15 UNL     1      -0.430  -1.004   0.625  1.00  0.00     0.182 C 
ENDROOT
BRANCH   5   7
HETATM    7  C6  UNL     1       2.145  -1.057   0.349  1.00  0.00     0.138 C 
HETATM    8  C7  UNL     1       2.731  -0.769  -0.803  1.00  0.00     0.025 C 
HETATM    9  C8  UNL     1       3.974  -0.331  -0.687  1.00  0.00     0.031 C 
HETATM   10  C9  UNL     1       4.771  -0.981   0.377  1.00  0.00     0.013 C 
HETATM   11  C10 UNL     1       6.110  -0.505   0.551  1.00  0.00     0.017 A 
HETATM   12  C14 UNL     1       4.204  -1.928   1.068  1.00  0.00     0.100 C 
HETATM   13  C11 UNL     1       6.990  -0.834  -0.449  1.00  0.00     0.020 A 
HETATM   14  S1  UNL     1       7.121   0.427   1.675  1.00  0.00    -0.101 SA
HETATM   15  C12 UNL     1       8.313  -0.583  -0.657  1.00  0.00     0.008 A 
HETATM   16  C13 UNL     1       8.694   0.250   0.602  1.00  0.00     0.050 A 
HETATM   17  N3  UNL     1       2.936  -1.981   1.126  1.00  0.00    -0.227 NA
ENDBRANCH   5   7
BRANCH   1  18
HETATM   18  N1  UNL     1      -2.825  -0.308   0.240  1.00  0.00    -0.324 N 
HETATM   19  C1  UNL     1      -3.774   0.566  -0.354  1.00  0.00     0.256 C 
HETATM   20  O1  UNL     1      -3.348   1.494  -1.061  1.00  0.00    -0.267 OA
HETATM   21  H1  UNL     1      -3.152  -1.097   0.839  1.00  0.00     0.169 HD
BRANCH  19  22
HETATM   22  C16 UNL     1      -5.214   0.428  -0.175  1.00  0.00     0.032 A 
HETATM   23  C17 UNL     1      -6.013   1.353  -0.815  1.00  0.00     0.017 A 
HETATM   24  C18 UNL     1      -7.403   1.284  -0.690  1.00  0.00     0.001 A 
HETATM   25  C19 UNL     1      -8.019   0.310   0.061  1.00  0.00     0.000 A 
HETATM   26  C20 UNL     1      -7.168  -0.594   0.683  1.00  0.00     0.001 A 
HETATM   27  C21 UNL     1      -5.794  -0.563   0.587  1.00  0.00     0.017 A 
ENDBRANCH  19  22
ENDBRANCH   1  18
TORSDOF 3
