REMARK  7 active torsions:
REMARK  status: ('A' for Active; 'I' for Inactive)
REMARK    1  A    between atoms: C3_3  and  C5_5 
REMARK    2  A    between atoms: C7_7  and  N1_8 
REMARK       I    between atoms: N1_8  and  C8_9 
REMARK    3  A    between atoms: C8_9  and  C9_11 
REMARK    4  A    between atoms: C14_16  and  O2_17 
REMARK    5  A    between atoms: C16_19  and  N2_20 
REMARK    6  A    between atoms: N2_20  and  C17_21 
REMARK    7  A    between atoms: C17_21  and  C18_22 
ROOT
HETATM    1  C5  UNL     1       0.401   3.109  -0.454  1.00  0.00     0.035 C 
HETATM    2  C6  UNL     1      -0.122   1.948  -0.815  1.00  0.00     0.030 C 
HETATM    3  C7  UNL     1       0.335   0.599  -1.136  1.00  0.00     0.138 C 
HETATM    4  C16 UNL     1       1.601   0.160  -0.444  1.00  0.00     0.158 C 
HETATM    5  C23 UNL     1       2.754   1.038  -0.646  1.00  0.00     0.019 C 
HETATM    6  C24 UNL     1       2.913   2.373  -0.593  1.00  0.00     0.086 C 
HETATM    7  N4  UNL     1       1.811   3.253  -0.286  1.00  0.00    -0.366 N 
HETATM    8  H26 UNL     1       2.123   4.154   0.136  1.00  0.00     0.165 HD
ENDROOT
BRANCH   3   9
HETATM    9  N1  UNL     1      -0.674  -0.377  -0.778  1.00  0.00    -0.346 N 
HETATM   10  C8  UNL     1      -1.284  -1.275  -1.658  1.00  0.00     0.255 C 
HETATM   11  O1  UNL     1      -0.820  -1.111  -2.828  1.00  0.00    -0.268 OA
HETATM   12  H10 UNL     1      -0.966  -0.405   0.222  1.00  0.00     0.163 HD
BRANCH  10  13
HETATM   13  C9  UNL     1      -2.287  -2.273  -1.406  1.00  0.00     0.065 A 
HETATM   14  C10 UNL     1      -2.715  -3.038  -2.495  1.00  0.00     0.020 A 
HETATM   15  C11 UNL     1      -3.670  -4.020  -2.366  1.00  0.00     0.001 A 
HETATM   16  C12 UNL     1      -4.254  -4.298  -1.149  1.00  0.00     0.003 A 
HETATM   17  C13 UNL     1      -3.857  -3.564  -0.052  1.00  0.00     0.038 A 
HETATM   18  C14 UNL     1      -2.897  -2.595  -0.242  1.00  0.00     0.084 A 
BRANCH  18  19
HETATM   19  O2  UNL     1      -2.531  -1.885   0.888  1.00  0.00    -0.355 OA
HETATM   20  C15 UNL     1      -3.065  -2.091   2.173  1.00  0.00     0.210 C 
ENDBRANCH  18  19
ENDBRANCH  10  13
ENDBRANCH   3   9
BRANCH   4  21
HETATM   21  N2  UNL     1       1.366  -0.176   0.944  1.00  0.00    -0.289 NA
BRANCH  21  22
HETATM   22  C17 UNL     1       2.142  -0.991   1.538  1.00  0.00     0.124 C 
BRANCH  22  23
HETATM   23  C18 UNL     1       3.240  -1.918   1.768  1.00  0.00    -0.002 A 
HETATM   24  C19 UNL     1       3.302  -2.439   3.036  1.00  0.00     0.016 A 
HETATM   25  C20 UNL     1       4.338  -3.311   3.249  1.00  0.00     0.020 A 
HETATM   26  C21 UNL     1       5.196  -3.578   2.211  1.00  0.00     0.116 A 
HETATM   27  N3  UNL     1       5.095  -3.036   0.967  1.00  0.00    -0.272 NA
HETATM   28  C22 UNL     1       4.084  -2.167   0.710  1.00  0.00     0.129 A 
ENDBRANCH  22  23
ENDBRANCH  21  22
ENDBRANCH   4  21
BRANCH   1  29
HETATM   29  C3  UNL     1      -0.468   4.244  -0.229  1.00  0.00    -0.040 C 
HETATM   30  C2  UNL     1      -0.082   5.455   0.133  1.00  0.00    -0.022 C 
HETATM   31  C1  UNL     1      -1.095   6.505   0.322  1.00  0.00     0.036 C 
HETATM   32  C4  UNL     1      -1.923   4.007  -0.426  1.00  0.00     0.050 C 
ENDBRANCH   1  29
TORSDOF 7
