REMARK  9 active torsions:
REMARK  status: ('A' for Active; 'I' for Inactive)
REMARK    1  A    between atoms: N1_2  and  C2_3 
REMARK    2  A    between atoms: C3_4  and  C4_5 
REMARK    3  A    between atoms: C4_5  and  C5_6 
REMARK    4  A    between atoms: N4_14  and  C11_15 
REMARK    5  A    between atoms: C12_16  and  C13_17 
REMARK    6  A    between atoms: C13_17  and  N5_18 
REMARK    7  A    between atoms: N5_18  and  C14_19 
REMARK    8  A    between atoms: C14_19  and  C16_21 
REMARK    9  A    between atoms: C21_26  and  C22_27 
ROOT
HETATM    1  C11 UNL     1       0.800   0.748  -0.677  1.00  0.00     0.091 C 
HETATM    2  C12 UNL     1      -0.483   0.698  -0.851  1.00  0.00     0.006 C 
ENDROOT
BRANCH   1   3
HETATM    3  N4  UNL     1       1.944   0.321   0.116  1.00  0.00    -0.072 NA
HETATM    4  C9  UNL     1       1.788  -0.433   1.153  1.00  0.00     0.288 A 
HETATM    5  C8  UNL     1       2.342  -1.480  -0.151  1.00  0.00     0.194 C 
HETATM    6  C10 UNL     1       1.641  -1.202   2.225  1.00  0.00     0.308 A 
HETATM    7  N3  UNL     1       2.248  -0.228   1.383  1.00  0.00     0.050 N 
HETATM    8  N2  UNL     1       3.600  -2.241  -0.185  1.00  0.00    -0.290 NA
HETATM    9  C7  UNL     1       4.637  -1.621   0.690  1.00  0.00     0.109 C 
HETATM   10  C6  UNL     1       4.680  -0.592   1.611  1.00  0.00     0.027 C 
HETATM   11  C5  UNL     1       3.510   0.372   1.794  1.00  0.00     0.241 C 
BRANCH  11  12
HETATM   12  C4  UNL     1       3.847   1.693   1.219  1.00  0.00     0.068 C 
BRANCH  12  13
HETATM   13  C3  UNL     1       4.176   1.655  -0.229  1.00  0.00    -0.005 C 
HETATM   14  C2  UNL     1       5.388   2.076  -0.616  1.00  0.00     0.111 C 
BRANCH  14  15
HETATM   15  N1  UNL     1       6.641   2.604  -0.201  1.00  0.00    -0.284 NA
HETATM   16  C1  UNL     1       7.088   2.607   0.994  1.00  0.00     0.148 C 
ENDBRANCH  14  15
ENDBRANCH  12  13
ENDBRANCH  11  12
ENDBRANCH   1   3
BRANCH   2  17
HETATM   17  C13 UNL     1      -1.722   0.136  -0.320  1.00  0.00     0.148 C 
BRANCH  17  18
HETATM   18  N5  UNL     1      -2.355  -0.678  -1.335  1.00  0.00    -0.389 N 
HETATM   19  H16 UNL     1      -2.124  -0.949  -2.325  1.00  0.00     0.159 HD
BRANCH  18  20
HETATM   20  C14 UNL     1      -3.570  -1.244  -0.899  1.00  0.00     0.017 C 
HETATM   21  C15 UNL     1      -3.709  -2.333  -0.167  1.00  0.00     0.063 C 
BRANCH  20  22
HETATM   22  C16 UNL     1      -4.830  -0.604  -1.255  1.00  0.00    -0.002 A 
HETATM   23  C17 UNL     1      -4.835   0.521  -2.014  1.00  0.00     0.014 A 
HETATM   24  C18 UNL     1      -6.017   1.135  -2.349  1.00  0.00     0.001 A 
HETATM   25  C19 UNL     1      -7.255   0.679  -1.959  1.00  0.00     0.001 A 
HETATM   26  C20 UNL     1      -7.267  -0.451  -1.195  1.00  0.00     0.014 A 
HETATM   27  C21 UNL     1      -6.076  -1.048  -0.871  1.00  0.00    -0.000 A 
BRANCH  27  28
HETATM   28  C22 UNL     1      -6.168  -2.243  -0.061  1.00  0.00     0.390 C 
HETATM   29  O1  UNL     1      -7.006  -2.991   0.501  1.00  0.00    -0.405 OA
ENDBRANCH  27  28
ENDBRANCH  20  22
ENDBRANCH  18  20
ENDBRANCH  17  18
ENDBRANCH   2  17
TORSDOF 9
