REMARK  5 active torsions:
REMARK  status: ('A' for Active; 'I' for Inactive)
REMARK    1  A    between atoms: C3_3  and  C4_4 
REMARK    2  A    between atoms: C5_5  and  C6_6 
REMARK    3  A    between atoms: C6_6  and  N1_7 
REMARK    4  A    between atoms: N1_7  and  C7_8 
REMARK    5  A    between atoms: C14_18  and  O1_19 
ROOT
HETATM    1  C7  UNL     1      -0.944  -0.566  -1.435  1.00  0.00     0.156 A 
HETATM    2  N2  UNL     1      -1.536  -0.221  -2.590  1.00  0.00    -0.222 NA
HETATM    3  C8  UNL     1      -0.881   0.265  -3.641  1.00  0.00     0.238 A 
HETATM    4  N3  UNL     1       0.445   0.448  -3.617  1.00  0.00    -0.215 NA
HETATM    5  C9  UNL     1       1.143   0.133  -2.504  1.00  0.00     0.202 A 
HETATM    6  C10 UNL     1       0.401  -0.374  -1.430  1.00  0.00     0.128 A 
HETATM    7  N4  UNL     1       0.978  -0.746  -0.184  1.00  0.00    -0.379 N 
HETATM    8  C11 UNL     1       2.328  -1.180   0.114  1.00  0.00     0.161 C 
HETATM    9  C12 UNL     1       3.346  -0.219  -0.347  1.00  0.00    -0.004 A 
HETATM   10  C13 UNL     1       4.320  -0.023   0.606  1.00  0.00     0.048 A 
HETATM   11  C14 UNL     1       5.374   0.834   0.399  1.00  0.00     0.069 A 
HETATM   12  C16 UNL     1       5.437   1.515  -0.821  1.00  0.00     0.039 A 
HETATM   13  C17 UNL     1       4.471   1.337  -1.798  1.00  0.00     0.040 A 
HETATM   14  C18 UNL     1       3.409   0.459  -1.561  1.00  0.00     0.086 A 
HETATM   15  O2  UNL     1       2.515   0.373  -2.616  1.00  0.00    -0.289 OA
HETATM   16  H12 UNL     1       0.294  -0.677   0.603  1.00  0.00     0.160 HD
ENDROOT
BRANCH   1  17
HETATM   17  N1  UNL     1      -1.693  -1.088  -0.352  1.00  0.00    -0.369 N 
HETATM   18  H10 UNL     1      -1.471  -1.422   0.584  1.00  0.00     0.161 HD
BRANCH  17  19
HETATM   19  C6  UNL     1      -3.121  -1.207  -0.565  1.00  0.00     0.148 C 
BRANCH  19  20
HETATM   20  C5  UNL     1      -3.870  -1.738   0.583  1.00  0.00    -0.007 C 
HETATM   21  C4  UNL     1      -4.848  -1.246   1.324  1.00  0.00    -0.003 C 
BRANCH  21  22
HETATM   22  C3  UNL     1      -5.382   0.063   1.065  1.00  0.00    -0.005 C 
HETATM   23  C2  UNL     1      -6.361   0.538   1.818  1.00  0.00    -0.031 C 
HETATM   24  C1  UNL     1      -7.017   1.857   1.682  1.00  0.00     0.036 C 
ENDBRANCH  21  22
ENDBRANCH  19  20
ENDBRANCH  17  19
ENDBRANCH   1  17
BRANCH  11  25
HETATM   25  O1  UNL     1       6.442   1.172   1.206  1.00  0.00    -0.356 OA
HETATM   26  C15 UNL     1       6.548   0.582   2.484  1.00  0.00     0.210 C 
ENDBRANCH  11  25
TORSDOF 5
