REMARK  6 active torsions:
REMARK  status: ('A' for Active; 'I' for Inactive)
REMARK    1  A    between atoms: O1_2  and  C2_3 
REMARK    2  A    between atoms: C7_8  and  C8_9 
REMARK       I    between atoms: C8_9  and  N1_11 
REMARK    3  A    between atoms: N1_11  and  C9_12 
REMARK    4  A    between atoms: C11_14  and  C12_15 
REMARK    5  A    between atoms: N3_17  and  C13_18 
REMARK    6  A    between atoms: C16_21  and  C17_22 
ROOT
HETATM    1  C9  UNL     1      -1.239  -0.371  -1.416  1.00  0.00     0.050 C 
HETATM    2  C10 UNL     1      -0.392   0.651  -1.443  1.00  0.00     0.034 C 
HETATM    3  C11 UNL     1       0.777   0.416  -0.925  1.00  0.00     0.067 C 
HETATM    4  N3  UNL     1       1.543  -0.638  -1.469  1.00  0.00    -0.328 N 
HETATM    5  C22 UNL     1       0.754  -1.698  -2.064  1.00  0.00     0.096 C 
HETATM    6  C23 UNL     1      -0.582  -1.548  -2.026  1.00  0.00     0.048 C 
ENDROOT
BRANCH   1   7
HETATM    7  N1  UNL     1      -2.542  -0.305  -0.885  1.00  0.00    -0.322 N 
HETATM    8  C8  UNL     1      -3.547  -1.262  -0.775  1.00  0.00     0.259 C 
HETATM    9  O2  UNL     1      -3.198  -2.377  -1.240  1.00  0.00    -0.267 OA
HETATM   10  H8  UNL     1      -2.747   0.650  -0.521  1.00  0.00     0.169 HD
BRANCH   8  11
HETATM   11  C7  UNL     1      -4.872  -1.122  -0.214  1.00  0.00     0.065 A 
HETATM   12  C2  UNL     1      -5.476  -0.024   0.347  1.00  0.00     0.084 A 
HETATM   13  C3  UNL     1      -6.751   0.002   0.854  1.00  0.00     0.038 A 
HETATM   14  C4  UNL     1      -7.516  -1.131   0.818  1.00  0.00     0.003 A 
HETATM   15  C5  UNL     1      -6.969  -2.267   0.268  1.00  0.00     0.001 A 
HETATM   16  C6  UNL     1      -5.697  -2.244  -0.223  1.00  0.00     0.020 A 
BRANCH  12  17
HETATM   17  O1  UNL     1      -4.726   1.133   0.395  1.00  0.00    -0.355 OA
HETATM   18  C1  UNL     1      -5.234   2.308   0.941  1.00  0.00     0.210 C 
ENDBRANCH  12  17
ENDBRANCH   8  11
ENDBRANCH   1   7
BRANCH   3  19
HETATM   19  C12 UNL     1       1.352   1.150   0.184  1.00  0.00     0.137 C 
HETATM   20  N2  UNL     1       0.591   2.093   0.607  1.00  0.00    -0.310 NA
HETATM   21  H10 UNL     1       0.827   2.729   1.392  1.00  0.00     0.186 HD
ENDBRANCH   3  19
BRANCH   4  22
HETATM   22  C13 UNL     1       2.953  -0.767  -1.510  1.00  0.00     0.236 A 
HETATM   23  C14 UNL     1       3.660   0.339  -2.243  1.00  0.00     0.024 A 
HETATM   24  C15 UNL     1       4.652   0.788  -1.467  1.00  0.00     0.032 A 
HETATM   25  C16 UNL     1       4.633   0.020  -0.228  1.00  0.00     0.065 A 
HETATM   26  N5  UNL     1       3.655  -0.857  -0.277  1.00  0.00    -0.259 NA
BRANCH  25  27
HETATM   27  C17 UNL     1       5.581   0.232   0.871  1.00  0.00     0.010 A 
HETATM   28  C18 UNL     1       6.572   1.187   0.810  1.00  0.00     0.017 A 
HETATM   29  C19 UNL     1       7.476   1.412   1.820  1.00  0.00     0.020 A 
HETATM   30  C20 UNL     1       7.359   0.614   2.956  1.00  0.00     0.116 A 
HETATM   31  N4  UNL     1       6.400  -0.319   3.030  1.00  0.00    -0.272 NA
HETATM   32  C21 UNL     1       5.519  -0.522   2.019  1.00  0.00     0.130 A 
ENDBRANCH  25  27
ENDBRANCH   4  22
TORSDOF 6
