REMARK  5 active torsions:
REMARK  status: ('A' for Active; 'I' for Inactive)
REMARK    1  A    between atoms: O1_2  and  C2_3 
REMARK    2  A    between atoms: C7_8  and  N1_9 
REMARK    3  A    between atoms: N1_9  and  C9_11 
REMARK    4  A    between atoms: C10_12  and  N2_13 
REMARK    5  A    between atoms: C11_15  and  C12_16 
ROOT
HETATM    1  C9  UNL     1      -1.081  -0.715  -0.368  1.00  0.00     0.049 A 
HETATM    2  C10 UNL     1       0.221  -1.018  -0.644  1.00  0.00     0.087 A 
HETATM    3  C19 UNL     1      -0.692  -0.803  -1.799  1.00  0.00     0.089 A 
HETATM    4  C20 UNL     1      -0.413   0.481  -2.549  1.00  0.00     0.023 C 
ENDROOT
BRANCH   2   5
HETATM    5  N2  UNL     1       1.563  -1.332  -0.219  1.00  0.00    -0.175 N 
HETATM    6  N3  UNL     1       2.510  -0.336  -0.347  1.00  0.00    -0.151 NA
HETATM    7  C11 UNL     1       3.745  -0.458  -0.015  1.00  0.00     0.092 A 
HETATM    8  C17 UNL     1       4.107  -1.763   0.529  1.00  0.00     0.053 A 
HETATM    9  C18 UNL     1       3.271  -2.766   0.685  1.00  0.00     0.111 A 
HETATM   10  N5  UNL     1       1.900  -2.586   0.301  1.00  0.00    -0.289 N 
HETATM   11  H17 UNL     1       1.175  -3.331   0.393  1.00  0.00     0.188 HD
BRANCH   7  12
HETATM   12  C12 UNL     1       4.716   0.612  -0.163  1.00  0.00     0.012 A 
HETATM   13  C13 UNL     1       6.041   0.514   0.182  1.00  0.00     0.017 A 
HETATM   14  C14 UNL     1       6.960   1.534   0.039  1.00  0.00     0.020 A 
HETATM   15  C15 UNL     1       6.445   2.717  -0.498  1.00  0.00     0.116 A 
HETATM   16  N4  UNL     1       5.146   2.832  -0.842  1.00  0.00    -0.272 NA
HETATM   17  C16 UNL     1       4.267   1.814  -0.691  1.00  0.00     0.130 A 
ENDBRANCH   7  12
ENDBRANCH   2   5
BRANCH   1  18
HETATM   18  N1  UNL     1      -2.050  -0.491   0.650  1.00  0.00    -0.350 N 
HETATM   19  C8  UNL     1      -1.646  -0.219   2.016  1.00  0.00     0.156 C 
BRANCH  18  20
HETATM   20  C7  UNL     1      -3.410  -0.536   0.318  1.00  0.00     0.068 A 
HETATM   21  C2  UNL     1      -4.314   0.520   0.472  1.00  0.00     0.095 A 
HETATM   22  C3  UNL     1      -5.634   0.350   0.106  1.00  0.00     0.039 A 
HETATM   23  C4  UNL     1      -6.032  -0.849  -0.400  1.00  0.00     0.003 A 
HETATM   24  C5  UNL     1      -5.184  -1.926  -0.574  1.00  0.00     0.002 A 
HETATM   25  C6  UNL     1      -3.865  -1.738  -0.203  1.00  0.00     0.032 A 
BRANCH  21  26
HETATM   26  O1  UNL     1      -3.696   1.652   1.006  1.00  0.00    -0.354 OA
HETATM   27  C1  UNL     1      -4.509   2.795   1.211  1.00  0.00     0.210 C 
ENDBRANCH  21  26
ENDBRANCH  18  20
ENDBRANCH   1  18
TORSDOF 5
