REMARK  4 active torsions:
REMARK  status: ('A' for Active; 'I' for Inactive)
REMARK    1  A    between atoms: N1_2  and  C2_3 
REMARK    2  A    between atoms: N1_2  and  C12_15 
REMARK    3  A    between atoms: C6_7  and  N2_8 
REMARK    4  A    between atoms: N2_8  and  C7_9 
ROOT
HETATM    1  C2  UNL     1      -0.230   0.295   0.473  1.00  0.00     0.032 A 
HETATM    2  C3  UNL     1      -0.012  -0.572   1.515  1.00  0.00     0.029 A 
HETATM    3  C4  UNL     1       1.175  -1.078   1.937  1.00  0.00     0.004 A 
HETATM    4  C5  UNL     1       2.331  -0.712   1.280  1.00  0.00     0.029 A 
HETATM    5  C6  UNL     1       2.191   0.167   0.211  1.00  0.00     0.030 A 
HETATM    6  C11 UNL     1       0.949   0.637  -0.158  1.00  0.00     0.058 A 
ENDROOT
BRANCH   1   7
HETATM    7  N1  UNL     1      -1.452   0.778  -0.015  1.00  0.00    -0.372 N 
HETATM    8  C1  UNL     1      -1.466   1.859  -1.006  1.00  0.00     0.151 C 
BRANCH   7   9
HETATM    9  C12 UNL     1      -2.799   0.363   0.295  1.00  0.00     0.050 A 
HETATM   10  C13 UNL     1      -3.410   1.321   1.331  1.00  0.00     0.043 C 
HETATM   11  C14 UNL     1      -3.724   0.562  -0.891  1.00  0.00     0.004 A 
HETATM   12  C15 UNL     1      -4.594  -0.036  -1.687  1.00  0.00    -0.002 A 
HETATM   13  C16 UNL     1      -4.741  -1.456  -1.290  1.00  0.00    -0.004 A 
HETATM   14  C17 UNL     1      -3.951  -1.699  -0.264  1.00  0.00    -0.024 A 
HETATM   15  C18 UNL     1      -2.967  -1.081   0.639  1.00  0.00     0.062 A 
ENDBRANCH   7   9
ENDBRANCH   1   7
BRANCH   5  16
HETATM   16  N2  UNL     1       3.406   0.520  -0.440  1.00  0.00    -0.377 N 
HETATM   17  H7  UNL     1       3.395   1.183  -1.261  1.00  0.00     0.160 HD
BRANCH  16  18
HETATM   18  C7  UNL     1       4.671  -0.022   0.011  1.00  0.00     0.147 A 
HETATM   19  C8  UNL     1       5.784   0.513  -0.844  1.00  0.00     0.022 A 
HETATM   20  C9  UNL     1       6.373  -0.477  -1.526  1.00  0.00     0.114 A 
HETATM   21  N3  UNL     1       5.705  -1.688  -1.175  1.00  0.00    -0.275 NA
HETATM   22  C10 UNL     1       4.763  -1.474  -0.330  1.00  0.00     0.118 A 
ENDBRANCH  16  18
ENDBRANCH   5  16
TORSDOF 4
