REMARK  7 active torsions:
REMARK  status: ('A' for Active; 'I' for Inactive)
REMARK    1  A    between atoms: C5_5  and  N1_6 
REMARK    2  A    between atoms: N1_6  and  C7_8 
REMARK    3  A    between atoms: C7_8  and  O1_9 
REMARK    4  A    between atoms: O1_9  and  C8_10 
REMARK    5  A    between atoms: C10_13  and  N2_14 
REMARK    6  A    between atoms: N2_14  and  C11_15 
REMARK    7  A    between atoms: C14_19  and  C15_20 
ROOT
HETATM    1  N2  UNL     1       0.614  -1.393  -1.029  1.00  0.00    -0.188 N 
HETATM    2  H13 UNL     1       1.262  -1.831  -1.705  1.00  0.00     0.184 HD
ENDROOT
BRANCH   1   3
HETATM    3  C10 UNL     1      -0.767  -1.245  -1.273  1.00  0.00     0.057 A 
HETATM    4  C2  UNL     1      -1.296  -1.653  -2.496  1.00  0.00    -0.035 A 
HETATM    5  C1  UNL     1      -0.462  -2.227  -3.581  1.00  0.00     0.050 C 
HETATM    6  C3  UNL     1      -2.647  -1.516  -2.704  1.00  0.00     0.011 A 
HETATM    7  C4  UNL     1      -3.502  -0.984  -1.731  1.00  0.00     0.030 A 
HETATM    8  C5  UNL     1      -3.011  -0.561  -0.487  1.00  0.00     0.033 A 
HETATM    9  C9  UNL     1      -1.654  -0.733  -0.365  1.00  0.00     0.060 A 
BRANCH   8  10
HETATM   10  N1  UNL     1      -3.853  -0.023   0.521  1.00  0.00    -0.363 N 
HETATM   11  C6  UNL     1      -5.238   0.017   0.090  1.00  0.00     0.152 C 
BRANCH  10  12
HETATM   12  C7  UNL     1      -3.140   0.348   1.735  1.00  0.00     0.303 C 
BRANCH  12  13
HETATM   13  O1  UNL     1      -3.949   0.929   2.716  1.00  0.00    -0.308 OA
BRANCH  13  14
HETATM   14  C8  UNL     1      -4.619   2.116   2.430  1.00  0.00     0.399 C 
HETATM   15  O2  UNL     1      -4.511   2.686   1.292  1.00  0.00    -0.276 OA
ENDBRANCH  13  14
ENDBRANCH  12  13
ENDBRANCH  10  12
ENDBRANCH   8  10
ENDBRANCH   1   3
BRANCH   1  16
HETATM   16  C11 UNL     1       1.485  -1.064   0.034  1.00  0.00     0.727 A 
HETATM   17  N3  UNL     1       1.280  -1.708   1.204  1.00  0.00    -0.075 NA
HETATM   18  C12 UNL     1       2.039  -1.503   2.283  1.00  0.00     0.139 A 
HETATM   19  C13 UNL     1       3.077  -0.602   2.217  1.00  0.00     0.053 A 
HETATM   20  C14 UNL     1       3.305   0.058   1.059  1.00  0.00     0.089 A 
HETATM   21  N5  UNL     1       2.506  -0.179  -0.026  1.00  0.00    -0.062 NA
BRANCH  20  22
HETATM   22  C15 UNL     1       4.330   1.032   0.737  1.00  0.00     0.011 A 
HETATM   23  C16 UNL     1       4.490   1.639  -0.480  1.00  0.00     0.017 A 
HETATM   24  C17 UNL     1       5.523   2.553  -0.661  1.00  0.00     0.020 A 
HETATM   25  C18 UNL     1       6.396   2.865   0.364  1.00  0.00     0.116 A 
HETATM   26  N4  UNL     1       6.252   2.270   1.589  1.00  0.00    -0.272 NA
HETATM   27  C19 UNL     1       5.225   1.377   1.723  1.00  0.00     0.130 A 
ENDBRANCH  20  22
ENDBRANCH   1  16
TORSDOF 7
