REMARK  2 active torsions:
REMARK  status: ('A' for Active; 'I' for Inactive)
REMARK    1  A    between atoms: C14_16  and  C15_17 
REMARK    2  A    between atoms: C18_21  and  C19_22 
ROOT
HETATM    1  C1  UNL     1       2.153  -0.233   0.297  1.00  0.00     0.035 A 
HETATM    2  C2  UNL     1       1.882  -1.044  -0.862  1.00  0.00     0.007 A 
HETATM    3  C3  UNL     1       3.256  -0.937  -0.698  1.00  0.00     0.021 A 
HETATM    4  C4  UNL     1       4.280  -0.272   0.216  1.00  0.00     0.006 C 
HETATM    5  C5  UNL     1       4.796   0.493   1.230  1.00  0.00     0.236 C 
HETATM    6  N1  UNL     1       4.293   1.397   2.343  1.00  0.00     0.113 N 
HETATM    7  C6  UNL     1       3.256   2.365   2.969  1.00  0.00     0.388 A 
HETATM    8  O1  UNL     1       3.681   1.652   2.061  1.00  0.00    -0.140 OA
HETATM    9  C7  UNL     1       2.054   2.698   2.042  1.00  0.00     0.017 A 
HETATM   10  C8  UNL     1       2.198   3.748   1.164  1.00  0.00     0.012 A 
HETATM   11  C9  UNL     1       1.365   3.783   0.013  1.00  0.00     0.002 A 
HETATM   12  C10 UNL     1       0.463   2.698  -0.113  1.00  0.00     0.011 A 
HETATM   13  C11 UNL     1       0.460   1.735   0.865  1.00  0.00    -0.035 A 
HETATM   14  C12 UNL     1       1.204   1.619   2.027  1.00  0.00     0.024 A 
HETATM   15  C13 UNL     1      -0.199   0.618   0.119  1.00  0.00     0.023 C 
HETATM   16  C14 UNL     1       0.468  -0.451  -0.542  1.00  0.00     0.001 C 
HETATM   17  H7  UNL     1       5.090   1.271   3.116  1.00  0.00     0.328 HD
ENDROOT
BRANCH  16  18
HETATM   18  C15 UNL     1      -0.375  -1.449  -1.143  1.00  0.00     0.156 A 
HETATM   19  N2  UNL     1      -0.104  -2.569  -1.790  1.00  0.00    -0.241 NA
HETATM   20  C16 UNL     1      -0.975  -3.438  -2.302  1.00  0.00     0.121 A 
HETATM   21  C17 UNL     1      -2.302  -3.147  -2.148  1.00  0.00     0.052 A 
HETATM   22  C18 UNL     1      -2.680  -2.011  -1.494  1.00  0.00     0.072 A 
HETATM   23  N4  UNL     1      -1.695  -1.286  -1.063  1.00  0.00    -0.228 NA
BRANCH  22  24
HETATM   24  C19 UNL     1      -4.075  -1.641  -1.309  1.00  0.00     0.010 A 
HETATM   25  C20 UNL     1      -4.408  -0.473  -0.656  1.00  0.00     0.017 A 
HETATM   26  C21 UNL     1      -5.734  -0.109  -0.472  1.00  0.00     0.020 A 
HETATM   27  C22 UNL     1      -6.773  -0.920  -0.946  1.00  0.00     0.116 A 
HETATM   28  N3  UNL     1      -6.430  -2.065  -1.586  1.00  0.00    -0.272 NA
HETATM   29  C23 UNL     1      -5.137  -2.388  -1.747  1.00  0.00     0.130 A 
ENDBRANCH  22  24
ENDBRANCH  16  18
TORSDOF 2
