REMARK  1 active torsions:
REMARK  status: ('A' for Active; 'I' for Inactive)
REMARK    1  A    between atoms: C6_7  and  C7_8 
ROOT
HETATM    1  C7  UNL     1      -0.610  -0.435  -0.096  1.00  0.00    -0.075 C 
HETATM    2  C8  UNL     1       0.006  -1.417  -0.809  1.00  0.00    -0.022 C 
HETATM    3  C9  UNL     1       0.984  -2.285  -1.474  1.00  0.00     0.043 C 
HETATM    4  C10 UNL     1       2.406  -1.844  -1.436  1.00  0.00     0.108 C 
HETATM    5  N1  UNL     1       3.049  -1.790  -0.151  1.00  0.00    -0.260 NA
HETATM    6  N2  UNL     1       4.359  -1.278  -0.261  1.00  0.00    -0.245 NA
HETATM    7  C11 UNL     1       4.642  -0.290   0.742  1.00  0.00     0.210 C 
HETATM    8  N3  UNL     1       3.777   0.829   0.789  1.00  0.00    -0.425 NA
HETATM    9  C12 UNL     1       2.861   1.209   0.013  1.00  0.00     0.330 C 
HETATM   10  C13 UNL     1       1.838   2.237  -0.230  1.00  0.00    -0.007 A 
HETATM   11  C14 UNL     1       2.175   3.512  -0.710  1.00  0.00     0.126 A 
HETATM   12  N4  UNL     1       1.215   4.454  -0.910  1.00  0.00    -0.272 NA
HETATM   13  C15 UNL     1      -0.044   4.127  -0.635  1.00  0.00     0.116 A 
HETATM   14  C16 UNL     1      -0.355   2.875  -0.165  1.00  0.00     0.027 A 
HETATM   15  C17 UNL     1       0.505   1.835   0.079  1.00  0.00    -0.043 A 
HETATM   16  C18 UNL     1       0.305   0.488   0.558  1.00  0.00     0.073 C 
HETATM   17  H12 UNL     1       3.150  -2.707   0.305  1.00  0.00     0.140 HD
HETATM   18  H13 UNL     1       4.426  -0.828  -1.187  1.00  0.00     0.142 HD
ENDROOT
BRANCH   1  19
HETATM   19  C6  UNL     1      -2.098  -0.243   0.141  1.00  0.00     0.023 C 
HETATM   20  C5  UNL     1      -2.313  -0.059   1.580  1.00  0.00     0.036 C 
HETATM   21  C4  UNL     1      -3.599  -0.366   2.183  1.00  0.00    -0.026 C 
HETATM   22  C3  UNL     1      -4.820  -0.701   1.788  1.00  0.00    -0.003 C 
HETATM   23  C2  UNL     1      -5.165  -0.856   0.369  1.00  0.00     0.019 C 
HETATM   24  C1  UNL     1      -4.324  -1.110  -0.624  1.00  0.00     0.012 C 
HETATM   25 CL1  UNL     1      -5.107  -1.227  -2.192  1.00  0.00    -0.089 Cl
HETATM   26  C19 UNL     1      -2.818  -1.310  -0.583  1.00  0.00     0.060 C 
ENDBRANCH   1  19
TORSDOF 1
