REMARK  2 active torsions:
REMARK  status: ('A' for Active; 'I' for Inactive)
REMARK    1  A    between atoms: O1_2  and  C2_3 
REMARK    2  A    between atoms: N3_18  and  N4_19 
ROOT
HETATM    1  C2  UNL     1       3.384   0.696  -0.600  1.00  0.00     0.123 C 
HETATM    2  C3  UNL     1       3.887  -0.446  -0.166  1.00  0.00     0.048 C 
HETATM    3  C4  UNL     1       3.192  -1.625   0.308  1.00  0.00     0.027 C 
HETATM    4  C5  UNL     1       1.885  -1.770   0.391  1.00  0.00     0.137 C 
HETATM    5  O2  UNL     1       0.519  -1.659   0.376  1.00  0.00    -0.336 OA
HETATM    6  C6  UNL     1      -0.300  -1.541  -0.761  1.00  0.00     0.267 C 
HETATM    7  C7  UNL     1      -1.331  -2.610  -0.867  1.00  0.00     0.136 C 
HETATM    8  N1  UNL     1      -2.442  -2.126  -0.457  1.00  0.00    -0.269 NA
HETATM    9  C8  UNL     1      -2.254  -0.741  -0.056  1.00  0.00     0.151 A 
HETATM   10  C9  UNL     1      -2.087  -0.748   1.398  1.00  0.00     0.024 A 
HETATM   11  C10 UNL     1      -2.867  -0.220   2.347  1.00  0.00    -0.000 A 
HETATM   12  C11 UNL     1      -4.092   0.488   1.966  1.00  0.00    -0.004 A 
HETATM   13  C12 UNL     1      -4.296   0.526   0.649  1.00  0.00    -0.022 A 
HETATM   14  C13 UNL     1      -3.512  -0.016  -0.483  1.00  0.00     0.083 A 
HETATM   15  N2  UNL     1      -1.115  -0.381  -0.825  1.00  0.00    -0.137 NA
HETATM   16  N3  UNL     1      -0.523   0.807  -0.566  1.00  0.00    -0.190 N 
HETATM   17  C14 UNL     1       0.845   0.788  -0.578  1.00  0.00     0.049 C 
HETATM   18  C15 UNL     1       1.995   0.755  -0.594  1.00  0.00    -0.016 C 
ENDROOT
BRANCH  16  19
HETATM   19  N4  UNL     1      -1.232   1.981  -0.301  1.00  0.00    -0.224 NA
HETATM   20  H15 UNL     1      -0.928   2.682  -1.019  1.00  0.00     0.145 HD
HETATM   21  H16 UNL     1      -0.970   2.417   0.613  1.00  0.00     0.145 HD
ENDBRANCH  16  19
BRANCH   1  22
HETATM   22  O1  UNL     1       4.017   1.844  -1.061  1.00  0.00    -0.347 OA
HETATM   23  C1  UNL     1       4.877   2.646  -0.305  1.00  0.00     0.211 C 
ENDBRANCH   1  22
TORSDOF 2
