REMARK  3 active torsions:
REMARK  status: ('A' for Active; 'I' for Inactive)
REMARK    1  A    between atoms: N1_1  and  C1_2 
REMARK    2  A    between atoms: N3_16  and  C12_17 
REMARK    3  A    between atoms: C15_20  and  C16_21 
ROOT
HETATM    1  C1  UNL     1      -0.708  -0.606  -1.064  1.00  0.00     0.020 C 
HETATM    2  C2  UNL     1      -1.970  -0.945  -1.211  1.00  0.00     0.026 C 
HETATM    3  C3  UNL     1      -3.123  -0.200  -0.784  1.00  0.00     0.037 C 
HETATM    4  C4  UNL     1      -4.377   0.210  -0.518  1.00  0.00     0.305 A 
HETATM    5 CL1  UNL     1      -5.356   1.496   0.158  1.00  0.00    -0.077 Cl
HETATM    6  N2  UNL     1      -5.511  -0.712  -0.729  1.00  0.00     0.131 N 
HETATM    7  C5  UNL     1      -5.795  -1.728   0.328  1.00  0.00     0.240 A 
HETATM    8  O1  UNL     1      -4.803  -0.981   0.499  1.00  0.00     0.000 OA
HETATM    9  C6  UNL     1      -5.585  -2.505   1.649  1.00  0.00     0.074 C 
HETATM   10  C7  UNL     1      -4.125  -2.675   1.821  1.00  0.00    -0.024 C 
HETATM   11  C8  UNL     1      -2.851  -2.915   1.982  1.00  0.00    -0.004 C 
HETATM   12  C9  UNL     1      -1.525  -2.353   2.038  1.00  0.00    -0.003 C 
HETATM   13  C10 UNL     1      -0.864  -1.237   1.928  1.00  0.00    -0.008 C 
HETATM   14  C11 UNL     1       0.297  -0.359   1.916  1.00  0.00     0.147 C 
HETATM   15  N3  UNL     1       0.649   0.264   0.733  1.00  0.00    -0.379 N 
HETATM   16  C21 UNL     1      -0.181   0.572  -0.338  1.00  0.00     0.176 C 
HETATM   17  H5  UNL     1      -6.287  -0.901  -1.412  1.00  0.00     0.320 HD
ENDROOT
BRANCH  15  18
HETATM   18  C12 UNL     1       1.711   1.185   0.887  1.00  0.00     0.228 A 
HETATM   19  C13 UNL     1       2.954   0.574   1.439  1.00  0.00     0.023 A 
HETATM   20  C14 UNL     1       3.996   0.849   0.676  1.00  0.00     0.032 A 
HETATM   21  C15 UNL     1       3.447   1.655  -0.403  1.00  0.00     0.065 A 
HETATM   22  N5  UNL     1       2.180   1.844  -0.291  1.00  0.00    -0.260 NA
BRANCH  21  23
HETATM   23  C16 UNL     1       4.337   2.169  -1.460  1.00  0.00     0.010 A 
HETATM   24  C17 UNL     1       5.692   1.924  -1.518  1.00  0.00     0.017 A 
HETATM   25  C18 UNL     1       6.558   2.384  -2.478  1.00  0.00     0.020 A 
HETATM   26  C19 UNL     1       5.973   3.174  -3.479  1.00  0.00     0.116 A 
HETATM   27  N4  UNL     1       4.643   3.451  -3.477  1.00  0.00    -0.272 NA
HETATM   28  C20 UNL     1       3.852   2.955  -2.485  1.00  0.00     0.130 A 
ENDBRANCH  21  23
ENDBRANCH  15  18
BRANCH   1  29
HETATM   29  N1  UNL     1      -0.043  -1.683  -1.676  1.00  0.00    -0.401 N 
HETATM   30  H1  UNL     1       0.035  -2.606  -1.206  1.00  0.00     0.156 HD
HETATM   31  H2  UNL     1       0.228  -1.168  -2.572  1.00  0.00     0.156 HD
ENDBRANCH   1  29
TORSDOF 3
