REMARK  2 active torsions:
REMARK  status: ('A' for Active; 'I' for Inactive)
REMARK    1  A    between atoms: N2_15  and  C13_16 
REMARK    2  A    between atoms: C16_20  and  C17_21 
ROOT
HETATM    1  C1  UNL     1      -5.784   0.947  -3.226  1.00  0.00     0.052 C 
HETATM    2  C2  UNL     1      -4.827   0.107  -2.429  1.00  0.00    -0.011 C 
HETATM    3  C3  UNL     1      -5.603   0.101  -1.374  1.00  0.00     0.010 C 
HETATM    4  C4  UNL     1      -4.878  -0.756  -0.383  1.00  0.00    -0.001 C 
HETATM    5  C5  UNL     1      -3.869  -1.503  -0.062  1.00  0.00     0.002 C 
HETATM    6  C6  UNL     1      -2.736  -2.380   0.389  1.00  0.00     0.235 A 
HETATM    7  C7  UNL     1      -1.471  -1.749   0.313  1.00  0.00     0.212 A 
HETATM    8  O1  UNL     1      -2.355  -0.920   0.348  1.00  0.00    -0.348 OA
HETATM    9  N1  UNL     1      -0.511  -0.773   0.247  1.00  0.00    -0.337 N 
HETATM   10  C8  UNL     1       0.176   0.377   0.199  1.00  0.00     0.139 C 
HETATM   11  C9  UNL     1      -0.877   1.132   0.582  1.00  0.00     0.034 C 
HETATM   12  C10 UNL     1      -1.044   1.507  -0.709  1.00  0.00    -0.019 C 
HETATM   13  C11 UNL     1      -0.085   2.597  -1.015  1.00  0.00     0.030 C 
HETATM   14  C12 UNL     1       1.217   2.271  -0.774  1.00  0.00     0.118 C 
HETATM   15  N2  UNL     1       1.356   0.985  -0.076  1.00  0.00    -0.139 N 
HETATM   16  C22 UNL     1      -1.911   0.963  -1.699  1.00  0.00     0.023 C 
HETATM   17  C23 UNL     1      -2.216   0.370  -2.822  1.00  0.00    -0.011 C 
HETATM   18  C24 UNL     1      -0.871   0.235  -3.193  1.00  0.00     0.052 C 
HETATM   19  C25 UNL     1      -3.613   0.113  -3.122  1.00  0.00     0.183 C 
HETATM   20  O2  UNL     1      -3.563  -0.207  -4.329  1.00  0.00    -0.287 OA
HETATM   21  H9  UNL     1       0.306  -1.401   0.129  1.00  0.00     0.164 HD
ENDROOT
BRANCH  15  22
HETATM   22  C13 UNL     1       2.394   0.196   0.359  1.00  0.00     0.734 A 
HETATM   23  N3  UNL     1       2.742  -0.757  -0.521  1.00  0.00    -0.074 NA
HETATM   24  C14 UNL     1       3.774  -1.583  -0.272  1.00  0.00     0.139 A 
HETATM   25  C15 UNL     1       4.458  -1.398   0.947  1.00  0.00     0.053 A 
HETATM   26  C16 UNL     1       4.133  -0.443   1.861  1.00  0.00     0.089 A 
HETATM   27  N5  UNL     1       3.090   0.326   1.513  1.00  0.00    -0.061 NA
BRANCH  26  28
HETATM   28  C17 UNL     1       4.851  -0.181   3.127  1.00  0.00     0.011 A 
HETATM   29  C18 UNL     1       4.400   0.852   3.885  1.00  0.00     0.017 A 
HETATM   30  C19 UNL     1       5.106   1.157   5.065  1.00  0.00     0.020 A 
HETATM   31  C20 UNL     1       6.182   0.326   5.267  1.00  0.00     0.116 A 
HETATM   32  N4  UNL     1       6.614  -0.695   4.503  1.00  0.00    -0.272 NA
HETATM   33  C21 UNL     1       5.934  -1.002   3.349  1.00  0.00     0.130 A 
ENDBRANCH  26  28
ENDBRANCH  15  22
TORSDOF 2
