REMARK  5 active torsions:
REMARK  status: ('A' for Active; 'I' for Inactive)
REMARK    1  A    between atoms: N1_1  and  C1_2 
REMARK    2  A    between atoms: C4_5  and  C5_6 
REMARK    3  A    between atoms: C7_8  and  N2_9 
REMARK    4  A    between atoms: N2_9  and  C8_10 
REMARK    5  A    between atoms: C13_16  and  N3_17 
ROOT
HETATM    1  C5  UNL     1      -0.937  -1.211  -0.822  1.00  0.00     0.062 C 
HETATM    2  C6  UNL     1       0.372  -1.208  -0.669  1.00  0.00     0.064 C 
HETATM    3  C7  UNL     1       1.579  -1.927  -1.104  1.00  0.00     0.066 C 
HETATM    4  C14 UNL     1       1.725  -2.843  -2.045  1.00  0.00     0.116 C 
HETATM    5  N4  UNL     1       1.050  -2.819  -3.119  1.00  0.00    -0.236 NA
HETATM    6  C15 UNL     1      -0.323  -2.994  -3.509  1.00  0.00     0.255 C 
HETATM    7  N5  UNL     1      -1.457  -2.716  -2.904  1.00  0.00    -0.168 NA
HETATM    8  N6  UNL     1      -1.688  -2.132  -1.621  1.00  0.00    -0.276 N 
HETATM    9  H13 UNL     1      -2.592  -2.425  -1.133  1.00  0.00     0.189 HD
ENDROOT
BRANCH   3  10
HETATM   10  N2  UNL     1       2.738  -1.571  -0.400  1.00  0.00    -0.352 N 
HETATM   11  H6  UNL     1       3.578  -2.162  -0.583  1.00  0.00     0.166 HD
BRANCH  10  12
HETATM   12  C8  UNL     1       2.682  -0.461   0.485  1.00  0.00     0.060 A 
HETATM   13  C9  UNL     1       2.349  -0.639   1.833  1.00  0.00     0.032 A 
HETATM   14  C10 UNL     1       2.304   0.476   2.679  1.00  0.00     0.004 A 
HETATM   15  C11 UNL     1       2.593   1.708   2.133  1.00  0.00     0.026 A 
HETATM   16  C12 UNL     1       2.925   1.931   0.815  1.00  0.00     0.062 A 
HETATM   17 CL1  UNL     1       3.282   3.518   0.179  1.00  0.00    -0.082 Cl
HETATM   18  C13 UNL     1       2.966   0.818  -0.011  1.00  0.00     0.074 A 
BRANCH  18  19
HETATM   19  N3  UNL     1       3.301   0.971  -1.385  1.00  0.00    -0.396 N 
HETATM   20  H10 UNL     1       4.063   0.656  -1.997  1.00  0.00     0.156 HD
HETATM   21  H11 UNL     1       2.563   1.551  -1.833  1.00  0.00     0.156 HD
ENDBRANCH  18  19
ENDBRANCH  10  12
ENDBRANCH   3  10
BRANCH   1  22
HETATM   22  C4  UNL     1      -1.751  -0.234  -0.135  1.00  0.00    -0.008 A 
HETATM   23  C3  UNL     1      -1.324   0.709   0.758  1.00  0.00     0.016 A 
HETATM   24  C2  UNL     1      -2.121   1.644   1.382  1.00  0.00     0.030 A 
HETATM   25  C1  UNL     1      -3.479   1.668   1.113  1.00  0.00     0.025 A 
HETATM   26  C17 UNL     1      -3.945   0.717   0.204  1.00  0.00     0.030 A 
HETATM   27  C16 UNL     1      -3.099  -0.185  -0.382  1.00  0.00     0.016 A 
BRANCH  25  28
HETATM   28  N1  UNL     1      -4.315   2.620   1.744  1.00  0.00    -0.399 N 
HETATM   29  H1  UNL     1      -3.889   3.537   2.011  1.00  0.00     0.156 HD
HETATM   30  H2  UNL     1      -5.329   2.396   1.929  1.00  0.00     0.156 HD
ENDBRANCH  25  28
ENDBRANCH   1  22
TORSDOF 5
