REMARK  5 active torsions:
REMARK  status: ('A' for Active; 'I' for Inactive)
REMARK    1  A    between atoms: C4_5  and  N1_6 
REMARK    2  A    between atoms: N1_6  and  C5_7 
REMARK    3  A    between atoms: C8_11  and  N3_12 
REMARK    4  A    between atoms: N3_12  and  C9_13 
REMARK    5  A    between atoms: C9_13  and  C10_14 
ROOT
HETATM    1  C5  UNL     1      -1.158  -0.737   1.084  1.00  0.00     0.155 C 
HETATM    2  N2  UNL     1      -1.988  -0.899   2.081  1.00  0.00    -0.240 NA
HETATM    3  C6  UNL     1      -1.219  -1.155   3.267  1.00  0.00     0.134 C 
HETATM    4  C7  UNL     1       0.048  -1.005   2.927  1.00  0.00     0.026 C 
HETATM    5  C8  UNL     1       0.211  -0.890   1.619  1.00  0.00     0.087 C 
ENDROOT
BRANCH   5   6
HETATM    6  N3  UNL     1       1.467  -0.917   0.951  1.00  0.00    -0.382 N 
HETATM    7  H5  UNL     1       2.067  -1.717   0.688  1.00  0.00     0.160 HD
BRANCH   6   8
HETATM    8  C9  UNL     1       1.964   0.415   0.593  1.00  0.00     0.161 C 
BRANCH   8   9
HETATM    9  C10 UNL     1       3.276   0.334  -0.100  1.00  0.00    -0.002 A 
HETATM   10  C11 UNL     1       3.448   0.500  -1.482  1.00  0.00     0.035 A 
HETATM   11  C12 UNL     1       4.703   0.408  -2.030  1.00  0.00     0.037 A 
HETATM   12 CL1  UNL     1       4.881   0.622  -3.773  1.00  0.00    -0.084 Cl
HETATM   13  C13 UNL     1       5.806   0.150  -1.214  1.00  0.00     0.064 A 
HETATM   14  C14 UNL     1       5.703  -0.022   0.151  1.00  0.00     0.112 A 
HETATM   15  C15 UNL     1       4.424   0.082   0.631  1.00  0.00     0.118 A 
HETATM   16  O1  UNL     1       5.467  -0.181   1.545  1.00  0.00    -0.304 OA
ENDBRANCH   8   9
ENDBRANCH   6   8
ENDBRANCH   5   6
BRANCH   1  17
HETATM   17  N1  UNL     1      -1.448  -0.463  -0.277  1.00  0.00    -0.339 N 
HETATM   18  H3  UNL     1      -0.660  -0.514  -0.977  1.00  0.00     0.167 HD
BRANCH  17  19
HETATM   19  C4  UNL     1      -2.822  -0.144  -0.573  1.00  0.00     0.035 A 
HETATM   20  C3  UNL     1      -3.671  -0.844  -1.381  1.00  0.00     0.032 A 
HETATM   21  C2  UNL     1      -4.966  -0.409  -1.555  1.00  0.00     0.046 A 
HETATM   22  C1  UNL     1      -5.444   0.714  -0.941  1.00  0.00     0.138 A 
HETATM   23  F1  UNL     1      -6.708   1.186  -1.071  1.00  0.00    -0.204 F 
HETATM   24  C17 UNL     1      -4.611   1.452  -0.111  1.00  0.00     0.074 A 
HETATM   25  C16 UNL     1      -3.316   0.993   0.046  1.00  0.00     0.056 A 
HETATM   26 CL2  UNL     1      -5.136   2.904   0.724  1.00  0.00    -0.081 Cl
ENDBRANCH  17  19
ENDBRANCH   1  17
TORSDOF 5
