REMARK  4 active torsions:
REMARK  status: ('A' for Active; 'I' for Inactive)
REMARK    1  A    between atoms: N1_2  and  C3_4 
REMARK    2  A    between atoms: C6_7  and  C7_8 
REMARK    3  A    between atoms: C19_22  and  C20_23 
REMARK    4  A    between atoms: C20_23  and  O1_24 
ROOT
HETATM    1  C3  UNL     1      -1.732  -0.716  -0.737  1.00  0.00     0.084 C 
HETATM    2  C4  UNL     1      -0.721   0.052  -0.467  1.00  0.00     0.052 C 
HETATM    3  C5  UNL     1       0.648  -0.568  -0.309  1.00  0.00     0.036 C 
HETATM    4  C6  UNL     1       1.639  -0.044   0.712  1.00  0.00     0.010 A 
HETATM    5  C11 UNL     1       1.718  -0.921   1.899  1.00  0.00     0.035 C 
HETATM    6  C12 UNL     1       0.984  -2.180   1.992  1.00  0.00     0.148 C 
HETATM    7  N3  UNL     1      -0.482  -2.031   1.825  1.00  0.00    -0.306 N 
HETATM    8  C13 UNL     1      -0.940  -0.662   2.035  1.00  0.00     0.090 C 
HETATM    9  C14 UNL     1      -0.749   0.386   1.167  1.00  0.00     0.061 C 
HETATM   10  C15 UNL     1       0.478   1.247   0.300  1.00  0.00     0.018 A 
HETATM   11  C16 UNL     1       1.681   1.391   0.937  1.00  0.00     0.013 A 
HETATM   12  C17 UNL     1       1.507   2.819   1.015  1.00  0.00    -0.013 A 
HETATM   13  C18 UNL     1       0.357   3.459   0.497  1.00  0.00     0.010 A 
HETATM   14  C19 UNL     1      -0.709   2.792  -0.136  1.00  0.00     0.010 A 
HETATM   15  C22 UNL     1      -0.707   1.439  -0.295  1.00  0.00    -0.040 A 
HETATM   16  N4  UNL     1      -1.300  -3.120   1.503  1.00  0.00    -0.292 N 
HETATM   17  C23 UNL     1      -1.493  -2.924   0.115  1.00  0.00     0.396 C 
HETATM   18  N5  UNL     1      -1.669  -2.127  -0.883  1.00  0.00    -0.361 NA
HETATM   19  H28 UNL     1      -1.790  -3.961   1.864  1.00  0.00     0.188 HD
ENDROOT
BRANCH   4  20
HETATM   20  C7  UNL     1       2.968  -0.499   0.001  1.00  0.00     0.234 C 
HETATM   21  C8  UNL     1       4.197  -0.163   0.713  1.00  0.00     0.067 C 
HETATM   22  C9  UNL     1       4.648   0.364  -0.635  1.00  0.00     0.274 C 
HETATM   23  N2  UNL     1       3.325   0.128  -1.192  1.00  0.00     0.089 N 
HETATM   24  C10 UNL     1       3.443  -0.691  -2.382  1.00  0.00     0.310 C 
ENDBRANCH   4  20
BRANCH   1  25
HETATM   25  N1  UNL     1      -3.116  -0.577  -0.959  1.00  0.00    -0.379 N 
HETATM   26  C1  UNL     1      -4.144  -0.828   0.057  1.00  0.00     0.150 C 
HETATM   27  C2  UNL     1      -3.691  -0.168  -2.236  1.00  0.00     0.150 C 
ENDBRANCH   1  25
BRANCH  14  28
HETATM   28  C20 UNL     1      -1.947   3.122  -0.837  1.00  0.00     0.213 A 
HETATM   29  C21 UNL     1      -3.196   2.812   0.022  1.00  0.00     0.245 A 
HETATM   30  O2  UNL     1      -2.801   4.069  -0.341  1.00  0.00    -0.344 OA
BRANCH  28  31
HETATM   31  O1  UNL     1      -2.120   2.832  -2.200  1.00  0.00    -0.360 OA
HETATM   32  H25 UNL     1      -1.587   2.013  -2.366  1.00  0.00     0.213 HD
ENDBRANCH  28  31
ENDBRANCH  14  28
TORSDOF 4
