REMARK  4 active torsions:
REMARK  status: ('A' for Active; 'I' for Inactive)
REMARK       I    between atoms: C1_2  and  N1_3 
REMARK    1  A    between atoms: C1_2  and  C18_24 
REMARK    2  A    between atoms: N1_3  and  C2_4 
REMARK    3  A    between atoms: C6_9  and  C7_10 
REMARK    4  A    between atoms: C7_10  and  C8_11 
ROOT
HETATM    1  C2  UNL     1       1.981   0.985  -0.284  1.00  0.00     0.035 A 
HETATM    2  C3  UNL     1       1.592   2.310  -0.297  1.00  0.00     0.031 A 
HETATM    3  C4  UNL     1       0.372   2.631   0.247  1.00  0.00     0.026 A 
HETATM    4  C5  UNL     1      -0.472   1.691   0.800  1.00  0.00     0.040 A 
HETATM    5 CL1  UNL     1      -1.998   2.144   1.473  1.00  0.00    -0.084 Cl
HETATM    6  C6  UNL     1      -0.119   0.354   0.833  1.00  0.00    -0.027 A 
HETATM    7  C17 UNL     1       1.123   0.061   0.274  1.00  0.00     0.038 A 
ENDROOT
BRANCH   6   8
HETATM    8  C7  UNL     1      -0.963  -0.722   1.407  1.00  0.00     0.120 C 
BRANCH   8   9
HETATM    9  C8  UNL     1      -2.093  -1.121   0.560  1.00  0.00     0.130 A 
HETATM   10  N2  UNL     1      -1.893  -2.097  -0.346  1.00  0.00    -0.245 NA
HETATM   11  C9  UNL     1      -2.853  -2.545  -1.174  1.00  0.00     0.121 A 
HETATM   12  C10 UNL     1      -4.092  -1.921  -1.031  1.00  0.00     0.052 A 
HETATM   13  C11 UNL     1      -4.360  -0.916  -0.123  1.00  0.00     0.071 A 
HETATM   14  C12 UNL     1      -5.658  -0.300  -0.008  1.00  0.00     0.010 A 
HETATM   15  N4  UNL     1      -3.318  -0.535   0.671  1.00  0.00    -0.233 NA
HETATM   16  C13 UNL     1      -6.739  -0.624  -0.759  1.00  0.00     0.017 A 
HETATM   17  C16 UNL     1      -5.844   0.701   0.930  1.00  0.00     0.130 A 
HETATM   18  C14 UNL     1      -7.943   0.025  -0.574  1.00  0.00     0.020 A 
HETATM   19  C15 UNL     1      -8.089   1.025   0.380  1.00  0.00     0.116 A 
HETATM   20  N3  UNL     1      -7.006   1.340   1.121  1.00  0.00    -0.272 NA
ENDBRANCH   8   9
ENDBRANCH   6   8
BRANCH   1  21
HETATM   21  N1  UNL     1       3.219   0.505  -0.812  1.00  0.00    -0.323 N 
HETATM   22  C1  UNL     1       4.199   0.538   0.246  1.00  0.00     0.256 C 
HETATM   23  O1  UNL     1       3.706   0.969   1.310  1.00  0.00    -0.267 OA
HETATM   24  H1  UNL     1       3.506   0.158  -1.772  1.00  0.00     0.169 HD
BRANCH  22  25
HETATM   25  C18 UNL     1       5.592   0.105   0.031  1.00  0.00     0.032 A 
HETATM   26  C19 UNL     1       6.149  -0.367  -1.139  1.00  0.00     0.017 A 
HETATM   27  C20 UNL     1       7.480  -0.730  -1.156  1.00  0.00     0.001 A 
HETATM   28  C21 UNL     1       8.271  -0.630  -0.019  1.00  0.00     0.000 A 
HETATM   29  C22 UNL     1       7.726  -0.157   1.170  1.00  0.00     0.001 A 
HETATM   30  C23 UNL     1       6.398   0.193   1.141  1.00  0.00     0.017 A 
ENDBRANCH  22  25
ENDBRANCH   1  21
TORSDOF 4
