REMARK  6 active torsions:
REMARK  status: ('A' for Active; 'I' for Inactive)
REMARK    1  A    between atoms: C4_4  and  C5_5 
REMARK    2  A    between atoms: C6_6  and  C7_7 
REMARK    3  A    between atoms: C7_7  and  N1_8 
REMARK    4  A    between atoms: N1_8  and  C8_9 
REMARK    5  A    between atoms: C11_14  and  N4_15 
REMARK    6  A    between atoms: N4_15  and  C12_16 
ROOT
HETATM    1  C1  UNL     1       6.787   0.520   2.189  1.00  0.00     0.013 C 
HETATM    2  C2  UNL     1       5.765  -0.307   1.868  1.00  0.00    -0.009 C 
HETATM    3  C3  UNL     1       4.683  -1.302   1.610  1.00  0.00    -0.004 C 
HETATM    4  C4  UNL     1       3.642  -1.309   0.719  1.00  0.00    -0.001 C 
ENDROOT
BRANCH   4   5
HETATM    5  C5  UNL     1       3.671  -0.095  -0.076  1.00  0.00    -0.002 C 
HETATM    6  C6  UNL     1       2.652  -0.108  -0.945  1.00  0.00    -0.007 C 
BRANCH   6   7
HETATM    7  C7  UNL     1       1.712  -1.262  -0.977  1.00  0.00     0.147 C 
BRANCH   7   8
HETATM    8  N1  UNL     1       0.366  -0.863  -0.700  1.00  0.00    -0.382 N 
HETATM    9  H10 UNL     1       0.035  -1.213   0.205  1.00  0.00     0.160 HD
BRANCH   8  10
HETATM   10  C8  UNL     1      -0.462  -0.075  -1.544  1.00  0.00     0.092 A 
HETATM   11  C9  UNL     1       0.061   0.317  -2.758  1.00  0.00     0.151 A 
HETATM   12  N2  UNL     1      -0.616   1.062  -3.684  1.00  0.00    -0.252 NA
HETATM   13  C10 UNL     1      -1.882   1.422  -3.357  1.00  0.00     0.235 A 
HETATM   14  N3  UNL     1      -2.381   1.038  -2.181  1.00  0.00    -0.222 NA
HETATM   15  C11 UNL     1      -1.772   0.315  -1.243  1.00  0.00     0.157 A 
BRANCH  15  16
HETATM   16  N4  UNL     1      -2.334  -0.069  -0.008  1.00  0.00    -0.339 N 
HETATM   17  H13 UNL     1      -1.771  -0.631   0.647  1.00  0.00     0.167 HD
BRANCH  16  18
HETATM   18  C12 UNL     1      -3.629   0.220   0.486  1.00  0.00     0.035 A 
HETATM   19  C13 UNL     1      -4.586   0.941  -0.190  1.00  0.00     0.032 A 
HETATM   20  C14 UNL     1      -5.845   1.225   0.288  1.00  0.00     0.046 A 
HETATM   21  C15 UNL     1      -6.199   0.766   1.536  1.00  0.00     0.138 A 
HETATM   22  F1  UNL     1      -7.403   0.992   2.089  1.00  0.00    -0.204 F 
HETATM   23  C16 UNL     1      -5.290   0.037   2.266  1.00  0.00     0.074 A 
HETATM   24 CL1  UNL     1      -5.690  -0.571   3.858  1.00  0.00    -0.081 Cl
HETATM   25  C17 UNL     1      -4.051  -0.208   1.724  1.00  0.00     0.056 A 
ENDBRANCH  16  18
ENDBRANCH  15  16
ENDBRANCH   8  10
ENDBRANCH   7   8
ENDBRANCH   6   7
ENDBRANCH   4   5
TORSDOF 6
