REMARK  13 active torsions:
REMARK  status: ('A' for Active; 'I' for Inactive)
REMARK    1  A    between atoms: C2_2  and  C3_3 
REMARK    2  A    between atoms: C2_2  and  C13_16 
REMARK    3  A    between atoms: C4_4  and  N1_5 
REMARK    4  A    between atoms: C5_6  and  N2_7 
REMARK    5  A    between atoms: C7_9  and  C8_10 
REMARK    6  A    between atoms: C8_10  and  N3_11 
REMARK    7  A    between atoms: C17_20  and  O1_21 
REMARK    8  A    between atoms: O1_21  and  C18_22 
REMARK    9  A    between atoms: C18_22  and  C19_23 
REMARK   10  A    between atoms: C19_23  and  O2_24 
REMARK   11  A    between atoms: O2_24  and  C20_25 
REMARK   12  A    between atoms: C20_25  and  C23_28 
REMARK   13  A    between atoms: C23_28  and  C24_29 
ROOT
HETATM    1  C1  UNL     1       2.026   0.095   1.563  1.00  0.00     0.025 C 
HETATM    2  C2  UNL     1       2.340  -1.044   0.994  1.00  0.00    -0.026 C 
ENDROOT
BRANCH   2   3
HETATM    3  C3  UNL     1       3.762  -1.223   1.192  1.00  0.00    -0.016 C 
HETATM    4  C4  UNL     1       4.426  -2.273   0.774  1.00  0.00     0.050 C 
HETATM    5  C5  UNL     1       5.542  -1.828   1.634  1.00  0.00     0.205 C 
HETATM    6  C6  UNL     1       6.743  -1.248   1.040  1.00  0.00     0.055 C 
HETATM    7  C12 UNL     1       4.903  -0.495   1.714  1.00  0.00     0.072 C 
HETATM    8  C7  UNL     1       5.960   0.065   0.862  1.00  0.00     0.028 C 
BRANCH   4   9
HETATM    9  N1  UNL     1       4.840  -3.495   0.209  1.00  0.00    -0.400 N 
HETATM   10  H3  UNL     1       5.340  -3.646  -0.691  1.00  0.00     0.156 HD
HETATM   11  H4  UNL     1       4.725  -4.473   0.574  1.00  0.00     0.156 HD
ENDBRANCH   4   9
BRANCH   5  12
HETATM   12  N2  UNL     1       5.683  -2.508   2.908  1.00  0.00     0.094 N 
HETATM   13  H5  UNL     1       4.733  -2.473   3.357  1.00  0.00     0.314 HD
HETATM   14  H6  UNL     1       6.377  -2.009   3.479  1.00  0.00     0.314 HD
ENDBRANCH   5  12
BRANCH   8  15
HETATM   15  C8  UNL     1       5.762   0.424  -0.562  1.00  0.00     0.277 C 
BRANCH  15  16
HETATM   16  N3  UNL     1       5.100   1.635  -0.869  1.00  0.00     0.088 N 
HETATM   17  C9  UNL     1       3.716   1.833  -0.638  1.00  0.00     0.274 C 
HETATM   18  C10 UNL     1       3.683   2.802  -1.832  1.00  0.00     0.060 C 
HETATM   19  C11 UNL     1       4.904   1.994  -2.241  1.00  0.00     0.274 C 
ENDBRANCH  15  16
ENDBRANCH   8  15
ENDBRANCH   2   3
BRANCH   2  20
HETATM   20  C13 UNL     1       1.242  -1.742   0.372  1.00  0.00    -0.024 A 
HETATM   21  C14 UNL     1       1.326  -2.937  -0.290  1.00  0.00     0.012 A 
HETATM   22  C15 UNL     1       0.308  -3.634  -0.892  1.00  0.00     0.004 A 
HETATM   23  C16 UNL     1      -0.925  -3.044  -0.806  1.00  0.00     0.037 A 
HETATM   24  C17 UNL     1      -1.097  -1.845  -0.159  1.00  0.00     0.069 A 
HETATM   25  C26 UNL     1      -0.028  -1.208   0.420  1.00  0.00     0.049 A 
BRANCH  24  26
HETATM   26  O1  UNL     1      -2.378  -1.325  -0.121  1.00  0.00    -0.349 OA
BRANCH  26  27
HETATM   27  C18 UNL     1      -2.595  -0.100   0.531  1.00  0.00     0.201 C 
BRANCH  27  28
HETATM   28  C19 UNL     1      -4.081   0.270   0.446  1.00  0.00     0.195 C 
BRANCH  28  29
HETATM   29  O2  UNL     1      -4.439   0.379  -0.872  1.00  0.00    -0.379 OA
BRANCH  29  30
HETATM   30  C20 UNL     1      -5.774   0.713  -1.087  1.00  0.00     0.053 C 
HETATM   31  C21 UNL     1      -6.657  -0.361  -0.469  1.00  0.00     0.045 C 
HETATM   32  C22 UNL     1      -6.022   0.755  -2.564  1.00  0.00     0.045 C 
BRANCH  30  33
HETATM   33  C23 UNL     1      -6.128   2.056  -0.494  1.00  0.00     0.037 C 
BRANCH  33  34
HETATM   34  C24 UNL     1      -7.595   2.380  -0.752  1.00  0.00    -0.002 C 
HETATM   35  C25 UNL     1      -7.921   3.725  -0.150  1.00  0.00     0.005 C 
ENDBRANCH  33  34
ENDBRANCH  30  33
ENDBRANCH  29  30
ENDBRANCH  28  29
ENDBRANCH  27  28
ENDBRANCH  26  27
ENDBRANCH  24  26
ENDBRANCH   2  20
TORSDOF 13
