REMARK  6 active torsions:
REMARK  status: ('A' for Active; 'I' for Inactive)
REMARK    1  A    between atoms: C2_2  and  N1_3 
REMARK    2  A    between atoms: N1_3  and  S1_4 
REMARK    3  A    between atoms: S1_4  and  C3_5 
REMARK    4  A    between atoms: C5_7  and  O1_8 
REMARK    5  A    between atoms: O1_8  and  C6_9 
REMARK    6  A    between atoms: C6_9  and  C7_10 
ROOT
HETATM    1  C3  UNL     1      -0.805   2.669   0.212  1.00  0.00     0.025 C 
HETATM    2  C4  UNL     1       0.174   1.776  -0.030  1.00  0.00     0.057 C 
HETATM    3  C5  UNL     1       0.208   0.355  -0.467  1.00  0.00     0.076 C 
HETATM    4  C13 UNL     1      -0.736  -0.372  -1.094  1.00  0.00     0.004 C 
HETATM    5  C14 UNL     1      -0.078  -1.687  -0.815  1.00  0.00     0.119 C 
HETATM    6  C15 UNL     1      -1.201  -2.707  -0.888  1.00  0.00     0.105 C 
HETATM    7  N2  UNL     1      -1.790  -2.970  -2.002  1.00  0.00    -0.229 NA
HETATM    8  C16 UNL     1      -2.094  -2.042  -3.081  1.00  0.00     0.231 C 
HETATM    9  N3  UNL     1      -2.365  -0.760  -2.911  1.00  0.00    -0.252 NA
HETATM   10  C17 UNL     1      -2.029   0.023  -1.799  1.00  0.00     0.242 C 
HETATM   11  N4  UNL     1      -3.010   0.263  -0.754  1.00  0.00    -0.359 N 
HETATM   12  C18 UNL     1      -3.155   1.534  -0.017  1.00  0.00     0.090 C 
HETATM   13  C19 UNL     1      -2.282   2.519   0.315  1.00  0.00     0.037 C 
HETATM   14  C20 UNL     1      -4.004  -0.511  -0.102  1.00  0.00     0.087 A 
HETATM   15  C21 UNL     1      -4.597  -1.722  -0.610  1.00  0.00     0.031 A 
HETATM   16  C22 UNL     1      -4.068  -2.555   0.563  1.00  0.00     0.007 A 
HETATM   17  C23 UNL     1      -3.236  -3.709   0.204  1.00  0.00     0.125 C 
HETATM   18  N5  UNL     1      -1.802  -3.527   0.148  1.00  0.00    -0.378 N 
HETATM   19  C24 UNL     1      -3.413  -1.324   1.061  1.00  0.00     0.031 A 
HETATM   20  H31 UNL     1      -1.062  -3.894   0.749  1.00  0.00     0.160 HD
ENDROOT
BRANCH   3  21
HETATM   21  O1  UNL     1       1.384  -0.262  -0.171  1.00  0.00    -0.348 OA
BRANCH  21  22
HETATM   22  C6  UNL     1       2.047  -0.182   1.051  1.00  0.00     0.207 C 
BRANCH  22  23
HETATM   23  C7  UNL     1       3.476  -0.620   0.977  1.00  0.00     0.146 C 
HETATM   24  C8  UNL     1       3.682  -2.024   0.491  1.00  0.00     0.037 C 
HETATM   25  C9  UNL     1       4.775  -1.861  -0.566  1.00  0.00     0.040 C 
HETATM   26  C10 UNL     1       5.383  -0.542  -0.122  1.00  0.00     0.054 C 
HETATM   27  C11 UNL     1       6.198   0.083  -1.205  1.00  0.00     0.045 C 
HETATM   28  C12 UNL     1       6.176  -0.696   1.154  1.00  0.00     0.045 C 
HETATM   29  O2  UNL     1       4.209   0.199   0.088  1.00  0.00    -0.373 OA
ENDBRANCH  22  23
ENDBRANCH  21  22
ENDBRANCH   3  21
BRANCH   1  30
HETATM   30  S1  UNL     1      -0.202   4.300   0.447  1.00  0.00    -0.015 SA
BRANCH  30  31
HETATM   31  N1  UNL     1      -1.446   5.461   0.789  1.00  0.00    -0.337 N 
HETATM   32  H4  UNL     1      -1.402   5.474   1.830  1.00  0.00     0.173 HD
BRANCH  31  33
HETATM   33  C2  UNL     1      -2.362   6.265   0.066  1.00  0.00     0.085 C 
HETATM   34  C1  UNL     1      -2.742   7.372   0.671  1.00  0.00     0.030 C 
ENDBRANCH  31  33
ENDBRANCH  30  31
ENDBRANCH   1  30
TORSDOF 6
