REMARK  6 active torsions:
REMARK  status: ('A' for Active; 'I' for Inactive)
REMARK    1  A    between atoms: N1_2  and  C2_3 
REMARK    2  A    between atoms: C10_13  and  C11_14 
REMARK    3  A    between atoms: C11_14  and  C12_15 
REMARK    4  A    between atoms: C13_16  and  P1_17 
REMARK    5  A    between atoms: P1_17  and  O1_18 
REMARK    6  A    between atoms: C15_20  and  O2_21 
ROOT
HETATM    1  C11 UNL     1       0.353  -1.296   0.930  1.00  0.00     0.080 C 
ENDROOT
BRANCH   1   2
HETATM    2  C10 UNL     1      -0.852  -0.559   1.219  1.00  0.00    -0.044 A 
HETATM    3  C9  UNL     1      -0.914  -0.099   2.563  1.00  0.00     0.008 A 
HETATM    4  C8  UNL     1      -1.891   0.634   3.205  1.00  0.00     0.002 A 
HETATM    5  C7  UNL     1      -2.991   0.995   2.463  1.00  0.00     0.013 A 
HETATM    6  C6  UNL     1      -3.015   0.589   1.149  1.00  0.00    -0.010 A 
HETATM    7  C5  UNL     1      -4.267   1.128   0.551  1.00  0.00     0.130 C 
HETATM    8  C19 UNL     1      -1.997  -0.143   0.587  1.00  0.00    -0.014 A 
HETATM    9  N3  UNL     1      -4.597   1.570  -0.648  1.00  0.00    -0.254 NA
HETATM   10  C4  UNL     1      -3.772   1.673  -1.834  1.00  0.00     0.226 C 
HETATM   11  N2  UNL     1      -2.999   0.705  -2.291  1.00  0.00    -0.280 NA
HETATM   12  C3  UNL     1      -2.814  -0.590  -1.751  1.00  0.00     0.182 C 
HETATM   13  C2  UNL     1      -1.720  -0.767  -0.709  1.00  0.00     0.161 C 
BRANCH  13  14
HETATM   14  N1  UNL     1      -1.738  -2.226  -0.599  1.00  0.00    -0.301 NA
HETATM   15  C1  UNL     1      -2.816  -2.872  -0.478  1.00  0.00     0.143 C 
ENDBRANCH  13  14
ENDBRANCH   1   2
BRANCH   1  16
HETATM   16  C12 UNL     1       1.449  -0.757   0.131  1.00  0.00    -0.016 A 
HETATM   17  C13 UNL     1       2.378   0.135   0.544  1.00  0.00    -0.015 A 
HETATM   18  C14 UNL     1       3.558   0.779  -0.083  1.00  0.00     0.106 A 
HETATM   19  C15 UNL     1       3.726   0.264  -1.490  1.00  0.00     0.052 A 
HETATM   20  C17 UNL     1       2.919  -0.613  -2.043  1.00  0.00     0.064 A 
HETATM   21  C18 UNL     1       1.799  -1.127  -1.275  1.00  0.00     0.057 A 
HETATM   22  N4  UNL     1       1.080  -2.009  -1.877  1.00  0.00    -0.300 NA
HETATM   23  H21 UNL     1       1.244  -2.325  -2.837  1.00  0.00     0.187 HD
BRANCH  17  24
HETATM   24  P1  UNL     1       2.422   0.838   2.206  1.00  0.00     0.039 P 
HETATM   25  H13 UNL     1       1.380   1.773   2.486  1.00  0.00     0.092 HD
BRANCH  24  26
HETATM   26  O1  UNL     1       2.897  -0.183   3.463  1.00  0.00    -0.372 OA
HETATM   27  H14 UNL     1       2.303  -0.044   4.249  1.00  0.00     0.215 HD
ENDBRANCH  24  26
ENDBRANCH  17  24
BRANCH  19  28
HETATM   28  O2  UNL     1       4.793   0.755  -2.220  1.00  0.00    -0.360 OA
HETATM   29  C16 UNL     1       5.058   2.145  -2.117  1.00  0.00     0.209 C 
ENDBRANCH  19  28
ENDBRANCH   1  16
TORSDOF 6
