REMARK  2 active torsions:
REMARK  status: ('A' for Active; 'I' for Inactive)
REMARK    1  A    between atoms: C4_5  and  N1_6 
REMARK    2  A    between atoms: N1_6  and  C5_7 
ROOT
HETATM    1  C5  UNL     1       0.708   0.909  -1.245  1.00  0.00     0.147 C 
HETATM    2  N2  UNL     1       0.511  -0.146  -0.738  1.00  0.00    -0.212 NA
HETATM    3  C6  UNL     1       0.762  -1.416  -0.335  1.00  0.00     0.296 C 
HETATM    4  N3  UNL     1      -0.046  -2.157   0.157  1.00  0.00    -0.416 NA
HETATM    5  C7  UNL     1      -1.137  -2.768   0.676  1.00  0.00     0.396 C 
HETATM    6  O1  UNL     1      -2.085  -2.142   1.455  1.00  0.00    -0.320 OA
HETATM    7  C8  UNL     1      -2.967  -1.124   1.292  1.00  0.00     0.080 A 
HETATM    8  C9  UNL     1      -4.110  -1.560   1.982  1.00  0.00     0.039 A 
HETATM    9  C10 UNL     1      -5.313  -0.845   2.106  1.00  0.00     0.026 A 
HETATM   10  C11 UNL     1      -5.358   0.399   1.485  1.00  0.00     0.034 A 
HETATM   11 CL1  UNL     1      -6.704   1.509   1.464  1.00  0.00    -0.084 Cl
HETATM   12  C12 UNL     1      -4.261   0.852   0.805  1.00  0.00     0.035 A 
HETATM   13  C13 UNL     1      -3.099   0.143   0.694  1.00  0.00    -0.003 A 
HETATM   14  C14 UNL     1      -1.870   0.474   0.011  1.00  0.00     0.190 C 
HETATM   15  N4  UNL     1      -1.676   1.739  -0.606  1.00  0.00    -0.293 NA
HETATM   16  C15 UNL     1      -0.467   1.821  -1.143  1.00  0.00     0.161 C 
ENDROOT
BRANCH   1  17
HETATM   17  N1  UNL     1       1.901   1.307  -1.909  1.00  0.00    -0.340 N 
HETATM   18  H3  UNL     1       1.724   1.811  -2.831  1.00  0.00     0.167 HD
BRANCH  17  19
HETATM   19  C4  UNL     1       3.153   1.062  -1.368  1.00  0.00     0.035 A 
HETATM   20  C3  UNL     1       4.222   1.340  -2.230  1.00  0.00     0.032 A 
HETATM   21  C2  UNL     1       5.524   1.159  -1.816  1.00  0.00     0.046 A 
HETATM   22  C1  UNL     1       5.819   0.709  -0.568  1.00  0.00     0.138 A 
HETATM   23  F1  UNL     1       7.089   0.520  -0.131  1.00  0.00    -0.204 F 
HETATM   24  C17 UNL     1       4.794   0.425   0.310  1.00  0.00     0.074 A 
HETATM   25  C16 UNL     1       3.510   0.621  -0.148  1.00  0.00     0.056 A 
HETATM   26 CL2  UNL     1       5.048  -0.158   1.939  1.00  0.00    -0.081 Cl
ENDBRANCH  17  19
ENDBRANCH   1  17
TORSDOF 2
