REMARK  7 active torsions:
REMARK  status: ('A' for Active; 'I' for Inactive)
REMARK    1  A    between atoms: O1_2  and  C2_3 
REMARK    2  A    between atoms: C5_6  and  C6_7 
REMARK    3  A    between atoms: C6_7  and  N1_8 
REMARK    4  A    between atoms: C6_7  and  N2_9 
REMARK    5  A    between atoms: N2_9  and  C7_10 
REMARK    6  A    between atoms: C14_19  and  O2_20 
REMARK    7  A    between atoms: O2_20  and  P1_21 
ROOT
HETATM    1  C6  UNL     1      -0.895  -0.360   0.735  1.00  0.00     0.084 C 
ENDROOT
BRANCH   1   2
HETATM    2  C5  UNL     1       0.384  -0.524   0.388  1.00  0.00    -0.014 A 
HETATM    3  C4  UNL     1       1.029  -1.810   0.705  1.00  0.00     0.072 A 
HETATM    4  C3  UNL     1       2.440  -1.765   0.230  1.00  0.00     0.017 A 
HETATM    5  C2  UNL     1       3.113  -0.809  -0.379  1.00  0.00     0.098 A 
HETATM    6  C14 UNL     1       2.367   0.418  -0.639  1.00  0.00     0.106 A 
HETATM    7  C13 UNL     1       1.097   0.544  -0.279  1.00  0.00     0.050 A 
BRANCH   5   8
HETATM    8  O1  UNL     1       4.439  -1.041  -0.713  1.00  0.00    -0.353 OA
HETATM    9  C1  UNL     1       5.304  -1.343   0.391  1.00  0.00     0.210 C 
ENDBRANCH   5   8
BRANCH   6  10
HETATM   10  O2  UNL     1       3.054   1.450  -1.282  1.00  0.00    -0.327 OA
BRANCH  10  11
HETATM   11  P1  UNL     1       4.174   2.526  -0.475  1.00  0.00     0.009 P 
HETATM   12  H14 UNL     1       4.676   1.941   0.759  1.00  0.00     0.085 HD
HETATM   13  H15 UNL     1       3.623   3.854  -0.260  1.00  0.00     0.085 HD
ENDBRANCH  10  11
ENDBRANCH   6  10
ENDBRANCH   1   2
BRANCH   1  14
HETATM   14  N1  UNL     1      -1.265  -1.585   1.355  1.00  0.00    -0.288 NA
HETATM   15  H7  UNL     1      -1.405  -2.526   0.969  1.00  0.00     0.125 HD
HETATM   16  H8  UNL     1      -1.398  -2.517   0.940  1.00  0.00     0.125 HD
ENDBRANCH   1  14
BRANCH   1  17
HETATM   17  N2  UNL     1      -1.606   0.839   0.475  1.00  0.00    -0.347 N 
HETATM   18  H9  UNL     1      -1.032   1.694   0.628  1.00  0.00     0.167 HD
BRANCH  17  19
HETATM   19  C7  UNL     1      -2.961   0.881   0.052  1.00  0.00     0.035 A 
HETATM   20  C8  UNL     1      -3.641  -0.297  -0.123  1.00  0.00     0.032 A 
HETATM   21  C9  UNL     1      -4.966  -0.200  -0.539  1.00  0.00     0.046 A 
HETATM   22  C10 UNL     1      -5.550   1.030  -0.760  1.00  0.00     0.138 A 
HETATM   23  F1  UNL     1      -6.853   1.020  -1.165  1.00  0.00    -0.204 F 
HETATM   24  C11 UNL     1      -4.837   2.205  -0.574  1.00  0.00     0.074 A 
HETATM   25 CL1  UNL     1      -5.660   3.723  -0.879  1.00  0.00    -0.081 Cl
HETATM   26  C12 UNL     1      -3.525   2.117  -0.163  1.00  0.00     0.056 A 
ENDBRANCH  17  19
ENDBRANCH   1  17
TORSDOF 7
