REMARK  3 active torsions:
REMARK  status: ('A' for Active; 'I' for Inactive)
REMARK    1  A    between atoms: O1_2  and  C2_3 
REMARK    2  A    between atoms: C5_6  and  N1_7 
REMARK    3  A    between atoms: N1_7  and  C6_8 
ROOT
HETATM    1  C2  UNL     1       3.231   1.096  -0.194  1.00  0.00     0.058 A 
HETATM    2  C3  UNL     1       1.954   1.325   0.106  1.00  0.00     0.045 A 
HETATM    3  C4  UNL     1       1.620  -0.107   0.219  1.00  0.00     0.004 A 
HETATM    4  C5  UNL     1       0.572  -0.911   0.489  1.00  0.00     0.137 C 
HETATM    5  N3  UNL     1       0.518  -2.359   0.540  1.00  0.00    -0.224 NA
HETATM    6  C15 UNL     1       1.456  -3.264   0.734  1.00  0.00     0.236 C 
HETATM    7  N4  UNL     1       2.876  -3.132   0.967  1.00  0.00    -0.240 NA
HETATM    8  C16 UNL     1       3.502  -2.197   1.555  1.00  0.00     0.084 C 
HETATM    9  C17 UNL     1       3.768  -1.078   0.927  1.00  0.00     0.023 C 
HETATM   10  C18 UNL     1       3.045  -0.361  -0.118  1.00  0.00     0.104 A 
ENDROOT
BRANCH   4  11
HETATM   11  N1  UNL     1      -0.611  -0.194   0.757  1.00  0.00    -0.339 N 
HETATM   12  H5  UNL     1      -0.423   0.405   1.589  1.00  0.00     0.167 HD
BRANCH  11  13
HETATM   13  C6  UNL     1      -1.751  -0.361  -0.037  1.00  0.00     0.062 A 
HETATM   14  C7  UNL     1      -1.638  -1.258  -1.079  1.00  0.00     0.146 A 
HETATM   15  N2  UNL     1      -2.721  -1.448  -1.871  1.00  0.00    -0.270 NA
HETATM   16  C8  UNL     1      -3.872  -0.796  -1.666  1.00  0.00     0.128 A 
HETATM   17  C9  UNL     1      -4.025   0.113  -0.630  1.00  0.00    -0.006 A 
HETATM   18  C10 UNL     1      -5.237   0.778  -0.440  1.00  0.00     0.014 A 
HETATM   19  C14 UNL     1      -2.931   0.319   0.187  1.00  0.00     0.004 A 
HETATM   20  C11 UNL     1      -5.309   1.660   0.604  1.00  0.00     0.001 A 
HETATM   21  C12 UNL     1      -4.225   1.889   1.446  1.00  0.00     0.001 A 
HETATM   22  C13 UNL     1      -3.032   1.213   1.233  1.00  0.00     0.014 A 
ENDBRANCH  11  13
ENDBRANCH   4  11
BRANCH   1  23
HETATM   23  O1  UNL     1       4.184   2.050  -0.444  1.00  0.00    -0.359 OA
HETATM   24  C1  UNL     1       5.546   1.677  -0.377  1.00  0.00     0.209 C 
ENDBRANCH   1  23
TORSDOF 3
