REMARK  1 active torsions:
REMARK  status: ('A' for Active; 'I' for Inactive)
REMARK    1  A    between atoms: C2_2  and  C3_3 
ROOT
HETATM    1  C3  UNL     1      -1.615   0.622  -1.070  1.00  0.00    -0.030 C 
HETATM    2  C4  UNL     1      -2.605  -0.241  -1.461  1.00  0.00     0.010 C 
HETATM    3  C5  UNL     1      -2.926  -1.697  -1.675  1.00  0.00     0.163 C 
HETATM    4  N1  UNL     1      -2.424  -2.863  -1.530  1.00  0.00    -0.275 NA
HETATM    5  C6  UNL     1      -1.147  -3.194  -1.011  1.00  0.00     0.227 C 
HETATM    6  N2  UNL     1      -0.872  -2.292  -0.200  1.00  0.00    -0.245 NA
HETATM    7  C7  UNL     1       0.078  -1.857   0.670  1.00  0.00     0.061 C 
HETATM    8  C8  UNL     1       0.599  -2.851   1.346  1.00  0.00     0.144 C 
HETATM    9  N3  UNL     1       1.607  -2.592   2.300  1.00  0.00    -0.270 NA
HETATM   10  C9  UNL     1       2.352  -1.565   2.522  1.00  0.00     0.128 C 
HETATM   11  C10 UNL     1       2.306  -0.321   1.756  1.00  0.00    -0.012 A 
HETATM   12  C11 UNL     1       3.479   0.350   2.088  1.00  0.00     0.013 A 
HETATM   13  C12 UNL     1       3.767   1.590   1.560  1.00  0.00     0.001 A 
HETATM   14  C13 UNL     1       2.831   2.129   0.687  1.00  0.00     0.001 A 
HETATM   15  C14 UNL     1       1.703   1.416   0.406  1.00  0.00     0.009 A 
HETATM   16  C15 UNL     1       1.343   0.182   0.886  1.00  0.00    -0.036 A 
HETATM   17  C16 UNL     1       0.087  -0.345   0.426  1.00  0.00     0.074 C 
HETATM   18  C17 UNL     1      -0.338  -0.118  -0.977  1.00  0.00     0.026 C 
ENDROOT
BRANCH   1  19
HETATM   19  C2  UNL     1      -1.712   2.085  -0.968  1.00  0.00     0.006 C 
HETATM   20  C1  UNL     1      -3.116   2.501  -1.378  1.00  0.00     0.006 C 
ENDBRANCH   1  19
TORSDOF 1
