REMARK  2 active torsions:
REMARK  status: ('A' for Active; 'I' for Inactive)
REMARK    1  A    between atoms: O1_2  and  C2_3 
REMARK    2  A    between atoms: C8_10  and  C9_11 
ROOT
HETATM    1  C2  UNL     1       1.580  -2.138  -2.670  1.00  0.00     0.069 A 
HETATM    2  C3  UNL     1       1.945  -0.886  -3.095  1.00  0.00     0.033 A 
HETATM    3  C4  UNL     1       1.285   0.098  -2.336  1.00  0.00    -0.011 A 
HETATM    4  C5  UNL     1       0.371  -0.030  -1.282  1.00  0.00     0.034 A 
HETATM    5  C6  UNL     1       0.120  -1.399  -0.987  1.00  0.00     0.044 A 
HETATM    6  C7  UNL     1       0.706  -2.414  -1.660  1.00  0.00     0.064 A 
HETATM    7  N1  UNL     1      -0.668  -1.098  -0.080  1.00  0.00    -0.263 NA
HETATM    8  C8  UNL     1      -1.480  -1.778   0.860  1.00  0.00     0.257 C 
HETATM    9  N2  UNL     1      -1.998  -0.649   1.725  1.00  0.00    -0.271 NA
HETATM   10  C10 UNL     1      -1.151   0.197   2.163  1.00  0.00     0.125 C 
HETATM   11  C11 UNL     1      -0.662   1.378   2.889  1.00  0.00    -0.011 A 
HETATM   12  C12 UNL     1      -0.167   1.305   4.169  1.00  0.00     0.013 A 
HETATM   13  C13 UNL     1       0.258   2.439   4.826  1.00  0.00     0.001 A 
HETATM   14  C14 UNL     1       0.132   3.589   4.082  1.00  0.00     0.001 A 
HETATM   15  C15 UNL     1      -0.360   3.687   2.802  1.00  0.00     0.010 A 
HETATM   16  C16 UNL     1      -0.786   2.546   2.147  1.00  0.00    -0.029 A 
HETATM   17  C17 UNL     1      -1.318   2.637   0.769  1.00  0.00     0.154 C 
HETATM   18  N3  UNL     1      -0.511   2.150  -0.288  1.00  0.00    -0.410 N 
HETATM   19  C18 UNL     1       0.232   1.322  -1.139  1.00  0.00     0.162 C 
HETATM   20  H17 UNL     1      -0.164   2.869  -1.025  1.00  0.00     0.154 HD
ENDROOT
BRANCH   1  21
HETATM   21  O1  UNL     1       2.073  -3.303  -3.233  1.00  0.00    -0.356 OA
HETATM   22  C1  UNL     1       2.999  -3.303  -4.302  1.00  0.00     0.210 C 
ENDBRANCH   1  21
BRANCH   8  23
HETATM   23  C9  UNL     1      -2.747  -2.338   0.256  1.00  0.00     0.272 C 
HETATM   24  F1  UNL     1      -3.433  -2.970   1.277  1.00  0.00    -0.251 F 
ENDBRANCH   8  23
TORSDOF 2
