REMARK  4 active torsions:
REMARK  status: ('A' for Active; 'I' for Inactive)
REMARK    1  A    between atoms: C2_2  and  O1_3 
REMARK    2  A    between atoms: O1_3  and  C3_4 
REMARK    3  A    between atoms: N2_10  and  C8_11 
REMARK    4  A    between atoms: C17_21  and  O2_22 
ROOT
HETATM    1  C3  UNL     1      -2.334   0.322  -0.688  1.00  0.00     0.103 A 
HETATM    2  C4  UNL     1      -1.644   0.210  -1.776  1.00  0.00     0.069 A 
HETATM    3  C5  UNL     1      -0.225   0.311  -2.072  1.00  0.00     0.064 A 
HETATM    4  N1  UNL     1       0.461   0.370  -3.117  1.00  0.00    -0.262 NA
HETATM    5  C6  UNL     1       1.871   0.430  -3.136  1.00  0.00     0.134 C 
HETATM    6  C7  UNL     1       2.582   0.389  -1.994  1.00  0.00     0.112 C 
HETATM    7  N2  UNL     1       1.828   0.258  -0.796  1.00  0.00    -0.339 N 
HETATM    8  C15 UNL     1       0.504   0.714  -0.844  1.00  0.00     0.167 A 
HETATM    9  C16 UNL     1      -0.283   0.799   0.378  1.00  0.00     0.044 A 
HETATM   10  C17 UNL     1      -1.582   0.636   0.513  1.00  0.00     0.100 A 
ENDROOT
BRANCH   7  11
HETATM   11  C8  UNL     1       2.562  -0.384   0.254  1.00  0.00     0.064 A 
HETATM   12  C9  UNL     1       1.889  -1.104   1.249  1.00  0.00     0.146 A 
HETATM   13  N3  UNL     1       2.451  -1.768   2.258  1.00  0.00    -0.270 NA
HETATM   14  C10 UNL     1       3.807  -1.783   2.383  1.00  0.00     0.128 A 
HETATM   15  C11 UNL     1       4.535  -1.093   1.436  1.00  0.00    -0.006 A 
HETATM   16  C12 UNL     1       3.929  -0.414   0.402  1.00  0.00     0.004 A 
HETATM   17  C14 UNL     1       5.752  -0.749   1.028  1.00  0.00     0.014 A 
HETATM   18  C13 UNL     1       5.113  -0.042  -0.047  1.00  0.00     0.015 A 
ENDBRANCH   7  11
BRANCH  10  19
HETATM   19  O2  UNL     1      -2.199   0.760   1.748  1.00  0.00    -0.353 OA
HETATM   20  C18 UNL     1      -2.463   2.066   2.235  1.00  0.00     0.210 C 
ENDBRANCH  10  19
BRANCH   1  21
HETATM   21  O1  UNL     1      -3.693   0.166  -0.673  1.00  0.00    -0.349 OA
BRANCH  21  22
HETATM   22  C2  UNL     1      -4.364  -0.979  -0.242  1.00  0.00     0.171 C 
HETATM   23  C1  UNL     1      -5.871  -0.847  -0.347  1.00  0.00     0.034 C 
ENDBRANCH  21  22
ENDBRANCH   1  21
TORSDOF 4
