REMARK  5 active torsions:
REMARK  status: ('A' for Active; 'I' for Inactive)
REMARK    1  A    between atoms: C3_3  and  C4_4 
REMARK    2  A    between atoms: C9_10  and  N2_11 
REMARK    3  A    between atoms: N2_11  and  C10_12 
REMARK    4  A    between atoms: C14_18  and  O1_19 
REMARK    5  A    between atoms: C16_21  and  O2_22 
ROOT
HETATM    1  C10 UNL     1       0.622  -1.326  -0.043  1.00  0.00     0.142 A 
HETATM    2  N3  UNL     1       0.535  -2.572   0.455  1.00  0.00    -0.224 NA
HETATM    3  C11 UNL     1       1.610  -3.142   1.069  1.00  0.00     0.236 A 
HETATM    4  N4  UNL     1       2.748  -2.415   1.154  1.00  0.00    -0.241 NA
HETATM    5  C12 UNL     1       2.846  -1.149   0.651  1.00  0.00     0.075 A 
HETATM    6  C13 UNL     1       4.017  -0.425   0.749  1.00  0.00     0.072 A 
HETATM    7  C14 UNL     1       4.055   0.865   0.216  1.00  0.00     0.103 A 
HETATM    8  C16 UNL     1       2.973   1.449  -0.407  1.00  0.00     0.102 A 
HETATM    9  C18 UNL     1       1.805   0.704  -0.495  1.00  0.00     0.057 A 
HETATM   10  C19 UNL     1       1.751  -0.570   0.027  1.00  0.00     0.042 A 
ENDROOT
BRANCH   1  11
HETATM   11  N2  UNL     1      -0.569  -0.850  -0.657  1.00  0.00    -0.339 N 
HETATM   12  H11 UNL     1      -0.798   0.052  -1.119  1.00  0.00     0.167 HD
BRANCH  11  13
HETATM   13  C9  UNL     1      -1.736  -1.664  -0.715  1.00  0.00     0.058 A 
HETATM   14  C5  UNL     1      -3.043  -1.184  -0.282  1.00  0.00    -0.025 A 
HETATM   15  C4  UNL     1      -3.169   0.066   0.190  1.00  0.00     0.009 C 
HETATM   16  C6  UNL     1      -4.284  -2.011  -0.330  1.00  0.00     0.087 A 
HETATM   17  C7  UNL     1      -3.935  -3.341  -0.875  1.00  0.00     0.094 A 
HETATM   18  N1  UNL     1      -2.762  -3.752  -1.256  1.00  0.00    -0.275 NA
HETATM   19  C8  UNL     1      -1.615  -2.905  -1.182  1.00  0.00     0.145 A 
BRANCH  15  20
HETATM   20  C3  UNL     1      -4.488   0.520   0.616  1.00  0.00    -0.004 C 
HETATM   21  C2  UNL     1      -4.632   1.746   1.083  1.00  0.00    -0.031 C 
HETATM   22  C1  UNL     1      -3.472   2.671   1.182  1.00  0.00     0.036 C 
ENDBRANCH  15  20
ENDBRANCH  11  13
ENDBRANCH   1  11
BRANCH   8  23
HETATM   23  O2  UNL     1       3.089   2.719  -0.905  1.00  0.00    -0.353 OA
HETATM   24  C17 UNL     1       2.090   3.440  -1.557  1.00  0.00     0.210 C 
ENDBRANCH   8  23
BRANCH   7  25
HETATM   25  O1  UNL     1       5.229   1.596   0.312  1.00  0.00    -0.353 OA
HETATM   26  C15 UNL     1       6.386   1.044   0.946  1.00  0.00     0.210 C 
ENDBRANCH   7  25
TORSDOF 5
