REMARK  8 active torsions:
REMARK  status: ('A' for Active; 'I' for Inactive)
REMARK    1  A    between atoms: C3_3  and  O1_4 
REMARK    2  A    between atoms: C8_11  and  N3_12 
REMARK    3  A    between atoms: N3_12  and  C9_13 
REMARK    4  A    between atoms: C11_15  and  C12_16 
REMARK    5  A    between atoms: C19_23  and  O2_24 
REMARK    6  A    between atoms: O2_24  and  C20_25 
REMARK    7  A    between atoms: C20_25  and  C21_26 
REMARK    8  A    between atoms: C21_26  and  C22_27 
ROOT
HETATM    1  C1  UNL     1      -2.408   1.232  -3.737  1.00  0.00     0.044 C 
HETATM    2  C2  UNL     1      -2.507   1.188  -2.426  1.00  0.00    -0.013 C 
HETATM    3  C3  UNL     1      -3.557   1.993  -1.825  1.00  0.00     0.075 C 
HETATM    4  C5  UNL     1      -3.467   2.215  -0.526  1.00  0.00     0.069 C 
HETATM    5  C6  UNL     1      -2.349   1.655   0.258  1.00  0.00     0.073 A 
HETATM    6  N1  UNL     1      -2.368   2.141   1.529  1.00  0.00    -0.241 NA
HETATM    7  C7  UNL     1      -1.301   1.819   2.309  1.00  0.00     0.235 A 
HETATM    8  N2  UNL     1      -0.309   1.067   1.819  1.00  0.00    -0.224 NA
HETATM    9  C8  UNL     1      -0.319   0.600   0.561  1.00  0.00     0.136 A 
HETATM   10  C18 UNL     1      -1.358   0.872  -0.296  1.00  0.00     0.049 A 
HETATM   11  C19 UNL     1      -1.545   0.321  -1.658  1.00  0.00     0.192 C 
ENDROOT
BRANCH   9  12
HETATM   12  N3  UNL     1       0.796  -0.136   0.128  1.00  0.00    -0.369 N 
HETATM   13  H8  UNL     1       0.760  -0.458  -0.856  1.00  0.00     0.161 HD
BRANCH  12  14
HETATM   14  C9  UNL     1       2.031  -0.572   0.694  1.00  0.00     0.092 A 
HETATM   15  C10 UNL     1       1.921  -1.547   1.840  1.00  0.00     0.037 A 
HETATM   16  C11 UNL     1       2.415  -0.124   2.058  1.00  0.00     0.043 A 
BRANCH  16  17
HETATM   17  C12 UNL     1       3.851  -0.040   2.428  1.00  0.00    -0.052 A 
HETATM   18  C13 UNL     1       4.342   0.800   3.421  1.00  0.00     0.007 A 
HETATM   19  C14 UNL     1       5.703   0.760   3.639  1.00  0.00     0.001 A 
HETATM   20  C15 UNL     1       6.620  -0.023   2.976  1.00  0.00     0.000 A 
HETATM   21  C16 UNL     1       6.091  -0.852   1.987  1.00  0.00     0.001 A 
HETATM   22  C17 UNL     1       4.751  -0.836   1.748  1.00  0.00     0.007 A 
ENDBRANCH  16  17
ENDBRANCH  12  14
ENDBRANCH   9  12
BRANCH  11  23
HETATM   23  O2  UNL     1      -2.129  -0.964  -1.569  1.00  0.00    -0.376 OA
BRANCH  23  24
HETATM   24  C20 UNL     1      -1.421  -1.989  -2.101  1.00  0.00     0.175 C 
BRANCH  24  25
HETATM   25  C21 UNL     1      -2.188  -3.322  -1.931  1.00  0.00     0.095 C 
BRANCH  25  26
HETATM   26  C22 UNL     1      -1.404  -4.437  -2.510  1.00  0.00     0.233 C 
HETATM   27  O3  UNL     1      -2.032  -5.453  -2.330  1.00  0.00    -0.307 OA
ENDBRANCH  25  26
ENDBRANCH  24  25
ENDBRANCH  23  24
ENDBRANCH  11  23
BRANCH   3  28
HETATM   28  O1  UNL     1      -4.594   2.488  -2.628  1.00  0.00    -0.356 OA
HETATM   29  C4  UNL     1      -5.499   3.463  -2.101  1.00  0.00     0.210 C 
ENDBRANCH   3  28
TORSDOF 8
