REMARK  8 active torsions:
REMARK  status: ('A' for Active; 'I' for Inactive)
REMARK    1  A    between atoms: O1_2  and  C2_3 
REMARK    2  A    between atoms: C2_3  and  C18_23 
REMARK    3  A    between atoms: C3_4  and  C4_5 
REMARK    4  A    between atoms: C6_9  and  N3_10 
REMARK    5  A    between atoms: N3_10  and  C7_11 
REMARK    6  A    between atoms: C9_13  and  C10_14 
REMARK    7  A    between atoms: C18_23  and  O3_24 
REMARK    8  A    between atoms: O3_24  and  C19_25 
ROOT
HETATM    1  C4  UNL     1      -1.501  -1.341   0.711  1.00  0.00     0.070 A 
HETATM    2  N1  UNL     1      -1.639  -2.368  -0.115  1.00  0.00    -0.241 NA
HETATM    3  C5  UNL     1      -0.595  -3.108  -0.518  1.00  0.00     0.235 A 
HETATM    4  N2  UNL     1       0.635  -2.820  -0.086  1.00  0.00    -0.224 NA
HETATM    5  C6  UNL     1       0.860  -1.786   0.759  1.00  0.00     0.133 A 
HETATM    6  C16 UNL     1      -0.218  -1.053   1.151  1.00  0.00     0.013 A 
HETATM    7  C17 UNL     1      -0.044   0.074   2.074  1.00  0.00     0.055 C 
ENDROOT
BRANCH   5   8
HETATM    8  N3  UNL     1       2.199  -1.574   1.158  1.00  0.00    -0.369 N 
HETATM    9  H6  UNL     1       2.944  -2.222   0.822  1.00  0.00     0.161 HD
BRANCH   8  10
HETATM   10  C7  UNL     1       2.995  -0.701   1.948  1.00  0.00     0.091 A 
HETATM   11  C8  UNL     1       3.001   0.748   1.495  1.00  0.00     0.036 A 
HETATM   12  C9  UNL     1       4.264  -0.083   1.502  1.00  0.00     0.034 A 
BRANCH  12  13
HETATM   13  C10 UNL     1       4.874  -0.435   0.202  1.00  0.00    -0.009 C 
HETATM   14  C11 UNL     1       5.217   0.180  -0.919  1.00  0.00    -0.036 A 
HETATM   15  C12 UNL     1       5.821  -0.597  -2.004  1.00  0.00     0.035 A 
HETATM   16  C15 UNL     1       4.993   1.614  -1.065  1.00  0.00     0.035 A 
HETATM   17  C13 UNL     1       6.117   0.134  -3.066  1.00  0.00     0.142 A 
HETATM   18  O2  UNL     1       5.909   1.495  -3.218  1.00  0.00    -0.335 OA
HETATM   19  C14 UNL     1       5.337   2.240  -2.194  1.00  0.00     0.142 A 
ENDBRANCH  12  13
ENDBRANCH   8  10
ENDBRANCH   5   8
BRANCH   1  20
HETATM   20  C3  UNL     1      -2.680  -0.595   1.095  1.00  0.00     0.066 C 
HETATM   21  C2  UNL     1      -3.610  -0.412   0.172  1.00  0.00     0.072 C 
BRANCH  21  22
HETATM   22  O1  UNL     1      -3.662  -0.818  -1.141  1.00  0.00    -0.358 OA
HETATM   23  C1  UNL     1      -4.494  -1.859  -1.596  1.00  0.00     0.209 C 
ENDBRANCH  21  22
BRANCH  21  24
HETATM   24  C18 UNL     1      -4.887   0.321   0.361  1.00  0.00     0.243 C 
BRANCH  24  25
HETATM   25  O3  UNL     1      -5.024   1.432  -0.502  1.00  0.00    -0.315 OA
BRANCH  25  26
HETATM   26  C19 UNL     1      -6.145   2.226  -0.463  1.00  0.00     0.255 C 
HETATM   27  C20 UNL     1      -6.366   3.395  -1.321  1.00  0.00     0.126 C 
HETATM   28  O4  UNL     1      -7.015   1.872   0.396  1.00  0.00    -0.266 OA
ENDBRANCH  25  26
ENDBRANCH  24  25
ENDBRANCH  21  24
ENDBRANCH   1  20
TORSDOF 8
