REMARK  2 active torsions:
REMARK  status: ('A' for Active; 'I' for Inactive)
REMARK    1  A    between atoms: O1_2  and  C2_3 
REMARK    2  A    between atoms: C14_18  and  O2_19 
ROOT
HETATM    1  C2  UNL     1      -2.627   0.527  -0.234  1.00  0.00     0.077 C 
HETATM    2  C3  UNL     1      -1.712   1.521  -0.164  1.00  0.00     0.062 C 
HETATM    3  C4  UNL     1      -0.253   1.256  -0.381  1.00  0.00     0.043 C 
HETATM    4  N1  UNL     1       0.307   2.396  -0.148  1.00  0.00    -0.234 NA
HETATM    5  P1  UNL     1       2.017   2.828  -0.214  1.00  0.00     0.208 P 
HETATM    6  N2  UNL     1       3.155   1.751  -0.734  1.00  0.00    -0.241 NA
HETATM    7  C5  UNL     1       4.501   2.211  -0.745  1.00  0.00     0.130 C 
HETATM    8  C6  UNL     1       5.508   1.603  -0.184  1.00  0.00    -0.007 C 
HETATM    9  C7  UNL     1       5.350   0.340   0.079  1.00  0.00     0.013 C 
HETATM   10  C8  UNL     1       4.021  -0.023   0.532  1.00  0.00    -0.003 C 
HETATM   11  C9  UNL     1       2.938  -0.777   0.550  1.00  0.00    -0.026 C 
HETATM   12  C10 UNL     1       1.582  -1.127   1.026  1.00  0.00     0.033 C 
HETATM   13  C11 UNL     1       0.590  -1.168  -0.088  1.00  0.00     0.007 A 
HETATM   14  C12 UNL     1       0.130  -0.067  -0.769  1.00  0.00     0.050 A 
HETATM   15  C13 UNL     1      -0.782  -0.909   0.182  1.00  0.00     0.036 A 
HETATM   16  C14 UNL     1      -2.045  -0.839  -0.541  1.00  0.00     0.182 C 
ENDROOT
BRANCH   1  17
HETATM   17  O1  UNL     1      -4.020   0.620  -0.056  1.00  0.00    -0.357 OA
HETATM   18  C1  UNL     1      -4.474   1.123   1.183  1.00  0.00     0.209 C 
ENDBRANCH   1  17
BRANCH  16  19
HETATM   19  O2  UNL     1      -2.917  -1.820  -0.067  1.00  0.00    -0.384 OA
HETATM   20  C15 UNL     1      -3.366  -2.504  -1.196  1.00  0.00     0.202 C 
ENDBRANCH  16  19
TORSDOF 2
