REMARK  6 active torsions:
REMARK  status: ('A' for Active; 'I' for Inactive)
REMARK    1  A    between atoms: C2_2  and  C3_3 
REMARK    2  A    between atoms: C7_9  and  N3_10 
REMARK    3  A    between atoms: N3_10  and  C8_11 
REMARK    4  A    between atoms: C10_13  and  C11_14 
REMARK    5  A    between atoms: C19_22  and  O1_23 
REMARK    6  A    between atoms: O1_23  and  C20_24 
ROOT
HETATM    1  C3  UNL     1       3.602  -1.417   0.078  1.00  0.00    -0.022 A 
HETATM    2  C4  UNL     1       2.666  -2.421   0.130  1.00  0.00     0.042 A 
HETATM    3  C5  UNL     1       1.293  -2.175   0.247  1.00  0.00     0.072 A 
HETATM    4  N1  UNL     1       0.395  -3.161   0.296  1.00  0.00    -0.241 NA
HETATM    5  C6  UNL     1      -0.907  -2.839   0.410  1.00  0.00     0.235 A 
HETATM    6  N2  UNL     1      -1.325  -1.546   0.475  1.00  0.00    -0.224 NA
HETATM    7  C7  UNL     1      -0.462  -0.522   0.430  1.00  0.00     0.138 A 
HETATM    8  C17 UNL     1       0.857  -0.868   0.315  1.00  0.00     0.041 A 
HETATM    9  C18 UNL     1       1.801   0.119   0.262  1.00  0.00     0.055 A 
HETATM   10  C19 UNL     1       3.161  -0.091   0.146  1.00  0.00     0.086 A 
ENDROOT
BRANCH   7  11
HETATM   11  N3  UNL     1      -0.957   0.825   0.503  1.00  0.00    -0.369 N 
HETATM   12  H8  UNL     1      -0.361   1.678   0.476  1.00  0.00     0.161 HD
BRANCH  11  13
HETATM   13  C8  UNL     1      -2.383   0.930   0.621  1.00  0.00     0.092 A 
HETATM   14  C9  UNL     1      -2.893   2.363   0.693  1.00  0.00     0.037 A 
HETATM   15  C10 UNL     1      -3.248   1.480  -0.433  1.00  0.00     0.043 A 
BRANCH  15  16
HETATM   16  C11 UNL     1      -4.615   0.882  -0.520  1.00  0.00    -0.052 A 
HETATM   17  C12 UNL     1      -5.221   0.585   0.697  1.00  0.00     0.007 A 
HETATM   18  C13 UNL     1      -6.487   0.027   0.742  1.00  0.00     0.001 A 
HETATM   19  C14 UNL     1      -7.160  -0.238  -0.446  1.00  0.00     0.000 A 
HETATM   20  C15 UNL     1      -6.558   0.058  -1.667  1.00  0.00     0.001 A 
HETATM   21  C16 UNL     1      -5.279   0.621  -1.698  1.00  0.00     0.007 A 
ENDBRANCH  15  16
ENDBRANCH  11  13
ENDBRANCH   7  11
BRANCH  10  22
HETATM   22  O1  UNL     1       4.107   0.933   0.094  1.00  0.00    -0.279 OA
BRANCH  22  23
HETATM   23  C20 UNL     1       4.468   1.471  -1.134  1.00  0.00     0.260 C 
HETATM   24  C21 UNL     1       5.490   2.552  -0.993  1.00  0.00     0.126 C 
HETATM   25  O2  UNL     1       4.038   1.146  -2.269  1.00  0.00    -0.265 OA
ENDBRANCH  22  23
ENDBRANCH  10  22
BRANCH   1  26
HETATM   26  C2  UNL     1       5.050  -1.707  -0.048  1.00  0.00     0.037 C 
HETATM   27  C1  UNL     1       5.774  -1.517   1.263  1.00  0.00     0.010 C 
ENDBRANCH   1  26
TORSDOF 6
