REMARK  8 active torsions:
REMARK  status: ('A' for Active; 'I' for Inactive)
REMARK    1  A    between atoms: N1_1  and  P1_2 
REMARK    2  A    between atoms: P1_2  and  C1_3 
REMARK    3  A    between atoms: N2_4  and  C2_5 
REMARK    4  A    between atoms: C2_5  and  C3_6 
REMARK    5  A    between atoms: C3_6  and  C4_7 
REMARK    6  A    between atoms: C3_6  and  C11_16 
REMARK    7  A    between atoms: C4_7  and  N3_8 
REMARK    8  A    between atoms: N3_8  and  C5_9 
ROOT
HETATM    1  C3  UNL     1       0.694  -0.438  -0.850  1.00  0.00     0.056 C 
ENDROOT
BRANCH   1   2
HETATM    2  C2  UNL     1       2.046   0.231  -0.936  1.00  0.00     0.159 C 
BRANCH   2   3
HETATM    3  N2  UNL     1       2.049   1.598  -0.567  1.00  0.00    -0.299 NA
HETATM    4  C1  UNL     1       1.689   2.491  -1.418  1.00  0.00     0.129 C 
BRANCH   4   5
HETATM    5  P1  UNL     1       1.810   4.132  -0.622  1.00  0.00    -0.018 P 
HETATM    6  H3  UNL     1       0.649   4.969  -0.883  1.00  0.00     0.079 HD
BRANCH   5   7
HETATM    7  N1  UNL     1       3.301   5.005  -0.967  1.00  0.00    -0.308 NA
HETATM    8  H1  UNL     1       4.140   4.690  -0.457  1.00  0.00     0.123 HD
HETATM    9  H2  UNL     1       3.572   4.982  -1.991  1.00  0.00     0.123 HD
ENDBRANCH   5   7
ENDBRANCH   4   5
ENDBRANCH   2   3
ENDBRANCH   1   2
BRANCH   1  10
HETATM   10  C4  UNL     1       0.103  -0.415   0.538  1.00  0.00     0.130 C 
BRANCH  10  11
HETATM   11  N3  UNL     1      -0.072   0.936   0.993  1.00  0.00    -0.398 N 
HETATM   12  H10 UNL     1      -0.006   1.968   0.876  1.00  0.00     0.158 HD
BRANCH  11  13
HETATM   13  C5  UNL     1      -0.631   0.912   2.301  1.00  0.00     0.088 C 
HETATM   14  C6  UNL     1      -1.952   0.952   2.359  1.00  0.00    -0.037 C 
HETATM   15  C7  UNL     1      -2.881   1.018   1.201  1.00  0.00     0.067 C 
HETATM   16  C10 UNL     1      -2.761   0.937   3.605  1.00  0.00     0.210 C 
HETATM   17  C8  UNL     1      -3.774  -0.172   1.185  1.00  0.00     0.002 C 
HETATM   18  C9  UNL     1      -4.270  -0.569   2.349  1.00  0.00     0.131 C 
HETATM   19  O1  UNL     1      -3.927   0.143   3.491  1.00  0.00    -0.359 OA
ENDBRANCH  11  13
ENDBRANCH  10  11
ENDBRANCH   1  10
BRANCH   1  20
HETATM   20  C11 UNL     1       0.945  -1.891  -1.161  1.00  0.00    -0.051 A 
HETATM   21  C12 UNL     1       1.801  -2.561  -0.300  1.00  0.00     0.007 A 
HETATM   22  C13 UNL     1       2.070  -3.893  -0.532  1.00  0.00     0.001 A 
HETATM   23  C14 UNL     1       1.484  -4.532  -1.616  1.00  0.00     0.000 A 
HETATM   24  C15 UNL     1       0.638  -3.833  -2.452  1.00  0.00     0.001 A 
HETATM   25  C16 UNL     1       0.365  -2.513  -2.230  1.00  0.00     0.007 A 
ENDBRANCH   1  20
TORSDOF 8
