REMARK  3 active torsions:
REMARK  status: ('A' for Active; 'I' for Inactive)
REMARK    1  A    between atoms: O1_2  and  C2_3 
REMARK    2  A    between atoms: C6_9  and  N3_10 
REMARK    3  A    between atoms: C17_21  and  O2_22 
ROOT
HETATM    1  C2  UNL     1       3.257   0.146   0.328  1.00  0.00     0.103 A 
HETATM    2  C3  UNL     1       3.234   1.172  -0.593  1.00  0.00     0.072 A 
HETATM    3  C4  UNL     1       1.999   1.646  -0.968  1.00  0.00     0.075 A 
HETATM    4  N1  UNL     1       1.858   2.636  -1.855  1.00  0.00    -0.241 NA
HETATM    5  C5  UNL     1       0.642   3.079  -2.206  1.00  0.00     0.236 A 
HETATM    6  N2  UNL     1      -0.473   2.547  -1.679  1.00  0.00    -0.224 NA
HETATM    7  C6  UNL     1      -0.397   1.533  -0.767  1.00  0.00     0.140 A 
HETATM    8  C15 UNL     1       0.855   1.101  -0.428  1.00  0.00     0.041 A 
HETATM    9  C16 UNL     1       0.919   0.078   0.488  1.00  0.00     0.057 A 
HETATM   10  C17 UNL     1       2.140  -0.419   0.883  1.00  0.00     0.102 A 
ENDROOT
BRANCH   7  11
HETATM   11  N3  UNL     1      -1.650   1.062  -0.272  1.00  0.00    -0.356 N 
HETATM   12  C7  UNL     1      -2.407   1.001   1.042  1.00  0.00     0.159 C 
HETATM   13  C8  UNL     1      -3.184  -0.207   0.663  1.00  0.00    -0.060 C 
HETATM   14  C9  UNL     1      -3.313  -1.475   1.038  1.00  0.00     0.004 C 
HETATM   15  C14 UNL     1      -3.835   0.452  -0.568  1.00  0.00     0.061 C 
HETATM   16  C10 UNL     1      -3.119  -2.468  -0.075  1.00  0.00    -0.004 C 
HETATM   17  C11 UNL     1      -2.682  -2.121  -1.315  1.00  0.00    -0.025 C 
HETATM   18  C12 UNL     1      -2.036  -0.885  -1.771  1.00  0.00     0.053 C 
HETATM   19  C13 UNL     1      -2.496   0.429  -1.338  1.00  0.00     0.093 C 
ENDBRANCH   7  11
BRANCH  10  20
HETATM   20  O2  UNL     1       2.318  -1.433   1.787  1.00  0.00    -0.353 OA
HETATM   21  C18 UNL     1       1.242  -2.109   2.441  1.00  0.00     0.210 C 
ENDBRANCH  10  20
BRANCH   1  22
HETATM   22  O1  UNL     1       4.523  -0.312   0.687  1.00  0.00    -0.353 OA
HETATM   23  C1  UNL     1       5.711   0.198   0.178  1.00  0.00     0.210 C 
ENDBRANCH   1  22
TORSDOF 3
