REMARK  3 active torsions:
REMARK  status: ('A' for Active; 'I' for Inactive)
REMARK    1  A    between atoms: O1_2  and  C2_3 
REMARK    2  A    between atoms: C6_9  and  N3_10 
REMARK    3  A    between atoms: C17_22  and  O2_23 
ROOT
HETATM    1  C2  UNL     1       3.697   0.004   0.646  1.00  0.00     0.103 A 
HETATM    2  C3  UNL     1       3.449  -1.371   0.633  1.00  0.00     0.072 A 
HETATM    3  C4  UNL     1       2.217  -1.911   0.287  1.00  0.00     0.075 A 
HETATM    4  N1  UNL     1       1.923  -3.203   0.262  1.00  0.00    -0.241 NA
HETATM    5  C5  UNL     1       0.657  -3.567  -0.096  1.00  0.00     0.236 A 
HETATM    6  N2  UNL     1      -0.287  -2.664  -0.421  1.00  0.00    -0.223 NA
HETATM    7  C6  UNL     1       0.021  -1.332  -0.395  1.00  0.00     0.144 A 
HETATM    8  C15 UNL     1       1.282  -0.969  -0.037  1.00  0.00     0.042 A 
HETATM    9  C16 UNL     1       1.460   0.372  -0.043  1.00  0.00     0.057 A 
HETATM   10  C17 UNL     1       2.682   0.898   0.300  1.00  0.00     0.102 A 
ENDROOT
BRANCH   7  11
HETATM   11  N3  UNL     1      -1.182  -0.624  -0.814  1.00  0.00    -0.326 N 
HETATM   12  C7  UNL     1      -1.165   0.044  -2.111  1.00  0.00     0.140 C 
HETATM   13  C8  UNL     1      -2.638   0.517  -2.149  1.00  0.00     0.073 C 
HETATM   14  S1  UNL     1      -3.037   0.970  -0.594  1.00  0.00    -0.229 SA
HETATM   15  C9  UNL     1      -1.973   1.824   0.348  1.00  0.00     0.067 C 
HETATM   16  C10 UNL     1      -4.556   0.549   0.149  1.00  0.00     0.021 C 
HETATM   17  C14 UNL     1      -2.490  -0.534  -0.117  1.00  0.00     0.050 C 
HETATM   18  H10 UNL     1      -3.612   1.951  -0.980  1.00  0.00     0.083 HD
HETATM   19  C11 UNL     1      -4.972  -0.443   1.132  1.00  0.00     0.005 C 
HETATM   20  C12 UNL     1      -4.111  -1.418   1.373  1.00  0.00     0.003 C 
HETATM   21  C13 UNL     1      -2.824  -1.489   0.719  1.00  0.00     0.035 C 
ENDBRANCH   7  11
BRANCH  10  22
HETATM   22  O2  UNL     1       2.981   2.243   0.330  1.00  0.00    -0.353 OA
HETATM   23  C18 UNL     1       2.057   3.249   0.007  1.00  0.00     0.210 C 
ENDBRANCH  10  22
BRANCH   1  24
HETATM   24  O1  UNL     1       4.937   0.502   0.996  1.00  0.00    -0.353 OA
HETATM   25  C1  UNL     1       6.027  -0.301   1.359  1.00  0.00     0.210 C 
ENDBRANCH   1  24
TORSDOF 3
