REMARK  9 active torsions:
REMARK  status: ('A' for Active; 'I' for Inactive)
REMARK    1  A    between atoms: C2_2  and  C3_4 
REMARK    2  A    between atoms: C3_4  and  C4_5 
REMARK    3  A    between atoms: C4_5  and  N1_6 
REMARK    4  A    between atoms: N1_6  and  C5_7 
REMARK    5  A    between atoms: C8_12  and  C9_13 
REMARK    6  A    between atoms: C9_13  and  C10_14 
REMARK    7  A    between atoms: C11_15  and  C12_16 
REMARK    8  A    between atoms: C13_18  and  C14_19 
REMARK    9  A    between atoms: C15_20  and  O1_21 
ROOT
HETATM    1  C5  UNL     1       1.091   0.632   0.444  1.00  0.00     0.132 A 
HETATM    2  N2  UNL     1       1.810   1.115   1.485  1.00  0.00    -0.224 NA
HETATM    3  C6  UNL     1       1.390   2.138   2.250  1.00  0.00     0.234 A 
HETATM    4  N3  UNL     1       0.205   2.742   2.008  1.00  0.00    -0.253 NA
HETATM    5  C7  UNL     1      -0.589   2.324   0.980  1.00  0.00     0.129 A 
HETATM    6  C8  UNL     1      -0.113   1.271   0.225  1.00  0.00     0.009 A 
ENDROOT
BRANCH   6   7
HETATM    7  C9  UNL     1      -0.982   0.838  -0.876  1.00  0.00     0.071 C 
BRANCH   7   8
HETATM    8  C10 UNL     1      -1.700  -0.424  -0.552  1.00  0.00    -0.020 C 
HETATM    9  C11 UNL     1      -3.043  -0.486  -0.523  1.00  0.00     0.021 C 
BRANCH   9  10
HETATM   10  C12 UNL     1      -3.864  -1.652  -0.221  1.00  0.00     0.041 C 
HETATM   11 CL1  UNL     1      -3.001  -3.110   0.136  1.00  0.00    -0.084 Cl
HETATM   12  C13 UNL     1      -5.187  -1.606  -0.219  1.00  0.00     0.090 C 
BRANCH  12  13
HETATM   13  C14 UNL     1      -5.896  -0.393  -0.516  1.00  0.00    -0.047 C 
HETATM   14  C15 UNL     1      -6.499   0.625  -0.747  1.00  0.00     0.056 C 
BRANCH  14  15
HETATM   15  O1  UNL     1      -7.200   1.790  -1.020  1.00  0.00    -0.314 OA
HETATM   16  H15 UNL     1      -6.747   2.674  -0.844  1.00  0.00     0.230 HD
ENDBRANCH  14  15
ENDBRANCH  12  13
ENDBRANCH   9  10
ENDBRANCH   7   8
ENDBRANCH   6   7
BRANCH   1  17
HETATM   17  N1  UNL     1       1.557  -0.447  -0.341  1.00  0.00    -0.374 N 
HETATM   18  H7  UNL     1       0.923  -0.757  -1.130  1.00  0.00     0.161 HD
BRANCH  17  19
HETATM   19  C4  UNL     1       2.808  -1.118  -0.122  1.00  0.00     0.128 C 
BRANCH  19  20
HETATM   20  C3  UNL     1       3.955  -0.138  -0.277  1.00  0.00     0.089 C 
BRANCH  20  21
HETATM   21  C2  UNL     1       5.253  -0.868  -0.040  1.00  0.00     0.086 C 
HETATM   22  C1  UNL     1       5.817  -2.028   0.251  1.00  0.00     0.051 C 
HETATM   23  F1  UNL     1       6.354  -0.051  -0.159  1.00  0.00    -0.212 F 
ENDBRANCH  20  21
ENDBRANCH  19  20
ENDBRANCH  17  19
ENDBRANCH   1  17
TORSDOF 9
