REMARK  3 active torsions:
REMARK  status: ('A' for Active; 'I' for Inactive)
REMARK    1  A    between atoms: C2_2  and  C3_3 
REMARK    2  A    between atoms: C8_8  and  C9_9 
REMARK    3  A    between atoms: C12_12  and  O1_13 
ROOT
HETATM    1  C9  UNL     1      -0.895  -0.535   0.780  1.00  0.00     0.070 C 
HETATM    2  C10 UNL     1       0.173  -0.010   0.166  1.00  0.00     0.049 C 
HETATM    3  C11 UNL     1       1.505  -0.386   0.380  1.00  0.00     0.031 A 
HETATM    4  C12 UNL     1       2.571   0.312  -0.099  1.00  0.00     0.114 A 
HETATM    5  C14 UNL     1       3.682  -0.214   0.469  1.00  0.00     0.104 A 
HETATM    6  O2  UNL     1       4.801   0.336   0.103  1.00  0.00    -0.353 OA
HETATM    7  C15 UNL     1       5.916   0.884  -0.261  1.00  0.00     0.210 C 
HETATM    8  C16 UNL     1       3.560  -1.243   1.320  1.00  0.00     0.072 A 
HETATM    9  C17 UNL     1       2.136  -1.396   1.317  1.00  0.00     0.074 A 
HETATM   10  N1  UNL     1       1.384  -2.298   2.049  1.00  0.00    -0.241 NA
HETATM   11  C18 UNL     1       0.064  -2.486   2.007  1.00  0.00     0.234 C 
HETATM   12  N2  UNL     1      -0.862  -1.593   1.646  1.00  0.00    -0.241 NA
ENDROOT
BRANCH   4  13
HETATM   13  O1  UNL     1       2.545   1.397  -1.024  1.00  0.00    -0.352 OA
HETATM   14  C13 UNL     1       2.874   0.935  -2.355  1.00  0.00     0.210 C 
ENDBRANCH   4  13
BRANCH   1  15
HETATM   15  C8  UNL     1      -2.306  -0.088   0.814  1.00  0.00    -0.001 A 
HETATM   16  C3  UNL     1      -3.220  -0.096  -0.179  1.00  0.00    -0.046 A 
HETATM   17  C4  UNL     1      -4.554   0.110  -0.024  1.00  0.00     0.008 A 
HETATM   18  C5  UNL     1      -4.791   0.340   1.327  1.00  0.00     0.001 A 
HETATM   19  C6  UNL     1      -4.129   0.431   2.473  1.00  0.00     0.001 A 
HETATM   20  C7  UNL     1      -2.711   0.166   2.140  1.00  0.00     0.014 A 
BRANCH  16  21
HETATM   21  C2  UNL     1      -2.858  -0.259  -1.619  1.00  0.00     0.035 C 
HETATM   22  C1  UNL     1      -3.487   0.838  -2.441  1.00  0.00     0.010 C 
ENDBRANCH  16  21
ENDBRANCH   1  15
TORSDOF 3
