REMARK  5 active torsions:
REMARK  status: ('A' for Active; 'I' for Inactive)
REMARK    1  A    between atoms: C2_2  and  C3_3 
REMARK    2  A    between atoms: C2_2  and  O1_19 
REMARK    3  A    between atoms: C3_3  and  C4_4 
REMARK    4  A    between atoms: C7_8  and  N2_9 
REMARK    5  A    between atoms: C8_10  and  C9_11 
ROOT
HETATM    1  C4  UNL     1       2.436   0.288   0.527  1.00  0.00     0.017 C 
HETATM    2  N1  UNL     1       1.870   0.495  -0.596  1.00  0.00    -0.287 NA
HETATM    3  C5  UNL     1       0.471   0.339  -0.828  1.00  0.00     0.155 C 
HETATM    4  C6  UNL     1      -0.149   1.690  -1.109  1.00  0.00     0.041 C 
HETATM    5  C7  UNL     1      -0.250  -0.290   0.278  1.00  0.00     0.055 C 
HETATM    6  C15 UNL     1       0.327  -0.510   1.458  1.00  0.00     0.008 C 
HETATM    7  C16 UNL     1       1.748  -0.139   1.751  1.00  0.00     0.083 C 
ENDROOT
BRANCH   5   8
HETATM    8  N2  UNL     1      -1.586  -0.673   0.101  1.00  0.00    -0.263 NA
HETATM    9  C8  UNL     1      -2.576   0.058   0.488  1.00  0.00     0.128 C 
BRANCH   9  10
HETATM   10  C9  UNL     1      -3.925  -0.377   0.285  1.00  0.00    -0.019 A 
HETATM   11  C10 UNL     1      -4.184  -1.586  -0.327  1.00  0.00     0.013 A 
HETATM   12  C11 UNL     1      -5.512  -1.961  -0.499  1.00  0.00     0.001 A 
HETATM   13  C12 UNL     1      -6.568  -1.177  -0.085  1.00  0.00     0.000 A 
HETATM   14  C13 UNL     1      -6.330   0.036   0.530  1.00  0.00     0.001 A 
HETATM   15  C14 UNL     1      -4.995   0.400   0.696  1.00  0.00     0.013 A 
ENDBRANCH   9  10
ENDBRANCH   5   8
BRANCH   1  16
HETATM   16  C3  UNL     1       3.925   0.492   0.629  1.00  0.00     0.118 C 
BRANCH  16  17
HETATM   17  C2  UNL     1       4.485   0.917  -0.662  1.00  0.00     0.041 C 
HETATM   18  C1  UNL     1       5.144   2.011  -1.010  1.00  0.00     0.046 C 
BRANCH  17  19
HETATM   19  O1  UNL     1       4.147  -0.156  -1.493  1.00  0.00    -0.361 OA
HETATM   20  C17 UNL     1       4.925  -1.339  -1.490  1.00  0.00     0.209 C 
ENDBRANCH  17  19
ENDBRANCH  16  17
ENDBRANCH   1  16
TORSDOF 5
