REMARK  4 active torsions:
REMARK  status: ('A' for Active; 'I' for Inactive)
REMARK    1  A    between atoms: O1_2  and  C2_3 
REMARK    2  A    between atoms: C7_9  and  N2_10 
REMARK    3  A    between atoms: N2_10  and  C8_11 
REMARK    4  A    between atoms: C19_23  and  O2_24 
ROOT
HETATM    1  C2  UNL     1      -4.284  -0.331   0.442  1.00  0.00     0.102 A 
HETATM    2  C3  UNL     1      -3.431  -0.507   1.507  1.00  0.00     0.052 A 
HETATM    3  C4  UNL     1      -2.064  -0.342   1.446  1.00  0.00    -0.018 A 
HETATM    4  C5  UNL     1      -1.257  -0.532   2.569  1.00  0.00     0.032 A 
HETATM    5  C6  UNL     1       0.085  -0.325   2.357  1.00  0.00     0.120 A 
HETATM    6  N1  UNL     1       0.648   0.035   1.175  1.00  0.00    -0.242 NA
HETATM    7  C7  UNL     1      -0.120   0.225   0.069  1.00  0.00     0.140 A 
HETATM    8  C17 UNL     1      -1.468   0.024   0.258  1.00  0.00     0.023 A 
HETATM    9  C18 UNL     1      -2.314   0.209  -0.837  1.00  0.00     0.055 A 
HETATM   10  C19 UNL     1      -3.688   0.034  -0.742  1.00  0.00     0.102 A 
ENDROOT
BRANCH   7  11
HETATM   11  N2  UNL     1       0.500   0.583  -1.142  1.00  0.00    -0.325 N 
HETATM   12  H7  UNL     1       0.108   0.722  -2.073  1.00  0.00     0.169 HD
BRANCH  11  13
HETATM   13  C8  UNL     1       1.922   0.779  -1.022  1.00  0.00     0.129 A 
HETATM   14  C9  UNL     1       2.672  -0.353  -0.788  1.00  0.00     0.062 A 
HETATM   15  C10 UNL     1       4.031  -0.260  -0.654  1.00  0.00    -0.021 A 
HETATM   16  C11 UNL     1       4.729  -1.424  -0.412  1.00  0.00     0.012 A 
HETATM   17  C15 UNL     1       4.647   0.992  -0.759  1.00  0.00    -0.008 A 
HETATM   18  C12 UNL     1       6.093  -1.291  -0.275  1.00  0.00     0.001 A 
HETATM   19  C13 UNL     1       6.735  -0.056  -0.375  1.00  0.00     0.001 A 
HETATM   20  C14 UNL     1       5.996   1.095  -0.620  1.00  0.00     0.014 A 
HETATM   21  C16 UNL     1       3.870   2.110  -0.995  1.00  0.00     0.131 A 
HETATM   22  N3  UNL     1       2.559   1.973  -1.116  1.00  0.00    -0.242 NA
ENDBRANCH  11  13
ENDBRANCH   7  11
BRANCH  10  23
HETATM   23  O2  UNL     1      -4.488   0.236  -1.876  1.00  0.00    -0.353 OA
HETATM   24  C20 UNL     1      -3.821   0.620  -3.085  1.00  0.00     0.210 C 
ENDBRANCH  10  23
BRANCH   1  25
HETATM   25  O1  UNL     1      -5.658  -0.497   0.501  1.00  0.00    -0.353 OA
HETATM   26  C1  UNL     1      -6.395  -0.858   1.631  1.00  0.00     0.210 C 
ENDBRANCH   1  25
TORSDOF 4
