REMARK  5 active torsions:
REMARK  status: ('A' for Active; 'I' for Inactive)
REMARK    1  A    between atoms: C4_5  and  N1_6 
REMARK    2  A    between atoms: N1_6  and  C5_7 
REMARK    3  A    between atoms: N4_13  and  C9_14 
REMARK    4  A    between atoms: C9_14  and  C10_15 
REMARK    5  A    between atoms: C15_21  and  O1_22 
ROOT
HETATM    1  C5  UNL     1       1.420   0.790  -1.060  1.00  0.00     0.157 A 
HETATM    2  N2  UNL     1       1.739   1.881  -1.670  1.00  0.00    -0.222 NA
HETATM    3  C6  UNL     1       1.341   3.110  -1.711  1.00  0.00     0.235 A 
HETATM    4  N3  UNL     1       0.283   3.328  -0.876  1.00  0.00    -0.252 NA
HETATM    5  C7  UNL     1      -0.177   2.217  -0.147  1.00  0.00     0.151 A 
HETATM    6  C8  UNL     1       0.327   0.780  -0.128  1.00  0.00     0.092 A 
HETATM    7  N4  UNL     1      -0.713   0.772   0.757  1.00  0.00    -0.385 N 
HETATM    8  H6  UNL     1      -0.492  -0.272   0.622  1.00  0.00     0.159 HD
ENDROOT
BRANCH   1   9
HETATM    9  N1  UNL     1       1.611  -0.579  -0.814  1.00  0.00    -0.341 N 
HETATM   10  H3  UNL     1       1.017  -1.359  -1.217  1.00  0.00     0.167 HD
BRANCH   9  11
HETATM   11  C4  UNL     1       2.785  -0.608   0.075  1.00  0.00     0.036 C 
HETATM   12  C3  UNL     1       3.756  -0.603   0.874  1.00  0.00     0.030 C 
HETATM   13  C2  UNL     1       5.065  -1.151   0.785  1.00  0.00     0.042 C 
HETATM   14  C1  UNL     1       4.891  -1.633  -0.390  1.00  0.00     0.118 C 
HETATM   15  F1  UNL     1       5.787  -2.335  -1.152  1.00  0.00    -0.209 F 
HETATM   16  C16 UNL     1       3.603  -1.284  -0.996  1.00  0.00     0.194 C 
HETATM   17 CL2  UNL     1       2.912  -2.754  -1.671  1.00  0.00    -0.111 Cl
ENDBRANCH   9  11
ENDBRANCH   1   9
BRANCH   7  18
HETATM   18  C9  UNL     1      -1.798   0.727   1.684  1.00  0.00     0.133 C 
BRANCH  18  19
HETATM   19  C10 UNL     1      -3.263   0.186   1.258  1.00  0.00     0.015 A 
HETATM   20  C11 UNL     1      -2.695  -0.470   0.510  1.00  0.00     0.016 A 
HETATM   21  C12 UNL     1      -3.576  -1.359  -0.334  1.00  0.00    -0.012 A 
HETATM   22  O1  UNL     1      -3.557   0.528   1.648  1.00  0.00     0.000 OA
HETATM   23  C15 UNL     1      -4.319  -0.045   1.111  1.00  0.00     0.036 A 
HETATM   24  C13 UNL     1      -4.912  -1.571  -0.426  1.00  0.00     0.017 A 
HETATM   25  C14 UNL     1      -5.596  -0.787   0.456  1.00  0.00     0.023 A 
HETATM   26 CL1  UNL     1      -7.153  -0.323   1.096  1.00  0.00    -0.088 Cl
ENDBRANCH  18  19
ENDBRANCH   7  18
TORSDOF 5
