REMARK  3 active torsions:
REMARK  status: ('A' for Active; 'I' for Inactive)
REMARK    1  A    between atoms: O1_2  and  C2_3 
REMARK    2  A    between atoms: C7_8  and  O2_9 
REMARK    3  A    between atoms: C9_11  and  C10_12 
ROOT
HETATM    1  C2  UNL     1      -3.870  -0.197  -0.427  1.00  0.00     0.103 A 
HETATM    2  C3  UNL     1      -3.297  -0.776  -1.554  1.00  0.00     0.071 A 
HETATM    3  C4  UNL     1      -1.930  -0.963  -1.667  1.00  0.00     0.065 A 
HETATM    4  C5  UNL     1      -1.162  -0.549  -0.613  1.00  0.00     0.005 A 
HETATM    5  C6  UNL     1      -1.691   0.030   0.522  1.00  0.00     0.054 A 
HETATM    6  C7  UNL     1      -3.073   0.218   0.635  1.00  0.00     0.102 A 
HETATM    7  C9  UNL     1       0.114  -0.800  -0.883  1.00  0.00     0.003 A 
HETATM    8  C19 UNL     1       0.185  -1.438  -2.244  1.00  0.00     0.191 A 
HETATM    9  N2  UNL     1      -1.221  -1.473  -2.616  1.00  0.00    -0.284 NA
ENDROOT
BRANCH   7  10
HETATM   10  C10 UNL     1       1.345  -0.572  -0.134  1.00  0.00     0.066 A 
HETATM   11  C11 UNL     1       2.349   0.133  -0.763  1.00  0.00     0.044 A 
HETATM   12  C12 UNL     1       3.541   0.396  -0.141  1.00  0.00    -0.022 A 
HETATM   13  C13 UNL     1       4.516   1.106  -0.812  1.00  0.00     0.012 A 
HETATM   14  C17 UNL     1       3.786  -0.036   1.148  1.00  0.00    -0.008 A 
HETATM   15  C14 UNL     1       5.746   1.406  -0.237  1.00  0.00     0.001 A 
HETATM   16  C15 UNL     1       5.968   0.959   1.063  1.00  0.00     0.001 A 
HETATM   17  C16 UNL     1       4.986   0.247   1.734  1.00  0.00     0.014 A 
HETATM   18  C18 UNL     1       2.747  -0.745   1.752  1.00  0.00     0.129 A 
HETATM   19  N1  UNL     1       1.580  -0.997   1.129  1.00  0.00    -0.260 NA
ENDBRANCH   7  10
BRANCH   6  20
HETATM   20  O2  UNL     1      -3.662   0.795   1.753  1.00  0.00    -0.353 OA
HETATM   21  C8  UNL     1      -2.859   1.214   2.826  1.00  0.00     0.210 C 
ENDBRANCH   6  20
BRANCH   1  22
HETATM   22  O1  UNL     1      -5.227  -0.010  -0.312  1.00  0.00    -0.353 OA
HETATM   23  C1  UNL     1      -6.134  -0.395  -1.332  1.00  0.00     0.210 C 
ENDBRANCH   1  22
TORSDOF 3
