REMARK  6 active torsions:
REMARK  status: ('A' for Active; 'I' for Inactive)
REMARK    1  A    between atoms: O1_2  and  C2_3 
REMARK    2  A    between atoms: C6_9  and  N3_10 
REMARK    3  A    between atoms: N3_10  and  N4_11 
REMARK    4  A    between atoms: N4_11  and  C7_12 
REMARK    5  A    between atoms: C7_12  and  C8_13 
REMARK    6  A    between atoms: C15_22  and  O2_23 
ROOT
HETATM    1  C2  UNL     1      -4.149   0.153   0.121  1.00  0.00     0.103 A 
HETATM    2  C3  UNL     1      -3.533   0.967   1.053  1.00  0.00     0.072 A 
HETATM    3  C4  UNL     1      -2.162   1.117   1.094  1.00  0.00     0.075 A 
HETATM    4  N1  UNL     1      -1.532   1.913   2.003  1.00  0.00    -0.241 NA
HETATM    5  C5  UNL     1      -0.172   2.006   1.976  1.00  0.00     0.236 A 
HETATM    6  N2  UNL     1       0.569   1.320   1.059  1.00  0.00    -0.222 NA
HETATM    7  C6  UNL     1      -0.033   0.532   0.158  1.00  0.00     0.155 A 
HETATM    8  C13 UNL     1      -1.408   0.421   0.165  1.00  0.00     0.043 A 
HETATM    9  C14 UNL     1      -2.012  -0.395  -0.771  1.00  0.00     0.057 A 
HETATM   10  C15 UNL     1      -3.384  -0.535  -0.800  1.00  0.00     0.102 A 
ENDROOT
BRANCH   7  11
HETATM   11  N3  UNL     1       0.819  -0.144  -0.759  1.00  0.00    -0.287 N 
HETATM   12  H6  UNL     1       0.594  -0.792  -1.528  1.00  0.00     0.188 HD
BRANCH  11  13
HETATM   13  N4  UNL     1       2.178   0.037  -0.679  1.00  0.00    -0.331 N 
HETATM   14  H7  UNL     1       2.709   0.027  -1.552  1.00  0.00     0.180 HD
BRANCH  13  15
HETATM   15  C7  UNL     1       2.854  -0.683   0.353  1.00  0.00     0.175 C 
BRANCH  15  16
HETATM   16  C8  UNL     1       4.304  -0.359   0.278  1.00  0.00    -0.033 A 
HETATM   17  C9  UNL     1       5.285  -1.246   0.072  1.00  0.00     0.076 A 
HETATM   18 CL1  UNL     1       5.107  -2.980  -0.157  1.00  0.00    -0.081 Cl
HETATM   19  C10 UNL     1       6.586  -0.547   0.063  1.00  0.00     0.135 A 
HETATM   20  F1  UNL     1       7.794  -1.148  -0.122  1.00  0.00    -0.205 F 
HETATM   21  C11 UNL     1       6.361   0.760   0.266  1.00  0.00     0.022 A 
HETATM   22  C12 UNL     1       4.890   1.001   0.422  1.00  0.00     0.068 A 
ENDBRANCH  15  16
ENDBRANCH  13  15
ENDBRANCH  11  13
ENDBRANCH   7  11
BRANCH  10  23
HETATM   23  O2  UNL     1      -3.988  -1.349  -1.734  1.00  0.00    -0.353 OA
HETATM   24  C16 UNL     1      -3.148  -2.028  -2.653  1.00  0.00     0.210 C 
ENDBRANCH  10  23
BRANCH   1  25
HETATM   25  O1  UNL     1      -5.518  -0.013   0.060  1.00  0.00    -0.353 OA
HETATM   26  C1  UNL     1      -6.469   0.582   0.886  1.00  0.00     0.210 C 
ENDBRANCH   1  25
TORSDOF 6
