REMARK  6 active torsions:
REMARK  status: ('A' for Active; 'I' for Inactive)
REMARK    1  A    between atoms: C2_2  and  C3_3 
REMARK    2  A    between atoms: C4_4  and  C5_5 
REMARK    3  A    between atoms: C6_6  and  N1_7 
REMARK    4  A    between atoms: N1_7  and  N2_8 
REMARK    5  A    between atoms: C12_16  and  C13_17 
REMARK    6  A    between atoms: C14_19  and  O1_20 
ROOT
HETATM    1  N2  UNL     1       0.288  -1.197  -0.539  1.00  0.00    -0.171 N 
HETATM    2  N3  UNL     1       0.466  -1.803   0.716  1.00  0.00    -0.145 NA
HETATM    3  C7  UNL     1      -0.506  -1.880   1.586  1.00  0.00     0.257 A 
HETATM    4  N4  UNL     1      -1.795  -1.350   1.300  1.00  0.00    -0.239 NA
HETATM    5  C8  UNL     1      -2.095  -0.769   0.191  1.00  0.00     0.099 A 
HETATM    6  C9  UNL     1      -1.015  -0.680  -0.785  1.00  0.00     0.104 A 
HETATM    7  C10 UNL     1      -1.246  -0.096  -1.952  1.00  0.00     0.036 A 
HETATM    8  C11 UNL     1      -2.546   0.468  -2.309  1.00  0.00     0.010 A 
HETATM    9  C12 UNL     1      -3.497   0.366  -1.395  1.00  0.00    -0.017 A 
HETATM   10  C14 UNL     1      -3.458  -0.240  -0.040  1.00  0.00     0.206 A 
ENDROOT
BRANCH   1  11
HETATM   11  N1  UNL     1       1.319  -1.108  -1.482  1.00  0.00    -0.289 N 
HETATM   12  H8  UNL     1       1.546  -1.604  -2.386  1.00  0.00     0.188 HD
BRANCH  11  13
HETATM   13  C6  UNL     1       2.112  -0.062  -0.886  1.00  0.00     0.109 C 
HETATM   14  C5  UNL     1       3.274  -0.441  -0.418  1.00  0.00     0.019 C 
BRANCH  14  15
HETATM   15  C4  UNL     1       4.242   0.437   0.224  1.00  0.00     0.001 C 
HETATM   16  C3  UNL     1       5.438   0.159   0.730  1.00  0.00    -0.001 C 
BRANCH  16  17
HETATM   17  C2  UNL     1       6.298   1.162   1.348  1.00  0.00    -0.010 C 
HETATM   18  C1  UNL     1       7.477   0.719   1.810  1.00  0.00     0.011 C 
ENDBRANCH  16  17
ENDBRANCH  14  15
ENDBRANCH  11  13
ENDBRANCH   1  11
BRANCH  10  19
HETATM   19  O1  UNL     1      -3.737   0.770   0.880  1.00  0.00    -0.380 OA
HETATM   20  C15 UNL     1      -4.865   0.474   1.611  1.00  0.00     0.202 C 
ENDBRANCH  10  19
BRANCH   9  21
HETATM   21  C13 UNL     1      -4.837   0.928  -1.717  1.00  0.00     0.259 C 
HETATM   22  F1  UNL     1      -4.837   1.479  -2.976  1.00  0.00    -0.251 F 
ENDBRANCH   9  21
TORSDOF 6
