REMARK  9 active torsions:
REMARK  status: ('A' for Active; 'I' for Inactive)
REMARK    1  A    between atoms: O1_2  and  C2_3 
REMARK    2  A    between atoms: C2_3  and  N1_4 
REMARK    3  A    between atoms: C5_7  and  O2_8 
REMARK    4  A    between atoms: S1_12  and  C9_13 
REMARK    5  A    between atoms: C9_13  and  C10_14 
REMARK    6  A    between atoms: C10_14  and  C11_15 
REMARK    7  A    between atoms: C11_15  and  C12_16 
REMARK    8  A    between atoms: C14_19  and  C15_20 
REMARK    9  A    between atoms: C16_21  and  N2_22 
ROOT
HETATM    1  C12 UNL     1       2.698  -3.262   0.799  1.00  0.00     0.066 C 
HETATM    2  C13 UNL     1       1.951  -3.789   1.773  1.00  0.00     0.201 C 
HETATM    3 CL1  UNL     1       1.006  -4.711   2.960  1.00  0.00    -0.234 Cl
ENDROOT
BRANCH   1   4
HETATM    4  C11 UNL     1       2.472  -1.955   1.341  1.00  0.00    -0.041 C 
HETATM    5  C14 UNL     1       3.166  -1.127   0.522  1.00  0.00     0.009 C 
BRANCH   4   6
HETATM    6  C10 UNL     1       1.860  -1.088   2.321  1.00  0.00     0.071 C 
BRANCH   6   7
HETATM    7  C9  UNL     1       0.614  -0.647   2.121  1.00  0.00    -0.084 C 
BRANCH   7   8
HETATM    8  S1  UNL     1      -0.763  -0.136   1.441  1.00  0.00    -0.073 SA
HETATM    9  C3  UNL     1      -0.856   0.675  -0.148  1.00  0.00     0.098 A 
HETATM   10  N1  UNL     1       0.107   1.433  -0.410  1.00  0.00    -0.257 NA
HETATM   11  C4  UNL     1      -2.062   0.309  -0.905  1.00  0.00     0.075 A 
HETATM   12  C5  UNL     1      -3.019  -0.518  -0.528  1.00  0.00     0.071 A 
HETATM   13  C7  UNL     1      -3.111  -1.267   0.730  1.00  0.00     0.044 A 
HETATM   14  C8  UNL     1      -2.171  -1.201   1.719  1.00  0.00     0.056 A 
BRANCH  10  15
HETATM   15  C2  UNL     1       0.247   2.169  -1.623  1.00  0.00     0.317 C 
BRANCH  15  16
HETATM   16  O1  UNL     1      -0.210   3.461  -1.440  1.00  0.00    -0.375 OA
HETATM   17  C1  UNL     1      -1.529   3.579  -1.118  1.00  0.00     0.203 C 
ENDBRANCH  15  16
ENDBRANCH  10  15
BRANCH  12  18
HETATM   18  O2  UNL     1      -4.070  -0.713  -1.411  1.00  0.00    -0.356 OA
HETATM   19  C6  UNL     1      -4.003  -1.271  -2.685  1.00  0.00     0.210 C 
ENDBRANCH  12  18
ENDBRANCH   7   8
ENDBRANCH   6   7
ENDBRANCH   4   6
BRANCH   5  20
HETATM   20  C15 UNL     1       2.934   0.186   1.053  1.00  0.00     0.012 C 
HETATM   21  C16 UNL     1       3.501   1.246   0.455  1.00  0.00     0.054 C 
BRANCH  21  22
HETATM   22  N2  UNL     1       3.697   2.679   0.419  1.00  0.00    -0.312 NA
HETATM   23  H18 UNL     1       3.144   3.239  -0.277  1.00  0.00     0.123 HD
HETATM   24  H19 UNL     1       3.125   3.224  -0.295  1.00  0.00     0.123 HD
ENDBRANCH  21  22
ENDBRANCH   5  20
ENDBRANCH   1   4
TORSDOF 9
