REMARK  5 active torsions:
REMARK  status: ('A' for Active; 'I' for Inactive)
REMARK    1  A    between atoms: C2_2  and  C3_3 
REMARK    2  A    between atoms: C3_3  and  C4_4 
REMARK    3  A    between atoms: C8_9  and  N2_10 
REMARK    4  A    between atoms: N2_10  and  N3_11 
REMARK    5  A    between atoms: N3_11  and  C9_12 
ROOT
HETATM    1  C4  UNL     1      -2.716  -1.367   0.378  1.00  0.00    -0.010 C 
HETATM    2  C5  UNL     1      -1.993  -1.691   1.358  1.00  0.00    -0.021 A 
HETATM    3  C6  UNL     1      -1.265  -2.097   2.526  1.00  0.00     0.121 A 
HETATM    4  N1  UNL     1      -0.092  -2.133   2.975  1.00  0.00    -0.295 NA
HETATM    5  C7  UNL     1       1.069  -1.656   2.236  1.00  0.00     0.206 A 
HETATM    6  C8  UNL     1       0.567  -1.148   0.896  1.00  0.00     0.046 A 
HETATM    7  C15 UNL     1      -0.766  -1.175   0.544  1.00  0.00     0.040 A 
ENDROOT
BRANCH   6   8
HETATM    8  N2  UNL     1       1.778  -0.729   0.281  1.00  0.00    -0.303 N 
HETATM    9  H9  UNL     1       2.440  -1.465  -0.068  1.00  0.00     0.186 HD
BRANCH   8  10
HETATM   10  N3  UNL     1       2.058   0.642   0.149  1.00  0.00    -0.301 N 
HETATM   11  H10 UNL     1       1.282   1.310   0.273  1.00  0.00     0.187 HD
BRANCH  10  12
HETATM   12  C9  UNL     1       3.396   0.996  -0.146  1.00  0.00     0.050 A 
HETATM   13  C10 UNL     1       4.380   1.433   0.677  1.00  0.00     0.034 A 
HETATM   14  C11 UNL     1       5.673   1.735   0.228  1.00  0.00     0.046 A 
HETATM   15  C12 UNL     1       5.887   1.557  -1.120  1.00  0.00     0.138 A 
HETATM   16  F1  UNL     1       7.170   1.873  -1.478  1.00  0.00    -0.204 F 
HETATM   17  C13 UNL     1       4.931   1.119  -1.996  1.00  0.00     0.074 A 
HETATM   18 CL1  UNL     1       5.446   0.973  -3.663  1.00  0.00    -0.081 Cl
HETATM   19  C14 UNL     1       3.693   0.842  -1.505  1.00  0.00     0.057 A 
ENDBRANCH  10  12
ENDBRANCH   8  10
ENDBRANCH   6   8
BRANCH   1  20
HETATM   20  C3  UNL     1      -3.007  -0.825  -0.958  1.00  0.00     0.062 C 
BRANCH  20  21
HETATM   21  C2  UNL     1      -3.922   0.332  -0.772  1.00  0.00    -0.073 A 
HETATM   22  C1  UNL     1      -4.330   0.755   0.406  1.00  0.00     0.039 A 
HETATM   23  O1  UNL     1      -4.762   1.418  -0.898  1.00  0.00     0.000 OA
HETATM   24  C16 UNL     1      -5.574   1.587  -2.028  1.00  0.00     0.000 C 
ENDBRANCH  20  21
ENDBRANCH   1  20
TORSDOF 5
