REMARK  4 active torsions:
REMARK  status: ('A' for Active; 'I' for Inactive)
REMARK    1  A    between atoms: O1_2  and  C2_3 
REMARK    2  A    between atoms: C7_10  and  N3_11 
REMARK    3  A    between atoms: N3_11  and  N4_12 
REMARK    4  A    between atoms: N4_12  and  C8_13 
ROOT
HETATM    1  C2  UNL     1      -2.298   1.195  -0.386  1.00  0.00     0.181 C 
HETATM    2  C3  UNL     1      -1.209   0.438  -0.345  1.00  0.00     0.081 C 
HETATM    3  C4  UNL     1      -1.017  -0.950   0.071  1.00  0.00     0.045 A 
HETATM    4  C5  UNL     1      -1.892  -2.020   0.183  1.00  0.00     0.072 A 
HETATM    5  N1  UNL     1      -1.389  -3.217   0.604  1.00  0.00    -0.241 NA
HETATM    6  C6  UNL     1      -0.062  -3.277   0.887  1.00  0.00     0.236 A 
HETATM    7  N2  UNL     1       0.800  -2.231   0.781  1.00  0.00    -0.222 NA
HETATM    8  C7  UNL     1       0.336  -1.028   0.364  1.00  0.00     0.156 A 
HETATM    9  C13 UNL     1      -3.332  -2.235  -0.033  1.00  0.00     0.030 C 
HETATM   10  C14 UNL     1      -4.280  -1.337   0.132  1.00  0.00     0.002 C 
HETATM   11  C15 UNL     1      -4.512   0.074   0.526  1.00  0.00     0.205 C 
HETATM   12  O2  UNL     1      -3.633   0.976  -0.062  1.00  0.00    -0.327 OA
ENDROOT
BRANCH   8  13
HETATM   13  N3  UNL     1       1.180   0.106   0.224  1.00  0.00    -0.283 N 
HETATM   14  H6  UNL     1       1.211   1.004   0.799  1.00  0.00     0.188 HD
BRANCH  13  15
HETATM   15  N4  UNL     1       2.095   0.052  -0.820  1.00  0.00    -0.301 N 
HETATM   16  H7  UNL     1       1.820  -0.047  -1.810  1.00  0.00     0.186 HD
BRANCH  15  17
HETATM   17  C8  UNL     1       3.469   0.145  -0.419  1.00  0.00     0.054 A 
HETATM   18  C9  UNL     1       3.981   0.151   0.794  1.00  0.00     0.096 A 
HETATM   19 CL1  UNL     1       3.095   0.045   2.283  1.00  0.00    -0.079 Cl
HETATM   20  C10 UNL     1       5.428   0.260   0.750  1.00  0.00     0.136 A 
HETATM   21  F1  UNL     1       6.321   0.300   1.766  1.00  0.00    -0.205 F 
HETATM   22  C11 UNL     1       5.800   0.320  -0.518  1.00  0.00     0.023 A 
HETATM   23  C12 UNL     1       4.577   0.252  -1.367  1.00  0.00     0.090 A 
ENDBRANCH  15  17
ENDBRANCH  13  15
ENDBRANCH   8  13
BRANCH   1  24
HETATM   24  O1  UNL     1      -2.167   2.482  -0.830  1.00  0.00    -0.336 OA
HETATM   25  C1  UNL     1      -2.795   3.596  -0.248  1.00  0.00     0.212 C 
ENDBRANCH   1  24
TORSDOF 4
