REMARK  5 active torsions:
REMARK  status: ('A' for Active; 'I' for Inactive)
REMARK    1  A    between atoms: C2_2  and  C3_3 
REMARK    2  A    between atoms: C6_8  and  N3_9 
REMARK    3  A    between atoms: N3_9  and  C7_10 
REMARK    4  A    between atoms: C7_10  and  N4_11 
REMARK    5  A    between atoms: C15_20  and  O1_21 
ROOT
HETATM    1  C3  UNL     1      -3.896   0.002  -0.086  1.00  0.00     0.187 C 
HETATM    2  N1  UNL     1      -4.095   0.327   1.275  1.00  0.00    -0.267 NA
HETATM    3  C4  UNL     1      -3.698   1.248   2.072  1.00  0.00     0.227 C 
HETATM    4  N2  UNL     1      -2.881   2.420   2.094  1.00  0.00    -0.256 NA
HETATM    5  C5  UNL     1      -1.786   2.713   1.438  1.00  0.00     0.130 C 
HETATM    6  C6  UNL     1      -0.921   2.061   0.447  1.00  0.00     0.288 C 
HETATM    7  C14 UNL     1      -1.599   1.181  -0.494  1.00  0.00     0.048 C 
HETATM    8  C15 UNL     1      -2.659   0.426  -0.727  1.00  0.00     0.072 C 
ENDROOT
BRANCH   6   9
HETATM    9  N3  UNL     1       0.119   1.312   1.127  1.00  0.00     0.115 N 
HETATM   10  H8  UNL     1       0.594   1.856   1.868  1.00  0.00     0.319 HD
BRANCH   9  11
HETATM   11  C7  UNL     1       1.025   0.632   0.244  1.00  0.00     0.419 C 
BRANCH  11  12
HETATM   12  N4  UNL     1       2.039  -0.095   0.980  1.00  0.00    -0.258 NA
HETATM   13  C8  UNL     1       3.093  -0.456   0.329  1.00  0.00     0.081 A 
HETATM   14  C9  UNL     1       3.443  -0.246  -1.072  1.00  0.00     0.034 A 
HETATM   15  C13 UNL     1       4.040  -1.185   1.198  1.00  0.00     0.076 A 
HETATM   16  C10 UNL     1       4.595  -0.713  -1.525  1.00  0.00     0.002 A 
HETATM   17  C11 UNL     1       5.541  -1.435  -0.679  1.00  0.00     0.002 A 
HETATM   18  C12 UNL     1       5.303  -1.669   0.603  1.00  0.00     0.033 A 
HETATM   19  N5  UNL     1       3.869  -1.447   2.454  1.00  0.00    -0.298 NA
HETATM   20  H15 UNL     1       3.037  -1.171   3.003  1.00  0.00     0.187 HD
ENDBRANCH  11  12
ENDBRANCH   9  11
ENDBRANCH   6   9
BRANCH   8  21
HETATM   21  O1  UNL     1      -2.772  -0.246  -1.933  1.00  0.00    -0.358 OA
HETATM   22  C16 UNL     1      -1.699  -0.210  -2.838  1.00  0.00     0.209 C 
ENDBRANCH   8  21
BRANCH   1  23
HETATM   23  C2  UNL     1      -3.947  -1.510  -0.153  1.00  0.00    -0.003 C 
HETATM   24  C1  UNL     1      -3.042  -2.088   0.630  1.00  0.00     0.009 C 
ENDBRANCH   1  23
TORSDOF 5
