REMARK  4 active torsions:
REMARK  status: ('A' for Active; 'I' for Inactive)
REMARK    1  A    between atoms: O1_2  and  C2_3 
REMARK    2  A    between atoms: C6_9  and  C7_10 
REMARK    3  A    between atoms: C16_22  and  C17_23 
REMARK    4  A    between atoms: C17_23  and  N6_24 
ROOT
HETATM    1  C2  UNL     1      -3.500  -0.191   0.067  1.00  0.00     0.078 A 
HETATM    2  C3  UNL     1      -3.126  -1.512   0.206  1.00  0.00     0.070 A 
HETATM    3  C4  UNL     1      -1.800  -1.846   0.170  1.00  0.00     0.073 A 
HETATM    4  N1  UNL     1      -1.495  -3.138   0.311  1.00  0.00    -0.241 NA
HETATM    5  C5  UNL     1      -0.201  -3.501   0.281  1.00  0.00     0.234 A 
HETATM    6  N2  UNL     1       0.777  -2.609   0.115  1.00  0.00    -0.237 NA
HETATM    7  C6  UNL     1       0.570  -1.301  -0.032  1.00  0.00     0.120 A 
HETATM    8  C14 UNL     1      -0.762  -0.956   0.002  1.00  0.00     0.026 A 
HETATM    9  C15 UNL     1      -1.161   0.354  -0.135  1.00  0.00     0.028 A 
HETATM   10  C16 UNL     1      -2.472   0.742  -0.106  1.00  0.00     0.004 A 
ENDROOT
BRANCH   7  11
HETATM   11  C7  UNL     1       1.642  -0.333  -0.212  1.00  0.00     0.202 A 
HETATM   12  N3  UNL     1       1.727   0.984  -0.378  1.00  0.00    -0.127 NA
HETATM   13  N4  UNL     1       2.829   1.672  -0.524  1.00  0.00    -0.146 NA
HETATM   14  C8  UNL     1       4.036   1.101  -0.522  1.00  0.00     0.108 A 
HETATM   15  C9  UNL     1       5.184   1.845  -0.677  1.00  0.00     0.036 A 
HETATM   16  C13 UNL     1       4.028  -0.251  -0.356  1.00  0.00     0.089 A 
HETATM   17  C10 UNL     1       6.392   1.162  -0.661  1.00  0.00     0.003 A 
HETATM   18  C11 UNL     1       6.412  -0.212  -0.493  1.00  0.00     0.002 A 
HETATM   19  C12 UNL     1       5.238  -0.931  -0.340  1.00  0.00     0.034 A 
HETATM   20  N5  UNL     1       2.864  -0.881  -0.213  1.00  0.00    -0.224 NA
ENDBRANCH   7  11
BRANCH  10  21
HETATM   21  C17 UNL     1      -2.890   2.180  -0.257  1.00  0.00     0.308 C 
BRANCH  21  22
HETATM   22  N6  UNL     1      -3.274   2.762   1.008  1.00  0.00     0.082 N 
HETATM   23  H13 UNL     1      -4.049   3.436   0.934  1.00  0.00     0.313 HD
HETATM   24  H14 UNL     1      -2.471   3.027   1.585  1.00  0.00     0.313 HD
ENDBRANCH  21  22
ENDBRANCH  10  21
BRANCH   1  25
HETATM   25  O1  UNL     1      -4.807   0.225   0.091  1.00  0.00    -0.355 OA
HETATM   26  C1  UNL     1      -5.934  -0.606   0.258  1.00  0.00     0.210 C 
ENDBRANCH   1  25
TORSDOF 4
