REMARK  2 active torsions:
REMARK  status: ('A' for Active; 'I' for Inactive)
REMARK    1  A    between atoms: O1_2  and  C2_3 
REMARK    2  A    between atoms: N2_8  and  C6_9 
ROOT
HETATM    1  C2  UNL     1      -3.955  -0.129   0.002  1.00  0.00     0.071 C 
HETATM    2  C3  UNL     1      -3.248  -0.867  -0.820  1.00  0.00     0.025 C 
HETATM    3  C4  UNL     1      -1.918  -1.056  -0.294  1.00  0.00     0.087 A 
HETATM    4  C5  UNL     1      -0.847  -1.489  -1.190  1.00  0.00     0.126 A 
HETATM    5  N1  UNL     1       0.379  -1.157  -0.990  1.00  0.00    -0.169 NA
HETATM    6  N2  UNL     1       0.831  -0.359   0.063  1.00  0.00    -0.070 N 
HETATM    7  C13 UNL     1      -0.173   0.126   0.977  1.00  0.00     0.145 A 
HETATM    8  C14 UNL     1      -1.457  -0.211   0.779  1.00  0.00    -0.026 A 
HETATM    9  C15 UNL     1      -2.353   0.505   1.647  1.00  0.00     0.019 C 
HETATM   10  C16 UNL     1      -3.639   0.568   1.241  1.00  0.00    -0.028 C 
HETATM   11  C17 UNL     1      -4.648   1.313   2.033  1.00  0.00     0.051 C 
ENDROOT
BRANCH   6  12
HETATM   12  C6  UNL     1       2.196  -0.031   0.243  1.00  0.00     0.768 A 
HETATM   13  N3  UNL     1       2.570   0.739   1.273  1.00  0.00     0.046 NA
HETATM   14  N4  UNL     1       3.837   1.077   1.489  1.00  0.00    -0.132 NA
HETATM   15  C7  UNL     1       4.744   0.605   0.614  1.00  0.00     0.109 A 
HETATM   16  C8  UNL     1       6.054   0.967   0.854  1.00  0.00     0.036 A 
HETATM   17  C12 UNL     1       4.391  -0.200  -0.472  1.00  0.00     0.106 A 
HETATM   18  C9  UNL     1       7.050   0.521  -0.001  1.00  0.00     0.003 A 
HETATM   19  C10 UNL     1       6.697  -0.272  -1.069  1.00  0.00     0.002 A 
HETATM   20  C11 UNL     1       5.403  -0.625  -1.300  1.00  0.00     0.035 A 
HETATM   21  N5  UNL     1       3.077  -0.519  -0.649  1.00  0.00    -0.057 NA
ENDBRANCH   6  12
BRANCH   1  22
HETATM   22  O1  UNL     1      -5.287   0.076  -0.409  1.00  0.00    -0.356 OA
HETATM   23  C1  UNL     1      -5.755  -0.135  -1.704  1.00  0.00     0.210 C 
ENDBRANCH   1  22
TORSDOF 2
