REMARK  2 active torsions:
REMARK  status: ('A' for Active; 'I' for Inactive)
REMARK    1  A    between atoms: O1_2  and  C2_3 
REMARK    2  A    between atoms: C9_12  and  O2_13 
ROOT
HETATM    1  C2  UNL     1      -2.313   0.054   0.546  1.00  0.00     0.104 A 
HETATM    2  C3  UNL     1      -2.314  -1.296   0.780  1.00  0.00     0.072 A 
HETATM    3  C4  UNL     1      -1.084  -1.916   0.851  1.00  0.00     0.075 A 
HETATM    4  N1  UNL     1      -1.175  -3.259   1.078  1.00  0.00    -0.241 NA
HETATM    5  C5  UNL     1      -0.085  -4.024   1.169  1.00  0.00     0.236 A 
HETATM    6  N2  UNL     1       1.080  -3.387   1.022  1.00  0.00    -0.224 NA
HETATM    7  C6  UNL     1       1.186  -2.072   0.799  1.00  0.00     0.140 A 
HETATM    8  C7  UNL     1       0.104  -1.237   0.698  1.00  0.00     0.049 A 
HETATM    9  C8  UNL     1       0.109   0.117   0.465  1.00  0.00     0.008 A 
HETATM   10  C9  UNL     1      -1.123   0.733   0.394  1.00  0.00     0.110 A 
HETATM   11  C11 UNL     1       1.312   0.932   0.332  1.00  0.00     0.099 A 
HETATM   12  C12 UNL     1       1.094   2.379   0.182  1.00  0.00    -0.011 A 
HETATM   13  C13 UNL     1       1.704   3.097  -0.781  1.00  0.00    -0.003 A 
HETATM   14  C14 UNL     1       2.634   2.558  -1.767  1.00  0.00     0.002 A 
HETATM   15  C15 UNL     1       2.947   1.263  -1.762  1.00  0.00     0.030 A 
HETATM   16  C16 UNL     1       2.273   0.532  -0.698  1.00  0.00     0.068 A 
HETATM   17  N3  UNL     1       2.374  -0.661  -0.401  1.00  0.00    -0.157 NA
HETATM   18  N4  UNL     1       3.164  -1.587  -1.034  1.00  0.00    -0.162 NA
HETATM   19  C17 UNL     1       3.440  -2.643  -0.303  1.00  0.00     0.276 C 
HETATM   20  N5  UNL     1       2.627  -1.958   0.698  1.00  0.00    -0.346 N 
HETATM   21  H15 UNL     1       2.751  -1.313   1.506  1.00  0.00     0.163 HD
ENDROOT
BRANCH   1  22
HETATM   22  O1  UNL     1      -3.571   0.648   0.480  1.00  0.00    -0.353 OA
HETATM   23  C1  UNL     1      -4.744  -0.088   0.642  1.00  0.00     0.210 C 
ENDBRANCH   1  22
BRANCH  10  24
HETATM   24  O2  UNL     1      -1.383   2.076   0.165  1.00  0.00    -0.352 OA
HETATM   25  C10 UNL     1      -1.573   2.507  -1.193  1.00  0.00     0.210 C 
ENDBRANCH  10  24
TORSDOF 2
