REMARK  4 active torsions:
REMARK  status: ('A' for Active; 'I' for Inactive)
REMARK    1  A    between atoms: C5_6  and  N1_7 
REMARK    2  A    between atoms: N1_7  and  C6_8 
REMARK    3  A    between atoms: C10_17  and  N7_18 
REMARK    4  A    between atoms: N7_18  and  C11_19 
ROOT
HETATM    1  C6  UNL     1      -1.322   0.930  -0.054  1.00  0.00     0.153 C 
HETATM    2  N2  UNL     1      -2.285   1.687  -0.305  1.00  0.00    -0.221 NA
HETATM    3  C7  UNL     1      -3.293   1.409  -1.191  1.00  0.00     0.257 C 
HETATM    4  N3  UNL     1      -3.578   2.632  -0.957  1.00  0.00    -0.167 NA
HETATM    5  N4  UNL     1      -2.840   3.423  -0.091  1.00  0.00    -0.270 N 
HETATM    6  C8  UNL     1      -1.943   4.402   0.462  1.00  0.00     0.241 C 
HETATM    7  N5  UNL     1      -0.865   4.019   1.168  1.00  0.00    -0.190 NA
HETATM    8  N6  UNL     1      -0.773   2.636   1.264  1.00  0.00    -0.176 NA
HETATM    9  C9  UNL     1      -0.235   1.378   0.887  1.00  0.00     0.091 C 
HETATM   10  C10 UNL     1       0.825   0.653   1.120  1.00  0.00     0.117 C 
HETATM   11  H6  UNL     1      -3.213   2.987   0.791  1.00  0.00     0.190 HD
HETATM   12  H8  UNL     1      -0.032   2.982   0.573  1.00  0.00     0.155 HD
ENDROOT
BRANCH   1  13
HETATM   13  N1  UNL     1      -1.191  -0.328  -0.690  1.00  0.00    -0.339 N 
HETATM   14  H4  UNL     1      -0.214  -0.590  -1.039  1.00  0.00     0.167 HD
BRANCH  13  15
HETATM   15  C5  UNL     1      -2.267  -1.228  -0.892  1.00  0.00     0.035 A 
HETATM   16  C4  UNL     1      -2.856  -1.576  -2.086  1.00  0.00     0.029 A 
HETATM   17  C3  UNL     1      -3.887  -2.458  -2.155  1.00  0.00     0.004 A 
HETATM   18  C2  UNL     1      -4.434  -3.078  -1.058  1.00  0.00     0.024 A 
HETATM   19  C1  UNL     1      -3.880  -2.771   0.197  1.00  0.00     0.036 A 
HETATM   20 CL1  UNL     1      -4.433  -3.456   1.729  1.00  0.00    -0.084 Cl
HETATM   21  C18 UNL     1      -2.829  -1.865   0.227  1.00  0.00     0.053 A 
ENDBRANCH  13  15
ENDBRANCH   1  13
BRANCH  10  22
HETATM   22  N7  UNL     1       1.990   0.756   1.898  1.00  0.00    -0.364 N 
HETATM   23  H10 UNL     1       1.652   1.277   2.737  1.00  0.00     0.165 HD
BRANCH  22  24
HETATM   24  C11 UNL     1       3.170   0.153   1.317  1.00  0.00     0.028 C 
HETATM   25  C12 UNL     1       4.011   0.810   0.493  1.00  0.00     0.006 C 
HETATM   26  C13 UNL     1       5.247   0.394  -0.200  1.00  0.00     0.056 C 
HETATM   27  C14 UNL     1       5.150  -0.899  -0.916  1.00  0.00    -0.023 C 
HETATM   28  C15 UNL     1       4.614  -1.996  -0.336  1.00  0.00    -0.004 C 
HETATM   29  C16 UNL     1       4.031  -2.241   1.002  1.00  0.00     0.002 C 
HETATM   30  C17 UNL     1       3.424  -1.247   1.641  1.00  0.00     0.029 C 
ENDBRANCH  22  24
ENDBRANCH  10  22
TORSDOF 4
