REMARK  3 active torsions:
REMARK  status: ('A' for Active; 'I' for Inactive)
REMARK    1  A    between atoms: O1_2  and  C2_3 
REMARK    2  A    between atoms: C6_9  and  N3_10 
REMARK    3  A    between atoms: N3_10  and  C7_11 
ROOT
HETATM    1  C2  UNL     1      -2.544   0.588  -1.452  1.00  0.00     0.076 C 
HETATM    2  C3  UNL     1      -3.116   1.108  -0.382  1.00  0.00     0.056 C 
HETATM    3  C4  UNL     1      -3.437   0.515   0.906  1.00  0.00     0.120 C 
HETATM    4  N1  UNL     1      -3.252  -0.681   1.349  1.00  0.00    -0.254 NA
HETATM    5  C5  UNL     1      -2.638  -1.643   0.501  1.00  0.00     0.234 C 
HETATM    6  N2  UNL     1      -1.538  -1.511  -0.113  1.00  0.00    -0.223 NA
HETATM    7  C6  UNL     1      -0.681  -0.382  -0.089  1.00  0.00     0.156 C 
HETATM    8  C14 UNL     1      -0.094  -0.890  -1.128  1.00  0.00     0.037 C 
HETATM    9  C15 UNL     1      -0.600  -0.659  -2.278  1.00  0.00    -0.001 C 
HETATM   10  C16 UNL     1      -1.918  -0.465  -2.246  1.00  0.00    -0.017 C 
HETATM   11  C17 UNL     1      -2.705  -1.415  -3.091  1.00  0.00     0.052 C 
ENDROOT
BRANCH   7  12
HETATM   12  N3  UNL     1       0.076   0.771   0.060  1.00  0.00    -0.169 N 
HETATM   13  H7  UNL     1      -0.225   1.712  -0.256  1.00  0.00     0.186 HD
BRANCH  12  14
HETATM   14  C7  UNL     1       1.335   0.629   0.687  1.00  0.00     0.747 A 
HETATM   15  N4  UNL     1       2.132   1.695   0.876  1.00  0.00     0.044 NA
HETATM   16  N5  UNL     1       3.324   1.644   1.453  1.00  0.00    -0.132 NA
HETATM   17  C8  UNL     1       3.831   0.477   1.903  1.00  0.00     0.109 A 
HETATM   18  C9  UNL     1       5.070   0.409   2.505  1.00  0.00     0.036 A 
HETATM   19  C13 UNL     1       3.048  -0.651   1.733  1.00  0.00     0.106 A 
HETATM   20  C10 UNL     1       5.518  -0.834   2.940  1.00  0.00     0.003 A 
HETATM   21  C11 UNL     1       4.731  -1.958   2.767  1.00  0.00     0.002 A 
HETATM   22  C12 UNL     1       3.485  -1.902   2.164  1.00  0.00     0.035 A 
HETATM   23  N6  UNL     1       1.834  -0.538   1.134  1.00  0.00    -0.059 NA
ENDBRANCH  12  14
ENDBRANCH   7  12
BRANCH   1  24
HETATM   24  O1  UNL     1      -2.347   1.399  -2.592  1.00  0.00    -0.355 OA
HETATM   25  C1  UNL     1      -2.584   2.788  -2.510  1.00  0.00     0.210 C 
ENDBRANCH   1  24
TORSDOF 3
