REMARK  7 active torsions:
REMARK  status: ('A' for Active; 'I' for Inactive)
REMARK    1  A    between atoms: O1_2  and  C2_3 
REMARK    2  A    between atoms: C3_4  and  C4_5 
REMARK    3  A    between atoms: C4_5  and  C5_6 
REMARK    4  A    between atoms: C6_7  and  C7_8 
REMARK    5  A    between atoms: C10_13  and  N3_14 
REMARK    6  A    between atoms: N3_14  and  C11_15 
REMARK    7  A    between atoms: C11_15  and  C12_16 
ROOT
HETATM    1  C7  UNL     1       0.545  -0.650   1.041  1.00  0.00     0.027 A 
HETATM    2  C8  UNL     1       0.769  -2.003   1.141  1.00  0.00     0.133 A 
HETATM    3  N1  UNL     1      -0.166  -2.902   1.427  1.00  0.00    -0.253 NA
HETATM    4  C9  UNL     1      -1.441  -2.467   1.639  1.00  0.00     0.234 A 
HETATM    5  N2  UNL     1      -1.701  -1.174   1.553  1.00  0.00    -0.224 NA
HETATM    6  C10 UNL     1      -0.752  -0.294   1.266  1.00  0.00     0.136 A 
ENDROOT
BRANCH   6   7
HETATM    7  N3  UNL     1      -1.134   1.070   1.203  1.00  0.00    -0.370 N 
HETATM    8  H12 UNL     1      -0.576   1.928   1.004  1.00  0.00     0.161 HD
BRANCH   7   9
HETATM    9  C11 UNL     1      -2.459   1.544   1.417  1.00  0.00     0.160 C 
BRANCH   9  10
HETATM   10  C12 UNL     1      -3.460   1.072   0.409  1.00  0.00    -0.040 A 
HETATM   11  C13 UNL     1      -3.446   1.889  -0.732  1.00  0.00     0.009 A 
HETATM   12  C14 UNL     1      -4.278   1.679  -1.800  1.00  0.00     0.001 A 
HETATM   13  C15 UNL     1      -5.176   0.646  -1.805  1.00  0.00     0.007 A 
HETATM   14  C16 UNL     1      -5.179  -0.153  -0.669  1.00  0.00    -0.061 A 
HETATM   15  C17 UNL     1      -6.116  -1.303  -0.570  1.00  0.00     0.048 C 
HETATM   16  C18 UNL     1      -4.362   0.038   0.401  1.00  0.00     0.015 A 
ENDBRANCH   9  10
ENDBRANCH   7   9
ENDBRANCH   6   7
BRANCH   1  17
HETATM   17  C6  UNL     1       1.547   0.339   0.730  1.00  0.00     0.013 C 
HETATM   18  C5  UNL     1       2.831   0.302   0.465  1.00  0.00    -0.022 C 
BRANCH  18  19
HETATM   19  C4  UNL     1       4.032  -0.528   0.300  1.00  0.00     0.056 C 
BRANCH  19  20
HETATM   20  C3  UNL     1       4.651  -0.381  -1.070  1.00  0.00     0.001 C 
HETATM   21  C2  UNL     1       5.907   0.059  -1.248  1.00  0.00     0.130 C 
BRANCH  21  22
HETATM   22  O1  UNL     1       6.452   0.322   0.010  1.00  0.00    -0.368 OA
HETATM   23  C1  UNL     1       7.828   0.590   0.124  1.00  0.00     0.208 C 
ENDBRANCH  21  22
ENDBRANCH  19  20
ENDBRANCH  18  19
ENDBRANCH   1  17
TORSDOF 7
