REMARK  6 active torsions:
REMARK  status: ('A' for Active; 'I' for Inactive)
REMARK    1  A    between atoms: C2_2  and  O1_3 
REMARK    2  A    between atoms: C2_2  and  C4_5 
REMARK    3  A    between atoms: C4_5  and  O2_23 
REMARK    4  A    between atoms: C5_6  and  C6_7 
REMARK    5  A    between atoms: C8_11  and  N3_12 
REMARK    6  A    between atoms: N3_12  and  C9_13 
ROOT
HETATM    1  C6  UNL     1      -1.204   0.346  -0.215  1.00  0.00     0.083 A 
HETATM    2  N1  UNL     1      -1.637   1.486   0.136  1.00  0.00    -0.243 NA
HETATM    3  C7  UNL     1      -0.601   2.421   0.214  1.00  0.00     0.230 A 
HETATM    4  N2  UNL     1       0.515   1.880  -0.088  1.00  0.00    -0.250 NA
HETATM    5  C8  UNL     1       0.280   0.495  -0.398  1.00  0.00     0.276 A 
ENDROOT
BRANCH   5   6
HETATM    6  N3  UNL     1       0.867  -0.360   0.649  1.00  0.00    -0.192 N 
HETATM    7  H9  UNL     1       0.300  -0.930   1.339  1.00  0.00     0.180 HD
BRANCH   6   8
HETATM    8  C9  UNL     1       2.304  -0.449   0.767  1.00  0.00     0.743 A 
HETATM    9  N4  UNL     1       2.880  -1.211   1.717  1.00  0.00     0.044 NA
HETATM   10  N5  UNL     1       4.208  -1.284   1.815  1.00  0.00    -0.132 NA
HETATM   11  C10 UNL     1       4.986  -0.581   0.947  1.00  0.00     0.109 A 
HETATM   12  C11 UNL     1       6.376  -0.680   1.079  1.00  0.00     0.036 A 
HETATM   13  C15 UNL     1       4.429   0.223  -0.054  1.00  0.00     0.106 A 
HETATM   14  C12 UNL     1       7.129   0.047   0.181  1.00  0.00     0.003 A 
HETATM   15  C13 UNL     1       6.595   0.838  -0.804  1.00  0.00     0.002 A 
HETATM   16  C14 UNL     1       5.232   0.929  -0.926  1.00  0.00     0.035 A 
HETATM   17  N6  UNL     1       3.077   0.238  -0.082  1.00  0.00    -0.059 NA
ENDBRANCH   6   8
ENDBRANCH   5   6
BRANCH   1  18
HETATM   18  C5  UNL     1      -1.938  -0.917  -0.421  1.00  0.00     0.070 C 
HETATM   19  C4  UNL     1      -3.230  -1.135  -0.280  1.00  0.00     0.099 C 
BRANCH  19  20
HETATM   20  C2  UNL     1      -4.216  -0.148   0.119  1.00  0.00     0.079 C 
HETATM   21  C1  UNL     1      -5.475  -0.531   0.214  1.00  0.00     0.074 C 
BRANCH  20  22
HETATM   22  O1  UNL     1      -4.222   1.182   0.456  1.00  0.00    -0.357 OA
HETATM   23  C3  UNL     1      -5.005   2.162  -0.149  1.00  0.00     0.209 C 
ENDBRANCH  20  22
ENDBRANCH  19  20
BRANCH  19  24
HETATM   24  O2  UNL     1      -3.693  -2.430  -0.536  1.00  0.00    -0.353 OA
HETATM   25  C16 UNL     1      -3.757  -3.011  -1.806  1.00  0.00     0.210 C 
ENDBRANCH  19  24
ENDBRANCH   1  18
TORSDOF 6
