REMARK  5 active torsions:
REMARK  status: ('A' for Active; 'I' for Inactive)
REMARK    1  A    between atoms: O1_2  and  C2_3 
REMARK    2  A    between atoms: C6_9  and  N3_10 
REMARK    3  A    between atoms: N3_10  and  C7_11 
REMARK    4  A    between atoms: C7_11  and  C8_12 
REMARK    5  A    between atoms: C14_18  and  O2_19 
ROOT
HETATM    1  C2  UNL     1      -2.982  -0.639  -0.444  1.00  0.00     0.103 A 
HETATM    2  C3  UNL     1      -2.193  -0.679  -1.575  1.00  0.00     0.072 A 
HETATM    3  C4  UNL     1      -0.882  -0.250  -1.551  1.00  0.00     0.075 A 
HETATM    4  N1  UNL     1      -0.119  -0.291  -2.656  1.00  0.00    -0.241 NA
HETATM    5  C5  UNL     1       1.174   0.131  -2.639  1.00  0.00     0.235 A 
HETATM    6  N2  UNL     1       1.670   0.592  -1.487  1.00  0.00    -0.224 NA
HETATM    7  C6  UNL     1       1.013   0.679  -0.336  1.00  0.00     0.137 A 
HETATM    8  C12 UNL     1      -0.293   0.240  -0.404  1.00  0.00     0.041 A 
HETATM    9  C13 UNL     1      -1.079   0.279   0.720  1.00  0.00     0.057 A 
HETATM   10  C14 UNL     1      -2.391  -0.145   0.718  1.00  0.00     0.102 A 
ENDROOT
BRANCH   7  11
HETATM   11  N3  UNL     1       1.630   1.185   0.840  1.00  0.00    -0.370 N 
HETATM   12  H6  UNL     1       1.174   1.280   1.770  1.00  0.00     0.161 HD
BRANCH  11  13
HETATM   13  C7  UNL     1       3.012   1.607   0.744  1.00  0.00     0.160 C 
BRANCH  13  14
HETATM   14  C8  UNL     1       3.882   0.468   0.325  1.00  0.00    -0.041 A 
HETATM   15  C9  UNL     1       3.827  -0.816   0.004  1.00  0.00     0.009 A 
HETATM   16  C10 UNL     1       5.276  -0.791  -0.203  1.00  0.00     0.001 A 
HETATM   17  C11 UNL     1       5.338   0.500   0.119  1.00  0.00     0.009 A 
ENDBRANCH  13  14
ENDBRANCH  11  13
ENDBRANCH   7  11
BRANCH  10  18
HETATM   18  O2  UNL     1      -3.159  -0.088   1.890  1.00  0.00    -0.353 OA
HETATM   19  C15 UNL     1      -2.552   0.415   3.065  1.00  0.00     0.210 C 
ENDBRANCH  10  18
BRANCH   1  20
HETATM   20  O1  UNL     1      -4.299  -1.045  -0.369  1.00  0.00    -0.353 OA
HETATM   21  C1  UNL     1      -5.046  -1.562  -1.426  1.00  0.00     0.210 C 
ENDBRANCH   1  20
TORSDOF 5
