REMARK  8 active torsions:
REMARK  status: ('A' for Active; 'I' for Inactive)
REMARK    1  A    between atoms: C4_5  and  N1_6 
REMARK    2  A    between atoms: N1_6  and  C5_7 
REMARK    3  A    between atoms: C7_11  and  N4_12 
REMARK    4  A    between atoms: N4_12  and  C8_13 
REMARK    5  A    between atoms: C8_13  and  C9_14 
REMARK    6  A    between atoms: C10_15  and  C11_16 
REMARK    7  A    between atoms: C12_17  and  C13_18 
REMARK    8  A    between atoms: C14_19  and  B1_20 
ROOT
HETATM    1  C5  UNL     1      -2.157  -0.142  -0.593  1.00  0.00     0.171 A 
HETATM    2  N2  UNL     1      -2.387  -0.385  -1.843  1.00  0.00    -0.248 NA
HETATM    3  C6  UNL     1      -1.451   0.401  -2.623  1.00  0.00     0.302 A 
HETATM    4  N3  UNL     1      -0.679   1.104  -1.635  1.00  0.00    -0.248 NA
HETATM    5  C7  UNL     1      -1.064   0.812  -0.429  1.00  0.00     0.167 A 
ENDROOT
BRANCH   5   6
HETATM    6  N4  UNL     1      -0.530   1.319   0.806  1.00  0.00    -0.368 N 
HETATM    7  H6  UNL     1      -0.960   0.936   1.695  1.00  0.00     0.161 HD
BRANCH   6   8
HETATM    8  C8  UNL     1       0.549   2.305   0.651  1.00  0.00     0.148 C 
BRANCH   8   9
HETATM    9  C9  UNL     1       1.700   1.579   0.099  1.00  0.00    -0.007 C 
HETATM   10  C10 UNL     1       2.821   1.555   0.789  1.00  0.00    -0.002 C 
BRANCH  10  11
HETATM   11  C11 UNL     1       3.962   0.840   0.250  1.00  0.00    -0.000 C 
HETATM   12  C12 UNL     1       5.166   0.694   0.774  1.00  0.00    -0.001 C 
BRANCH  12  13
HETATM   13  C13 UNL     1       6.332  -0.004   0.282  1.00  0.00    -0.014 C 
HETATM   14  C14 UNL     1       7.463  -0.034   0.964  1.00  0.00    -0.064 C 
BRANCH  14  15
HETATM   15  B1  UNL     1       8.627  -0.838   0.280  1.00  0.00     0.293 B 
HETATM   16 CL1  UNL     1       8.698  -2.663   0.632  1.00  0.00    -0.211 Cl
HETATM   17  H15 UNL     1       8.878  -0.486  -0.840  1.00  0.00    -0.003 HD
ENDBRANCH  14  15
ENDBRANCH  12  13
ENDBRANCH  10  11
ENDBRANCH   8   9
ENDBRANCH   6   8
ENDBRANCH   5   6
BRANCH   1  18
HETATM   18  N1  UNL     1      -2.889  -0.741   0.465  1.00  0.00    -0.338 N 
HETATM   19  H3  UNL     1      -2.355  -0.944   1.342  1.00  0.00     0.167 HD
BRANCH  18  20
HETATM   20  C4  UNL     1      -4.270  -1.068   0.404  1.00  0.00     0.035 A 
HETATM   21  C3  UNL     1      -5.108  -0.839  -0.660  1.00  0.00     0.032 A 
HETATM   22  C2  UNL     1      -6.443  -1.187  -0.655  1.00  0.00     0.046 A 
HETATM   23  C1  UNL     1      -7.014  -1.794   0.444  1.00  0.00     0.138 A 
HETATM   24  F1  UNL     1      -8.322  -2.101   0.369  1.00  0.00    -0.204 F 
HETATM   25  C16 UNL     1      -6.195  -2.035   1.524  1.00  0.00     0.074 A 
HETATM   26  C15 UNL     1      -4.867  -1.676   1.486  1.00  0.00     0.056 A 
HETATM   27 CL2  UNL     1      -6.900  -2.806   2.930  1.00  0.00    -0.081 Cl
ENDBRANCH  18  20
ENDBRANCH   1  18
TORSDOF 8
