REMARK  5 active torsions:
REMARK  status: ('A' for Active; 'I' for Inactive)
REMARK    1  A    between atoms: O1_2  and  C2_3 
REMARK    2  A    between atoms: C6_9  and  N3_10 
REMARK    3  A    between atoms: N3_10  and  C7_11 
REMARK    4  A    between atoms: C7_11  and  C8_12 
REMARK    5  A    between atoms: C17_21  and  O2_22 
ROOT
HETATM    1  C2  UNL     1       4.186   0.263   0.020  1.00  0.00     0.103 A 
HETATM    2  C3  UNL     1       3.504  -0.092  -1.124  1.00  0.00     0.072 A 
HETATM    3  C4  UNL     1       2.158   0.127  -1.256  1.00  0.00     0.075 A 
HETATM    4  N1  UNL     1       1.524  -0.236  -2.396  1.00  0.00    -0.241 NA
HETATM    5  C5  UNL     1       0.184  -0.019  -2.530  1.00  0.00     0.235 A 
HETATM    6  N2  UNL     1      -0.502   0.554  -1.533  1.00  0.00    -0.224 NA
HETATM    7  C6  UNL     1       0.047   0.942  -0.376  1.00  0.00     0.137 A 
HETATM    8  C15 UNL     1       1.400   0.711  -0.268  1.00  0.00     0.041 A 
HETATM    9  C16 UNL     1       2.101   1.057   0.865  1.00  0.00     0.057 A 
HETATM   10  C17 UNL     1       3.454   0.851   1.031  1.00  0.00     0.100 A 
ENDROOT
BRANCH   7  11
HETATM   11  N3  UNL     1      -0.711   1.551   0.657  1.00  0.00    -0.370 N 
HETATM   12  H6  UNL     1      -0.256   1.847   1.545  1.00  0.00     0.161 HD
BRANCH  11  13
HETATM   13  C7  UNL     1      -2.120   1.831   0.640  1.00  0.00     0.160 C 
BRANCH  13  14
HETATM   14  C8  UNL     1      -2.881   0.573   0.537  1.00  0.00    -0.040 A 
HETATM   15  C9  UNL     1      -3.084  -0.012   1.793  1.00  0.00     0.009 A 
HETATM   16  C10 UNL     1      -3.786  -1.195   1.938  1.00  0.00     0.001 A 
HETATM   17  C11 UNL     1      -4.323  -1.863   0.857  1.00  0.00     0.007 A 
HETATM   18  C12 UNL     1      -4.113  -1.272  -0.371  1.00  0.00    -0.061 A 
HETATM   19  C13 UNL     1      -4.646  -1.901  -1.610  1.00  0.00     0.048 C 
HETATM   20  C14 UNL     1      -3.418  -0.094  -0.540  1.00  0.00     0.015 A 
ENDBRANCH  13  14
ENDBRANCH  11  13
ENDBRANCH   7  11
BRANCH  10  21
HETATM   21  O2  UNL     1       4.144   1.211   2.189  1.00  0.00    -0.358 OA
HETATM   22  H17 UNL     1       4.185   2.177   2.513  1.00  0.00     0.217 HD
ENDBRANCH  10  21
BRANCH   1  23
HETATM   23  O1  UNL     1       5.545   0.054   0.182  1.00  0.00    -0.353 OA
HETATM   24  C1  UNL     1       6.370  -0.533  -0.779  1.00  0.00     0.210 C 
ENDBRANCH   1  23
TORSDOF 5
