REMARK  5 active torsions:
REMARK  status: ('A' for Active; 'I' for Inactive)
REMARK    1  A    between atoms: O1_2  and  C2_3 
REMARK    2  A    between atoms: C6_9  and  N2_10 
REMARK    3  A    between atoms: N2_10  and  C7_11 
REMARK    4  A    between atoms: C16_23  and  O2_24 
REMARK    5  A    between atoms: O2_24  and  O3_25 
ROOT
HETATM    1  C2  UNL     1       3.794  -0.638   0.043  1.00  0.00     0.102 C 
HETATM    2  C3  UNL     1       3.421  -1.345  -0.994  1.00  0.00     0.033 C 
HETATM    3  C4  UNL     1       2.027  -1.198  -1.341  1.00  0.00     0.115 A 
HETATM    4  S1  UNL     1       1.477  -1.523  -3.000  1.00  0.00    -0.108 SA
HETATM    5  C5  UNL     1       0.093  -0.450  -3.317  1.00  0.00     0.164 A 
HETATM    6  N1  UNL     1      -0.307   0.437  -2.475  1.00  0.00    -0.235 NA
HETATM    7  C6  UNL     1       0.295   0.645  -1.206  1.00  0.00     0.151 A 
HETATM    8  C14 UNL     1       1.309  -0.074  -0.757  1.00  0.00     0.009 A 
HETATM    9  C15 UNL     1       1.817   0.599   0.466  1.00  0.00     0.055 C 
HETATM   10  C16 UNL     1       3.083   0.333   0.863  1.00  0.00     0.140 C 
ENDROOT
BRANCH   7  11
HETATM   11  N2  UNL     1      -0.376   1.718  -0.557  1.00  0.00    -0.169 N 
HETATM   12  H7  UNL     1       0.304   2.475  -0.496  1.00  0.00     0.186 HD
BRANCH  11  13
HETATM   13  C7  UNL     1      -1.726   1.683  -0.108  1.00  0.00     0.747 A 
HETATM   14  N3  UNL     1      -2.382   2.685   0.508  1.00  0.00     0.044 NA
HETATM   15  N4  UNL     1      -3.632   2.575   0.895  1.00  0.00    -0.132 NA
HETATM   16  C8  UNL     1      -4.295   1.411   0.668  1.00  0.00     0.109 A 
HETATM   17  C9  UNL     1      -5.621   1.305   1.083  1.00  0.00     0.036 A 
HETATM   18  C13 UNL     1      -3.664   0.344   0.036  1.00  0.00     0.106 A 
HETATM   19  C10 UNL     1      -6.294   0.111   0.849  1.00  0.00     0.003 A 
HETATM   20  C11 UNL     1      -5.701  -0.966   0.226  1.00  0.00     0.002 A 
HETATM   21  C12 UNL     1      -4.389  -0.805  -0.162  1.00  0.00     0.035 A 
HETATM   22  N5  UNL     1      -2.384   0.516  -0.336  1.00  0.00    -0.059 NA
ENDBRANCH  11  13
ENDBRANCH   7  11
BRANCH  10  23
HETATM   23  O2  UNL     1       3.692   0.927   1.970  1.00  0.00    -0.197 OA
BRANCH  23  24
HETATM   24  O3  UNL     1       3.651   2.281   2.011  1.00  0.00    -0.245 OA
HETATM   25  H13 UNL     1       3.870   2.631   1.095  1.00  0.00     0.254 HD
ENDBRANCH  23  24
ENDBRANCH  10  23
BRANCH   1  26
HETATM   26  O1  UNL     1       5.143  -0.827   0.393  1.00  0.00    -0.353 OA
HETATM   27  C1  UNL     1       5.671  -2.122   0.575  1.00  0.00     0.210 C 
ENDBRANCH   1  26
TORSDOF 5
