REMARK  3 active torsions:
REMARK  status: ('A' for Active; 'I' for Inactive)
REMARK    1  A    between atoms: O1_2  and  C2_3 
REMARK    2  A    between atoms: N3_9  and  C6_10 
REMARK    3  A    between atoms: C6_10  and  C7_11 
ROOT
HETATM    1  C2  UNL     1       4.167   0.241   0.979  1.00  0.00     0.000 C 
HETATM    2  C3  UNL     1       3.332  -0.682   0.541  1.00  0.00     0.053 C 
HETATM    3  C4  UNL     1       1.935  -0.695   0.154  1.00  0.00     0.087 A 
HETATM    4  N1  UNL     1       1.673  -1.978   0.220  1.00  0.00    -0.238 NA
HETATM    5  C5  UNL     1       0.327  -2.381  -0.110  1.00  0.00     0.255 A 
HETATM    6  N2  UNL     1      -0.628  -1.595  -0.460  1.00  0.00    -0.165 NA
HETATM    7  N3  UNL     1      -0.445  -0.212  -0.558  1.00  0.00    -0.266 N 
HETATM    8  C12 UNL     1       0.890   0.241  -0.236  1.00  0.00     0.081 A 
HETATM    9  C13 UNL     1       0.881   1.554  -0.381  1.00  0.00     0.033 C 
HETATM   10  C14 UNL     1       1.805   2.672  -0.246  1.00  0.00    -0.003 C 
HETATM   11  C15 UNL     1       2.894   2.917   0.383  1.00  0.00    -0.102 C 
HETATM   12  B1  UNL     1       3.878   2.033   1.306  1.00  0.00     0.256 B 
ENDROOT
BRANCH   7  13
HETATM   13  C6  UNL     1      -1.474   0.702  -0.942  1.00  0.00     0.160 C 
BRANCH  13  14
HETATM   14  C7  UNL     1      -2.712  -0.203  -1.190  1.00  0.00     0.032 A 
HETATM   15  C8  UNL     1      -3.152  -0.969  -0.065  1.00  0.00    -0.018 A 
HETATM   16  C9  UNL     1      -4.297  -0.376   0.019  1.00  0.00    -0.086 A 
HETATM   17  C10 UNL     1      -5.563  -0.371   0.829  1.00  0.00     0.043 C 
HETATM   18  C11 UNL     1      -4.009   0.491  -1.118  1.00  0.00     0.043 A 
ENDBRANCH  13  14
ENDBRANCH   7  13
BRANCH   1  19
HETATM   19  O1  UNL     1       5.490  -0.011   1.285  1.00  0.00    -0.373 OA
HETATM   20  C1  UNL     1       6.033  -1.286   1.038  1.00  0.00     0.208 C 
ENDBRANCH   1  19
TORSDOF 3
