REMARK  4 active torsions:
REMARK  status: ('A' for Active; 'I' for Inactive)
REMARK    1  A    between atoms: O1_2  and  C2_3 
REMARK    2  A    between atoms: C6_9  and  N3_10 
REMARK    3  A    between atoms: N3_10  and  N4_11 
REMARK    4  A    between atoms: N4_11  and  C7_12 
ROOT
HETATM    1  C2  UNL     1       4.040   0.439  -0.024  1.00  0.00     0.076 A 
HETATM    2  C3  UNL     1       3.848  -0.914   0.165  1.00  0.00     0.070 A 
HETATM    3  C4  UNL     1       2.627  -1.503  -0.054  1.00  0.00     0.074 A 
HETATM    4  N1  UNL     1       2.478  -2.806   0.139  1.00  0.00    -0.241 NA
HETATM    5  C5  UNL     1       1.292  -3.450  -0.061  1.00  0.00     0.236 A 
HETATM    6  N2  UNL     1       0.237  -2.721  -0.470  1.00  0.00    -0.222 NA
HETATM    7  C6  UNL     1       0.329  -1.398  -0.681  1.00  0.00     0.156 A 
HETATM    8  C14 UNL     1       1.537  -0.765  -0.474  1.00  0.00     0.041 A 
HETATM    9  C15 UNL     1       1.729   0.581  -0.662  1.00  0.00     0.027 A 
HETATM   10  C16 UNL     1       2.949   1.198  -0.448  1.00  0.00    -0.028 A 
HETATM   11  C17 UNL     1       3.018   2.663  -0.691  1.00  0.00     0.051 C 
ENDROOT
BRANCH   7  12
HETATM   12  N3  UNL     1      -0.729  -0.549  -1.113  1.00  0.00    -0.283 N 
HETATM   13  H6  UNL     1      -0.871  -0.405  -2.126  1.00  0.00     0.188 HD
BRANCH  12  14
HETATM   14  N4  UNL     1      -1.505   0.034  -0.106  1.00  0.00    -0.299 N 
HETATM   15  H7  UNL     1      -0.997   0.547   0.646  1.00  0.00     0.187 HD
BRANCH  14  16
HETATM   16  C7  UNL     1      -2.904  -0.068  -0.107  1.00  0.00     0.048 A 
HETATM   17  C8  UNL     1      -3.560  -0.752  -1.109  1.00  0.00     0.031 A 
HETATM   18  C9  UNL     1      -4.950  -0.885  -1.161  1.00  0.00     0.003 A 
HETATM   19  C10 UNL     1      -5.623  -0.273  -0.118  1.00  0.00     0.007 A 
HETATM   20  C11 UNL     1      -5.019   0.418   0.903  1.00  0.00    -0.060 A 
HETATM   21  C12 UNL     1      -5.780   1.061   2.004  1.00  0.00     0.048 C 
HETATM   22  C13 UNL     1      -3.641   0.516   0.900  1.00  0.00     0.037 A 
ENDBRANCH  14  16
ENDBRANCH  12  14
ENDBRANCH   7  12
BRANCH   1  23
HETATM   23  O1  UNL     1       5.188   1.184   0.148  1.00  0.00    -0.355 OA
HETATM   24  C1  UNL     1       6.378   0.547   0.576  1.00  0.00     0.210 C 
ENDBRANCH   1  23
TORSDOF 4
