REMARK  5 active torsions:
REMARK  status: ('A' for Active; 'I' for Inactive)
REMARK    1  A    between atoms: O1_2  and  C2_3 
REMARK    2  A    between atoms: C6_9  and  N3_10 
REMARK    3  A    between atoms: N3_10  and  C7_11 
REMARK    4  A    between atoms: C16_20  and  O2_21 
REMARK    5  A    between atoms: O2_21  and  S1_22 
ROOT
HETATM    1  C2  UNL     1      -3.878  -0.832   0.209  1.00  0.00     0.105 A 
HETATM    2  C3  UNL     1      -3.672   0.522   0.338  1.00  0.00     0.072 A 
HETATM    3  C4  UNL     1      -2.397   1.018   0.337  1.00  0.00     0.075 A 
HETATM    4  N1  UNL     1      -2.287   2.354   0.467  1.00  0.00    -0.241 NA
HETATM    5  C5  UNL     1      -1.070   2.923   0.477  1.00  0.00     0.236 A 
HETATM    6  N2  UNL     1      -0.010   2.121   0.354  1.00  0.00    -0.224 NA
HETATM    7  C6  UNL     1       0.001   0.802   0.220  1.00  0.00     0.142 A 
HETATM    8  C14 UNL     1      -1.253   0.251   0.214  1.00  0.00     0.042 A 
HETATM    9  C15 UNL     1      -1.520  -1.088   0.090  1.00  0.00     0.058 A 
HETATM   10  C16 UNL     1      -2.774  -1.661   0.082  1.00  0.00     0.118 A 
ENDROOT
BRANCH   7  11
HETATM   11  N3  UNL     1       1.125  -0.040   0.091  1.00  0.00    -0.340 N 
HETATM   12  H6  UNL     1       1.032  -1.063  -0.010  1.00  0.00     0.167 HD
BRANCH  11  13
HETATM   13  C7  UNL     1       2.490   0.330   0.076  1.00  0.00     0.034 A 
HETATM   14  C8  UNL     1       2.905   1.634   0.205  1.00  0.00     0.029 A 
HETATM   15  C9  UNL     1       4.227   2.028   0.195  1.00  0.00     0.003 A 
HETATM   16  C10 UNL     1       5.233   1.097   0.048  1.00  0.00     0.007 A 
HETATM   17  C11 UNL     1       4.862  -0.209  -0.084  1.00  0.00    -0.060 A 
HETATM   18  C12 UNL     1       5.893  -1.262  -0.246  1.00  0.00     0.048 C 
HETATM   19  C13 UNL     1       3.531  -0.556  -0.068  1.00  0.00     0.036 A 
ENDBRANCH  11  13
ENDBRANCH   7  11
BRANCH  10  20
HETATM   20  O2  UNL     1      -2.975  -3.029  -0.049  1.00  0.00    -0.279 OA
BRANCH  20  21
HETATM   21  S1  UNL     1      -3.156  -3.690  -1.651  1.00  0.00    -0.017 SA
HETATM   22  H15 UNL     1      -4.008  -2.854  -2.398  1.00  0.00     0.134 HD
ENDBRANCH  20  21
ENDBRANCH  10  20
BRANCH   1  23
HETATM   23  O1  UNL     1      -5.154  -1.372   0.205  1.00  0.00    -0.353 OA
HETATM   24  C1  UNL     1      -6.254  -0.494   0.337  1.00  0.00     0.210 C 
ENDBRANCH   1  23
TORSDOF 5
