REMARK  2 active torsions:
REMARK  status: ('A' for Active; 'I' for Inactive)
REMARK    1  A    between atoms: O1_2  and  C2_3 
REMARK    2  A    between atoms: C10_14  and  O2_15 
ROOT
HETATM    1  C2  UNL     1      -2.026   0.025   0.001  1.00  0.00     0.143 A 
HETATM    2  C3  UNL     1      -2.331   0.427  -1.309  1.00  0.00     0.095 A 
HETATM    3  N1  UNL     1      -1.979  -0.322  -2.352  1.00  0.00    -0.239 NA
HETATM    4  C4  UNL     1      -1.316  -1.490  -2.132  1.00  0.00     0.236 A 
HETATM    5  N2  UNL     1      -1.010  -1.900  -0.885  1.00  0.00    -0.222 NA
HETATM    6  C5  UNL     1      -1.354  -1.159   0.205  1.00  0.00     0.161 A 
HETATM    7  N3  UNL     1      -0.970  -1.690   1.466  1.00  0.00    -0.368 N 
HETATM    8  C6  UNL     1       0.072  -0.784   1.957  1.00  0.00     0.160 C 
HETATM    9  C7  UNL     1       1.181  -0.672   1.002  1.00  0.00    -0.036 A 
HETATM   10  C8  UNL     1       1.561   0.433   0.404  1.00  0.00    -0.057 A 
HETATM   11  C9  UNL     1       1.026   1.781   0.507  1.00  0.00     0.039 C 
HETATM   12  C10 UNL     1       0.184   2.652  -0.079  1.00  0.00     0.047 C 
HETATM   13  C11 UNL     1      -0.576   2.272  -1.291  1.00  0.00     0.091 C 
HETATM   14  C12 UNL     1      -2.004   2.520  -1.253  1.00  0.00    -0.018 C 
HETATM   15  C13 UNL     1      -3.025   1.698  -1.259  1.00  0.00     0.031 C 
HETATM   16  C14 UNL     1       2.675   0.567  -0.554  1.00  0.00    -0.010 A 
HETATM   17  B1  UNL     1       3.403  -0.825  -0.850  1.00  0.00     0.193 B 
HETATM   18  C15 UNL     1       2.891  -2.086  -0.098  1.00  0.00    -0.126 A 
HETATM   19  C16 UNL     1       3.560  -3.391  -0.340  1.00  0.00     0.030 C 
HETATM   20  C17 UNL     1       1.871  -1.907   0.725  1.00  0.00    -0.001 A 
HETATM   21  H5  UNL     1      -1.535  -2.550   1.661  1.00  0.00     0.161 HD
HETATM   22  H16 UNL     1       4.487  -0.775  -1.303  1.00  0.00    -0.021 HD
ENDROOT
BRANCH   1  23
HETATM   23  O1  UNL     1      -2.328   0.696   1.164  1.00  0.00    -0.350 OA
HETATM   24  C1  UNL     1      -3.500   0.531   1.902  1.00  0.00     0.210 C 
ENDBRANCH   1  23
BRANCH  12  25
HETATM   25  O2  UNL     1      -0.011   3.931   0.423  1.00  0.00    -0.365 OA
HETATM   26  H9  UNL     1       0.565   4.707   0.205  1.00  0.00     0.217 HD
ENDBRANCH  12  25
TORSDOF 2
