REMARK  6 active torsions:
REMARK  status: ('A' for Active; 'I' for Inactive)
REMARK    1  A    between atoms: O1_1  and  C1_2 
REMARK    2  A    between atoms: C1_2  and  O2_3 
REMARK    3  A    between atoms: O2_3  and  C2_4 
REMARK    4  A    between atoms: C6_10  and  S1_11 
REMARK    5  A    between atoms: S1_11  and  C7_12 
REMARK    6  A    between atoms: C9_14  and  C10_15 
ROOT
HETATM    1  C2  UNL     1      -3.918  -1.354  -0.823  1.00  0.00     0.089 A 
HETATM    2  C3  UNL     1      -4.388  -1.308  -2.059  1.00  0.00     0.070 A 
HETATM    3  C4  UNL     1      -3.071  -0.875  -2.506  1.00  0.00     0.076 A 
HETATM    4  N1  UNL     1      -2.272  -0.502  -3.541  1.00  0.00    -0.241 NA
HETATM    5  C5  UNL     1      -0.980  -0.175  -3.300  1.00  0.00     0.234 A 
HETATM    6  N2  UNL     1      -0.456  -0.208  -2.050  1.00  0.00    -0.234 NA
HETATM    7  C6  UNL     1      -1.217  -0.572  -1.003  1.00  0.00     0.110 A 
HETATM    8  C16 UNL     1      -2.558  -0.919  -1.204  1.00  0.00     0.062 A 
ENDROOT
BRANCH   7   9
HETATM    9  S1  UNL     1      -0.692  -0.666   0.669  1.00  0.00    -0.104 SA
BRANCH   9  10
HETATM   10  C7  UNL     1       1.010  -0.234   0.970  1.00  0.00     0.063 A 
HETATM   11  C8  UNL     1       2.079  -1.097   0.418  1.00  0.00     0.027 A 
HETATM   12  C9  UNL     1       1.904   0.400   0.006  1.00  0.00     0.034 A 
BRANCH  12  13
HETATM   13  C10 UNL     1       3.018   1.279   0.404  1.00  0.00    -0.053 A 
HETATM   14  C11 UNL     1       3.575   1.191   1.671  1.00  0.00     0.007 A 
HETATM   15  C12 UNL     1       4.624   2.004   2.075  1.00  0.00     0.001 A 
HETATM   16  C13 UNL     1       5.152   2.940   1.210  1.00  0.00     0.000 A 
HETATM   17  C14 UNL     1       4.601   3.028  -0.045  1.00  0.00     0.001 A 
HETATM   18  C15 UNL     1       3.554   2.229  -0.473  1.00  0.00     0.007 A 
ENDBRANCH  12  13
ENDBRANCH   9  10
ENDBRANCH   7   9
BRANCH   1  19
HETATM   19  O2  UNL     1      -4.397  -1.671   0.448  1.00  0.00    -0.325 OA
BRANCH  19  20
HETATM   20  C1  UNL     1      -5.769  -2.001   0.561  1.00  0.00     0.341 C 
BRANCH  20  21
HETATM   21  O1  UNL     1      -5.979  -2.255   1.926  1.00  0.00    -0.377 OA
HETATM   22  H1  UNL     1      -5.857  -3.208   2.142  1.00  0.00     0.212 HD
ENDBRANCH  20  21
ENDBRANCH  19  20
ENDBRANCH   1  19
TORSDOF 6
