REMARK  5 active torsions:
REMARK  status: ('A' for Active; 'I' for Inactive)
REMARK    1  A    between atoms: C2_2  and  C3_3 
REMARK    2  A    between atoms: C7_9  and  N3_10 
REMARK    3  A    between atoms: N3_10  and  C8_11 
REMARK    4  A    between atoms: C10_13  and  C11_14 
REMARK    5  A    between atoms: C18_21  and  O1_22 
ROOT
HETATM    1  C3  UNL     1      -3.341   0.250  -0.347  1.00  0.00    -0.023 C 
HETATM    2  C4  UNL     1      -2.946   1.174  -1.247  1.00  0.00     0.042 C 
HETATM    3  C5  UNL     1      -2.110   0.452  -2.229  1.00  0.00     0.101 A 
HETATM    4  N1  UNL     1      -2.105   0.545  -3.547  1.00  0.00    -0.242 NA
HETATM    5  C6  UNL     1      -1.144  -0.351  -4.091  1.00  0.00     0.231 A 
HETATM    6  N2  UNL     1      -0.570  -0.976  -3.115  1.00  0.00    -0.231 NA
HETATM    7  C7  UNL     1      -1.083  -0.543  -1.891  1.00  0.00     0.316 A 
HETATM    8  C17 UNL     1      -1.640  -1.490  -0.936  1.00  0.00     0.082 C 
HETATM    9  C18 UNL     1      -2.705  -1.083  -0.203  1.00  0.00     0.072 C 
ENDROOT
BRANCH   7  10
HETATM   10  N3  UNL     1      -0.051   0.290  -1.187  1.00  0.00     0.130 N 
HETATM   11  H8  UNL     1      -0.570   0.758  -0.429  1.00  0.00     0.320 HD
BRANCH  10  12
HETATM   12  C8  UNL     1       1.076  -0.410  -0.743  1.00  0.00     0.233 A 
HETATM   13  C9  UNL     1       1.202  -1.466   0.232  1.00  0.00     0.048 A 
HETATM   14  C10 UNL     1       1.539  -0.073   0.684  1.00  0.00     0.054 A 
BRANCH  14  15
HETATM   15  C11 UNL     1       2.949   0.329   0.900  1.00  0.00    -0.052 A 
HETATM   16  C12 UNL     1       3.944  -0.202   0.095  1.00  0.00     0.007 A 
HETATM   17  C13 UNL     1       5.240   0.205   0.336  1.00  0.00     0.001 A 
HETATM   18  C14 UNL     1       5.584   1.109   1.335  1.00  0.00     0.000 A 
HETATM   19  C15 UNL     1       4.585   1.630   2.129  1.00  0.00     0.001 A 
HETATM   20  C16 UNL     1       3.305   1.226   1.889  1.00  0.00     0.007 A 
ENDBRANCH  14  15
ENDBRANCH  10  12
ENDBRANCH   7  10
BRANCH   9  21
HETATM   21  O1  UNL     1      -3.179  -2.007   0.713  1.00  0.00    -0.360 OA
HETATM   22  H19 UNL     1      -4.113  -2.378   0.626  1.00  0.00     0.217 HD
ENDBRANCH   9  21
BRANCH   1  23
HETATM   23  C2  UNL     1      -4.220   0.595   0.773  1.00  0.00     0.037 C 
HETATM   24  C1  UNL     1      -3.517   0.294   2.068  1.00  0.00     0.010 C 
ENDBRANCH   1  23
TORSDOF 5
