REMARK  9 active torsions:
REMARK  status: ('A' for Active; 'I' for Inactive)
REMARK    1  A    between atoms: N1_1  and  C1_2 
REMARK    2  A    between atoms: C1_2  and  C2_3 
REMARK    3  A    between atoms: C3_5  and  C4_6 
REMARK    4  A    between atoms: C5_7  and  N2_8 
REMARK    5  A    between atoms: N2_8  and  C6_9 
REMARK    6  A    between atoms: C9_14  and  N5_15 
REMARK    7  A    between atoms: N5_15  and  C10_16 
REMARK    8  A    between atoms: C10_16  and  C11_17 
REMARK    9  A    between atoms: C16_23  and  O1_24 
ROOT
HETATM    1  C6  UNL     1      -0.451   0.470  -0.637  1.00  0.00     0.156 A 
HETATM    2  N3  UNL     1      -0.972   0.958  -1.769  1.00  0.00    -0.222 NA
HETATM    3  C7  UNL     1      -0.296   0.941  -2.926  1.00  0.00     0.235 A 
HETATM    4  N4  UNL     1       0.947   0.421  -2.977  1.00  0.00    -0.252 NA
HETATM    5  C8  UNL     1       1.493  -0.081  -1.832  1.00  0.00     0.151 A 
HETATM    6  C9  UNL     1       0.807  -0.065  -0.647  1.00  0.00     0.092 A 
ENDROOT
BRANCH   6   7
HETATM    7  N5  UNL     1       1.550  -0.586   0.405  1.00  0.00    -0.381 N 
HETATM    8  H11 UNL     1       0.901  -0.472   1.253  1.00  0.00     0.160 HD
BRANCH   7   9
HETATM    9  C10 UNL     1       2.689  -1.194   0.993  1.00  0.00     0.161 C 
BRANCH   9  10
HETATM   10  C11 UNL     1       4.007  -0.576   0.596  1.00  0.00    -0.006 A 
HETATM   11  C12 UNL     1       4.448   0.477   1.396  1.00  0.00     0.035 A 
HETATM   12  C13 UNL     1       5.598   1.195   1.130  1.00  0.00     0.034 A 
HETATM   13 CL1  UNL     1       6.176   2.518   2.114  1.00  0.00    -0.084 Cl
HETATM   14  C14 UNL     1       6.336   0.845   0.019  1.00  0.00     0.026 A 
HETATM   15  C15 UNL     1       5.920  -0.201  -0.794  1.00  0.00     0.039 A 
HETATM   16  C16 UNL     1       4.771  -0.908  -0.513  1.00  0.00     0.073 A 
BRANCH  16  17
HETATM   17  O1  UNL     1       4.325  -1.980  -1.313  1.00  0.00    -0.360 OA
HETATM   18  H17 UNL     1       4.529  -2.924  -0.980  1.00  0.00     0.217 HD
ENDBRANCH  16  17
ENDBRANCH   9  10
ENDBRANCH   7   9
ENDBRANCH   6   7
BRANCH   1  19
HETATM   19  N2  UNL     1      -1.160   0.502   0.592  1.00  0.00    -0.349 N 
HETATM   20  H8  UNL     1      -1.134   1.115   1.465  1.00  0.00     0.167 HD
BRANCH  19  21
HETATM   21  C5  UNL     1      -2.132  -0.556   0.594  1.00  0.00     0.090 C 
HETATM   22  C4  UNL     1      -3.398  -0.148   0.389  1.00  0.00     0.020 C 
BRANCH  22  23
HETATM   23  C3  UNL     1      -4.672  -0.846   0.312  1.00  0.00     0.041 C 
HETATM   24  C2  UNL     1      -5.907  -0.463   0.116  1.00  0.00     0.121 C 
HETATM   25  F1  UNL     1      -6.876  -1.398   0.104  1.00  0.00    -0.209 F 
BRANCH  24  26
HETATM   26  C1  UNL     1      -6.428   0.909  -0.106  1.00  0.00     0.336 C 
BRANCH  26  27
HETATM   27  N1  UNL     1      -7.367   1.196   0.972  1.00  0.00     0.084 N 
HETATM   28  H1  UNL     1      -8.363   0.991   0.693  1.00  0.00     0.313 HD
HETATM   29  H2  UNL     1      -7.114   0.689   1.832  1.00  0.00     0.313 HD
ENDBRANCH  26  27
ENDBRANCH  24  26
ENDBRANCH  22  23
ENDBRANCH  19  21
ENDBRANCH   1  19
TORSDOF 9
