REMARK  7 active torsions:
REMARK  status: ('A' for Active; 'I' for Inactive)
REMARK    1  A    between atoms: C1_1  and  C6_6 
REMARK    2  A    between atoms: C2_2  and  C3_3 
REMARK    3  A    between atoms: C6_6  and  C7_7 
REMARK    4  A    between atoms: C7_7  and  C8_8 
REMARK    5  A    between atoms: C8_8  and  N1_9 
REMARK    6  A    between atoms: N1_9  and  C9_10 
REMARK    7  A    between atoms: C9_10  and  C10_11 
ROOT
HETATM    1  C10 UNL     1      -2.226   0.712   0.187  1.00  0.00    -0.048 C 
HETATM    2  C11 UNL     1      -2.856  -0.406  -0.130  1.00  0.00     0.020 C 
HETATM    3  C12 UNL     1      -4.279  -0.695  -0.124  1.00  0.00     0.011 A 
HETATM    4  C13 UNL     1      -4.567  -1.891  -0.743  1.00  0.00     0.131 A 
HETATM    5  N2  UNL     1      -5.871  -2.285  -0.854  1.00  0.00    -0.253 NA
HETATM    6  C14 UNL     1      -6.818  -1.475  -0.349  1.00  0.00     0.233 A 
HETATM    7  N3  UNL     1      -6.549  -0.292   0.265  1.00  0.00    -0.241 NA
HETATM    8  C15 UNL     1      -5.274   0.107   0.382  1.00  0.00     0.069 A 
HETATM    9  C16 UNL     1      -5.195   1.398   1.068  1.00  0.00     0.029 C 
HETATM   10  C17 UNL     1      -4.076   2.085   1.127  1.00  0.00    -0.020 C 
HETATM   11  C18 UNL     1      -2.681   2.025   0.701  1.00  0.00     0.063 C 
ENDROOT
BRANCH   1  12
HETATM   12  C9  UNL     1      -0.751   0.782   0.100  1.00  0.00     0.304 C 
BRANCH  12  13
HETATM   13  N1  UNL     1      -0.101  -0.448  -0.228  1.00  0.00     0.087 N 
HETATM   14  H12 UNL     1      -0.121  -1.108   0.596  1.00  0.00     0.316 HD
BRANCH  13  15
HETATM   15  C8  UNL     1       1.249  -0.266  -0.746  1.00  0.00     0.270 C 
BRANCH  15  16
HETATM   16  C7  UNL     1       1.979  -1.585  -0.622  1.00  0.00     0.034 C 
BRANCH  16  17
HETATM   17  C6  UNL     1       3.339  -1.608  -1.225  1.00  0.00     0.029 C 
BRANCH  17  18
HETATM   18  C1  UNL     1       4.285  -0.590  -0.788  1.00  0.00    -0.026 C 
HETATM   19  C2  UNL     1       5.450  -0.666  -0.185  1.00  0.00     0.003 C 
BRANCH  19  20
HETATM   20  C3  UNL     1       6.373   0.369   0.238  1.00  0.00    -0.059 A 
HETATM   21  C4  UNL     1       7.479   0.874   0.786  1.00  0.00    -0.015 A 
HETATM   22  C5  UNL     1       6.535   1.863   0.235  1.00  0.00     0.066 A 
ENDBRANCH  19  20
ENDBRANCH  17  18
ENDBRANCH  16  17
ENDBRANCH  15  16
ENDBRANCH  13  15
ENDBRANCH  12  13
ENDBRANCH   1  12
TORSDOF 7
