REMARK  5 active torsions:
REMARK  status: ('A' for Active; 'I' for Inactive)
REMARK    1  A    between atoms: O1_2  and  C2_3 
REMARK    2  A    between atoms: C6_9  and  N3_10 
REMARK    3  A    between atoms: N3_10  and  C7_11 
REMARK    4  A    between atoms: C9_13  and  C10_14 
REMARK    5  A    between atoms: C18_22  and  O2_23 
ROOT
HETATM    1  C2  UNL     1      -4.114   0.018  -0.280  1.00  0.00     0.316 A 
HETATM    2  C3  UNL     1      -3.477  -1.187  -0.183  1.00  0.00     0.085 A 
HETATM    3  C4  UNL     1      -2.100  -0.722  -0.416  1.00  0.00     0.158 A 
HETATM    4  N1  UNL     1      -2.830   0.395  -0.493  1.00  0.00     0.073 N 
HETATM    5  C5  UNL     1      -2.138   1.478  -0.735  1.00  0.00     0.348 A 
HETATM    6  N2  UNL     1      -0.818   1.294  -0.864  1.00  0.00    -0.223 NA
HETATM    7  C6  UNL     1      -0.183   0.110  -0.766  1.00  0.00     0.130 A 
HETATM    8  C16 UNL     1      -0.779  -1.098  -0.518  1.00  0.00     0.018 A 
HETATM    9  C17 UNL     1      -0.736  -2.534  -0.319  1.00  0.00     0.054 C 
HETATM   10  C18 UNL     1      -3.610   1.388  -0.552  1.00  0.00     0.413 A 
ENDROOT
BRANCH   7  11
HETATM   11  N3  UNL     1       1.156  -0.221  -0.880  1.00  0.00    -0.369 N 
HETATM   12  H5  UNL     1       1.692   0.632  -1.111  1.00  0.00     0.161 HD
BRANCH  11  13
HETATM   13  C7  UNL     1       2.123  -1.239  -0.823  1.00  0.00     0.092 A 
HETATM   14  C8  UNL     1       2.278  -1.920   0.535  1.00  0.00     0.037 A 
HETATM   15  C9  UNL     1       3.401  -1.144  -0.098  1.00  0.00     0.043 A 
BRANCH  15  16
HETATM   16  C10 UNL     1       3.895   0.085   0.560  1.00  0.00    -0.052 A 
HETATM   17  C11 UNL     1       5.249   0.353   0.548  1.00  0.00     0.007 A 
HETATM   18  C12 UNL     1       5.851   1.461   1.124  1.00  0.00     0.001 A 
HETATM   19  C13 UNL     1       5.045   2.368   1.758  1.00  0.00     0.000 A 
HETATM   20  C14 UNL     1       3.703   2.146   1.796  1.00  0.00     0.001 A 
HETATM   21  C15 UNL     1       3.114   1.020   1.208  1.00  0.00     0.007 A 
ENDBRANCH  15  16
ENDBRANCH  11  13
ENDBRANCH   7  11
BRANCH  10  22
HETATM   22  O2  UNL     1      -3.948   2.176   0.583  1.00  0.00    -0.365 OA
HETATM   23  H19 UNL     1      -4.827   2.645   0.435  1.00  0.00     0.212 HD
ENDBRANCH  10  22
BRANCH   1  24
HETATM   24  O1  UNL     1      -5.408  -0.400  -0.048  1.00  0.00    -0.352 OA
HETATM   25  C1  UNL     1      -6.491   0.372   0.344  1.00  0.00     0.205 C 
ENDBRANCH   1  24
TORSDOF 5
