REMARK  3 active torsions:
REMARK  status: ('A' for Active; 'I' for Inactive)
REMARK    1  A    between atoms: O1_1  and  C1_2 
REMARK    2  A    between atoms: C1_2  and  O2_3 
REMARK    3  A    between atoms: O2_3  and  C2_4 
ROOT
HETATM    1  C2  UNL     1      -1.308   0.859  -0.256  1.00  0.00     0.080 C 
HETATM    2  C3  UNL     1      -0.014   0.888  -0.055  1.00  0.00     0.049 C 
HETATM    3  C4  UNL     1       1.363   0.623   0.342  1.00  0.00    -0.027 A 
HETATM    4  C5  UNL     1       1.750   1.324   1.469  1.00  0.00     0.012 A 
HETATM    5  C6  UNL     1       3.007   1.240   2.057  1.00  0.00     0.001 A 
HETATM    6  C7  UNL     1       3.805   0.367   1.363  1.00  0.00     0.001 A 
HETATM    7  C8  UNL     1       3.485  -0.355   0.243  1.00  0.00     0.008 A 
HETATM    8  C9  UNL     1       2.229  -0.234  -0.294  1.00  0.00    -0.042 A 
HETATM    9  C10 UNL     1       1.980  -1.095  -1.492  1.00  0.00     0.046 A 
HETATM   10  C11 UNL     1       0.922  -0.536  -2.395  1.00  0.00     0.039 A 
HETATM   11  C12 UNL     1       0.633  -1.587  -1.420  1.00  0.00     0.118 A 
HETATM   12  N1  UNL     1       0.078  -2.725  -2.041  1.00  0.00    -0.279 NA
HETATM   13  C13 UNL     1      -1.026  -3.158  -1.472  1.00  0.00     0.197 C 
HETATM   14  N2  UNL     1      -1.689  -2.591  -0.313  1.00  0.00    -0.373 N 
HETATM   15  C14 UNL     1      -1.849  -1.516   0.562  1.00  0.00     0.142 A 
HETATM   16  C15 UNL     1      -3.203  -0.970   0.722  1.00  0.00     0.015 A 
HETATM   17  C16 UNL     1      -2.182  -0.217   0.263  1.00  0.00     0.000 A 
HETATM   18  H14 UNL     1      -2.374  -3.320   0.067  1.00  0.00     0.161 HD
ENDROOT
BRANCH   1  19
HETATM   19  O2  UNL     1      -2.028   1.853  -0.992  1.00  0.00    -0.326 OA
BRANCH  19  20
HETATM   20  C1  UNL     1      -2.778   2.836  -0.353  1.00  0.00     0.341 C 
BRANCH  20  21
HETATM   21  O1  UNL     1      -3.342   3.655  -1.338  1.00  0.00    -0.377 OA
HETATM   22  H1  UNL     1      -3.201   4.619  -1.159  1.00  0.00     0.212 HD
ENDBRANCH  20  21
ENDBRANCH  19  20
ENDBRANCH   1  19
TORSDOF 3
