REMARK  4 active torsions:
REMARK  status: ('A' for Active; 'I' for Inactive)
REMARK    1  A    between atoms: O1_2  and  C2_3 
REMARK    2  A    between atoms: C6_9  and  N3_10 
REMARK    3  A    between atoms: N3_10  and  C7_11 
REMARK    4  A    between atoms: C18_22  and  O2_23 
ROOT
HETATM    1  C2  UNL     1       3.605   0.927   0.484  1.00  0.00     0.103 A 
HETATM    2  C3  UNL     1       3.547   0.770  -0.885  1.00  0.00     0.072 A 
HETATM    3  C4  UNL     1       2.411   0.197  -1.416  1.00  0.00     0.075 A 
HETATM    4  N1  UNL     1       2.337   0.029  -2.733  1.00  0.00    -0.241 NA
HETATM    5  C5  UNL     1       1.293  -0.519  -3.356  1.00  0.00     0.235 A 
HETATM    6  N2  UNL     1       0.242  -0.934  -2.655  1.00  0.00    -0.224 NA
HETATM    7  C6  UNL     1       0.205  -0.813  -1.297  1.00  0.00     0.138 A 
HETATM    8  C16 UNL     1       1.312  -0.240  -0.708  1.00  0.00     0.041 A 
HETATM    9  C17 UNL     1       1.456  -0.046   0.647  1.00  0.00     0.057 A 
HETATM   10  C18 UNL     1       2.548   0.516   1.270  1.00  0.00     0.100 A 
ENDROOT
BRANCH   7  11
HETATM   11  N3  UNL     1      -0.899  -1.246  -0.473  1.00  0.00    -0.368 N 
HETATM   12  H6  UNL     1      -1.582  -1.675  -1.163  1.00  0.00     0.161 HD
BRANCH  11  13
HETATM   13  C7  UNL     1      -1.589  -1.420   0.739  1.00  0.00     0.098 C 
HETATM   14  C8  UNL     1      -2.881  -2.300   0.605  1.00  0.00     0.064 C 
HETATM   15  C9  UNL     1      -3.781  -1.102   0.732  1.00  0.00    -0.059 C 
HETATM   16  C10 UNL     1      -3.441  -0.595   1.946  1.00  0.00    -0.009 C 
HETATM   17  C15 UNL     1      -4.739  -0.614  -0.319  1.00  0.00     0.007 C 
HETATM   18  C11 UNL     1      -2.147  -0.126   1.321  1.00  0.00     0.054 C 
HETATM   19  C12 UNL     1      -2.326   0.972   0.350  1.00  0.00    -0.016 C 
HETATM   20  C13 UNL     1      -3.274   1.450  -0.499  1.00  0.00    -0.003 C 
HETATM   21  C14 UNL     1      -4.528   0.675  -0.752  1.00  0.00     0.000 C 
ENDBRANCH  11  13
ENDBRANCH   7  11
BRANCH  10  22
HETATM   22  O2  UNL     1       2.618   0.679   2.648  1.00  0.00    -0.358 OA
HETATM   23  H17 UNL     1       2.175  -0.079   3.191  1.00  0.00     0.217 HD
ENDBRANCH  10  22
BRANCH   1  24
HETATM   24  O1  UNL     1       4.712   1.493   1.083  1.00  0.00    -0.353 OA
HETATM   25  C1  UNL     1       5.825   1.935   0.348  1.00  0.00     0.210 C 
ENDBRANCH   1  24
TORSDOF 4
