REMARK  7 active torsions:
REMARK  status: ('A' for Active; 'I' for Inactive)
REMARK    1  A    between atoms: C3_3  and  C4_4 
REMARK    2  A    between atoms: C5_5  and  C6_6 
REMARK    3  A    between atoms: C7_7  and  C8_8 
REMARK    4  A    between atoms: C8_8  and  N1_9 
REMARK    5  A    between atoms: N1_9  and  C9_10 
REMARK    6  A    between atoms: C13_16  and  O1_17 
REMARK    7  A    between atoms: C15_19  and  O2_20 
ROOT
HETATM    1  C9  UNL     1       0.972   0.670  -1.078  1.00  0.00     0.138 A 
HETATM    2  N2  UNL     1       0.468  -0.479  -1.534  1.00  0.00    -0.224 NA
HETATM    3  C10 UNL     1       1.158  -1.629  -1.542  1.00  0.00     0.235 A 
HETATM    4  N3  UNL     1       2.419  -1.703  -1.087  1.00  0.00    -0.241 NA
HETATM    5  C11 UNL     1       3.020  -0.581  -0.601  1.00  0.00     0.075 A 
HETATM    6  C12 UNL     1       4.312  -0.593  -0.120  1.00  0.00     0.072 A 
HETATM    7  C13 UNL     1       4.916   0.543   0.370  1.00  0.00     0.103 A 
HETATM    8  C15 UNL     1       4.181   1.706   0.365  1.00  0.00     0.100 A 
HETATM    9  C16 UNL     1       2.891   1.693  -0.122  1.00  0.00     0.057 A 
HETATM   10  C17 UNL     1       2.267   0.567  -0.617  1.00  0.00     0.041 A 
ENDROOT
BRANCH   1  11
HETATM   11  N1  UNL     1       0.209   1.870  -1.086  1.00  0.00    -0.364 N 
HETATM   12  H10 UNL     1       0.527   2.800  -0.751  1.00  0.00     0.162 HD
BRANCH  11  13
HETATM   13  C8  UNL     1      -1.147   1.799  -1.610  1.00  0.00     0.216 C 
BRANCH  13  14
HETATM   14  C7  UNL     1      -1.881   0.827  -0.769  1.00  0.00    -0.082 C 
HETATM   15  C6  UNL     1      -2.500   0.042  -0.082  1.00  0.00    -0.077 C 
BRANCH  15  16
HETATM   16  C5  UNL     1      -3.255  -0.876   0.731  1.00  0.00     0.064 C 
HETATM   17  C4  UNL     1      -4.598  -0.859   0.718  1.00  0.00     0.009 C 
BRANCH  17  18
HETATM   18  C3  UNL     1      -5.460  -1.735   1.493  1.00  0.00    -0.004 C 
HETATM   19  C2  UNL     1      -6.785  -1.681   1.448  1.00  0.00    -0.031 C 
HETATM   20  C1  UNL     1      -7.425  -0.688   0.569  1.00  0.00     0.036 C 
ENDBRANCH  17  18
ENDBRANCH  15  16
ENDBRANCH  13  14
ENDBRANCH  11  13
ENDBRANCH   1  11
BRANCH   8  21
HETATM   21  O2  UNL     1       4.791   2.862   0.862  1.00  0.00    -0.358 OA
HETATM   22  H16 UNL     1       4.266   3.577   1.343  1.00  0.00     0.217 HD
ENDBRANCH   8  21
BRANCH   7  23
HETATM   23  O1  UNL     1       6.212   0.553   0.859  1.00  0.00    -0.353 OA
HETATM   24  C14 UNL     1       6.914  -0.677   0.836  1.00  0.00     0.210 C 
ENDBRANCH   7  23
TORSDOF 7
