REMARK  5 active torsions:
REMARK  status: ('A' for Active; 'I' for Inactive)
REMARK    1  A    between atoms: P1_2  and  C2_3 
REMARK    2  A    between atoms: C6_9  and  N3_10 
REMARK    3  A    between atoms: N3_10  and  C7_11 
REMARK    4  A    between atoms: C9_13  and  C10_14 
REMARK    5  A    between atoms: C18_22  and  O1_23 
ROOT
HETATM    1  C2  UNL     1       3.085   1.192  -0.292  1.00  0.00     0.001 A 
HETATM    2  C3  UNL     1       2.810   1.873   0.876  1.00  0.00     0.047 A 
HETATM    3  C4  UNL     1       1.760   1.450   1.654  1.00  0.00     0.073 A 
HETATM    4  N1  UNL     1       1.496   2.124   2.781  1.00  0.00    -0.241 NA
HETATM    5  C5  UNL     1       0.487   1.773   3.577  1.00  0.00     0.235 A 
HETATM    6  N2  UNL     1      -0.291   0.751   3.292  1.00  0.00    -0.224 NA
HETATM    7  C6  UNL     1      -0.120  -0.011   2.172  1.00  0.00     0.138 A 
HETATM    8  C16 UNL     1       0.926   0.383   1.381  1.00  0.00     0.041 A 
HETATM    9  C17 UNL     1       1.250  -0.249   0.211  1.00  0.00     0.055 A 
HETATM   10  C18 UNL     1       2.286   0.114  -0.623  1.00  0.00     0.077 A 
ENDROOT
BRANCH   7  11
HETATM   11  N3  UNL     1      -0.949  -1.125   1.823  1.00  0.00    -0.369 N 
HETATM   12  H7  UNL     1      -1.700  -1.197   2.574  1.00  0.00     0.161 HD
BRANCH  11  13
HETATM   13  C7  UNL     1      -1.161  -2.173   0.892  1.00  0.00     0.092 A 
HETATM   14  C8  UNL     1      -2.478  -2.933   0.965  1.00  0.00     0.037 A 
HETATM   15  C9  UNL     1      -2.072  -2.177  -0.245  1.00  0.00     0.043 A 
BRANCH  15  16
HETATM   16  C10 UNL     1      -2.900  -1.022  -0.657  1.00  0.00    -0.052 A 
HETATM   17  C11 UNL     1      -3.485  -0.090   0.170  1.00  0.00     0.007 A 
HETATM   18  C12 UNL     1      -4.246   0.971  -0.270  1.00  0.00     0.001 A 
HETATM   19  C13 UNL     1      -4.458   1.145  -1.617  1.00  0.00     0.000 A 
HETATM   20  C14 UNL     1      -3.912   0.261  -2.523  1.00  0.00     0.001 A 
HETATM   21  C15 UNL     1      -3.162  -0.778  -2.014  1.00  0.00     0.007 A 
ENDBRANCH  15  16
ENDBRANCH  11  13
ENDBRANCH   7  11
BRANCH  10  22
HETATM   22  O1  UNL     1       2.596  -0.539  -1.802  1.00  0.00    -0.360 OA
HETATM   23  H18 UNL     1       3.381  -1.177  -1.905  1.00  0.00     0.217 HD
ENDBRANCH  10  22
BRANCH   1  24
HETATM   24  P1  UNL     1       4.465   1.748  -1.313  1.00  0.00    -0.096 P 
HETATM   25  C1  UNL     1       6.094   1.103  -0.732  1.00  0.00     0.046 C 
HETATM   26  H4  UNL     1       4.256   1.622  -2.723  1.00  0.00     0.062 HD
ENDBRANCH   1  24
TORSDOF 5
