REMARK  7 active torsions:
REMARK  status: ('A' for Active; 'I' for Inactive)
REMARK    1  A    between atoms: C1_2  and  C2_3 
REMARK    2  A    between atoms: C2_3  and  C3_4 
REMARK    3  A    between atoms: C8_9  and  O1_10 
REMARK    4  A    between atoms: O1_10  and  C9_11 
REMARK    5  A    between atoms: C11_13  and  N1_14 
REMARK    6  A    between atoms: N1_14  and  C12_15 
REMARK    7  A    between atoms: C12_15  and  C13_16 
ROOT
HETATM    1  C9  UNL     1      -0.896   0.255   0.248  1.00  0.00     0.174 A 
HETATM    2  C10 UNL     1      -0.081  -0.846   0.100  1.00  0.00     0.108 A 
HETATM    3  C11 UNL     1       1.237  -0.824   0.573  1.00  0.00     0.129 A 
HETATM    4  N2  UNL     1       1.681   0.289   1.171  1.00  0.00    -0.225 NA
HETATM    5  C19 UNL     1       0.895   1.352   1.314  1.00  0.00     0.238 A 
HETATM    6  N3  UNL     1      -0.366   1.327   0.860  1.00  0.00    -0.217 NA
ENDROOT
BRANCH   1   7
HETATM    7  O1  UNL     1      -2.140  -0.003  -0.293  1.00  0.00    -0.291 OA
BRANCH   7   8
HETATM    8  C8  UNL     1      -3.168   0.908  -0.293  1.00  0.00     0.084 A 
HETATM    9  C3  UNL     1      -4.317   0.393  -0.904  1.00  0.00    -0.022 A 
HETATM   10  C4  UNL     1      -5.462   1.192  -0.990  1.00  0.00     0.010 A 
HETATM   11  C5  UNL     1      -5.517   2.480  -0.498  1.00  0.00     0.001 A 
HETATM   12  C6  UNL     1      -4.377   2.977   0.102  1.00  0.00     0.003 A 
HETATM   13  C7  UNL     1      -3.250   2.194   0.189  1.00  0.00     0.038 A 
BRANCH   9  14
HETATM   14  C2  UNL     1      -4.414  -0.976  -1.481  1.00  0.00     0.073 C 
BRANCH  14  15
HETATM   15  C1  UNL     1      -4.559  -2.049  -0.432  1.00  0.00     0.227 C 
HETATM   16  F1  UNL     1      -5.706  -1.805   0.289  1.00  0.00    -0.255 F 
ENDBRANCH  14  15
ENDBRANCH   9  14
ENDBRANCH   7   8
ENDBRANCH   1   7
BRANCH   3  17
HETATM   17  N1  UNL     1       2.211  -1.854   0.511  1.00  0.00    -0.370 N 
HETATM   18  H10 UNL     1       1.779  -2.702   0.031  1.00  0.00     0.161 HD
BRANCH  17  19
HETATM   19  C12 UNL     1       3.562  -1.909   0.961  1.00  0.00     0.160 C 
BRANCH  19  20
HETATM   20  C13 UNL     1       4.479  -0.933   0.358  1.00  0.00    -0.041 A 
HETATM   21  C14 UNL     1       5.111  -1.279  -0.842  1.00  0.00     0.009 A 
HETATM   22  C15 UNL     1       6.000  -0.458  -1.506  1.00  0.00     0.001 A 
HETATM   23  C16 UNL     1       6.290   0.785  -0.960  1.00  0.00     0.000 A 
HETATM   24  C17 UNL     1       5.693   1.180   0.228  1.00  0.00     0.001 A 
HETATM   25  C18 UNL     1       4.817   0.300   0.826  1.00  0.00     0.009 A 
ENDBRANCH  19  20
ENDBRANCH  17  19
ENDBRANCH   3  17
TORSDOF 7
