REMARK  6 active torsions:
REMARK  status: ('A' for Active; 'I' for Inactive)
REMARK    1  A    between atoms: O1_2  and  C2_3 
REMARK    2  A    between atoms: C6_9  and  N3_10 
REMARK    3  A    between atoms: N3_10  and  C7_11 
REMARK    4  A    between atoms: C8_12  and  O2_13 
REMARK    5  A    between atoms: C9_14  and  C10_15 
REMARK    6  A    between atoms: C17_22  and  O3_23 
ROOT
HETATM    1  C2  UNL     1       4.336  -0.165   0.819  1.00  0.00     0.081 A 
HETATM    2  C3  UNL     1       4.138   1.011   1.433  1.00  0.00     0.067 A 
HETATM    3  C4  UNL     1       2.773   1.471   1.194  1.00  0.00     0.073 A 
HETATM    4  N1  UNL     1       2.048   2.546   1.553  1.00  0.00    -0.241 NA
HETATM    5  C5  UNL     1       0.761   2.693   1.161  1.00  0.00     0.235 A 
HETATM    6  N2  UNL     1       0.141   1.759   0.386  1.00  0.00    -0.224 NA
HETATM    7  C6  UNL     1       0.858   0.676   0.020  1.00  0.00     0.137 A 
HETATM    8  C16 UNL     1       2.175   0.507   0.410  1.00  0.00     0.051 A 
HETATM    9  C17 UNL     1       3.105  -0.601   0.108  1.00  0.00     0.214 A 
ENDROOT
BRANCH   7  10
HETATM   10  N3  UNL     1       0.222  -0.306  -0.789  1.00  0.00    -0.366 N 
HETATM   11  H6  UNL     1       0.735  -1.160  -1.098  1.00  0.00     0.161 HD
BRANCH  10  12
HETATM   12  C7  UNL     1      -1.136  -0.159  -1.207  1.00  0.00     0.123 A 
HETATM   13  C8  UNL     1      -1.823  -1.166  -2.050  1.00  0.00     0.152 A 
HETATM   14  C9  UNL     1      -2.167  -1.152  -0.630  1.00  0.00     0.074 A 
BRANCH  13  15
HETATM   15  O2  UNL     1      -2.650  -0.706  -3.042  1.00  0.00    -0.393 OA
HETATM   16  H9  UNL     1      -2.197  -0.492  -3.874  1.00  0.00     0.210 HD
ENDBRANCH  13  15
BRANCH  14  17
HETATM   17  C10 UNL     1      -3.386  -0.513  -0.098  1.00  0.00    -0.049 A 
HETATM   18  C11 UNL     1      -4.027   0.514  -0.741  1.00  0.00     0.007 A 
HETATM   19  C12 UNL     1      -5.174   1.157  -0.294  1.00  0.00     0.001 A 
HETATM   20  C13 UNL     1      -5.724   0.724   0.910  1.00  0.00     0.000 A 
HETATM   21  C14 UNL     1      -5.102  -0.307   1.579  1.00  0.00     0.001 A 
HETATM   22  C15 UNL     1      -3.965  -0.918   1.103  1.00  0.00     0.007 A 
ENDBRANCH  14  17
ENDBRANCH  10  12
ENDBRANCH   7  10
BRANCH   9  23
HETATM   23  O3  UNL     1       2.648  -1.843   0.524  1.00  0.00    -0.384 OA
HETATM   24  H17 UNL     1       2.974  -2.534  -0.132  1.00  0.00     0.211 HD
ENDBRANCH   9  23
BRANCH   1  25
HETATM   25  O1  UNL     1       5.543  -0.849   0.868  1.00  0.00    -0.357 OA
HETATM   26  C1  UNL     1       6.337  -0.862  -0.306  1.00  0.00     0.209 C 
ENDBRANCH   1  25
TORSDOF 6
