REMARK  6 active torsions:
REMARK  status: ('A' for Active; 'I' for Inactive)
REMARK    1  A    between atoms: O1_2  and  C2_3 
REMARK    2  A    between atoms: C6_9  and  N3_10 
REMARK    3  A    between atoms: N3_10  and  C7_11 
REMARK    4  A    between atoms: C7_11  and  C8_12 
REMARK    5  A    between atoms: C8_12  and  C9_13 
REMARK    6  A    between atoms: C17_21  and  O2_22 
ROOT
HETATM    1  C2  UNL     1       3.192   2.517  -1.443  1.00  0.00     0.103 A 
HETATM    2  C3  UNL     1       3.463   1.371  -2.450  1.00  0.00     0.072 A 
HETATM    3  C4  UNL     1       2.421   0.618  -2.238  1.00  0.00     0.074 A 
HETATM    4  N1  UNL     1       2.838  -0.312  -3.167  1.00  0.00    -0.241 NA
HETATM    5  C5  UNL     1       2.175  -1.414  -3.442  1.00  0.00     0.235 A 
HETATM    6  N2  UNL     1       1.015  -1.592  -2.746  1.00  0.00    -0.229 NA
HETATM    7  C6  UNL     1       0.527  -0.760  -1.835  1.00  0.00     0.117 A 
HETATM    8  C15 UNL     1       1.284   0.433  -1.559  1.00  0.00     0.036 A 
HETATM    9  C16 UNL     1       1.041   1.512  -0.623  1.00  0.00     0.057 A 
HETATM   10  C17 UNL     1       2.016   2.473  -0.633  1.00  0.00     0.102 A 
ENDROOT
BRANCH   7  11
HETATM   11  N3  UNL     1      -0.552  -0.668  -0.951  1.00  0.00    -0.276 NA
HETATM   12  H6  UNL     1      -0.813  -1.622  -1.371  1.00  0.00     0.129 HD
BRANCH  11  13
HETATM   13  C7  UNL     1      -1.757  -0.947  -0.221  1.00  0.00     0.098 C 
BRANCH  13  14
HETATM   14  C8  UNL     1      -1.484  -2.173   0.644  1.00  0.00     0.053 C 
BRANCH  14  15
HETATM   15  C9  UNL     1      -2.569  -2.590   1.533  1.00  0.00    -0.057 A 
HETATM   16  C10 UNL     1      -2.421  -2.225   2.858  1.00  0.00     0.007 A 
HETATM   17  C11 UNL     1      -3.446  -2.642   3.663  1.00  0.00     0.001 A 
HETATM   18  C12 UNL     1      -4.561  -3.366   3.274  1.00  0.00     0.000 A 
HETATM   19  C13 UNL     1      -4.600  -3.671   1.931  1.00  0.00     0.001 A 
HETATM   20  C14 UNL     1      -3.624  -3.313   0.970  1.00  0.00     0.007 A 
ENDBRANCH  14  15
ENDBRANCH  13  14
ENDBRANCH  11  13
ENDBRANCH   7  11
BRANCH  10  21
HETATM   21  O2  UNL     1       1.582   3.440   0.380  1.00  0.00    -0.353 OA
HETATM   22  C18 UNL     1       0.376   3.022   1.025  1.00  0.00     0.210 C 
ENDBRANCH  10  21
BRANCH   1  23
HETATM   23  O1  UNL     1       3.757   3.573  -1.087  1.00  0.00    -0.353 OA
HETATM   24  C1  UNL     1       4.537   4.653  -0.862  1.00  0.00     0.210 C 
ENDBRANCH   1  23
TORSDOF 6
