REMARK  5 active torsions:
REMARK  status: ('A' for Active; 'I' for Inactive)
REMARK    1  A    between atoms: O1_2  and  C2_3 
REMARK    2  A    between atoms: C6_9  and  N3_10 
REMARK    3  A    between atoms: N3_10  and  C7_11 
REMARK    4  A    between atoms: C9_13  and  C10_14 
REMARK    5  A    between atoms: C19_23  and  O2_24 
ROOT
HETATM    1  C2  UNL     1      -5.077  -0.256   0.285  1.00  0.00     0.102 A 
HETATM    2  C3  UNL     1      -4.318   0.274   1.224  1.00  0.00     0.068 A 
HETATM    3  C4  UNL     1      -2.909   0.456   0.895  1.00  0.00     0.050 A 
HETATM    4  N1  UNL     1      -2.330   0.958   1.955  1.00  0.00    -0.245 NA
HETATM    5  C5  UNL     1      -0.936   1.300   2.087  1.00  0.00     0.235 C 
HETATM    6  N2  UNL     1       0.018   0.674   1.482  1.00  0.00    -0.225 NA
HETATM    7  C6  UNL     1      -0.053  -0.449   0.583  1.00  0.00     0.122 C 
HETATM    8  C16 UNL     1      -1.060  -0.719  -0.273  1.00  0.00     0.038 C 
HETATM    9  C17 UNL     1      -2.241   0.133  -0.391  1.00  0.00     0.089 A 
HETATM   10  C18 UNL     1      -3.252  -0.448  -1.295  1.00  0.00     0.027 A 
HETATM   11  C19 UNL     1      -4.541  -0.642  -1.034  1.00  0.00     0.096 A 
ENDROOT
BRANCH   7  12
HETATM   12  N3  UNL     1       0.982  -1.432   0.499  1.00  0.00    -0.370 N 
HETATM   13  H6  UNL     1       0.649  -2.422   0.495  1.00  0.00     0.161 HD
BRANCH  12  14
HETATM   14  C7  UNL     1       2.381  -1.137   0.423  1.00  0.00     0.092 A 
HETATM   15  C8  UNL     1       2.890  -0.357   1.647  1.00  0.00     0.037 A 
HETATM   16  C9  UNL     1       2.930   0.208   0.236  1.00  0.00     0.043 A 
BRANCH  16  17
HETATM   17  C10 UNL     1       4.309   0.328  -0.311  1.00  0.00    -0.052 A 
HETATM   18  C11 UNL     1       5.222  -0.674  -0.125  1.00  0.00     0.007 A 
HETATM   19  C12 UNL     1       6.523  -0.632  -0.604  1.00  0.00     0.001 A 
HETATM   20  C13 UNL     1       6.935   0.496  -1.320  1.00  0.00     0.000 A 
HETATM   21  C14 UNL     1       6.043   1.506  -1.516  1.00  0.00     0.001 A 
HETATM   22  C15 UNL     1       4.743   1.447  -1.029  1.00  0.00     0.007 A 
ENDBRANCH  16  17
ENDBRANCH  12  14
ENDBRANCH   7  12
BRANCH  11  23
HETATM   23  O2  UNL     1      -5.370  -1.211  -2.020  1.00  0.00    -0.358 OA
HETATM   24  H19 UNL     1      -5.852  -2.085  -1.839  1.00  0.00     0.217 HD
ENDBRANCH  11  23
BRANCH   1  25
HETATM   25  O1  UNL     1      -6.419  -0.487   0.458  1.00  0.00    -0.353 OA
HETATM   26  C1  UNL     1      -7.328   0.533   0.112  1.00  0.00     0.210 C 
ENDBRANCH   1  25
TORSDOF 5
