REMARK  6 active torsions:
REMARK  status: ('A' for Active; 'I' for Inactive)
REMARK    1  A    between atoms: O1_2  and  C2_3 
REMARK    2  A    between atoms: C6_9  and  N3_10 
REMARK    3  A    between atoms: N3_10  and  C7_11 
REMARK    4  A    between atoms: C9_13  and  C10_14 
REMARK    5  A    between atoms: C10_14  and  C11_15 
REMARK    6  A    between atoms: C18_23  and  O2_24 
ROOT
HETATM    1  C2  UNL     1      -4.693   0.484  -0.124  1.00  0.00     0.103 A 
HETATM    2  C3  UNL     1      -4.195   0.399  -1.405  1.00  0.00     0.072 A 
HETATM    3  C4  UNL     1      -2.861   0.174  -1.609  1.00  0.00     0.075 A 
HETATM    4  N1  UNL     1      -2.387   0.092  -2.886  1.00  0.00    -0.241 NA
HETATM    5  C5  UNL     1      -1.062  -0.133  -3.102  1.00  0.00     0.235 A 
HETATM    6  N2  UNL     1      -0.253  -0.268  -2.050  1.00  0.00    -0.224 NA
HETATM    7  C6  UNL     1      -0.588  -0.209  -0.765  1.00  0.00     0.138 A 
HETATM    8  C16 UNL     1      -1.936   0.019  -0.596  1.00  0.00     0.041 A 
HETATM    9  C17 UNL     1      -2.484   0.113   0.666  1.00  0.00     0.057 A 
HETATM   10  C18 UNL     1      -3.818   0.338   0.932  1.00  0.00     0.102 A 
ENDROOT
BRANCH   7  11
HETATM   11  N3  UNL     1       0.320  -0.361   0.314  1.00  0.00    -0.369 N 
HETATM   12  H6  UNL     1       0.004  -0.296   1.305  1.00  0.00     0.161 HD
BRANCH  11  13
HETATM   13  C7  UNL     1       1.708  -0.608   0.146  1.00  0.00     0.088 A 
HETATM   14  C8  UNL     1       2.399   0.510  -0.690  1.00  0.00     0.032 A 
HETATM   15  C9  UNL     1       2.421  -0.922  -1.087  1.00  0.00     0.014 A 
BRANCH  15  16
HETATM   16  C10 UNL     1       3.725  -1.647  -1.023  1.00  0.00     0.042 C 
BRANCH  16  17
HETATM   17  C11 UNL     1       4.830  -1.029  -0.265  1.00  0.00    -0.064 C 
HETATM   18  C12 UNL     1       5.823  -0.670  -1.071  1.00  0.00    -0.008 C 
HETATM   19  P1  UNL     1       7.039   0.090  -0.276  1.00  0.00    -0.022 P 
HETATM   20  C13 UNL     1       6.363   1.417   0.846  1.00  0.00     0.013 C 
HETATM   21  C14 UNL     1       5.391   0.709   1.464  1.00  0.00    -0.021 C 
HETATM   22  C15 UNL     1       5.187  -0.694   1.119  1.00  0.00     0.062 C 
ENDBRANCH  16  17
ENDBRANCH  15  16
ENDBRANCH  11  13
ENDBRANCH   7  11
BRANCH  10  23
HETATM   23  O2  UNL     1      -4.320   0.424   2.226  1.00  0.00    -0.353 OA
HETATM   24  C19 UNL     1      -3.409   0.271   3.305  1.00  0.00     0.210 C 
ENDBRANCH  10  23
BRANCH   1  25
HETATM   25  O1  UNL     1      -6.034   0.710   0.131  1.00  0.00    -0.353 OA
HETATM   26  C1  UNL     1      -7.006   0.873  -0.861  1.00  0.00     0.210 C 
ENDBRANCH   1  25
TORSDOF 6
