REMARK  5 active torsions:
REMARK  status: ('A' for Active; 'I' for Inactive)
REMARK    1  A    between atoms: O1_2  and  C2_3 
REMARK    2  A    between atoms: C7_8  and  O2_9 
REMARK    3  A    between atoms: N3_13  and  C9_14 
REMARK    4  A    between atoms: B1_16  and  C11_17 
REMARK    5  A    between atoms: C11_17  and  C12_18 
ROOT
HETATM    1  C2  UNL     1       4.563  -0.503  -0.214  1.00  0.00     0.102 A 
HETATM    2  C3  UNL     1       3.320  -0.834   0.270  1.00  0.00     0.055 A 
HETATM    3  C4  UNL     1       2.315   0.109   0.149  1.00  0.00     0.014 A 
HETATM    4  C5  UNL     1       2.567   1.333  -0.440  1.00  0.00     0.093 A 
HETATM    5  C6  UNL     1       3.826   1.669  -0.931  1.00  0.00     0.074 A 
HETATM    6  C7  UNL     1       4.836   0.713  -0.806  1.00  0.00     0.103 A 
HETATM    7  N1  UNL     1       1.696   2.283  -0.602  1.00  0.00    -0.158 NA
HETATM    8  N2  UNL     1       0.390   2.073  -0.151  1.00  0.00    -0.218 N 
HETATM    9  N3  UNL     1       0.029   0.870   0.459  1.00  0.00    -0.292 N 
HETATM   10  C18 UNL     1       1.089  -0.103   0.578  1.00  0.00     0.124 A 
HETATM   11  H9  UNL     1      -0.389   2.751  -0.223  1.00  0.00     0.210 HD
ENDROOT
BRANCH   9  12
HETATM   12  C9  UNL     1      -1.222   0.432   0.991  1.00  0.00     0.059 A 
HETATM   13  C10 UNL     1      -2.350   1.444   0.860  1.00  0.00    -0.029 A 
HETATM   14  B1  UNL     1      -2.420  -0.006   0.203  1.00  0.00     0.210 B 
BRANCH  14  15
HETATM   15  C11 UNL     1      -3.291  -0.966  -0.707  1.00  0.00    -0.008 C 
BRANCH  15  16
HETATM   16  C12 UNL     1      -4.725  -0.943  -0.357  1.00  0.00    -0.067 A 
HETATM   17  C13 UNL     1      -5.535  -0.013  -1.002  1.00  0.00     0.006 A 
HETATM   18  C14 UNL     1      -6.889   0.019  -0.680  1.00  0.00     0.001 A 
HETATM   19  C15 UNL     1      -7.438  -0.855   0.264  1.00  0.00     0.000 A 
HETATM   20  C16 UNL     1      -6.600  -1.778   0.895  1.00  0.00     0.001 A 
HETATM   21  C17 UNL     1      -5.267  -1.804   0.574  1.00  0.00     0.006 A 
ENDBRANCH  15  16
ENDBRANCH  14  15
ENDBRANCH   9  12
BRANCH   1  22
HETATM   22  O1  UNL     1       5.583  -1.438  -0.100  1.00  0.00    -0.353 OA
HETATM   23  C1  UNL     1       5.311  -2.681   0.502  1.00  0.00     0.210 C 
ENDBRANCH   1  22
BRANCH   6  24
HETATM   24  O2  UNL     1       6.117   0.974  -1.271  1.00  0.00    -0.353 OA
HETATM   25  C8  UNL     1       6.444   2.191  -1.878  1.00  0.00     0.210 C 
ENDBRANCH   6  24
TORSDOF 5
