REMARK  4 active torsions:
REMARK  status: ('A' for Active; 'I' for Inactive)
REMARK    1  A    between atoms: O1_1  and  C1_2 
REMARK    2  A    between atoms: N3_8  and  C19_23 
REMARK    3  A    between atoms: C8_12  and  C10_14 
REMARK    4  A    between atoms: C12_16  and  C17_21 
ROOT
HETATM    1  C1  UNL     1      -3.018  -1.358   0.157  1.00  0.00     0.050 C 
HETATM    2  C2  UNL     1      -3.280  -0.002  -0.102  1.00  0.00     0.066 C 
HETATM    3  C3  UNL     1      -2.106   0.947  -0.205  1.00  0.00     0.088 A 
HETATM    4  N1  UNL     1      -2.493   1.549  -1.327  1.00  0.00    -0.238 NA
HETATM    5  C4  UNL     1      -1.599   2.539  -1.800  1.00  0.00     0.255 A 
HETATM    6  N2  UNL     1      -0.519   2.772  -1.165  1.00  0.00    -0.165 NA
HETATM    7  N3  UNL     1       0.010   2.215  -0.000  1.00  0.00    -0.261 N 
HETATM    8  C5  UNL     1      -0.834   1.215   0.574  1.00  0.00     0.082 A 
HETATM    9  C6  UNL     1      -0.776   0.501   1.753  1.00  0.00     0.034 C 
HETATM   10  C7  UNL     1      -0.739  -0.951   2.157  1.00  0.00     0.011 C 
HETATM   11  C8  UNL     1      -0.803  -1.634   1.020  1.00  0.00    -0.042 C 
HETATM   12  C9  UNL     1      -1.773  -2.325   0.141  1.00  0.00     0.103 C 
ENDROOT
BRANCH   1  13
HETATM   13  O1  UNL     1      -4.198  -1.961   0.515  1.00  0.00    -0.365 OA
HETATM   14  H1  UNL     1      -4.322  -2.949   0.336  1.00  0.00     0.217 HD
ENDBRANCH   1  13
BRANCH  11  15
HETATM   15  C10 UNL     1       0.513  -1.652   0.396  1.00  0.00    -0.033 C 
HETATM   16  C11 UNL     1       1.543  -0.924   0.910  1.00  0.00    -0.006 C 
HETATM   17  C12 UNL     1       1.885   0.352   0.102  1.00  0.00     0.037 C 
HETATM   18  C13 UNL     1       2.926  -0.162  -0.787  1.00  0.00    -0.018 C 
HETATM   19  C14 UNL     1       2.701  -1.216  -1.620  1.00  0.00    -0.003 C 
HETATM   20  C15 UNL     1       1.545  -2.159  -1.743  1.00  0.00     0.001 C 
HETATM   21  C16 UNL     1       0.596  -2.442  -0.819  1.00  0.00     0.011 C 
BRANCH  17  22
HETATM   22  C17 UNL     1       1.982   1.440   1.009  1.00  0.00     0.024 A 
HETATM   23  C18 UNL     1       2.348   2.816   1.165  1.00  0.00     0.035 A 
HETATM   24  C19 UNL     1       1.340   2.661   0.195  1.00  0.00     0.116 A 
ENDBRANCH  17  22
ENDBRANCH  11  15
TORSDOF 4
