REMARK  4 active torsions:
REMARK  status: ('A' for Active; 'I' for Inactive)
REMARK    1  A    between atoms: C2_2  and  C3_4 
REMARK    2  A    between atoms: C7_9  and  N2_10 
REMARK    3  A    between atoms: N2_10  and  C8_11 
REMARK    4  A    between atoms: C8_11  and  C9_12 
ROOT
HETATM    1  C3  UNL     1       4.209   0.824  -0.629  1.00  0.00     0.044 C 
HETATM    2  C4  UNL     1       3.042   1.427  -0.748  1.00  0.00    -0.020 C 
HETATM    3  C5  UNL     1       2.312   1.599   0.521  1.00  0.00     0.157 C 
HETATM    4  N1  UNL     1       0.935   1.090   0.402  1.00  0.00    -0.379 N 
HETATM    5  C6  UNL     1       0.398   0.225  -0.591  1.00  0.00     0.131 A 
HETATM    6  C7  UNL     1      -0.569  -0.578  -0.027  1.00  0.00     0.178 A 
HETATM    7  N3  UNL     1      -1.162  -1.436  -0.865  1.00  0.00    -0.110 NA
HETATM    8  N4  UNL     1      -0.834  -1.499  -2.139  1.00  0.00    -0.039 NA
HETATM    9  N5  UNL     1       0.087  -0.749  -2.723  1.00  0.00    -0.102 NA
HETATM   10  C15 UNL     1       0.737   0.149  -1.943  1.00  0.00     0.219 A 
HETATM   11  O1  UNL     1       1.690   0.890  -2.658  1.00  0.00    -0.310 OA
HETATM   12  C16 UNL     1       2.525   1.882  -2.054  1.00  0.00     0.233 C 
HETATM   13 BR1  UNL     1       3.964   2.249  -3.284  1.00  0.00    -0.056 Br
HETATM   14  H6  UNL     1       0.199   1.350   1.090  1.00  0.00     0.160 HD
ENDROOT
BRANCH   6  15
HETATM   15  N2  UNL     1      -0.950  -0.572   1.340  1.00  0.00    -0.367 N 
HETATM   16  H7  UNL     1      -0.586  -0.006   2.135  1.00  0.00     0.161 HD
BRANCH  15  17
HETATM   17  C8  UNL     1      -1.991  -1.442   1.877  1.00  0.00     0.160 C 
BRANCH  17  18
HETATM   18  C9  UNL     1      -3.328  -1.198   1.335  1.00  0.00    -0.041 A 
HETATM   19  C10 UNL     1      -3.980  -0.167   2.011  1.00  0.00     0.009 A 
HETATM   20  C11 UNL     1      -5.268   0.245   1.691  1.00  0.00     0.001 A 
HETATM   21  C12 UNL     1      -5.964  -0.365   0.670  1.00  0.00     0.000 A 
HETATM   22  C13 UNL     1      -5.319  -1.387   0.001  1.00  0.00     0.001 A 
HETATM   23  C14 UNL     1      -4.054  -1.786   0.321  1.00  0.00     0.009 A 
ENDBRANCH  17  18
ENDBRANCH  15  17
ENDBRANCH   6  15
BRANCH   1  24
HETATM   24  C2  UNL     1       5.391   0.337  -1.315  1.00  0.00     0.051 C 
HETATM   25  C1  UNL     1       6.546  -0.262  -1.175  1.00  0.00     0.337 C 
HETATM   26  F1  UNL     1       5.914   0.262  -2.554  1.00  0.00    -0.427 F 
ENDBRANCH   1  24
TORSDOF 4
