REMARK  1 active torsions:
REMARK  status: ('A' for Active; 'I' for Inactive)
REMARK    1  A    between atoms: O1_2  and  C2_3 
ROOT
HETATM    1  C2  UNL     1       0.690   1.095   1.994  1.00  0.00     0.078 C 
HETATM    2  C3  UNL     1      -0.230   1.495   1.153  1.00  0.00     0.051 C 
HETATM    3  C4  UNL     1      -0.920   0.146   1.200  1.00  0.00     0.019 C 
HETATM    4  C5  UNL     1      -1.882   0.202   0.283  1.00  0.00     0.141 C 
HETATM    5  N1  UNL     1      -3.204  -0.288   0.420  1.00  0.00    -0.224 NA
HETATM    6  C6  UNL     1      -3.706  -1.399   0.932  1.00  0.00     0.234 C 
HETATM    7  N2  UNL     1      -3.238  -2.441   1.815  1.00  0.00    -0.254 NA
HETATM    8  C7  UNL     1      -2.318  -2.467   2.715  1.00  0.00     0.118 C 
HETATM    9  C8  UNL     1      -0.988  -1.889   2.827  1.00  0.00     0.027 C 
HETATM   10  C9  UNL     1      -0.385  -0.990   2.083  1.00  0.00    -0.040 C 
HETATM   11  C10 UNL     1       1.188  -1.124   2.084  1.00  0.00     0.081 C 
HETATM   12  C11 UNL     1       1.428   0.009   1.206  1.00  0.00     0.213 C 
HETATM   13  O2  UNL     1       2.186   0.652   0.424  1.00  0.00    -0.266 OA
HETATM   14  N3  UNL     1       1.240   1.179  -0.510  1.00  0.00    -0.249 N 
HETATM   15  C12 UNL     1       0.035   0.751  -1.211  1.00  0.00     0.139 C 
HETATM   16  C13 UNL     1       0.309   0.147  -2.398  1.00  0.00     0.038 A 
HETATM   17  C14 UNL     1      -0.719  -0.373  -3.291  1.00  0.00     0.017 A 
HETATM   18  C15 UNL     1      -0.503  -0.967  -4.436  1.00  0.00     0.001 A 
HETATM   19  C16 UNL     1       0.846  -1.146  -4.901  1.00  0.00     0.002 A 
HETATM   20  C17 UNL     1       1.860  -0.715  -4.177  1.00  0.00     0.032 A 
HETATM   21  C18 UNL     1       1.704  -0.033  -2.867  1.00  0.00     0.062 A 
HETATM   22  N4  UNL     1       2.680   0.390  -2.159  1.00  0.00    -0.299 NA
HETATM   23  N5  UNL     1      -1.363   0.827  -0.921  1.00  0.00    -0.324 N 
HETATM   24  H11 UNL     1       1.871   2.048  -0.410  1.00  0.00     0.196 HD
HETATM   25  H16 UNL     1       3.637   0.232  -2.546  1.00  0.00     0.187 HD
HETATM   26  H17 UNL     1      -1.889   1.365  -1.670  1.00  0.00     0.169 HD
ENDROOT
BRANCH   1  27
HETATM   27  O1  UNL     1       0.199   2.018   2.898  1.00  0.00    -0.357 OA
HETATM   28  C1  UNL     1       0.994   3.051   3.444  1.00  0.00     0.209 C 
ENDBRANCH   1  27
TORSDOF 1
