REMARK  2 active torsions:
REMARK  status: ('A' for Active; 'I' for Inactive)
REMARK    1  A    between atoms: N1_2  and  N2_3 
REMARK    2  A    between atoms: C6_8  and  O1_9 
ROOT
HETATM    1  N2  UNL     1       2.418  -0.780  -1.357  1.00  0.00    -0.181 NA
HETATM    2  C2  UNL     1       1.832   0.045  -0.565  1.00  0.00     0.091 C 
HETATM    3  C3  UNL     1       1.512  -0.252   0.824  1.00  0.00     0.063 C 
HETATM    4  C4  UNL     1       0.446   0.141   1.545  1.00  0.00     0.054 C 
HETATM    5  C5  UNL     1       0.348   1.618   1.405  1.00  0.00     0.066 C 
HETATM    6  C6  UNL     1       1.324   2.052   0.626  1.00  0.00     0.083 C 
HETATM    7  C8  UNL     1       1.324   1.429  -0.751  1.00  0.00     0.231 C 
HETATM    8  O2  UNL     1      -0.030   1.305  -1.109  1.00  0.00    -0.369 OA
HETATM    9  C9  UNL     1      -0.384   2.013  -2.228  1.00  0.00     0.198 C 
HETATM   10  C10 UNL     1      -1.809   1.818  -2.556  1.00  0.00     0.018 C 
HETATM   11  C11 UNL     1      -2.764   1.101  -1.976  1.00  0.00     0.115 C 
HETATM   12  N3  UNL     1      -2.245   0.434  -0.849  1.00  0.00    -0.259 NA
HETATM   13  C12 UNL     1      -2.731  -0.592  -0.276  1.00  0.00     0.086 A 
HETATM   14  C13 UNL     1      -3.881  -1.054  -0.860  1.00  0.00     0.034 A 
HETATM   15  C14 UNL     1      -4.556  -2.164  -0.376  1.00  0.00     0.002 A 
HETATM   16  C15 UNL     1      -4.042  -2.817   0.734  1.00  0.00     0.003 A 
HETATM   17  C16 UNL     1      -2.897  -2.350   1.309  1.00  0.00     0.036 A 
HETATM   18  C17 UNL     1      -2.212  -1.252   0.845  1.00  0.00     0.105 A 
HETATM   19  N4  UNL     1      -1.171  -0.646   1.188  1.00  0.00    -0.172 NA
HETATM   20  N5  UNL     1      -0.303  -0.899   2.224  1.00  0.00    -0.278 N 
HETATM   21  H19 UNL     1       0.060  -1.356   3.095  1.00  0.00     0.189 HD
ENDROOT
BRANCH   1  22
HETATM   22  N1  UNL     1       2.800  -2.045  -0.938  1.00  0.00    -0.318 N 
HETATM   23  C1  UNL     1       4.071  -2.204  -0.240  1.00  0.00     0.169 C 
HETATM   24  H4  UNL     1       2.250  -2.944  -1.075  1.00  0.00     0.181 HD
ENDBRANCH   1  22
BRANCH   6  25
HETATM   25  O1  UNL     1       1.952   2.948   1.481  1.00  0.00    -0.357 OA
HETATM   26  C7  UNL     1       3.245   2.819   1.994  1.00  0.00     0.209 C 
ENDBRANCH   6  25
TORSDOF 2
