REMARK  6 active torsions:
REMARK  status: ('A' for Active; 'I' for Inactive)
REMARK    1  A    between atoms: O1_2  and  C2_3 
REMARK    2  A    between atoms: C6_9  and  N3_10 
REMARK    3  A    between atoms: N3_10  and  C7_11 
REMARK    4  A    between atoms: C7_11  and  N4_14 
REMARK    5  A    between atoms: N4_14  and  P1_15 
REMARK    6  A    between atoms: C13_20  and  O2_21 
ROOT
HETATM    1  C2  UNL     1      -2.783   0.396  -0.126  1.00  0.00     0.103 A 
HETATM    2  C3  UNL     1      -2.546  -0.478  -1.155  1.00  0.00     0.072 A 
HETATM    3  C4  UNL     1      -1.299  -1.105  -1.221  1.00  0.00     0.075 A 
HETATM    4  N1  UNL     1      -1.135  -1.952  -2.254  1.00  0.00    -0.241 NA
HETATM    5  C5  UNL     1       0.042  -2.615  -2.405  1.00  0.00     0.236 A 
HETATM    6  N2  UNL     1       1.045  -2.414  -1.504  1.00  0.00    -0.223 NA
HETATM    7  C6  UNL     1       0.875  -1.567  -0.476  1.00  0.00     0.143 A 
HETATM    8  C11 UNL     1      -0.302  -0.864  -0.270  1.00  0.00     0.042 A 
HETATM    9  C12 UNL     1      -0.539   0.013   0.764  1.00  0.00     0.057 A 
HETATM   10  C13 UNL     1      -1.776   0.624   0.812  1.00  0.00     0.102 A 
ENDROOT
BRANCH   7  11
HETATM   11  N3  UNL     1       1.937  -1.372   0.479  1.00  0.00    -0.326 N 
HETATM   12  H6  UNL     1       2.096  -1.556   1.508  1.00  0.00     0.169 HD
BRANCH  11  13
HETATM   13  C7  UNL     1       2.980  -0.760  -0.304  1.00  0.00     0.141 C 
HETATM   14  C8  UNL     1       2.813   0.451  -0.863  1.00  0.00     0.493 C 
HETATM   15  F1  UNL     1       1.965   1.499  -1.038  1.00  0.00    -0.449 F 
BRANCH  13  16
HETATM   16  N4  UNL     1       4.261  -0.665  -0.924  1.00  0.00    -0.240 NA
BRANCH  16  17
HETATM   17  P1  UNL     1       5.492  -0.212   0.001  1.00  0.00     0.048 P 
HETATM   18  C9  UNL     1       6.261   1.165   0.313  1.00  0.00     0.063 A 
HETATM   19  C10 UNL     1       6.197   0.291   1.556  1.00  0.00     0.024 A 
ENDBRANCH  16  17
ENDBRANCH  13  16
ENDBRANCH  11  13
ENDBRANCH   7  11
BRANCH  10  20
HETATM   20  O2  UNL     1      -2.099   1.510   1.803  1.00  0.00    -0.353 OA
HETATM   21  C14 UNL     1      -1.286   1.916   2.862  1.00  0.00     0.210 C 
ENDBRANCH  10  20
BRANCH   1  22
HETATM   22  O1  UNL     1      -4.021   1.022  -0.053  1.00  0.00    -0.353 OA
HETATM   23  C1  UNL     1      -5.005   0.754  -1.020  1.00  0.00     0.210 C 
ENDBRANCH   1  22
TORSDOF 6
