REMARK  3 active torsions:
REMARK  status: ('A' for Active; 'I' for Inactive)
REMARK    1  A    between atoms: O1_2  and  C2_3 
REMARK    2  A    between atoms: C5_6  and  N1_7 
REMARK    3  A    between atoms: C17_23  and  O2_24 
ROOT
HETATM    1  C2  UNL     1       2.743   1.050  -0.132  1.00  0.00     0.102 A 
HETATM    2  C3  UNL     1       1.619   0.247  -0.228  1.00  0.00     0.057 A 
HETATM    3  C4  UNL     1       1.791  -1.103  -0.189  1.00  0.00     0.042 A 
HETATM    4  C5  UNL     1       0.631  -1.845  -0.290  1.00  0.00     0.142 A 
HETATM    5  N4  UNL     1       0.733  -3.198  -0.258  1.00  0.00    -0.224 NA
HETATM    6  C14 UNL     1       1.930  -3.816  -0.131  1.00  0.00     0.236 A 
HETATM    7  N5  UNL     1       3.065  -3.099  -0.032  1.00  0.00    -0.241 NA
HETATM    8  C15 UNL     1       2.990  -1.771  -0.061  1.00  0.00     0.075 A 
HETATM    9  C16 UNL     1       4.106  -0.940   0.034  1.00  0.00     0.072 A 
HETATM   10  C17 UNL     1       3.996   0.455   0.000  1.00  0.00     0.101 A 
ENDROOT
BRANCH   4  11
HETATM   11  N1  UNL     1      -0.721  -1.357  -0.431  1.00  0.00    -0.325 N 
HETATM   12  C6  UNL     1      -1.373  -0.532  -1.454  1.00  0.00     0.259 C 
HETATM   13  N2  UNL     1      -2.066   0.597  -0.860  1.00  0.00    -0.325 N 
HETATM   14  C7  UNL     1      -2.312   1.801  -1.560  1.00  0.00     0.094 A 
HETATM   15  C11 UNL     1      -2.496   0.435   0.486  1.00  0.00     0.128 A 
HETATM   16  C8  UNL     1      -2.956   2.803  -0.952  1.00  0.00     0.017 A 
HETATM   17  C9  UNL     1      -3.416   2.676   0.437  1.00  0.00     0.005 A 
HETATM   18  C10 UNL     1      -3.193   1.551   1.110  1.00  0.00     0.050 A 
HETATM   19  N3  UNL     1      -2.330  -0.613   1.221  1.00  0.00    -0.247 NA
HETATM   20  C12 UNL     1      -1.642  -1.742   0.634  1.00  0.00     0.209 C 
HETATM   21  C13 UNL     1      -2.701  -2.622  -0.045  1.00  0.00     0.058 C 
ENDBRANCH   4  11
BRANCH   1  22
HETATM   22  O1  UNL     1       2.724   2.438  -0.157  1.00  0.00    -0.353 OA
HETATM   23  C1  UNL     1       1.584   3.231  -0.281  1.00  0.00     0.210 C 
ENDBRANCH   1  22
BRANCH  10  24
HETATM   24  O2  UNL     1       5.137   1.232   0.099  1.00  0.00    -0.358 OA
HETATM   25  H17 UNL     1       6.002   0.829  -0.221  1.00  0.00     0.217 HD
ENDBRANCH  10  24
TORSDOF 3
