REMARK  4 active torsions:
REMARK  status: ('A' for Active; 'I' for Inactive)
REMARK    1  A    between atoms: O1_2  and  C2_3 
REMARK    2  A    between atoms: C6_9  and  N3_10 
REMARK    3  A    between atoms: N3_10  and  C7_11 
REMARK    4  A    between atoms: C16_22  and  O2_23 
ROOT
HETATM    1  C2  UNL     1      -3.766   0.067   0.057  1.00  0.00     0.103 A 
HETATM    2  C3  UNL     1      -3.835  -1.261   0.304  1.00  0.00     0.072 A 
HETATM    3  C4  UNL     1      -2.622  -2.004   0.291  1.00  0.00     0.075 A 
HETATM    4  N1  UNL     1      -2.531  -3.243   0.531  1.00  0.00    -0.241 NA
HETATM    5  C5  UNL     1      -1.429  -4.013   0.577  1.00  0.00     0.236 A 
HETATM    6  N2  UNL     1      -0.296  -3.304   0.316  1.00  0.00    -0.223 NA
HETATM    7  C6  UNL     1      -0.254  -2.001   0.046  1.00  0.00     0.143 A 
HETATM    8  C14 UNL     1      -1.446  -1.318   0.021  1.00  0.00     0.042 A 
HETATM    9  C15 UNL     1      -1.372   0.041  -0.238  1.00  0.00     0.057 A 
HETATM   10  C16 UNL     1      -2.542   0.735  -0.219  1.00  0.00     0.102 A 
ENDROOT
BRANCH   7  11
HETATM   11  N3  UNL     1       0.969  -1.421  -0.019  1.00  0.00    -0.324 N 
HETATM   12  H6  UNL     1       0.869  -0.935   0.938  1.00  0.00     0.169 HD
BRANCH  11  13
HETATM   13  C7  UNL     1       2.257  -0.830  -0.115  1.00  0.00     0.147 A 
HETATM   14  C8  UNL     1       3.240  -1.706   0.374  1.00  0.00     0.167 A 
HETATM   15  N4  UNL     1       4.545  -1.203   0.472  1.00  0.00    -0.255 NA
HETATM   16  C9  UNL     1       4.636   0.080   0.070  1.00  0.00     0.081 A 
HETATM   17  C10 UNL     1       3.712   0.989  -0.425  1.00  0.00     0.069 A 
HETATM   18  C13 UNL     1       5.938   0.766   0.227  1.00  0.00     0.030 A 
HETATM   19  N5  UNL     1       2.502   0.441  -0.492  1.00  0.00    -0.232 NA
HETATM   20  C11 UNL     1       4.386   2.288  -0.640  1.00  0.00     0.089 A 
HETATM   21  C12 UNL     1       5.780   2.019  -0.174  1.00  0.00    -0.018 A 
ENDBRANCH  11  13
ENDBRANCH   7  11
BRANCH  10  22
HETATM   22  O2  UNL     1      -2.534   2.125  -0.479  1.00  0.00    -0.353 OA
HETATM   23  C17 UNL     1      -1.262   2.679  -0.822  1.00  0.00     0.210 C 
ENDBRANCH  10  22
BRANCH   1  24
HETATM   24  O1  UNL     1      -4.820   0.907   0.059  1.00  0.00    -0.353 OA
HETATM   25  C1  UNL     1      -6.125   0.451   0.396  1.00  0.00     0.210 C 
ENDBRANCH   1  24
TORSDOF 4
