REMARK  1 active torsions:
REMARK  status: ('A' for Active; 'I' for Inactive)
REMARK    1  A    between atoms: O1_2  and  C2_3 
ROOT
HETATM    1  C2  UNL     1      -2.817   0.442  -0.291  1.00  0.00     0.048 C 
HETATM    2  C3  UNL     1      -1.886   0.734  -1.207  1.00  0.00     0.010 C 
HETATM    3  C4  UNL     1      -0.606   0.185  -1.688  1.00  0.00     0.091 C 
HETATM    4  C5  UNL     1       0.580   0.416  -0.804  1.00  0.00     0.165 C 
HETATM    5  C6  UNL     1       1.608   1.280  -1.433  1.00  0.00     0.042 C 
HETATM    6  P1  UNL     1       3.114   1.566  -0.811  1.00  0.00    -0.057 P 
HETATM    7  C7  UNL     1       4.067   1.043   0.690  1.00  0.00     0.070 C 
HETATM    8  C8  UNL     1       4.039  -0.442   0.706  1.00  0.00    -0.024 C 
HETATM    9  C9  UNL     1       3.442  -1.484   0.095  1.00  0.00    -0.009 C 
HETATM   10  C10 UNL     1       2.444  -1.544  -0.980  1.00  0.00     0.175 C 
HETATM   11  N1  UNL     1       1.178  -0.925  -0.602  1.00  0.00    -0.266 N 
HETATM   12  N2  UNL     1       0.897  -2.192  -0.013  1.00  0.00    -0.167 NA
HETATM   13  C11 UNL     1      -0.158  -2.602   0.675  1.00  0.00     0.255 C 
HETATM   14  N3  UNL     1      -1.061  -1.790   1.523  1.00  0.00    -0.243 NA
HETATM   15  C12 UNL     1      -1.338  -0.494   1.408  1.00  0.00     0.059 C 
HETATM   16  C13 UNL     1      -0.356   0.611   1.575  1.00  0.00     0.141 C 
HETATM   17  N4  UNL     1       0.261   1.012   0.481  1.00  0.00    -0.262 NA
HETATM   18  C14 UNL     1      -2.786  -0.346   1.007  1.00  0.00     0.124 C 
ENDROOT
BRANCH   1  19
HETATM   19  O1  UNL     1      -4.111   0.886  -0.432  1.00  0.00    -0.360 OA
HETATM   20  C1  UNL     1      -4.751   1.859   0.335  1.00  0.00     0.209 C 
ENDBRANCH   1  19
TORSDOF 1
