REMARK  6 active torsions:
REMARK  status: ('A' for Active; 'I' for Inactive)
REMARK    1  A    between atoms: O1_2  and  S1_3 
REMARK    2  A    between atoms: S1_3  and  C2_4 
REMARK    3  A    between atoms: C6_8  and  S2_9 
REMARK    4  A    between atoms: C6_8  and  N1_10 
REMARK    5  A    between atoms: N1_10  and  C7_11 
REMARK    6  A    between atoms: C16_22  and  O2_23 
ROOT
HETATM    1  C2  UNL     1      -3.575  -0.366   0.410  1.00  0.00     0.058 A 
HETATM    2  C3  UNL     1      -2.816   0.713   0.354  1.00  0.00     0.002 A 
HETATM    3  C4  UNL     1      -1.442   0.750  -0.164  1.00  0.00     0.070 A 
HETATM    4  C5  UNL     1      -0.998  -0.568  -0.621  1.00  0.00    -0.019 A 
HETATM    5  C6  UNL     1       0.215  -0.740  -1.123  1.00  0.00     0.075 C 
HETATM    6  C15 UNL     1      -1.846  -1.753  -0.554  1.00  0.00     0.048 A 
HETATM    7  C16 UNL     1      -3.081  -1.669  -0.062  1.00  0.00     0.087 A 
ENDROOT
BRANCH   5   8
HETATM    8  S2  UNL     1       0.817  -2.342  -1.702  1.00  0.00    -0.125 SA
HETATM    9  H7  UNL     1       0.890  -2.315  -3.114  1.00  0.00     0.108 HD
ENDBRANCH   5   8
BRANCH   5  10
HETATM   10  N1  UNL     1       1.208   0.245  -1.289  1.00  0.00    -0.334 N 
HETATM   11  H8  UNL     1       1.011   1.047  -1.926  1.00  0.00     0.168 HD
BRANCH  10  12
HETATM   12  C7  UNL     1       2.449   0.170  -0.619  1.00  0.00     0.146 A 
HETATM   13  C8  UNL     1       2.736  -0.880   0.230  1.00  0.00     0.167 A 
HETATM   14  N2  UNL     1       3.931  -0.896   0.837  1.00  0.00    -0.255 NA
HETATM   15  C9  UNL     1       4.842   0.075   0.639  1.00  0.00     0.085 A 
HETATM   16  C10 UNL     1       6.068   0.037   1.277  1.00  0.00     0.034 A 
HETATM   17  C14 UNL     1       4.583   1.140  -0.206  1.00  0.00     0.087 A 
HETATM   18  C11 UNL     1       6.987   1.041   1.061  1.00  0.00     0.002 A 
HETATM   19  C12 UNL     1       6.703   2.089   0.215  1.00  0.00     0.002 A 
HETATM   20  C13 UNL     1       5.481   2.157  -0.441  1.00  0.00     0.034 A 
HETATM   21  N3  UNL     1       3.383   1.122  -0.793  1.00  0.00    -0.228 NA
ENDBRANCH  10  12
ENDBRANCH   5  10
BRANCH   7  22
HETATM   22  O2  UNL     1      -3.820  -2.843  -0.035  1.00  0.00    -0.355 OA
HETATM   23  C17 UNL     1      -5.117  -2.983   0.456  1.00  0.00     0.210 C 
ENDBRANCH   7  22
BRANCH   1  24
HETATM   24  S1  UNL     1      -5.235  -0.283   1.064  1.00  0.00     0.030 SA
BRANCH  24  25
HETATM   25  O1  UNL     1      -5.571   1.331   1.544  1.00  0.00    -0.320 OA
HETATM   26  C1  UNL     1      -5.784   2.085   0.405  1.00  0.00     0.220 C 
ENDBRANCH  24  25
ENDBRANCH   1  24
TORSDOF 6
