REMARK  5 active torsions:
REMARK  status: ('A' for Active; 'I' for Inactive)
REMARK    1  A    between atoms: C6_8  and  N3_9 
REMARK    2  A    between atoms: N3_9  and  C7_10 
REMARK    3  A    between atoms: C10_15  and  C11_16 
REMARK    4  A    between atoms: P1_20  and  O2_21 
REMARK    5  A    between atoms: P1_20  and  C15_23 
ROOT
HETATM    1  C7  UNL     1       0.567  -0.736  -0.291  1.00  0.00     0.123 A 
HETATM    2  N4  UNL     1       1.239  -1.737   0.259  1.00  0.00    -0.227 NA
HETATM    3  C8  UNL     1       0.522  -2.704   0.831  1.00  0.00     0.235 A 
HETATM    4  N5  UNL     1      -0.834  -2.827   0.941  1.00  0.00    -0.244 NA
HETATM    5  C9  UNL     1      -1.654  -2.001   0.495  1.00  0.00     0.068 A 
HETATM    6  C10 UNL     1      -0.908  -0.861  -0.176  1.00  0.00     0.107 A 
HETATM    7  C15 UNL     1      -2.384  -1.234   0.080  1.00  0.00     0.018 A 
ENDROOT
BRANCH   1   8
HETATM    8  N3  UNL     1       1.093   0.394  -0.951  1.00  0.00    -0.349 N 
HETATM    9  H8  UNL     1       0.834   1.245  -1.429  1.00  0.00     0.163 HD
BRANCH   8  10
HETATM   10  C6  UNL     1       2.504   0.339  -0.962  1.00  0.00     0.258 A 
HETATM   11  C2  UNL     1       3.103   0.303   0.418  1.00  0.00     0.072 A 
HETATM   12  N1  UNL     1       2.713   1.231   1.224  1.00  0.00    -0.295 NA
HETATM   13  C3  UNL     1       4.066  -0.706   0.845  1.00  0.00     0.032 A 
HETATM   14  C1  UNL     1       3.161   1.375   2.578  1.00  0.00     0.178 C 
HETATM   15  C4  UNL     1       4.468  -1.684   0.040  1.00  0.00     0.021 A 
HETATM   16  C5  UNL     1       3.859  -1.647  -1.297  1.00  0.00     0.113 A 
HETATM   17  N2  UNL     1       3.011  -0.782  -1.738  1.00  0.00    -0.270 NA
ENDBRANCH   8  10
ENDBRANCH   1   8
BRANCH   6  18
HETATM   18  C11 UNL     1      -1.831   0.280  -0.798  1.00  0.00     0.085 A 
HETATM   19  C12 UNL     1      -3.535   0.040  -0.613  1.00  0.00     0.048 A 
HETATM   20  O1  UNL     1      -3.075   1.304  -1.339  1.00  0.00     0.000 OA
HETATM   21  P1  UNL     1      -3.205  -0.339  -0.408  1.00  0.00     0.026 P 
HETATM   22  C13 UNL     1      -2.983   2.559  -0.684  1.00  0.00     0.000 C 
BRANCH  21  23
HETATM   23  O2  UNL     1      -4.898   1.404  -1.365  1.00  0.00    -0.369 OA
HETATM   24  C14 UNL     1      -5.768   0.435  -0.809  1.00  0.00     0.207 C 
ENDBRANCH  21  23
ENDBRANCH   6  18
TORSDOF 5
