REMARK  4 active torsions:
REMARK  status: ('A' for Active; 'I' for Inactive)
REMARK    1  A    between atoms: C2_2  and  O1_3 
REMARK    2  A    between atoms: C2_2  and  C4_5 
REMARK    3  A    between atoms: C18_22  and  C19_23 
REMARK    4  A    between atoms: C19_23  and  N4_24 
ROOT
HETATM    1  C4  UNL     1      -1.966   1.346   0.005  1.00  0.00     0.102 C 
HETATM    2  C5  UNL     1      -3.179   0.948  -0.339  1.00  0.00     0.056 C 
HETATM    3  C6  UNL     1      -3.716  -0.333  -0.655  1.00  0.00     0.030 A 
HETATM    4  C7  UNL     1      -5.086  -0.178  -0.952  1.00  0.00     0.133 A 
HETATM    5  N1  UNL     1      -6.021  -1.121  -1.299  1.00  0.00    -0.253 NA
HETATM    6  C8  UNL     1      -5.516  -2.371  -1.354  1.00  0.00     0.234 A 
HETATM    7  N2  UNL     1      -4.232  -2.630  -1.092  1.00  0.00    -0.224 NA
HETATM    8  C9  UNL     1      -3.388  -1.661  -0.762  1.00  0.00     0.137 A 
HETATM    9  N3  UNL     1      -2.087  -2.334  -0.576  1.00  0.00    -0.369 N 
HETATM   10  C10 UNL     1      -1.147  -1.534   0.044  1.00  0.00     0.094 C 
HETATM   11  C11 UNL     1      -1.709  -1.290   1.355  1.00  0.00     0.033 C 
HETATM   12  C12 UNL     1       0.285  -1.386   0.134  1.00  0.00     0.029 A 
HETATM   13  C13 UNL     1       0.835  -2.069   1.317  1.00  0.00    -0.012 A 
HETATM   14  C14 UNL     1       1.801  -2.931   1.527  1.00  0.00    -0.003 A 
HETATM   15  C15 UNL     1       2.535  -3.341   0.319  1.00  0.00    -0.004 A 
HETATM   16  C16 UNL     1       2.068  -2.755  -0.772  1.00  0.00    -0.025 A 
HETATM   17  C17 UNL     1       0.994  -1.788  -1.109  1.00  0.00     0.045 A 
HETATM   18  C18 UNL     1       0.357   0.177   0.377  1.00  0.00     0.171 C 
HETATM   19  O3  UNL     1      -0.823   0.770   0.188  1.00  0.00    -0.340 OA
HETATM   20  H9  UNL     1      -1.800  -3.263  -0.832  1.00  0.00     0.161 HD
ENDROOT
BRANCH  18  21
HETATM   21  C19 UNL     1       1.448   0.796  -0.440  1.00  0.00     0.306 C 
BRANCH  21  22
HETATM   22  N4  UNL     1       2.767   0.164  -0.240  1.00  0.00     0.095 N 
HETATM   23  C20 UNL     1       3.668   0.844  -1.181  1.00  0.00     0.298 C 
HETATM   24  C21 UNL     1       5.078   0.415  -0.910  1.00  0.00     0.198 C 
HETATM   25  O2  UNL     1       5.225  -0.344   0.252  1.00  0.00    -0.388 OA
HETATM   26  C22 UNL     1       4.676   0.339   1.315  1.00  0.00     0.198 C 
HETATM   27  C23 UNL     1       3.200   0.549   1.077  1.00  0.00     0.298 C 
ENDBRANCH  21  22
ENDBRANCH  18  21
BRANCH   1  28
HETATM   28  C2  UNL     1      -1.851   2.809   0.251  1.00  0.00     0.092 C 
HETATM   29  C1  UNL     1      -0.717   3.353   0.603  1.00  0.00     0.053 C 
BRANCH  28  30
HETATM   30  O1  UNL     1      -2.158   4.145   0.377  1.00  0.00    -0.354 OA
HETATM   31  C3  UNL     1      -3.430   4.634  -0.016  1.00  0.00     0.210 C 
ENDBRANCH  28  30
ENDBRANCH   1  28
TORSDOF 4
