REMARK  5 active torsions:
REMARK  status: ('A' for Active; 'I' for Inactive)
REMARK    1  A    between atoms: N1_7  and  C6_8 
REMARK    2  A    between atoms: C6_8  and  C7_9 
REMARK    3  A    between atoms: C7_9  and  C8_10 
REMARK    4  A    between atoms: C14_19  and  C16_21 
REMARK    5  A    between atoms: C22_27  and  C23_28 
ROOT
HETATM    1  C8  UNL     1      -0.021  -1.152   0.772  1.00  0.00    -0.070 C 
HETATM    2  C9  UNL     1      -0.552  -1.340   2.003  1.00  0.00     0.020 C 
HETATM    3  C10 UNL     1       0.242  -1.029   3.221  1.00  0.00     0.027 A 
HETATM    4  C11 UNL     1      -0.222  -1.740   4.313  1.00  0.00     0.133 A 
HETATM    5  N2  UNL     1       0.392  -1.505   5.520  1.00  0.00    -0.253 NA
HETATM    6  C12 UNL     1       1.396  -0.598   5.532  1.00  0.00     0.234 A 
HETATM    7  N3  UNL     1       1.888   0.119   4.508  1.00  0.00    -0.224 NA
HETATM    8  C13 UNL     1       1.299  -0.090   3.282  1.00  0.00     0.137 A 
HETATM    9  N4  UNL     1       1.825   0.656   2.151  1.00  0.00    -0.360 N 
HETATM   10  C14 UNL     1       2.131   0.224   0.813  1.00  0.00     0.063 C 
HETATM   11  C15 UNL     1       3.516  -0.496   0.931  1.00  0.00     0.044 C 
HETATM   12  C22 UNL     1       1.246  -0.726   0.143  1.00  0.00     0.055 C 
HETATM   13  H18 UNL     1       1.947   1.638   2.567  1.00  0.00     0.162 HD
ENDROOT
BRANCH   1  14
HETATM   14  C7  UNL     1      -1.133  -1.568  -0.170  1.00  0.00     0.065 C 
BRANCH  14  15
HETATM   15  C6  UNL     1      -1.640  -0.304  -0.835  1.00  0.00     0.277 C 
BRANCH  15  16
HETATM   16  N1  UNL     1      -2.723  -0.597  -1.759  1.00  0.00     0.097 N 
HETATM   17  C2  UNL     1      -3.040   0.568  -2.540  1.00  0.00     0.242 C 
HETATM   18  C1  UNL     1      -1.964   1.590  -2.660  1.00  0.00     0.045 C 
HETATM   19  C3  UNL     1      -4.288   1.266  -1.985  1.00  0.00     0.203 C 
HETATM   20  O1  UNL     1      -5.353   0.432  -2.262  1.00  0.00    -0.387 OA
HETATM   21  C4  UNL     1      -5.158  -0.862  -1.819  1.00  0.00     0.198 C 
HETATM   22  C5  UNL     1      -3.892  -1.043  -1.018  1.00  0.00     0.299 C 
ENDBRANCH  15  16
ENDBRANCH  14  15
ENDBRANCH   1  14
BRANCH  12  23
HETATM   23  C23 UNL     1       1.935  -2.074  -0.072  1.00  0.00     0.027 A 
HETATM   24  C24 UNL     1       2.385  -3.361  -0.160  1.00  0.00    -0.024 A 
HETATM   25  O2  UNL     1       1.177  -3.172   0.501  1.00  0.00     0.000 OA
HETATM   26  H30 UNL     1       0.768  -3.975   1.024  1.00  0.00     0.000 HD
ENDBRANCH  12  23
BRANCH  10  27
HETATM   27  C16 UNL     1       2.477   1.436   0.020  1.00  0.00    -0.030 A 
HETATM   28  C17 UNL     1       2.851   2.684   0.465  1.00  0.00     0.010 A 
HETATM   29  C18 UNL     1       3.169   3.769  -0.314  1.00  0.00     0.001 A 
HETATM   30  C19 UNL     1       3.127   3.654  -1.667  1.00  0.00     0.000 A 
HETATM   31  C20 UNL     1       2.765   2.446  -2.192  1.00  0.00     0.001 A 
HETATM   32  C21 UNL     1       2.447   1.361  -1.364  1.00  0.00     0.010 A 
ENDBRANCH  10  27
TORSDOF 5
