REMARK  5 active torsions:
REMARK  status: ('A' for Active; 'I' for Inactive)
REMARK    1  A    between atoms: O1_2  and  C2_3 
REMARK    2  A    between atoms: C9_12  and  O2_13 
REMARK    3  A    between atoms: O2_13  and  C10_14 
REMARK    4  A    between atoms: C10_14  and  C11_15 
REMARK    5  A    between atoms: C11_15  and  N3_16 
ROOT
HETATM    1  C2  UNL     1      -0.862  -3.091  -0.819  1.00  0.00     0.103 A 
HETATM    2  C3  UNL     1       0.468  -3.444  -0.785  1.00  0.00     0.072 A 
HETATM    3  C4  UNL     1       1.440  -2.592  -0.302  1.00  0.00     0.075 A 
HETATM    4  N1  UNL     1       2.759  -2.809  -0.201  1.00  0.00    -0.233 NA
HETATM    5  C5  UNL     1       3.595  -1.893   0.302  1.00  0.00     0.129 A 
HETATM    6  N2  UNL     1       3.152  -0.723   0.726  1.00  0.00    -0.215 NA
HETATM    7  C6  UNL     1       1.873  -0.390   0.676  1.00  0.00     0.138 A 
HETATM    8  C7  UNL     1       1.009  -1.358   0.149  1.00  0.00     0.041 A 
HETATM    9  C8  UNL     1      -0.319  -0.930   0.146  1.00  0.00     0.057 A 
HETATM   10  C9  UNL     1      -1.247  -1.834  -0.353  1.00  0.00     0.103 A 
HETATM   11  N4  UNL     1       1.347   0.911   1.066  1.00  0.00    -0.369 N 
HETATM   12  C16 UNL     1       1.670   1.834   0.028  1.00  0.00     0.088 A 
HETATM   13  C17 UNL     1       1.889   3.272   0.167  1.00  0.00     0.032 A 
HETATM   14  C18 UNL     1       3.056   2.412   0.318  1.00  0.00     0.014 A 
HETATM   15  C19 UNL     1       3.946   1.888  -0.739  1.00  0.00     0.033 C 
HETATM   16  C20 UNL     1       5.335   2.381  -0.612  1.00  0.00    -0.030 C 
HETATM   17  C21 UNL     1       6.190   1.408  -0.278  1.00  0.00    -0.025 C 
HETATM   18  C22 UNL     1       5.514   0.081  -0.096  1.00  0.00     0.021 C 
HETATM   19  C23 UNL     1       5.961  -1.166   0.227  1.00  0.00     0.006 C 
HETATM   20  C24 UNL     1       5.026  -2.300   0.346  1.00  0.00     0.086 C 
HETATM   21  H18 UNL     1       0.979   0.519   1.933  1.00  0.00     0.161 HD
ENDROOT
BRANCH  10  22
HETATM   22  O2  UNL     1      -2.598  -1.575  -0.428  1.00  0.00    -0.347 OA
BRANCH  22  23
HETATM   23  C10 UNL     1      -3.192  -0.346  -0.008  1.00  0.00     0.195 C 
BRANCH  23  24
HETATM   24  C11 UNL     1      -4.672  -0.392  -0.220  1.00  0.00     0.143 C 
BRANCH  24  25
HETATM   25  N3  UNL     1      -5.389   0.779   0.155  1.00  0.00    -0.406 N 
HETATM   26  C12 UNL     1      -5.137   1.923  -0.664  1.00  0.00     0.143 C 
HETATM   27  C13 UNL     1      -5.286   3.239   0.056  1.00  0.00     0.187 C 
HETATM   28  O3  UNL     1      -4.527   3.279   1.209  1.00  0.00    -0.388 OA
HETATM   29  C14 UNL     1      -4.662   2.208   2.047  1.00  0.00     0.187 C 
HETATM   30  C15 UNL     1      -5.451   1.054   1.556  1.00  0.00     0.143 C 
ENDBRANCH  24  25
ENDBRANCH  23  24
ENDBRANCH  22  23
ENDBRANCH  10  22
BRANCH   1  31
HETATM   31  O1  UNL     1      -1.783  -3.997  -1.318  1.00  0.00    -0.353 OA
HETATM   32  C1  UNL     1      -1.294  -5.247  -1.768  1.00  0.00     0.210 C 
ENDBRANCH   1  31
TORSDOF 5
