REMARK  8 active torsions:
REMARK  status: ('A' for Active; 'I' for Inactive)
REMARK    1  A    between atoms: O1_2  and  C2_3 
REMARK    2  A    between atoms: C5_9  and  N3_10 
REMARK    3  A    between atoms: N3_10  and  C6_11 
REMARK    4  A    between atoms: C8_13  and  C9_14 
REMARK    5  A    between atoms: C17_22  and  O2_23 
REMARK    6  A    between atoms: O2_23  and  C18_24 
REMARK    7  A    between atoms: C18_24  and  C19_25 
REMARK    8  A    between atoms: C19_25  and  N4_26 
ROOT
HETATM    1  C2  UNL     1      -1.838   3.054  -0.880  1.00  0.00     0.091 A 
HETATM    2  C3  UNL     1      -1.231   4.034  -1.543  1.00  0.00    -0.018 A 
HETATM    3  B1  UNL     1       0.333   4.184  -1.400  1.00  0.00     0.307 B 
HETATM    4  N1  UNL     1       1.006   3.150  -0.483  1.00  0.00    -0.390 N 
HETATM    5  C4  UNL     1       2.413   3.209  -0.295  1.00  0.00     0.196 A 
HETATM    6  N2  UNL     1       2.927   2.319   0.485  1.00  0.00    -0.228 NA
HETATM    7  C5  UNL     1       2.177   1.308   1.149  1.00  0.00     0.127 A 
HETATM    8  C15 UNL     1       0.846   1.200   1.012  1.00  0.00     0.081 A 
HETATM    9  C16 UNL     1       0.177   2.176   0.139  1.00  0.00     0.061 A 
HETATM   10  C17 UNL     1      -1.113   2.131  -0.040  1.00  0.00     0.126 A 
HETATM   11  H5  UNL     1       0.895   5.190  -1.680  1.00  0.00     0.005 HD
ENDROOT
BRANCH   7  12
HETATM   12  N3  UNL     1       2.885   0.393   1.978  1.00  0.00    -0.369 N 
HETATM   13  H7  UNL     1       2.364   0.139   2.850  1.00  0.00     0.161 HD
BRANCH  12  14
HETATM   14  C6  UNL     1       4.179  -0.215   1.793  1.00  0.00     0.092 A 
HETATM   15  C7  UNL     1       5.428   0.537   1.682  1.00  0.00     0.037 A 
HETATM   16  C8  UNL     1       4.864  -0.060   0.434  1.00  0.00     0.043 A 
BRANCH  16  17
HETATM   17  C9  UNL     1       5.530  -1.254  -0.163  1.00  0.00    -0.052 A 
HETATM   18  C10 UNL     1       6.084  -2.312   0.548  1.00  0.00     0.007 A 
HETATM   19  C11 UNL     1       6.673  -3.363  -0.129  1.00  0.00     0.001 A 
HETATM   20  C12 UNL     1       6.744  -3.426  -1.498  1.00  0.00     0.000 A 
HETATM   21  C13 UNL     1       6.209  -2.402  -2.230  1.00  0.00     0.001 A 
HETATM   22  C14 UNL     1       5.621  -1.351  -1.556  1.00  0.00     0.007 A 
ENDBRANCH  16  17
ENDBRANCH  12  14
ENDBRANCH   7  12
BRANCH  10  23
HETATM   23  O2  UNL     1      -1.923   1.184   0.566  1.00  0.00    -0.344 OA
BRANCH  23  24
HETATM   24  C18 UNL     1      -2.702   0.229  -0.083  1.00  0.00     0.195 C 
BRANCH  24  25
HETATM   25  C19 UNL     1      -3.490  -0.536   0.988  1.00  0.00     0.143 C 
BRANCH  25  26
HETATM   26  N4  UNL     1      -4.286  -1.511   0.316  1.00  0.00    -0.406 N 
HETATM   27  C20 UNL     1      -5.339  -0.992  -0.478  1.00  0.00     0.143 C 
HETATM   28  C21 UNL     1      -6.670  -1.590  -0.172  1.00  0.00     0.187 C 
HETATM   29  O3  UNL     1      -6.547  -2.979  -0.255  1.00  0.00    -0.388 OA
HETATM   30  C22 UNL     1      -5.842  -3.352   0.894  1.00  0.00     0.187 C 
HETATM   31  C23 UNL     1      -4.490  -2.742   0.978  1.00  0.00     0.143 C 
ENDBRANCH  25  26
ENDBRANCH  24  25
ENDBRANCH  23  24
ENDBRANCH  10  23
BRANCH   1  32
HETATM   32  O1  UNL     1      -3.204   3.085  -1.130  1.00  0.00    -0.354 OA
HETATM   33  C1  UNL     1      -3.697   2.965  -2.451  1.00  0.00     0.210 C 
ENDBRANCH   1  32
TORSDOF 8
