REMARK  6 active torsions:
REMARK  status: ('A' for Active; 'I' for Inactive)
REMARK    1  A    between atoms: N1_7  and  C6_8 
REMARK    2  A    between atoms: C6_8  and  O2_9 
REMARK    3  A    between atoms: O2_9  and  C7_10 
REMARK    4  A    between atoms: C9_12  and  N2_13 
REMARK    5  A    between atoms: N2_13  and  C10_14 
REMARK    6  A    between atoms: C12_16  and  C13_17 
ROOT
HETATM    1  C7  UNL     1      -0.616   1.313  -1.175  1.00  0.00     0.064 A 
HETATM    2  C8  UNL     1      -0.098   1.121  -2.341  1.00  0.00     0.132 A 
HETATM    3  C9  UNL     1       1.252   0.830  -1.701  1.00  0.00     0.242 C 
HETATM    4  C19 UNL     1       1.212   0.830  -0.218  1.00  0.00     0.101 A 
HETATM    5  C20 UNL     1       0.659   2.172   0.232  1.00  0.00     0.032 A 
HETATM    6  C21 UNL     1       0.748   1.943  -1.032  1.00  0.00     0.068 A 
HETATM    7  N3  UNL     1       1.815   2.112  -1.923  1.00  0.00    -0.374 N 
HETATM    8  H27 UNL     1       2.368   2.880  -2.253  1.00  0.00     0.157 HD
ENDROOT
BRANCH   3   9
HETATM    9  N2  UNL     1       1.914  -0.260  -2.304  1.00  0.00     0.118 N 
HETATM   10  H14 UNL     1       1.353  -1.121  -2.131  1.00  0.00     0.319 HD
BRANCH   9  11
HETATM   11  C10 UNL     1       3.189  -0.453  -1.618  1.00  0.00     0.233 A 
HETATM   12  C11 UNL     1       4.102  -1.538  -2.032  1.00  0.00     0.048 A 
HETATM   13  C12 UNL     1       3.360  -1.679  -0.763  1.00  0.00     0.054 A 
BRANCH  13  14
HETATM   14  C13 UNL     1       4.060  -1.539   0.541  1.00  0.00    -0.052 A 
HETATM   15  C14 UNL     1       5.108  -0.661   0.717  1.00  0.00     0.007 A 
HETATM   16  C15 UNL     1       5.780  -0.503   1.908  1.00  0.00     0.001 A 
HETATM   17  C16 UNL     1       5.392  -1.266   3.014  1.00  0.00     0.000 A 
HETATM   18  C17 UNL     1       4.345  -2.159   2.881  1.00  0.00     0.001 A 
HETATM   19  C18 UNL     1       3.696  -2.287   1.665  1.00  0.00     0.007 A 
ENDBRANCH  13  14
ENDBRANCH   9  11
ENDBRANCH   3   9
BRANCH   1  20
HETATM   20  O2  UNL     1      -1.931   0.856  -0.895  1.00  0.00    -0.338 OA
BRANCH  20  21
HETATM   21  C6  UNL     1      -2.494   1.446   0.277  1.00  0.00     0.295 C 
BRANCH  21  22
HETATM   22  N1  UNL     1      -3.850   1.098   0.464  1.00  0.00    -0.384 N 
HETATM   23  C2  UNL     1      -4.082  -0.232   0.959  1.00  0.00     0.101 C 
HETATM   24  C1  UNL     1      -4.760  -0.108   2.317  1.00  0.00     0.034 C 
HETATM   25  C3  UNL     1      -4.800  -1.150   0.039  1.00  0.00     0.192 C 
HETATM   26  O1  UNL     1      -5.790  -0.607  -0.730  1.00  0.00    -0.388 OA
HETATM   27  C4  UNL     1      -6.034   0.732  -0.480  1.00  0.00     0.187 C 
HETATM   28  C5  UNL     1      -4.736   1.489  -0.589  1.00  0.00     0.145 C 
ENDBRANCH  21  22
ENDBRANCH  20  21
ENDBRANCH   1  20
TORSDOF 6
