REMARK  9 active torsions:
REMARK  status: ('A' for Active; 'I' for Inactive)
REMARK    1  A    between atoms: C2_2  and  C3_3 
REMARK    2  A    between atoms: C3_3  and  O1_21 
REMARK    3  A    between atoms: C4_4  and  C5_5 
REMARK    4  A    between atoms: C8_10  and  N3_11 
REMARK    5  A    between atoms: N3_11  and  C9_12 
REMARK    6  A    between atoms: C11_14  and  C12_15 
REMARK    7  A    between atoms: O1_21  and  C18_22 
REMARK    8  A    between atoms: C18_22  and  C19_23 
REMARK    9  A    between atoms: C19_23  and  N4_24 
ROOT
HETATM    1  C5  UNL     1      -1.152   2.268   1.050  1.00  0.00     0.030 A 
HETATM    2  C6  UNL     1      -1.239   3.641   1.049  1.00  0.00     0.133 A 
HETATM    3  N1  UNL     1      -2.410   4.292   0.970  1.00  0.00    -0.253 NA
HETATM    4  C7  UNL     1      -3.576   3.611   0.887  1.00  0.00     0.234 A 
HETATM    5  N2  UNL     1      -3.495   2.274   0.888  1.00  0.00    -0.224 NA
HETATM    6  C8  UNL     1      -2.350   1.575   0.965  1.00  0.00     0.137 A 
ENDROOT
BRANCH   1   7
HETATM    7  C4  UNL     1       0.154   1.663   1.114  1.00  0.00     0.056 C 
HETATM    8  C3  UNL     1       1.325   1.768   0.519  1.00  0.00     0.102 C 
BRANCH   8   9
HETATM    9  C2  UNL     1       1.756   2.639  -0.546  1.00  0.00     0.100 A 
HETATM   10  C1  UNL     1       1.084   3.546  -1.192  1.00  0.00     0.039 A 
HETATM   11  C24 UNL     1       2.232   3.889  -2.015  1.00  0.00     0.206 A 
HETATM   12  O3  UNL     1       2.882   2.899  -1.275  1.00  0.00    -0.345 OA
ENDBRANCH   8   9
BRANCH   8  13
HETATM   13  O1  UNL     1       2.299   0.909   0.989  1.00  0.00    -0.347 OA
BRANCH  13  14
HETATM   14  C18 UNL     1       3.286   0.259   0.260  1.00  0.00     0.206 C 
BRANCH  14  15
HETATM   15  C19 UNL     1       4.190  -0.497   1.211  1.00  0.00     0.299 C 
BRANCH  15  16
HETATM   16  N4  UNL     1       5.250  -1.204   0.583  1.00  0.00     0.094 N 
HETATM   17  C20 UNL     1       6.254  -0.391  -0.023  1.00  0.00     0.298 C 
HETATM   18  C21 UNL     1       7.460  -1.209  -0.362  1.00  0.00     0.198 C 
HETATM   19  O2  UNL     1       7.291  -2.518  -0.624  1.00  0.00    -0.388 OA
HETATM   20  C22 UNL     1       6.086  -3.114  -0.532  1.00  0.00     0.198 C 
HETATM   21  C23 UNL     1       4.891  -2.228  -0.339  1.00  0.00     0.298 C 
ENDBRANCH  15  16
ENDBRANCH  14  15
ENDBRANCH  13  14
ENDBRANCH   8  13
ENDBRANCH   1   7
BRANCH   6  22
HETATM   22  N3  UNL     1      -2.317   0.154   0.951  1.00  0.00    -0.369 N 
HETATM   23  H5  UNL     1      -1.355  -0.301   1.014  1.00  0.00     0.161 HD
BRANCH  22  24
HETATM   24  C9  UNL     1      -3.361  -0.846   0.869  1.00  0.00     0.092 A 
HETATM   25  C10 UNL     1      -4.375  -0.887   2.011  1.00  0.00     0.037 A 
HETATM   26  C11 UNL     1      -4.786  -0.487   0.652  1.00  0.00     0.043 A 
BRANCH  26  27
HETATM   27  C12 UNL     1      -5.684  -1.379  -0.140  1.00  0.00    -0.052 A 
HETATM   28  C13 UNL     1      -5.470  -2.754  -0.082  1.00  0.00     0.007 A 
HETATM   29  C14 UNL     1      -6.279  -3.580  -0.798  1.00  0.00     0.001 A 
HETATM   30  C15 UNL     1      -7.320  -3.103  -1.592  1.00  0.00     0.000 A 
HETATM   31  C16 UNL     1      -7.552  -1.724  -1.665  1.00  0.00     0.001 A 
HETATM   32  C17 UNL     1      -6.718  -0.889  -0.928  1.00  0.00     0.007 A 
ENDBRANCH  26  27
ENDBRANCH  22  24
ENDBRANCH   6  22
TORSDOF 9
