REMARK  6 active torsions:
REMARK  status: ('A' for Active; 'I' for Inactive)
REMARK    1  A    between atoms: C2_2  and  O1_3 
REMARK    2  A    between atoms: C2_2  and  C4_5 
REMARK    3  A    between atoms: C13_17  and  C14_18 
REMARK    4  A    between atoms: C14_18  and  C15_19 
REMARK    5  A    between atoms: C18_22  and  C19_23 
REMARK    6  A    between atoms: C19_23  and  N4_24 
ROOT
HETATM    1  C4  UNL     1      -1.793  -0.979   1.326  1.00  0.00     0.102 C 
HETATM    2  C5  UNL     1      -2.771  -0.088   1.365  1.00  0.00     0.042 C 
HETATM    3  C6  UNL     1      -4.117   0.366   1.683  1.00  0.00     0.037 C 
HETATM    4  C7  UNL     1      -4.764  -0.337   0.769  1.00  0.00     0.087 C 
HETATM    5  N1  UNL     1      -4.351  -0.256  -0.418  1.00  0.00    -0.240 NA
HETATM    6  C8  UNL     1      -3.831   1.024  -0.849  1.00  0.00     0.229 C 
HETATM    7  N2  UNL     1      -3.182   0.998  -1.959  1.00  0.00    -0.264 NA
HETATM    8  C9  UNL     1      -2.584   2.102  -2.594  1.00  0.00     0.267 C 
HETATM    9  N3  UNL     1      -1.441   2.607  -1.999  1.00  0.00    -0.397 N 
HETATM   10  C10 UNL     1      -0.214   1.963  -1.921  1.00  0.00     0.105 C 
HETATM   11  C11 UNL     1       0.383   1.448  -3.213  1.00  0.00     0.037 C 
HETATM   12  C12 UNL     1      -0.107   1.063  -0.764  1.00  0.00    -0.031 C 
HETATM   13  C13 UNL     1       0.339   1.629   0.384  1.00  0.00    -0.015 C 
HETATM   14  C18 UNL     1      -0.408  -0.379  -0.574  1.00  0.00     0.188 C 
HETATM   15  O3  UNL     1      -0.574  -0.696   0.792  1.00  0.00    -0.337 OA
HETATM   16  H11 UNL     1      -1.605   3.421  -1.401  1.00  0.00     0.155 HD
ENDROOT
BRANCH  14  17
HETATM   17  C19 UNL     1       0.637  -1.212  -1.246  1.00  0.00     0.309 C 
BRANCH  17  18
HETATM   18  N4  UNL     1       1.969  -1.101  -0.745  1.00  0.00     0.095 N 
HETATM   19  C20 UNL     1       2.801  -1.954  -1.622  1.00  0.00     0.298 C 
HETATM   20  C21 UNL     1       3.990  -2.487  -0.882  1.00  0.00     0.198 C 
HETATM   21  O2  UNL     1       3.613  -3.439   0.033  1.00  0.00    -0.388 OA
HETATM   22  C22 UNL     1       2.410  -3.074   0.639  1.00  0.00     0.198 C 
HETATM   23  C23 UNL     1       2.209  -1.572   0.579  1.00  0.00     0.298 C 
ENDBRANCH  17  18
ENDBRANCH  14  17
BRANCH  13  24
HETATM   24  C14 UNL     1       0.791   2.928   0.935  1.00  0.00     0.054 C 
BRANCH  24  25
HETATM   25  C15 UNL     1       2.169   2.922   1.456  1.00  0.00    -0.027 C 
HETATM   26  C16 UNL     1       3.349   3.511   1.278  1.00  0.00    -0.035 C 
HETATM   27  C17 UNL     1       4.653   3.293   1.994  1.00  0.00     0.036 C 
ENDBRANCH  24  25
ENDBRANCH  13  24
BRANCH   1  28
HETATM   28  C2  UNL     1      -2.674  -1.888   1.954  1.00  0.00     0.092 C 
HETATM   29  C1  UNL     1      -1.771  -2.884   1.982  1.00  0.00     0.053 C 
BRANCH  28  30
HETATM   30  O1  UNL     1      -3.766  -2.415   2.524  1.00  0.00    -0.354 OA
HETATM   31  C3  UNL     1      -4.417  -3.523   1.876  1.00  0.00     0.210 C 
ENDBRANCH  28  30
ENDBRANCH   1  28
TORSDOF 6
