REMARK  7 active torsions:
REMARK  status: ('A' for Active; 'I' for Inactive)
REMARK    1  A    between atoms: C2_2  and  O1_3 
REMARK    2  A    between atoms: O1_3  and  C3_4 
REMARK    3  A    between atoms: C7_10  and  C8_11 
REMARK    4  A    between atoms: C18_21  and  O2_22 
REMARK    5  A    between atoms: O2_22  and  C19_23 
REMARK    6  A    between atoms: C19_23  and  C20_24 
REMARK    7  A    between atoms: C20_24  and  N3_25 
ROOT
HETATM    1  C3  UNL     1      -0.052   2.958  -1.199  1.00  0.00     0.104 A 
HETATM    2  C4  UNL     1      -1.319   3.215  -1.672  1.00  0.00     0.072 A 
HETATM    3  C5  UNL     1      -2.303   2.253  -1.732  1.00  0.00     0.073 A 
HETATM    4  N1  UNL     1      -3.507   2.620  -2.216  1.00  0.00    -0.241 NA
HETATM    5  C6  UNL     1      -4.460   1.702  -2.279  1.00  0.00     0.234 A 
HETATM    6  N2  UNL     1      -4.254   0.421  -1.874  1.00  0.00    -0.245 NA
HETATM    7  C7  UNL     1      -3.055   0.019  -1.382  1.00  0.00     0.057 A 
HETATM    8  C16 UNL     1      -2.068   0.977  -1.318  1.00  0.00     0.021 A 
HETATM    9  C17 UNL     1      -0.826   0.665  -0.839  1.00  0.00     0.055 A 
HETATM   10  C18 UNL     1       0.162   1.639  -0.781  1.00  0.00     0.103 A 
ENDROOT
BRANCH  10  11
HETATM   11  O2  UNL     1       1.397   1.264  -0.288  1.00  0.00    -0.347 OA
BRANCH  11  12
HETATM   12  C19 UNL     1       1.608  -0.050   0.127  1.00  0.00     0.206 C 
BRANCH  12  13
HETATM   13  C20 UNL     1       3.042  -0.156   0.613  1.00  0.00     0.299 C 
BRANCH  13  14
HETATM   14  N3  UNL     1       3.365  -1.502   1.073  1.00  0.00     0.094 N 
HETATM   15  C21 UNL     1       3.359  -2.364  -0.086  1.00  0.00     0.298 C 
HETATM   16  C22 UNL     1       4.129  -3.645   0.103  1.00  0.00     0.198 C 
HETATM   17  O3  UNL     1       5.457  -3.351   0.456  1.00  0.00    -0.388 OA
HETATM   18  C23 UNL     1       5.363  -2.777   1.737  1.00  0.00     0.198 C 
HETATM   19  C24 UNL     1       4.731  -1.420   1.576  1.00  0.00     0.298 C 
ENDBRANCH  13  14
ENDBRANCH  12  13
ENDBRANCH  11  12
ENDBRANCH  10  11
BRANCH   1  20
HETATM   20  O1  UNL     1       1.023   3.808  -1.081  1.00  0.00    -0.349 OA
BRANCH  20  21
HETATM   21  C2  UNL     1       0.935   5.163  -1.461  1.00  0.00     0.171 C 
HETATM   22  C1  UNL     1      -0.089   5.953  -0.709  1.00  0.00     0.034 C 
ENDBRANCH  20  21
ENDBRANCH   1  20
BRANCH   7  23
HETATM   23  C8  UNL     1      -2.846  -1.384  -0.936  1.00  0.00     0.076 A 
HETATM   24  C9  UNL     1      -4.146  -2.120  -0.870  1.00  0.00     0.055 A 
HETATM   25  C10 UNL     1      -3.916  -2.250   0.560  1.00  0.00    -0.050 A 
HETATM   26  C11 UNL     1      -4.469  -2.766   1.718  1.00  0.00     0.007 A 
HETATM   27  C15 UNL     1      -2.741  -1.584   0.499  1.00  0.00    -0.042 A 
HETATM   28  C12 UNL     1      -3.811  -2.618   2.934  1.00  0.00     0.001 A 
HETATM   29  C13 UNL     1      -2.591  -1.933   2.903  1.00  0.00     0.001 A 
HETATM   30  C14 UNL     1      -2.108  -1.450   1.716  1.00  0.00     0.008 A 
ENDBRANCH   7  23
TORSDOF 7
