REMARK  0 active torsions:
REMARK  status: ('A' for Active; 'I' for Inactive)
ROOT
HETATM    1  C1  UNL     1      -2.129   0.967  -1.305  1.00  0.00     0.068 C 
HETATM    2  C2  UNL     1      -2.425  -0.280  -0.495  1.00  0.00     0.008 C 
HETATM    3  C3  UNL     1      -3.255  -1.225  -1.128  1.00  0.00     0.026 C 
HETATM    4  C4  UNL     1      -3.012  -2.729  -1.327  1.00  0.00     0.026 C 
HETATM    5  C5  UNL     1      -1.810  -3.429  -1.194  1.00  0.00     0.142 C 
HETATM    6  O1  UNL     1      -0.606  -3.269  -0.279  1.00  0.00    -0.325 OA
HETATM    7  C6  UNL     1      -0.519  -2.146   0.543  1.00  0.00     0.076 C 
HETATM    8  C7  UNL     1       0.451  -1.270   0.481  1.00  0.00    -0.013 C 
HETATM    9  C8  UNL     1       0.397  -0.020   1.266  1.00  0.00     0.097 C 
HETATM   10  C9  UNL     1      -0.840   0.734   1.037  1.00  0.00     0.020 C 
HETATM   11  C10 UNL     1      -1.706   1.728   0.738  1.00  0.00    -0.037 C 
HETATM   12  C11 UNL     1      -3.215   1.596   0.815  1.00  0.00     0.048 C 
HETATM   13  C12 UNL     1      -0.648   2.738   0.304  1.00  0.00     0.203 C 
HETATM   14  O2  UNL     1       0.554   2.142   0.382  1.00  0.00    -0.385 OA
HETATM   15  C13 UNL     1       1.642   2.611  -0.250  1.00  0.00     0.187 C 
HETATM   16  C14 UNL     1       2.896   1.804  -0.051  1.00  0.00     0.143 C 
HETATM   17  N1  UNL     1       2.929   0.459  -0.371  1.00  0.00    -0.406 N 
HETATM   18  C15 UNL     1       3.982  -0.321   0.193  1.00  0.00     0.143 C 
HETATM   19  C16 UNL     1       3.463  -1.570   0.844  1.00  0.00     0.188 C 
HETATM   20  O3  UNL     1       2.588  -2.282   0.051  1.00  0.00    -0.378 OA
HETATM   21  C17 UNL     1       1.548  -1.567  -0.468  1.00  0.00     0.170 C 
HETATM   22  C18 UNL     1       2.004  -0.238  -1.132  1.00  0.00     0.153 C 
HETATM   23  N2  UNL     1      -1.678  -0.417   0.791  1.00  0.00    -0.348 N 
HETATM   24  C19 UNL     1      -1.544  -1.712   1.635  1.00  0.00     0.194 C 
ENDROOT
TORSDOF 0
