REMARK  3 active torsions:
REMARK  status: ('A' for Active; 'I' for Inactive)
REMARK    1  A    between atoms: O1_2  and  C2_3 
REMARK    2  A    between atoms: C2_3  and  C3_4 
REMARK    3  A    between atoms: C3_4  and  C4_5 
ROOT
HETATM    1  C4  UNL     1       1.789   0.865   0.547  1.00  0.00     0.064 C 
HETATM    2  N1  UNL     1       2.124   1.794   1.506  1.00  0.00    -0.248 NA
HETATM    3  C5  UNL     1       1.274   3.000   1.700  1.00  0.00     0.228 C 
HETATM    4  N2  UNL     1       0.291   3.486   0.945  1.00  0.00    -0.255 NA
HETATM    5  C6  UNL     1      -0.750   3.013   0.087  1.00  0.00     0.390 C 
HETATM    6  N3  UNL     1      -0.414   2.000  -0.930  1.00  0.00    -0.007 N 
HETATM    7  C7  UNL     1       0.891   2.008  -1.695  1.00  0.00     0.277 A 
HETATM    8  C8  UNL     1       0.945   1.036  -0.750  1.00  0.00     0.230 A 
HETATM    9  C9  UNL     1       0.003  -0.135  -0.748  1.00  0.00     0.001 C 
HETATM   10  C10 UNL     1      -0.501  -1.313  -0.655  1.00  0.00     0.020 C 
HETATM   11  C11 UNL     1      -1.911  -1.081  -0.952  1.00  0.00    -0.027 A 
HETATM   12  C12 UNL     1      -2.860  -2.109  -0.760  1.00  0.00     0.012 A 
HETATM   13  C13 UNL     1      -4.196  -1.702  -0.865  1.00  0.00     0.001 A 
HETATM   14  C14 UNL     1      -4.543  -0.391  -1.135  1.00  0.00     0.001 A 
HETATM   15  C15 UNL     1      -3.568   0.598  -1.322  1.00  0.00     0.010 A 
HETATM   16  C16 UNL     1      -2.246   0.231  -1.230  1.00  0.00    -0.013 A 
HETATM   17  C17 UNL     1      -0.991   0.810  -1.496  1.00  0.00     0.260 C 
ENDROOT
BRANCH   1  18
HETATM   18  C3  UNL     1       2.183  -0.546   0.592  1.00  0.00     0.080 C 
BRANCH  18  19
HETATM   19  C2  UNL     1       2.685  -1.693   0.931  1.00  0.00     0.161 C 
BRANCH  19  20
HETATM   20  O1  UNL     1       3.263  -2.842   1.396  1.00  0.00    -0.387 OA
HETATM   21  C1  UNL     1       4.367  -2.822   2.297  1.00  0.00     0.202 C 
ENDBRANCH  19  20
ENDBRANCH  18  19
ENDBRANCH   1  18
TORSDOF 3
