REMARK  3 active torsions:
REMARK  status: ('A' for Active; 'I' for Inactive)
REMARK    1  A    between atoms: C6_7  and  C7_8 
REMARK    2  A    between atoms: C7_8  and  N1_9 
REMARK    3  A    between atoms: N1_9  and  C8_10 
ROOT
HETATM    1  C8  UNL     1       0.392  -1.407  -0.207  1.00  0.00     0.156 A 
HETATM    2  N2  UNL     1       0.156  -2.705  -0.495  1.00  0.00    -0.222 NA
HETATM    3  C9  UNL     1       1.184  -3.538  -0.679  1.00  0.00     0.238 A 
HETATM    4  N3  UNL     1       2.468  -3.115  -0.583  1.00  0.00    -0.215 NA
HETATM    5  C10 UNL     1       2.750  -1.812  -0.292  1.00  0.00     0.201 A 
HETATM    6  C11 UNL     1       1.695  -0.905  -0.093  1.00  0.00     0.129 A 
HETATM    7  N4  UNL     1       2.000   0.456   0.209  1.00  0.00    -0.369 N 
HETATM    8  C12 UNL     1       3.269   0.852  -0.356  1.00  0.00     0.162 A 
HETATM    9  C13 UNL     1       3.724   2.198   0.029  1.00  0.00     0.005 A 
HETATM   10  C14 UNL     1       4.911   2.110   0.624  1.00  0.00     0.001 A 
HETATM   11  C15 UNL     1       5.333   0.691   0.678  1.00  0.00     0.035 A 
HETATM   12  C16 UNL     1       4.374  -0.020   0.109  1.00  0.00     0.082 A 
HETATM   13  O1  UNL     1       4.082  -1.353  -0.188  1.00  0.00    -0.292 OA
HETATM   14  H9  UNL     1       1.283   0.955   0.779  1.00  0.00     0.161 HD
ENDROOT
BRANCH   1  15
HETATM   15  N1  UNL     1      -0.689  -0.500  -0.011  1.00  0.00    -0.368 N 
HETATM   16  H7  UNL     1      -0.553   0.500   0.209  1.00  0.00     0.161 HD
BRANCH  15  17
HETATM   17  C7  UNL     1      -2.021  -0.995  -0.128  1.00  0.00     0.163 C 
BRANCH  17  18
HETATM   18  C6  UNL     1      -3.083   0.008   0.112  1.00  0.00    -0.002 A 
HETATM   19  C1  UNL     1      -4.335  -0.545  -0.133  1.00  0.00     0.124 A 
HETATM   20  F1  UNL     1      -4.588  -1.837  -0.547  1.00  0.00    -0.205 F 
HETATM   21  C2  UNL     1      -5.511   0.143   0.002  1.00  0.00     0.043 A 
HETATM   22  C3  UNL     1      -5.477   1.473   0.409  1.00  0.00     0.003 A 
HETATM   23  C4  UNL     1      -4.227   2.032   0.656  1.00  0.00     0.001 A 
HETATM   24  C5  UNL     1      -3.058   1.310   0.509  1.00  0.00     0.012 A 
ENDBRANCH  17  18
ENDBRANCH  15  17
ENDBRANCH   1  15
TORSDOF 3
