REMARK  5 active torsions:
REMARK  status: ('A' for Active; 'I' for Inactive)
REMARK    1  A    between atoms: O1_2  and  C2_3 
REMARK    2  A    between atoms: C2_3  and  C3_4 
REMARK    3  A    between atoms: C3_4  and  O2_22 
REMARK    4  A    between atoms: C4_5  and  C5_6 
REMARK    5  A    between atoms: N2_10  and  N3_11 
ROOT
HETATM    1  C5  UNL     1       1.212   0.808  -0.458  1.00  0.00     0.083 C 
HETATM    2  C6  UNL     1       0.527   2.107   0.006  1.00  0.00     0.020 C 
HETATM    3  N1  UNL     1       0.122   2.716   1.100  1.00  0.00    -0.277 NA
HETATM    4  C7  UNL     1      -1.226   1.924   1.248  1.00  0.00     0.291 C 
HETATM    5  N2  UNL     1      -1.182   1.074  -0.005  1.00  0.00    -0.295 N 
HETATM    6  C16 UNL     1      -0.199   0.668  -1.074  1.00  0.00     0.123 C 
HETATM    7  C17 UNL     1       0.248   2.155  -1.503  1.00  0.00     0.083 C 
ENDROOT
BRANCH   5   8
HETATM    8  N3  UNL     1      -2.498   0.582  -0.153  1.00  0.00    -0.267 N 
HETATM    9  C8  UNL     1      -3.302   1.216  -1.056  1.00  0.00     0.116 A 
HETATM   10  C9  UNL     1      -4.608   0.894  -1.335  1.00  0.00     0.020 A 
HETATM   11  C10 UNL     1      -5.234  -0.146  -0.692  1.00  0.00     0.015 A 
HETATM   12  C11 UNL     1      -4.462  -0.823   0.234  1.00  0.00    -0.007 A 
HETATM   13  C12 UNL     1      -4.707  -1.894   1.073  1.00  0.00     0.014 A 
HETATM   14  C15 UNL     1      -3.083  -0.437   0.489  1.00  0.00     0.066 A 
HETATM   15  C13 UNL     1      -3.538  -2.139   1.793  1.00  0.00     0.003 A 
HETATM   16  C14 UNL     1      -2.537  -1.260   1.449  1.00  0.00     0.032 A 
ENDBRANCH   5   8
BRANCH   1  17
HETATM   17  C4  UNL     1       1.569  -0.086   0.624  1.00  0.00     0.020 C 
HETATM   18  C3  UNL     1       2.623  -0.902   0.469  1.00  0.00     0.066 C 
BRANCH  18  19
HETATM   19  C2  UNL     1       3.494  -1.012  -0.707  1.00  0.00     0.231 C 
BRANCH  19  20
HETATM   20  O1  UNL     1       4.825  -0.717  -0.406  1.00  0.00    -0.390 OA
HETATM   21  C1  UNL     1       4.948   0.613   0.051  1.00  0.00     0.201 C 
ENDBRANCH  19  20
ENDBRANCH  18  19
BRANCH  18  22
HETATM   22  O2  UNL     1       2.952  -1.747   1.515  1.00  0.00    -0.358 OA
HETATM   23  C18 UNL     1       4.190  -2.386   1.678  1.00  0.00     0.209 C 
ENDBRANCH  18  22
ENDBRANCH   1  17
TORSDOF 5
