REMARK  1 active torsions:
REMARK  status: ('A' for Active; 'I' for Inactive)
REMARK    1  A    between atoms: O1_2  and  C2_3 
ROOT
HETATM    1  C2  UNL     1      -3.305  -1.026   0.542  1.00  0.00     0.126 C 
HETATM    2  C3  UNL     1      -2.520   0.019   0.421  1.00  0.00     0.198 C 
HETATM    3  O2  UNL     1      -2.668   1.379   0.246  1.00  0.00    -0.352 OA
HETATM    4  C4  UNL     1      -1.619   2.147  -0.219  1.00  0.00     0.131 C 
HETATM    5  C5  UNL     1      -0.435   2.716  -0.270  1.00  0.00    -0.001 C 
HETATM    6  C6  UNL     1       0.607   2.536   0.767  1.00  0.00     0.059 C 
HETATM    7  C7  UNL     1       1.897   2.019   0.197  1.00  0.00     0.278 C 
HETATM    8  N1  UNL     1       1.695   0.768  -0.443  1.00  0.00     0.111 N 
HETATM    9  C8  UNL     1       2.861   0.327  -1.199  1.00  0.00     0.254 C 
HETATM   10  C9  UNL     1       4.154   0.442  -0.386  1.00  0.00     0.028 C 
HETATM   11  C10 UNL     1       4.954  -0.510   0.242  1.00  0.00     0.114 C 
HETATM   12  N2  UNL     1       3.909  -1.452   0.818  1.00  0.00    -0.267 NA
HETATM   13  C11 UNL     1       2.697  -0.969   0.479  1.00  0.00     0.051 C 
HETATM   14  C12 UNL     1       2.618  -1.219  -1.032  1.00  0.00     0.097 C 
HETATM   15  C13 UNL     1       1.350  -0.310   0.513  1.00  0.00     0.294 C 
HETATM   16  C14 UNL     1       0.305  -1.208   0.082  1.00  0.00     0.011 C 
HETATM   17  C15 UNL     1      -0.897  -1.366   0.647  1.00  0.00    -0.025 C 
HETATM   18  C16 UNL     1      -2.213  -2.019   0.685  1.00  0.00     0.071 C 
ENDROOT
BRANCH   1  19
HETATM   19  O1  UNL     1      -4.486  -1.705   0.609  1.00  0.00    -0.379 OA
HETATM   20  C1  UNL     1      -5.380  -1.843  -0.484  1.00  0.00     0.202 C 
ENDBRANCH   1  19
TORSDOF 1
