REMARK  3 active torsions:
REMARK  status: ('A' for Active; 'I' for Inactive)
REMARK    1  A    between atoms: O1_1  and  C1_2 
REMARK    2  A    between atoms: C1_2  and  C2_3 
REMARK    3  A    between atoms: C17_22  and  O2_23 
ROOT
HETATM    1  C2  UNL     1       2.825  -0.113   0.453  1.00  0.00    -0.025 C 
HETATM    2  C3  UNL     1       2.219   1.073   0.167  1.00  0.00    -0.005 C 
HETATM    3  C4  UNL     1       0.899   1.503  -0.260  1.00  0.00     0.072 C 
HETATM    4  C5  UNL     1       0.820   1.770  -1.697  1.00  0.00    -0.011 C 
HETATM    5  C6  UNL     1       0.332   0.794  -2.476  1.00  0.00     0.024 C 
HETATM    6  C7  UNL     1      -0.105  -0.507  -1.899  1.00  0.00     0.039 C 
HETATM    7  N1  UNL     1       1.017  -0.787  -1.277  1.00  0.00    -0.255 NA
HETATM    8  C8  UNL     1       1.009  -1.601  -0.086  1.00  0.00     0.068 C 
HETATM    9  C9  UNL     1      -0.114  -2.131   0.454  1.00  0.00     0.037 C 
HETATM   10  C10 UNL     1      -1.351  -1.691  -0.234  1.00  0.00    -0.054 C 
HETATM   11  C11 UNL     1      -2.377  -1.510   0.576  1.00  0.00    -0.018 C 
HETATM   12  C12 UNL     1      -3.714  -1.064   0.110  1.00  0.00     0.049 C 
HETATM   13  C13 UNL     1      -4.086   0.270   0.746  1.00  0.00     0.145 C 
HETATM   14  N2  UNL     1      -3.045   1.233   0.349  1.00  0.00    -0.313 N 
HETATM   15  N3  UNL     1      -3.080   2.568   0.783  1.00  0.00    -0.173 NA
HETATM   16  C14 UNL     1      -2.070   3.374   0.764  1.00  0.00     0.253 C 
HETATM   17  N4  UNL     1      -1.073   2.543   0.229  1.00  0.00    -0.256 NA
HETATM   18  C15 UNL     1       0.181   2.530   0.525  1.00  0.00     0.103 C 
HETATM   19  C16 UNL     1      -1.165  -1.529  -1.708  1.00  0.00     0.097 C 
HETATM   20  C17 UNL     1       2.407  -1.586   0.392  1.00  0.00     0.201 C 
HETATM   21  H14 UNL     1      -2.229   0.977  -0.274  1.00  0.00     0.182 HD
ENDROOT
BRANCH   1  22
HETATM   22  C1  UNL     1       4.273  -0.163   0.891  1.00  0.00     0.201 C 
BRANCH  22  23
HETATM   23  O1  UNL     1       4.991  -0.922  -0.009  1.00  0.00    -0.397 OA
HETATM   24  H1  UNL     1       5.708  -1.394   0.514  1.00  0.00     0.209 HD
ENDBRANCH  22  23
ENDBRANCH   1  22
BRANCH  20  25
HETATM   25  O2  UNL     1       2.538  -2.054   1.694  1.00  0.00    -0.385 OA
HETATM   26  H20 UNL     1       3.191  -2.790   1.787  1.00  0.00     0.210 HD
ENDBRANCH  20  25
TORSDOF 3
