REMARK  4 active torsions:
REMARK  status: ('A' for Active; 'I' for Inactive)
REMARK    1  A    between atoms: O1_2  and  C2_3 
REMARK    2  A    between atoms: C5_6  and  P1_7 
REMARK    3  A    between atoms: P1_7  and  C6_8 
REMARK    4  A    between atoms: N2_19  and  C16_20 
ROOT
HETATM    1  C2  UNL     1      -2.915  -1.309   0.725  1.00  0.00     0.075 A 
HETATM    2  C3  UNL     1      -1.688  -0.764   0.650  1.00  0.00     0.051 A 
HETATM    3  C4  UNL     1      -1.639   0.665   0.407  1.00  0.00    -0.004 A 
HETATM    4  C5  UNL     1      -0.512   1.340   0.313  1.00  0.00     0.024 C 
HETATM    5  C15 UNL     1      -2.827   1.484   0.251  1.00  0.00     0.069 A 
HETATM    6  N2  UNL     1      -3.051   2.696   0.033  1.00  0.00    -0.242 NA
HETATM    7  C17 UNL     1      -4.116   0.762   0.356  1.00  0.00     0.042 A 
HETATM    8  C18 UNL     1      -4.158  -0.553   0.579  1.00  0.00    -0.026 A 
HETATM    9  C19 UNL     1      -5.404  -1.341   0.695  1.00  0.00     0.051 C 
ENDROOT
BRANCH   4  10
HETATM   10  P1  UNL     1       0.964   0.303   0.518  1.00  0.00    -0.049 P 
HETATM   11  H6  UNL     1       1.254  -0.039   1.890  1.00  0.00     0.068 HD
BRANCH  10  12
HETATM   12  C6  UNL     1       2.400   0.867  -0.432  1.00  0.00     0.072 A 
HETATM   13  N1  UNL     1       2.547   2.123  -0.854  1.00  0.00    -0.260 NA
HETATM   14  C7  UNL     1       3.638   2.509  -1.567  1.00  0.00     0.118 A 
HETATM   15  C8  UNL     1       4.636   1.605  -1.879  1.00  0.00     0.031 A 
HETATM   16  C9  UNL     1       4.472   0.294  -1.432  1.00  0.00    -0.022 A 
HETATM   17  C10 UNL     1       5.447  -0.666  -1.715  1.00  0.00     0.012 A 
HETATM   18  C14 UNL     1       3.352  -0.099  -0.701  1.00  0.00     0.004 A 
HETATM   19  C11 UNL     1       5.314  -1.989  -1.283  1.00  0.00     0.001 A 
HETATM   20  C12 UNL     1       4.200  -2.368  -0.559  1.00  0.00     0.001 A 
HETATM   21  C13 UNL     1       3.254  -1.393  -0.296  1.00  0.00     0.014 A 
ENDBRANCH  10  12
ENDBRANCH   4  10
BRANCH   1  22
HETATM   22  O1  UNL     1      -2.922  -2.671   0.957  1.00  0.00    -0.355 OA
HETATM   23  C1  UNL     1      -2.622  -3.331   2.142  1.00  0.00     0.210 C 
ENDBRANCH   1  22
BRANCH   6  24
HETATM   24  C16 UNL     1      -2.203   3.779  -0.155  1.00  0.00     0.224 C 
HETATM   25  N3  UNL     1      -1.471   4.629  -0.775  1.00  0.00    -0.293 NA
HETATM   26  H14 UNL     1      -0.952   5.400  -0.295  1.00  0.00     0.187 HD
ENDBRANCH   6  24
TORSDOF 4
