REMARK  2 active torsions:
REMARK  status: ('A' for Active; 'I' for Inactive)
REMARK    1  A    between atoms: O1_2  and  C2_3 
REMARK    2  A    between atoms: N3_11  and  C8_12 
ROOT
HETATM    1  C2  UNL     1       3.411   0.460   0.114  1.00  0.00     0.051 A 
HETATM    2  C3  UNL     1       2.437   1.072   0.769  1.00  0.00     0.035 A 
HETATM    3  C4  UNL     1       1.095   0.492   0.732  1.00  0.00     0.036 A 
HETATM    4  C5  UNL     1       0.929  -0.606   0.050  1.00  0.00     0.085 A 
HETATM    5  C6  UNL     1       1.971  -1.300  -0.675  1.00  0.00     0.070 A 
HETATM    6  N1  UNL     1       1.715  -2.405  -1.326  1.00  0.00    -0.242 NA
HETATM    7  C7  UNL     1       0.370  -2.923  -1.309  1.00  0.00     0.256 A 
HETATM    8  N2  UNL     1      -0.592  -2.346  -0.681  1.00  0.00    -0.159 NA
HETATM    9  N3  UNL     1      -0.385  -1.144   0.045  1.00  0.00    -0.212 N 
HETATM   10  C17 UNL     1       3.335  -0.782  -0.690  1.00  0.00     0.126 A 
ENDROOT
BRANCH   9  11
HETATM   11  C8  UNL     1      -1.546  -0.630   0.692  1.00  0.00     0.162 A 
HETATM   12  N4  UNL     1      -1.689  -0.919   2.016  1.00  0.00    -0.241 NA
HETATM   13  C9  UNL     1      -2.773  -0.482   2.722  1.00  0.00     0.120 A 
HETATM   14  C10 UNL     1      -3.754   0.272   2.087  1.00  0.00     0.031 A 
HETATM   15  C11 UNL     1      -3.606   0.564   0.736  1.00  0.00    -0.021 A 
HETATM   16  C12 UNL     1      -4.603   1.313   0.129  1.00  0.00     0.012 A 
HETATM   17  C16 UNL     1      -2.494   0.111   0.030  1.00  0.00     0.022 A 
HETATM   18  C13 UNL     1      -4.383   1.554  -1.211  1.00  0.00     0.001 A 
HETATM   19  C14 UNL     1      -3.309   1.136  -1.963  1.00  0.00     0.001 A 
HETATM   20  C15 UNL     1      -2.344   0.396  -1.316  1.00  0.00     0.016 A 
ENDBRANCH   9  11
BRANCH   1  21
HETATM   21  O1  UNL     1       4.717   0.980   0.122  1.00  0.00    -0.360 OA
HETATM   22  C1  UNL     1       5.653   0.771  -0.899  1.00  0.00     0.209 C 
ENDBRANCH   1  21
TORSDOF 2
