REMARK  4 active torsions:
REMARK  status: ('A' for Active; 'I' for Inactive)
REMARK    1  A    between atoms: C4_7  and  N4_8 
REMARK    2  A    between atoms: N4_8  and  C5_9 
REMARK    3  A    between atoms: N5_18  and  C13_19 
REMARK    4  A    between atoms: C15_21  and  N6_22 
ROOT
HETATM    1  C1  UNL     1      -3.914  -2.239   1.510  1.00  0.00     0.203 C 
HETATM    2  N1  UNL     1      -2.576  -1.952   1.026  1.00  0.00    -0.207 N 
HETATM    3  N2  UNL     1      -1.489  -2.827   1.064  1.00  0.00    -0.134 NA
HETATM    4  C2  UNL     1      -0.422  -2.320   0.569  1.00  0.00     0.199 A 
HETATM    5  N3  UNL     1       0.936  -2.748   0.358  1.00  0.00    -0.240 NA
HETATM    6  C3  UNL     1       1.794  -1.952  -0.190  1.00  0.00     0.121 A 
HETATM    7  C4  UNL     1       1.560  -0.555  -0.670  1.00  0.00     0.148 A 
HETATM    8  C11 UNL     1       0.141  -0.236  -0.399  1.00  0.00     0.039 A 
HETATM    9  C12 UNL     1      -0.805  -0.975   0.152  1.00  0.00     0.106 A 
HETATM   10  N5  UNL     1      -2.175  -0.725   0.436  1.00  0.00    -0.239 N 
ENDROOT
BRANCH   7  11
HETATM   11  N4  UNL     1       2.465   0.296   0.059  1.00  0.00    -0.377 N 
HETATM   12  H6  UNL     1       2.008   0.975   0.713  1.00  0.00     0.160 HD
BRANCH  11  13
HETATM   13  C5  UNL     1       3.868   0.303  -0.021  1.00  0.00     0.030 A 
HETATM   14  C6  UNL     1       4.615  -0.503  -0.852  1.00  0.00     0.029 A 
HETATM   15  C7  UNL     1       5.992  -0.485  -0.907  1.00  0.00     0.004 A 
HETATM   16  C8  UNL     1       6.675   0.380  -0.093  1.00  0.00     0.024 A 
HETATM   17  C9  UNL     1       5.985   1.206   0.754  1.00  0.00     0.036 A 
HETATM   18 CL1  UNL     1       6.852   2.313   1.796  1.00  0.00    -0.084 Cl
HETATM   19  C10 UNL     1       4.614   1.148   0.769  1.00  0.00     0.052 A 
ENDBRANCH  11  13
ENDBRANCH   7  11
BRANCH  10  20
HETATM   20  C13 UNL     1      -2.939   0.450   0.192  1.00  0.00     0.042 A 
HETATM   21  C14 UNL     1      -3.967   0.275  -0.636  1.00  0.00     0.056 A 
HETATM   22  C15 UNL     1      -4.644   1.533  -0.791  1.00  0.00     0.024 A 
HETATM   23  C16 UNL     1      -4.042   2.463  -0.071  1.00  0.00     0.008 A 
HETATM   24  C17 UNL     1      -2.870   1.843   0.639  1.00  0.00     0.088 A 
BRANCH  22  25
HETATM   25  N6  UNL     1      -5.791   1.985  -1.531  1.00  0.00    -0.399 N 
HETATM   26  H13 UNL     1      -6.636   2.060  -0.908  1.00  0.00     0.156 HD
HETATM   27  H14 UNL     1      -5.934   2.241  -2.522  1.00  0.00     0.156 HD
ENDBRANCH  22  25
ENDBRANCH  10  20
TORSDOF 4
