REMARK  6 active torsions:
REMARK  status: ('A' for Active; 'I' for Inactive)
REMARK    1  A    between atoms: C2_2  and  C3_3 
REMARK    2  A    between atoms: C8_8  and  C9_9 
REMARK    3  A    between atoms: C9_9  and  C10_10 
REMARK    4  A    between atoms: C12_12  and  N1_14 
REMARK    5  A    between atoms: N1_14  and  C14_15 
REMARK    6  A    between atoms: C17_18  and  N2_19 
ROOT
HETATM    1  C10 UNL     1      -3.387  -0.544   0.881  1.00  0.00     0.015 A 
HETATM    2  C11 UNL     1      -2.037  -0.573   0.960  1.00  0.00     0.038 A 
HETATM    3  C12 UNL     1      -1.372  -1.885   0.631  1.00  0.00     0.128 A 
HETATM    4  C13 UNL     1      -0.754  -2.463   1.889  1.00  0.00     0.054 C 
HETATM    5  C24 UNL     1      -2.560  -2.700   0.301  1.00  0.00     0.254 A 
HETATM    6  O1  UNL     1      -2.553  -3.895  -0.059  1.00  0.00    -0.270 OA
HETATM    7  N4  UNL     1      -3.691  -1.863   0.474  1.00  0.00    -0.328 N 
HETATM    8  H29 UNL     1      -4.652  -2.213   0.306  1.00  0.00     0.168 HD
ENDROOT
BRANCH   3   9
HETATM    9  N1  UNL     1      -0.429  -1.796  -0.434  1.00  0.00    -0.369 N 
HETATM   10  H14 UNL     1      -0.697  -2.314  -1.301  1.00  0.00     0.161 HD
BRANCH   9  11
HETATM   11  C14 UNL     1       0.810  -1.116  -0.501  1.00  0.00     0.029 A 
HETATM   12  C15 UNL     1       1.598  -1.105  -1.654  1.00  0.00     0.031 A 
HETATM   13  C16 UNL     1       2.798  -0.426  -1.625  1.00  0.00     0.031 A 
HETATM   14  C17 UNL     1       3.272   0.246  -0.525  1.00  0.00     0.031 A 
HETATM   15  C22 UNL     1       2.491   0.222   0.584  1.00  0.00     0.031 A 
HETATM   16  C23 UNL     1       1.289  -0.441   0.601  1.00  0.00     0.031 A 
BRANCH  14  17
HETATM   17  N2  UNL     1       4.525   0.929  -0.578  1.00  0.00    -0.368 N 
HETATM   18  C18 UNL     1       5.374   1.029  -1.720  1.00  0.00     0.130 C 
HETATM   19  C19 UNL     1       6.738   0.378  -1.486  1.00  0.00     0.070 C 
HETATM   20  P1  UNL     1       7.530   1.482  -0.181  1.00  0.00    -0.047 P 
HETATM   21  C20 UNL     1       8.434   0.504   1.089  1.00  0.00     0.061 C 
HETATM   22  N3  UNL     1       6.126   2.390   0.519  1.00  0.00    -0.283 NA
HETATM   23  C21 UNL     1       4.953   1.567   0.647  1.00  0.00     0.217 C 
HETATM   24  H24 UNL     1       5.918   3.179  -0.113  1.00  0.00     0.128 HD
ENDBRANCH  14  17
ENDBRANCH   9  11
ENDBRANCH   3   9
BRANCH   1  25
HETATM   25  C9  UNL     1      -4.183   0.671   1.174  1.00  0.00     0.096 C 
BRANCH  25  26
HETATM   26  C8  UNL     1      -5.009   1.080   0.021  1.00  0.00    -0.043 A 
HETATM   27  C3  UNL     1      -6.235   0.591  -0.354  1.00  0.00    -0.033 A 
HETATM   28  C4  UNL     1      -6.959   0.969  -1.461  1.00  0.00     0.011 A 
HETATM   29  C5  UNL     1      -6.379   1.933  -2.256  1.00  0.00     0.001 A 
HETATM   30  C6  UNL     1      -5.149   2.448  -1.910  1.00  0.00     0.001 A 
HETATM   31  C7  UNL     1      -4.431   2.049  -0.781  1.00  0.00     0.008 A 
BRANCH  27  32
HETATM   32  C2  UNL     1      -6.855  -0.378   0.504  1.00  0.00    -0.015 C 
HETATM   33  C1  UNL     1      -7.025  -1.184   1.494  1.00  0.00     0.032 C 
ENDBRANCH  27  32
ENDBRANCH  25  26
ENDBRANCH   1  25
TORSDOF 6
