REMARK  4 active torsions:
REMARK  status: ('A' for Active; 'I' for Inactive)
REMARK    1  A    between atoms: O1_2  and  C2_3 
REMARK    2  A    between atoms: C6_9  and  N3_10 
REMARK    3  A    between atoms: N3_10  and  C7_11 
REMARK    4  A    between atoms: C16_22  and  O2_23 
ROOT
HETATM    1  C2  UNL     1      -4.023   0.467  -0.057  1.00  0.00     0.103 A 
HETATM    2  C3  UNL     1      -3.232   1.103   0.864  1.00  0.00     0.072 A 
HETATM    3  C4  UNL     1      -1.882   0.882   0.855  1.00  0.00     0.075 A 
HETATM    4  N1  UNL     1      -1.077   1.505   1.762  1.00  0.00    -0.241 NA
HETATM    5  C5  UNL     1       0.267   1.275   1.742  1.00  0.00     0.235 A 
HETATM    6  N2  UNL     1       0.863   0.455   0.865  1.00  0.00    -0.224 NA
HETATM    7  C6  UNL     1       0.125  -0.186  -0.051  1.00  0.00     0.139 A 
HETATM    8  C14 UNL     1      -1.223   0.048  -0.027  1.00  0.00     0.041 A 
HETATM    9  C15 UNL     1      -2.062  -0.570  -0.934  1.00  0.00     0.057 A 
HETATM   10  C16 UNL     1      -3.428  -0.381  -0.968  1.00  0.00     0.102 A 
ENDROOT
BRANCH   7  11
HETATM   11  N3  UNL     1       0.737  -1.072  -1.002  1.00  0.00    -0.350 N 
HETATM   12  H6  UNL     1       0.235  -1.595  -1.727  1.00  0.00     0.163 HD
BRANCH  11  13
HETATM   13  C7  UNL     1       2.202  -1.221  -0.904  1.00  0.00     0.206 C 
HETATM   14  C8  UNL     1       2.648  -1.716   0.393  1.00  0.00     0.019 C 
HETATM   15  C9  UNL     1       3.509  -1.636   1.388  1.00  0.00     0.001 C 
HETATM   16  C10 UNL     1       4.664  -0.810   1.677  1.00  0.00     0.017 C 
HETATM   17  C11 UNL     1       5.241   0.154   1.017  1.00  0.00     0.087 C 
HETATM   18  N4  UNL     1       5.126   0.865  -0.175  1.00  0.00    -0.374 N 
HETATM   19  C12 UNL     1       4.144   1.859  -0.325  1.00  0.00     0.104 C 
HETATM   20  H12 UNL     1       5.578   0.902  -1.085  1.00  0.00     0.164 HD
HETATM   21  C13 UNL     1       3.029   1.387  -0.844  1.00  0.00     0.102 C 
HETATM   22  N5  UNL     1       2.836   0.047  -1.208  1.00  0.00    -0.374 N 
HETATM   23  H15 UNL     1       3.449   0.088  -2.078  1.00  0.00     0.161 HD
ENDBRANCH  11  13
ENDBRANCH   7  11
BRANCH  10  24
HETATM   24  O2  UNL     1      -4.246  -1.015  -1.891  1.00  0.00    -0.353 OA
HETATM   25  C17 UNL     1      -3.636  -1.887  -2.828  1.00  0.00     0.210 C 
ENDBRANCH  10  24
BRANCH   1  26
HETATM   26  O1  UNL     1      -5.394   0.653  -0.095  1.00  0.00    -0.353 OA
HETATM   27  C1  UNL     1      -6.120   1.472   0.756  1.00  0.00     0.210 C 
ENDBRANCH   1  26
TORSDOF 4
