REMARK  3 active torsions:
REMARK  status: ('A' for Active; 'I' for Inactive)
REMARK    1  A    between atoms: C8_9  and  C15_17 
REMARK    2  A    between atoms: C9_10  and  O1_11 
REMARK    3  A    between atoms: C18_21  and  C19_22 
ROOT
HETATM    1  C1  UNL     1       2.628  -1.515   1.837  1.00  0.00     0.045 C 
HETATM    2  C2  UNL     1       2.266  -1.681   0.616  1.00  0.00     0.050 C 
HETATM    3  N1  UNL     1       1.908  -2.843  -0.223  1.00  0.00    -0.362 N 
HETATM    4  C3  UNL     1       0.630  -2.263  -0.692  1.00  0.00     0.227 C 
HETATM    5  C4  UNL     1      -0.511  -3.129  -0.975  1.00  0.00     0.054 C 
HETATM    6  C5  UNL     1      -1.758  -2.563  -0.337  1.00  0.00     0.008 C 
HETATM    7  C6  UNL     1      -2.267  -1.243  -0.717  1.00  0.00     0.032 C 
HETATM    8  C7  UNL     1      -1.464  -0.030  -0.395  1.00  0.00    -0.077 A 
HETATM    9  C8  UNL     1      -0.533   0.854  -0.234  1.00  0.00     0.066 A 
HETATM   10  C9  UNL     1      -0.741   1.470   1.242  1.00  0.00     0.145 A 
HETATM   11  C10 UNL     1      -0.817   2.980   0.617  1.00  0.00    -0.040 A 
HETATM   12  C11 UNL     1      -1.610   3.925   1.167  1.00  0.00     0.006 A 
HETATM   13  C12 UNL     1      -2.957   3.405   1.163  1.00  0.00    -0.002 A 
HETATM   14  C13 UNL     1      -2.597   2.214   0.623  1.00  0.00    -0.010 A 
HETATM   15  C14 UNL     1      -1.584   1.385   0.123  1.00  0.00     0.033 A 
HETATM   16  C15 UNL     1      -0.099   1.914   0.029  1.00  0.00     0.029 A 
HETATM   17  C16 UNL     1       1.422   1.945  -0.301  1.00  0.00     0.136 C 
HETATM   18  N2  UNL     1       2.232   0.914   0.063  1.00  0.00    -0.385 N 
HETATM   19  C17 UNL     1       2.272  -0.508  -0.300  1.00  0.00     0.091 C 
HETATM   20  C18 UNL     1       2.030  -0.531  -1.628  1.00  0.00     0.137 C 
HETATM   21  O3  UNL     1       1.046  -1.503  -1.805  1.00  0.00    -0.321 OA
HETATM   22  H3  UNL     1       2.347  -3.754  -0.436  1.00  0.00     0.162 HD
HETATM   23  H19 UNL     1       2.949   1.256   0.747  1.00  0.00     0.159 HD
ENDROOT
BRANCH  10  24
HETATM   24  O1  UNL     1      -1.605   0.886   1.998  1.00  0.00    -0.392 OA
HETATM   25  H13 UNL     1      -1.433   0.788   2.935  1.00  0.00     0.210 HD
ENDBRANCH  10  24
BRANCH  20  26
HETATM   26  C19 UNL     1       2.604   0.246  -2.723  1.00  0.00     0.297 C 
HETATM   27  O2  UNL     1       2.025  -0.090  -3.815  1.00  0.00    -0.299 OA
ENDBRANCH  20  26
TORSDOF 3
