REMARK  4 active torsions:
REMARK  status: ('A' for Active; 'I' for Inactive)
REMARK    1  A    between atoms: O1_2  and  C2_3 
REMARK    2  A    between atoms: C6_9  and  N3_10 
REMARK    3  A    between atoms: N3_10  and  C7_11 
REMARK    4  A    between atoms: C17_22  and  O2_23 
ROOT
HETATM    1  C2  UNL     1      -4.046   0.343  -0.878  1.00  0.00     0.103 A 
HETATM    2  C3  UNL     1      -3.442   1.556  -1.203  1.00  0.00     0.072 A 
HETATM    3  C4  UNL     1      -2.092   1.775  -0.959  1.00  0.00     0.075 A 
HETATM    4  N1  UNL     1      -1.484   2.947  -1.267  1.00  0.00    -0.241 NA
HETATM    5  C5  UNL     1      -0.161   3.131  -1.016  1.00  0.00     0.236 A 
HETATM    6  N2  UNL     1       0.573   2.154  -0.457  1.00  0.00    -0.223 NA
HETATM    7  C6  UNL     1       0.043   0.966  -0.123  1.00  0.00     0.143 A 
HETATM    8  C15 UNL     1      -1.298   0.800  -0.386  1.00  0.00     0.042 A 
HETATM    9  C16 UNL     1      -1.886  -0.404  -0.060  1.00  0.00     0.057 A 
HETATM   10  C17 UNL     1      -3.228  -0.610  -0.307  1.00  0.00     0.102 A 
ENDROOT
BRANCH   7  11
HETATM   11  N3  UNL     1       0.885  -0.011   0.462  1.00  0.00    -0.324 N 
HETATM   12  H6  UNL     1       0.646  -0.973   0.779  1.00  0.00     0.169 HD
BRANCH  11  13
HETATM   13  C7  UNL     1       2.258   0.326   0.665  1.00  0.00     0.135 A 
HETATM   14  N4  UNL     1       2.743   1.526   0.650  1.00  0.00    -0.267 NA
HETATM   15  C8  UNL     1       4.169   1.533   0.888  1.00  0.00     0.190 A 
HETATM   16  C9  UNL     1       4.542   0.085   1.066  1.00  0.00    -0.024 A 
HETATM   17  C10 UNL     1       5.784  -0.455   1.317  1.00  0.00     0.010 A 
HETATM   18  C14 UNL     1       3.366  -0.621   0.926  1.00  0.00     0.018 A 
HETATM   19  C11 UNL     1       5.783  -1.834   1.428  1.00  0.00     0.001 A 
HETATM   20  C12 UNL     1       4.646  -2.604   1.299  1.00  0.00     0.001 A 
HETATM   21  C13 UNL     1       3.432  -1.994   1.047  1.00  0.00     0.016 A 
ENDBRANCH  11  13
ENDBRANCH   7  11
BRANCH  10  22
HETATM   22  O2  UNL     1      -3.804  -1.812   0.020  1.00  0.00    -0.353 OA
HETATM   23  C18 UNL     1      -3.105  -2.888   0.610  1.00  0.00     0.210 C 
ENDBRANCH  10  22
BRANCH   1  24
HETATM   24  O1  UNL     1      -5.393   0.104  -1.114  1.00  0.00    -0.353 OA
HETATM   25  C1  UNL     1      -6.133   1.173  -1.710  1.00  0.00     0.210 C 
ENDBRANCH   1  24
TORSDOF 4
