REMARK  1 active torsions:
REMARK  status: ('A' for Active; 'I' for Inactive)
REMARK    1  A    between atoms: O1_2  and  C2_3 
ROOT
HETATM    1  C2  UNL     1       2.682   0.057   0.032  1.00  0.00     0.096 A 
HETATM    2  C3  UNL     1       3.233  -1.152   0.476  1.00  0.00     0.041 A 
HETATM    3  C4  UNL     1       2.437  -2.211   0.856  1.00  0.00     0.035 A 
HETATM    4  C5  UNL     1       1.073  -2.019   0.777  1.00  0.00     0.073 A 
HETATM    5  N1  UNL     1       0.376  -3.125   1.175  1.00  0.00    -0.241 NA
HETATM    6  C6  UNL     1      -0.956  -3.145   1.173  1.00  0.00     0.234 A 
HETATM    7  N2  UNL     1      -1.593  -2.036   0.765  1.00  0.00    -0.240 NA
HETATM    8  C7  UNL     1      -0.942  -0.932   0.367  1.00  0.00     0.084 A 
HETATM    9  C8  UNL     1       0.438  -0.868   0.353  1.00  0.00     0.052 A 
HETATM   10  C9  UNL     1       1.286   0.170  -0.020  1.00  0.00     0.080 A 
HETATM   11  N3  UNL     1       1.161   1.522  -0.514  1.00  0.00    -0.363 N 
HETATM   12  C10 UNL     1       0.100   2.243  -1.161  1.00  0.00     0.090 C 
HETATM   13  C11 UNL     1      -1.218   2.176  -1.245  1.00  0.00     0.035 C 
HETATM   14  C12 UNL     1      -2.153   1.238  -0.639  1.00  0.00     0.006 A 
HETATM   15  S1  UNL     1      -3.631   1.915  -0.823  1.00  0.00    -0.172 SA
HETATM   16  C13 UNL     1      -4.980   0.907  -0.132  1.00  0.00     0.036 A 
HETATM   17  C14 UNL     1      -4.555  -0.221   0.415  1.00  0.00     0.007 A 
HETATM   18  C15 UNL     1      -3.187  -0.652   0.482  1.00  0.00     0.015 A 
HETATM   19  C16 UNL     1      -2.099  -0.066   0.045  1.00  0.00     0.010 A 
HETATM   20  H7  UNL     1       2.012   2.111  -0.380  1.00  0.00     0.165 HD
HETATM   21  H10 UNL     1      -3.834   2.905  -1.806  1.00  0.00     0.100 HD
ENDROOT
BRANCH   1  22
HETATM   22  O1  UNL     1       3.502   1.111  -0.347  1.00  0.00    -0.354 OA
HETATM   23  C1  UNL     1       4.900   0.916  -0.266  1.00  0.00     0.210 C 
ENDBRANCH   1  22
TORSDOF 1
