REMARK  3 active torsions:
REMARK  status: ('A' for Active; 'I' for Inactive)
REMARK    1  A    between atoms: O1_2  and  C2_3 
REMARK    2  A    between atoms: N2_11  and  C9_12 
REMARK    3  A    between atoms: C18_22  and  O2_23 
ROOT
HETATM    1  C2  UNL     1      -2.330  -0.232   1.293  1.00  0.00     0.076 C 
HETATM    2  C3  UNL     1      -1.261   0.277   0.508  1.00  0.00     0.042 C 
HETATM    3  C4  UNL     1      -0.333  -0.918  -0.338  1.00  0.00     0.093 A 
HETATM    4  C5  UNL     1      -1.003  -2.032   0.175  1.00  0.00     0.066 A 
HETATM    5  C6  UNL     1      -1.644  -1.227  -0.775  1.00  0.00     0.119 A 
HETATM    6  N1  UNL     1      -1.629  -0.199  -1.624  1.00  0.00    -0.287 NA
HETATM    7  C7  UNL     1      -0.190  -0.284  -2.342  1.00  0.00     0.202 C 
HETATM    8  C8  UNL     1      -0.209   0.838  -3.279  1.00  0.00     0.057 C 
HETATM    9  N2  UNL     1       0.515   0.087  -1.039  1.00  0.00    -0.327 N 
HETATM   10  C18 UNL     1      -2.944  -1.068   0.026  1.00  0.00     0.210 C 
ENDROOT
BRANCH   9  11
HETATM   11  C9  UNL     1       1.447   0.933  -0.401  1.00  0.00     0.139 A 
HETATM   12  N3  UNL     1       1.020   2.158  -0.044  1.00  0.00    -0.242 NA
HETATM   13  C10 UNL     1       1.866   3.003   0.571  1.00  0.00     0.120 A 
HETATM   14  C11 UNL     1       3.134   2.538   0.792  1.00  0.00     0.031 A 
HETATM   15  C12 UNL     1       3.603   1.291   0.439  1.00  0.00    -0.021 A 
HETATM   16  C13 UNL     1       4.894   0.881   0.690  1.00  0.00     0.012 A 
HETATM   17  C17 UNL     1       2.705   0.464  -0.185  1.00  0.00     0.020 A 
HETATM   18  C14 UNL     1       5.255  -0.406   0.286  1.00  0.00     0.001 A 
HETATM   19  C15 UNL     1       4.348  -1.242  -0.344  1.00  0.00     0.001 A 
HETATM   20  C16 UNL     1       3.062  -0.804  -0.582  1.00  0.00     0.016 A 
ENDBRANCH   9  11
BRANCH   1  21
HETATM   21  O1  UNL     1      -2.426   0.120   2.617  1.00  0.00    -0.358 OA
HETATM   22  C1  UNL     1      -2.669  -0.900   3.570  1.00  0.00     0.209 C 
ENDBRANCH   1  21
BRANCH  10  23
HETATM   23  O2  UNL     1      -3.852  -0.218  -0.504  1.00  0.00    -0.381 OA
HETATM   24  C19 UNL     1      -5.174  -0.635  -0.455  1.00  0.00     0.202 C 
ENDBRANCH  10  23
TORSDOF 3
