REMARK  5 active torsions:
REMARK  status: ('A' for Active; 'I' for Inactive)
REMARK    1  A    between atoms: N2_6  and  C4_7 
REMARK    2  A    between atoms: C4_7  and  C5_8 
REMARK    3  A    between atoms: C11_14  and  C12_15 
REMARK       I    between atoms: C12_15  and  N3_17 
REMARK    4  A    between atoms: N3_17  and  C13_18 
REMARK    5  A    between atoms: C16_21  and  N4_22 
ROOT
HETATM    1  C12 UNL     1      -1.612  -0.933  -0.069  1.00  0.00     0.259 C 
HETATM    2  O2  UNL     1      -1.200   0.173  -0.502  1.00  0.00    -0.267 OA
HETATM    3  N3  UNL     1      -0.565  -1.665   0.501  1.00  0.00    -0.323 N 
HETATM    4  H12 UNL     1      -0.796  -2.602   0.889  1.00  0.00     0.169 HD
ENDROOT
BRANCH   1   5
HETATM    5  C11 UNL     1      -3.014  -1.253  -0.220  1.00  0.00     0.070 A 
HETATM    6  C2  UNL     1      -3.722  -2.447   0.197  1.00  0.00     0.031 A 
HETATM    7  C1  UNL     1      -3.031  -3.390   0.798  1.00  0.00     0.064 C 
HETATM    8  N1  UNL     1      -5.105  -2.714   0.027  1.00  0.00    -0.311 N 
HETATM    9  C3  UNL     1      -5.875  -1.709  -0.616  1.00  0.00     0.326 A 
HETATM   10  H3  UNL     1      -5.533  -3.594   0.356  1.00  0.00     0.170 HD
HETATM   11  O1  UNL     1      -7.106  -1.888  -0.795  1.00  0.00    -0.246 OA
HETATM   12  N2  UNL     1      -5.168  -0.550  -1.017  1.00  0.00    -0.308 N 
HETATM   13  C10 UNL     1      -3.769  -0.345  -0.814  1.00  0.00     0.114 A 
BRANCH  12  14
HETATM   14  C4  UNL     1      -5.949   0.473  -1.674  1.00  0.00     0.145 C 
BRANCH  14  15
HETATM   15  C5  UNL     1      -6.521   1.459  -0.658  1.00  0.00     0.049 A 
HETATM   16  C6  UNL     1      -5.448   2.125   0.099  1.00  0.00    -0.017 A 
HETATM   17  C7  UNL     1      -5.553   3.423  -0.137  1.00  0.00    -0.004 A 
HETATM   18  C8  UNL     1      -6.668   3.690  -1.036  1.00  0.00    -0.004 A 
HETATM   19  C9  UNL     1      -7.242   2.558  -1.350  1.00  0.00    -0.017 A 
ENDBRANCH  14  15
ENDBRANCH  12  14
ENDBRANCH   1   5
BRANCH   3  20
HETATM   20  C13 UNL     1       0.783  -1.232   0.587  1.00  0.00     0.035 A 
HETATM   21  C14 UNL     1       1.588  -1.566  -0.501  1.00  0.00     0.032 A 
HETATM   22  C15 UNL     1       2.935  -1.187  -0.510  1.00  0.00     0.031 A 
HETATM   23  C16 UNL     1       3.513  -0.485   0.524  1.00  0.00     0.030 A 
HETATM   24  C22 UNL     1       2.662  -0.185   1.569  1.00  0.00     0.031 A 
HETATM   25  C23 UNL     1       1.330  -0.535   1.629  1.00  0.00     0.032 A 
BRANCH  23  26
HETATM   26  N4  UNL     1       4.883  -0.102   0.513  1.00  0.00    -0.378 N 
HETATM   27  C17 UNL     1       5.628  -0.496  -0.668  1.00  0.00     0.153 C 
HETATM   28  C18 UNL     1       7.081  -0.169  -0.619  1.00  0.00     0.291 C 
HETATM   29  N5  UNL     1       7.417   0.846   0.333  1.00  0.00     0.087 N 
HETATM   30  C19 UNL     1       7.054   2.155  -0.134  1.00  0.00     0.310 C 
HETATM   31  C20 UNL     1       6.889   0.532   1.626  1.00  0.00     0.291 C 
HETATM   32  C21 UNL     1       5.377   0.627   1.663  1.00  0.00     0.153 C 
ENDBRANCH  23  26
ENDBRANCH   3  20
TORSDOF 5
