REMARK  5 active torsions:
REMARK  status: ('A' for Active; 'I' for Inactive)
REMARK       I    between atoms: C1_2  and  N1_3 
REMARK    1  A    between atoms: C1_2  and  C18_24 
REMARK    2  A    between atoms: N1_3  and  C2_4 
REMARK    3  A    between atoms: C2_4  and  C3_5 
REMARK    4  A    between atoms: C3_5  and  C4_6 
REMARK    5  A    between atoms: C12_16  and  C13_17 
ROOT
HETATM    1  C4  UNL     1       0.227  -0.408  -0.591  1.00  0.00     0.212 A 
HETATM    2  N2  UNL     1      -0.912  -1.156  -0.194  1.00  0.00    -0.010 N 
HETATM    3  C5  UNL     1      -1.735  -0.906   0.883  1.00  0.00     0.233 A 
HETATM    4  C6  UNL     1      -2.259  -0.310   2.003  1.00  0.00     0.021 A 
HETATM    5  C7  UNL     1      -1.164   0.526   1.733  1.00  0.00     0.125 A 
HETATM    6  C8  UNL     1      -0.457   0.063   0.563  1.00  0.00     0.218 A 
HETATM    7  C9  UNL     1      -1.078   1.370   0.422  1.00  0.00     0.163 A 
HETATM    8  N3  UNL     1      -1.970   2.429   0.499  1.00  0.00    -0.293 NA
HETATM    9  C10 UNL     1      -3.307   2.014   0.412  1.00  0.00     0.113 C 
HETATM   10  C11 UNL     1      -3.695   0.717   0.047  1.00  0.00     0.051 C 
HETATM   11  C12 UNL     1      -3.993  -0.635   0.344  1.00  0.00     0.067 C 
HETATM   12  N5  UNL     1      -2.981  -1.504   0.787  1.00  0.00    -0.246 NA
HETATM   13  H5  UNL     1      -1.098  -1.950  -0.869  1.00  0.00     0.285 HD
ENDROOT
BRANCH   1  14
HETATM   14  C3  UNL     1       1.224   0.441  -0.749  1.00  0.00     0.054 C 
BRANCH  14  15
HETATM   15  C2  UNL     1       2.093   0.135  -1.899  1.00  0.00     0.130 C 
BRANCH  15  16
HETATM   16  N1  UNL     1       3.482  -0.105  -1.519  1.00  0.00    -0.356 N 
HETATM   17  C1  UNL     1       4.246   0.890  -0.877  1.00  0.00     0.251 C 
HETATM   18  O1  UNL     1       3.716   1.999  -0.635  1.00  0.00    -0.268 OA
HETATM   19  H1  UNL     1       3.933  -1.013  -1.708  1.00  0.00     0.162 HD
BRANCH  17  20
HETATM   20  C18 UNL     1       5.632   0.700  -0.470  1.00  0.00     0.032 A 
HETATM   21  C19 UNL     1       6.325   1.740   0.146  1.00  0.00     0.017 A 
HETATM   22  C20 UNL     1       7.624   1.699   0.584  1.00  0.00     0.001 A 
HETATM   23  C21 UNL     1       8.324   0.510   0.403  1.00  0.00     0.000 A 
HETATM   24  C22 UNL     1       7.680  -0.575  -0.209  1.00  0.00     0.001 A 
HETATM   25  C23 UNL     1       6.368  -0.472  -0.632  1.00  0.00     0.017 A 
ENDBRANCH  17  20
ENDBRANCH  15  16
ENDBRANCH  14  15
ENDBRANCH   1  14
BRANCH  11  26
HETATM   26  C13 UNL     1      -5.361  -1.108   0.207  1.00  0.00     0.010 A 
HETATM   27  C14 UNL     1      -5.576  -2.456   0.534  1.00  0.00     0.017 A 
HETATM   28  C15 UNL     1      -6.915  -2.818   0.375  1.00  0.00     0.020 A 
HETATM   29  C16 UNL     1      -7.931  -1.984  -0.048  1.00  0.00     0.116 A 
HETATM   30  N4  UNL     1      -7.626  -0.710  -0.336  1.00  0.00    -0.272 NA
HETATM   31  C17 UNL     1      -6.367  -0.273  -0.213  1.00  0.00     0.130 A 
ENDBRANCH  11  26
TORSDOF 5
