REMARK  2 active torsions:
REMARK  status: ('A' for Active; 'I' for Inactive)
REMARK       I    between atoms: C1_2  and  N1_3 
REMARK    1  A    between atoms: C1_2  and  C14_18 
REMARK    2  A    between atoms: N1_3  and  C2_4 
ROOT
HETATM    1  C2  UNL     1      -0.032   0.877   0.575  1.00  0.00     0.013 C 
HETATM    2  C3  UNL     1       0.049   2.215   0.769  1.00  0.00     0.022 C 
HETATM    3  C4  UNL     1      -1.103   3.161   0.939  1.00  0.00    -0.014 C 
HETATM    4  C5  UNL     1      -2.387   3.578   1.032  1.00  0.00     0.061 C 
HETATM    5  C6  UNL     1      -3.859   3.529   1.058  1.00  0.00     0.093 C 
HETATM    6  N2  UNL     1      -4.683   2.520   0.875  1.00  0.00    -0.293 NA
HETATM    7  C7  UNL     1      -4.176   1.219   0.595  1.00  0.00     0.160 C 
HETATM    8  C8  UNL     1      -4.028   0.071  -0.042  1.00  0.00     0.030 C 
HETATM    9  C9  UNL     1      -3.151  -1.082   0.269  1.00  0.00     0.040 A 
HETATM   10  N3  UNL     1      -3.326  -2.200   0.891  1.00  0.00    -0.265 NA
HETATM   11  C10 UNL     1      -2.083  -2.890   0.858  1.00  0.00     0.113 A 
HETATM   12  C11 UNL     1      -1.147  -2.207   0.221  1.00  0.00     0.004 A 
HETATM   13  C12 UNL     1      -1.702  -0.929  -0.258  1.00  0.00     0.067 A 
HETATM   14  C13 UNL     1      -1.336   0.274   0.492  1.00  0.00     0.071 C 
ENDROOT
BRANCH   1  15
HETATM   15  N1  UNL     1       1.289   0.335   0.465  1.00  0.00    -0.327 N 
HETATM   16  C1  UNL     1       1.789  -0.313  -0.692  1.00  0.00     0.255 C 
HETATM   17  O1  UNL     1       0.890  -0.326  -1.592  1.00  0.00    -0.267 OA
HETATM   18  H1  UNL     1       1.972   0.402   1.276  1.00  0.00     0.169 HD
BRANCH  16  19
HETATM   19  C14 UNL     1       3.119  -0.889  -0.859  1.00  0.00     0.032 A 
HETATM   20  C15 UNL     1       4.201  -0.933   0.004  1.00  0.00     0.017 A 
HETATM   21  C16 UNL     1       5.371  -1.549  -0.381  1.00  0.00     0.001 A 
HETATM   22  C17 UNL     1       5.484  -2.133  -1.638  1.00  0.00     0.000 A 
HETATM   23  C18 UNL     1       4.428  -2.111  -2.530  1.00  0.00     0.001 A 
HETATM   24  C19 UNL     1       3.296  -1.491  -2.102  1.00  0.00     0.017 A 
ENDBRANCH  16  19
ENDBRANCH   1  15
TORSDOF 2
