REMARK  1 active torsions:
REMARK  status: ('A' for Active; 'I' for Inactive)
REMARK    1  A    between atoms: N1_3  and  C2_4 
ROOT
HETATM    1  O1  UNL     1       5.528   2.035   1.343  1.00  0.00    -0.260 OA
HETATM    2  C1  UNL     1       5.163   0.997   0.815  1.00  0.00     0.337 C 
HETATM    3  N1  UNL     1       4.927  -0.023   0.115  1.00  0.00    -0.206 NA
ENDROOT
BRANCH   3   4
HETATM    4  C2  UNL     1       3.560  -0.334  -0.182  1.00  0.00     0.061 A 
HETATM    5  C3  UNL     1       3.296  -1.672  -0.374  1.00  0.00     0.032 A 
HETATM    6  C4  UNL     1       1.955  -1.954  -0.662  1.00  0.00     0.016 A 
HETATM    7  C5  UNL     1       0.945  -0.990  -0.754  1.00  0.00    -0.011 A 
HETATM    8  C6  UNL     1       1.251   0.313  -0.558  1.00  0.00    -0.025 A 
HETATM    9  C15 UNL     1      -0.320  -1.650  -1.057  1.00  0.00     0.122 C 
HETATM   10  C7  UNL     1       2.552   0.600  -0.277  1.00  0.00     0.041 A 
HETATM   11  C8  UNL     1       0.390   1.493  -0.609  1.00  0.00     0.187 C 
HETATM   12  N2  UNL     1      -0.974   1.195  -0.309  1.00  0.00    -0.301 NA
HETATM   13  C9  UNL     1      -1.873   2.128  -0.436  1.00  0.00     0.088 C 
HETATM   14  C10 UNL     1      -3.321   2.006  -0.173  1.00  0.00     0.092 C 
HETATM   15  C11 UNL     1      -3.587   0.958   0.852  1.00  0.00     0.089 C 
HETATM   16  N3  UNL     1      -3.031  -0.098   0.381  1.00  0.00    -0.289 NA
HETATM   17  C12 UNL     1      -3.054  -1.325   1.056  1.00  0.00     0.111 A 
HETATM   18  C13 UNL     1      -2.689  -2.499   1.582  1.00  0.00     0.057 A 
HETATM   19  C14 UNL     1      -1.658  -1.789   0.879  1.00  0.00     0.148 A 
HETATM   20  N4  UNL     1      -1.422  -2.023  -0.507  1.00  0.00    -0.292 NA
ENDBRANCH   3   4
TORSDOF 1
