REMARK  4 active torsions:
REMARK  status: ('A' for Active; 'I' for Inactive)
REMARK    1  A    between atoms: C3_4  and  N2_5 
REMARK    2  A    between atoms: N2_5  and  C4_6 
REMARK    3  A    between atoms: C6_8  and  N3_9 
REMARK       I    between atoms: N3_9  and  C7_10 
REMARK    4  A    between atoms: C7_10  and  C8_12 
ROOT
HETATM    1  C4  UNL     1      -1.406  -1.068  -1.568  1.00  0.00     0.057 A 
HETATM    2  C5  UNL     1      -0.477  -0.831  -0.580  1.00  0.00     0.060 A 
HETATM    3  C6  UNL     1       0.689  -1.532  -0.405  1.00  0.00     0.037 A 
HETATM    4  C14 UNL     1       0.988  -2.561  -1.267  1.00  0.00     0.030 A 
HETATM    5  C15 UNL     1       0.095  -2.841  -2.273  1.00  0.00     0.011 A 
HETATM    6  C16 UNL     1      -1.047  -2.122  -2.410  1.00  0.00    -0.035 A 
HETATM    7  C17 UNL     1      -1.970  -2.475  -3.518  1.00  0.00     0.050 C 
ENDROOT
BRANCH   3   8
HETATM    8  N3  UNL     1       1.612  -1.246   0.632  1.00  0.00    -0.323 N 
HETATM    9  C7  UNL     1       2.614  -0.292   0.281  1.00  0.00     0.256 C 
HETATM   10  O1  UNL     1       2.530   0.145  -0.875  1.00  0.00    -0.267 OA
HETATM   11  H6  UNL     1       1.526  -1.719   1.558  1.00  0.00     0.169 HD
BRANCH   9  12
HETATM   12  C8  UNL     1       3.610   0.065   1.287  1.00  0.00     0.032 A 
HETATM   13  C9  UNL     1       3.725  -0.412   2.591  1.00  0.00     0.017 A 
HETATM   14  C10 UNL     1       4.750   0.064   3.379  1.00  0.00     0.001 A 
HETATM   15  C11 UNL     1       5.665   0.975   2.962  1.00  0.00     0.000 A 
HETATM   16  C12 UNL     1       5.566   1.461   1.667  1.00  0.00     0.001 A 
HETATM   17  C13 UNL     1       4.541   1.006   0.832  1.00  0.00     0.017 A 
ENDBRANCH   9  12
ENDBRANCH   3   8
BRANCH   1  18
HETATM   18  N2  UNL     1      -2.613  -0.345  -1.748  1.00  0.00    -0.188 N 
HETATM   19  H4  UNL     1      -3.228  -0.670  -2.552  1.00  0.00     0.184 HD
BRANCH  18  20
HETATM   20  C3  UNL     1      -3.060   0.737  -0.976  1.00  0.00     0.722 A 
HETATM   21  N1  UNL     1      -4.457   1.032  -0.773  1.00  0.00    -0.071 NA
HETATM   22  C2  UNL     1      -4.498   2.091  -0.017  1.00  0.00     0.048 A 
HETATM   23  C1  UNL     1      -5.700   2.811   0.491  1.00  0.00     0.068 C 
HETATM   24  C18 UNL     1      -3.111   2.519   0.298  1.00  0.00     0.223 A 
HETATM   25  N4  UNL     1      -2.282   1.549  -0.391  1.00  0.00    -0.100 NA
ENDBRANCH  18  20
ENDBRANCH   1  18
TORSDOF 4
