REMARK  7 active torsions:
REMARK  status: ('A' for Active; 'I' for Inactive)
REMARK    1  A    between atoms: C2_2  and  C3_3 
REMARK       I    between atoms: C3_3  and  N1_5 
REMARK    2  A    between atoms: N1_5  and  C4_6 
REMARK    3  A    between atoms: C9_11  and  C10_12 
REMARK    4  A    between atoms: C11_14  and  N3_15 
REMARK    5  A    between atoms: C11_14  and  C12_16 
REMARK    6  A    between atoms: N4_19  and  C15_20 
REMARK    7  A    between atoms: C15_20  and  O2_21 
ROOT
HETATM    1  C10 UNL     1       0.251  -0.218   0.846  1.00  0.00     0.057 C 
HETATM    2  N2  UNL     1      -0.860   0.432   0.442  1.00  0.00    -0.231 NA
HETATM    3  C11 UNL     1      -2.109  -0.343   0.884  1.00  0.00     0.355 C 
HETATM    4  N6  UNL     1      -1.694  -1.673   1.232  1.00  0.00    -0.248 N 
HETATM    5  C16 UNL     1      -0.766  -2.830   0.942  1.00  0.00     0.092 A 
HETATM    6  C17 UNL     1      -0.016  -1.642   0.982  1.00  0.00     0.050 A 
HETATM    7  C18 UNL     1      -1.103  -1.646  -0.060  1.00  0.00     0.119 A 
ENDROOT
BRANCH   1   8
HETATM    8  C9  UNL     1       1.607   0.303   1.200  1.00  0.00    -0.003 A 
HETATM    9  C7  UNL     1       1.923   0.537   2.522  1.00  0.00    -0.050 A 
HETATM   10  C6  UNL     1       3.187   1.016   2.785  1.00  0.00     0.010 A 
HETATM   11  C8  UNL     1       0.926   0.276   3.596  1.00  0.00     0.049 C 
HETATM   12  C5  UNL     1       4.106   1.256   1.789  1.00  0.00     0.030 A 
HETATM   13  C4  UNL     1       3.808   1.029   0.468  1.00  0.00     0.035 A 
HETATM   14  C19 UNL     1       2.545   0.552   0.229  1.00  0.00     0.043 A 
BRANCH  13  15
HETATM   15  N1  UNL     1       4.797   1.296  -0.504  1.00  0.00    -0.324 N 
HETATM   16  C3  UNL     1       4.746   1.153  -1.911  1.00  0.00     0.244 C 
HETATM   17  O1  UNL     1       3.708   0.734  -2.453  1.00  0.00    -0.268 OA
HETATM   18  H4  UNL     1       5.728   1.656  -0.205  1.00  0.00     0.169 HD
BRANCH  16  19
HETATM   19  C2  UNL     1       5.834   1.461  -2.822  1.00  0.00     0.064 C 
HETATM   20  C1  UNL     1       5.368   1.188  -4.030  1.00  0.00     0.017 C 
ENDBRANCH  16  19
ENDBRANCH  13  15
ENDBRANCH   1   8
BRANCH   3  21
HETATM   21  N3  UNL     1      -2.481   0.379   2.119  1.00  0.00     0.131 N 
HETATM   22  H10 UNL     1      -3.488   0.263   2.349  1.00  0.00     0.318 HD
HETATM   23  H11 UNL     1      -2.264   1.384   1.965  1.00  0.00     0.318 HD
ENDBRANCH   3  21
BRANCH   3  24
HETATM   24  C12 UNL     1      -3.131  -0.259  -0.118  1.00  0.00     0.132 A 
HETATM   25  C13 UNL     1      -3.278   0.425  -1.331  1.00  0.00     0.054 A 
HETATM   26  C14 UNL     1      -4.506   0.111  -1.899  1.00  0.00     0.117 A 
HETATM   27  N4  UNL     1      -5.054  -0.745  -1.018  1.00  0.00    -0.257 N 
HETATM   28  N5  UNL     1      -4.265  -0.966   0.018  1.00  0.00    -0.169 NA
BRANCH  27  29
HETATM   29  C15 UNL     1      -6.365  -1.315  -1.254  1.00  0.00     0.314 C 
BRANCH  29  30
HETATM   30  O2  UNL     1      -6.340  -2.503  -1.957  1.00  0.00    -0.380 OA
HETATM   31  H16 UNL     1      -6.895  -3.216  -1.552  1.00  0.00     0.211 HD
ENDBRANCH  29  30
ENDBRANCH  27  29
ENDBRANCH   3  24
TORSDOF 7
