REMARK  5 active torsions:
REMARK  status: ('A' for Active; 'I' for Inactive)
REMARK    1  A    between atoms: C2_2  and  C3_3 
REMARK    2  A    between atoms: C4_4  and  N1_5 
REMARK    3  A    between atoms: C4_4  and  C5_6 
REMARK    4  A    between atoms: C8_10  and  N3_11 
REMARK    5  A    between atoms: C15_18  and  C16_19 
ROOT
HETATM    1  N3  UNL     1       0.459   2.102  -0.583  1.00  0.00    -0.157 N 
HETATM    2  C9  UNL     1       0.713   3.130   0.404  1.00  0.00     0.112 C 
HETATM    3  C10 UNL     1       2.024   3.372   0.566  1.00  0.00     0.004 C 
HETATM    4  C11 UNL     1       2.949   2.270   0.293  1.00  0.00     0.056 C 
HETATM    5  C12 UNL     1       3.103   1.241   1.316  1.00  0.00    -0.018 C 
HETATM    6  C13 UNL     1       3.257  -0.057   1.657  1.00  0.00    -0.023 C 
HETATM    7  C14 UNL     1       3.354  -1.304   0.927  1.00  0.00     0.032 A 
HETATM    8  C15 UNL     1       3.313  -1.897  -0.232  1.00  0.00     0.024 A 
HETATM    9  C18 UNL     1       2.620  -1.414  -1.481  1.00  0.00     0.070 A 
HETATM   10  O1  UNL     1       2.543  -0.865  -0.326  1.00  0.00     0.000 OA
HETATM   11  N4  UNL     1       1.822  -0.688  -2.437  1.00  0.00    -0.403 N 
HETATM   12  C19 UNL     1       0.935   0.416  -2.128  1.00  0.00     0.173 C 
HETATM   13  C20 UNL     1       1.541   1.442  -1.296  1.00  0.00     0.048 C 
HETATM   14  C21 UNL     1       2.792   1.746  -1.092  1.00  0.00     0.013 C 
HETATM   15  H18 UNL     1       2.462  -1.493  -2.706  1.00  0.00     0.186 HD
ENDROOT
BRANCH   1  16
HETATM   16  C8  UNL     1      -0.955   1.852  -0.709  1.00  0.00     0.733 A 
HETATM   17  N2  UNL     1      -1.862   2.350  -1.559  1.00  0.00    -0.074 NA
HETATM   18  C7  UNL     1      -3.151   2.021  -1.541  1.00  0.00     0.139 A 
HETATM   19  C6  UNL     1      -3.526   1.104  -0.561  1.00  0.00     0.054 A 
HETATM   20  C5  UNL     1      -2.625   0.570   0.331  1.00  0.00     0.103 A 
HETATM   21  N5  UNL     1      -1.372   0.971   0.217  1.00  0.00    -0.060 NA
BRANCH  20  22
HETATM   22  C4  UNL     1      -3.004  -0.388   1.359  1.00  0.00     0.055 C 
HETATM   23  C3  UNL     1      -4.223  -0.853   1.538  1.00  0.00     0.027 C 
BRANCH  23  24
HETATM   24  C2  UNL     1      -5.644  -0.990   1.265  1.00  0.00    -0.024 C 
HETATM   25  C1  UNL     1      -6.897  -1.375   1.336  1.00  0.00     0.031 C 
ENDBRANCH  23  24
BRANCH  22  26
HETATM   26  N1  UNL     1      -2.047  -0.903   2.269  1.00  0.00    -0.397 N 
HETATM   27  H5  UNL     1      -2.263  -0.463   3.182  1.00  0.00     0.156 HD
HETATM   28  H6  UNL     1      -1.313  -1.594   1.954  1.00  0.00     0.156 HD
ENDBRANCH  22  26
ENDBRANCH  20  22
ENDBRANCH   1  16
BRANCH   8  29
HETATM   29  C16 UNL     1       3.531  -3.339  -0.444  1.00  0.00    -0.023 C 
HETATM   30  C17 UNL     1       3.491  -3.902  -1.624  1.00  0.00     0.008 C 
ENDBRANCH   8  29
TORSDOF 5
