REMARK  7 active torsions:
REMARK  status: ('A' for Active; 'I' for Inactive)
REMARK    1  A    between atoms: C2_2  and  C3_3 
REMARK       I    between atoms: C3_3  and  N1_5 
REMARK    2  A    between atoms: N1_5  and  C4_6 
REMARK    3  A    between atoms: C8_10  and  O2_11 
REMARK    4  A    between atoms: O2_11  and  C9_12 
REMARK    5  A    between atoms: C9_12  and  C10_13 
REMARK    6  A    between atoms: C12_16  and  N3_17 
REMARK    7  A    between atoms: C18_26  and  C19_27 
ROOT
HETATM    1  C10 UNL     1      -0.950   1.770   0.697  1.00  0.00     0.060 A 
HETATM    2  C11 UNL     1      -2.306   1.516   0.671  1.00  0.00     0.133 A 
HETATM    3  N2  UNL     1      -3.722   1.284   0.839  1.00  0.00    -0.220 N 
HETATM    4  C12 UNL     1      -4.418   1.652   1.826  1.00  0.00     0.140 A 
HETATM    5  C13 UNL     1      -5.558   1.023   1.113  1.00  0.00     0.166 A 
HETATM    6  N4  UNL     1      -4.811   0.689   0.157  1.00  0.00    -0.264 N 
HETATM    7  C14 UNL     1      -5.126  -0.002  -1.027  1.00  0.00     0.140 C 
HETATM    8  C15 UNL     1      -4.237  -0.564  -1.878  1.00  0.00     0.019 C 
HETATM    9  C16 UNL     1      -4.680  -1.274  -3.103  1.00  0.00     0.069 C 
HETATM   10  N5  UNL     1      -2.979  -0.303  -1.324  1.00  0.00    -0.380 N 
HETATM   11  C17 UNL     1      -2.595   1.075  -1.571  1.00  0.00     0.224 C 
HETATM   12  N6  UNL     1      -1.611   1.435  -0.532  1.00  0.00    -0.214 NA
HETATM   13  H17 UNL     1      -2.875  -1.268  -0.963  1.00  0.00     0.160 HD
ENDROOT
BRANCH   1  14
HETATM   14  C9  UNL     1       0.215   2.129   1.544  1.00  0.00     0.230 C 
BRANCH  14  15
HETATM   15  O2  UNL     1       1.171   1.127   1.474  1.00  0.00    -0.345 OA
BRANCH  15  16
HETATM   16  C8  UNL     1       1.794   0.787   0.309  1.00  0.00     0.081 A 
HETATM   17  C7  UNL     1       1.687   1.272  -0.958  1.00  0.00     0.038 A 
HETATM   18  C6  UNL     1       2.404   0.805  -2.031  1.00  0.00     0.005 A 
HETATM   19  C5  UNL     1       3.309  -0.221  -1.884  1.00  0.00     0.030 A 
HETATM   20  C4  UNL     1       3.444  -0.732  -0.633  1.00  0.00     0.048 A 
HETATM   21  C18 UNL     1       2.718  -0.251   0.427  1.00  0.00     0.023 A 
BRANCH  20  22
HETATM   22  N1  UNL     1       4.375  -1.806  -0.420  1.00  0.00    -0.323 N 
HETATM   23  C3  UNL     1       5.687  -1.377  -0.085  1.00  0.00     0.244 C 
HETATM   24  O1  UNL     1       5.770  -0.110  -0.041  1.00  0.00    -0.268 OA
HETATM   25  H4  UNL     1       4.168  -2.835  -0.490  1.00  0.00     0.169 HD
BRANCH  23  26
HETATM   26  C2  UNL     1       6.785  -2.271   0.173  1.00  0.00     0.064 C 
HETATM   27  C1  UNL     1       6.683  -3.586   0.124  1.00  0.00     0.017 C 
ENDBRANCH  23  26
ENDBRANCH  20  22
BRANCH  21  28
HETATM   28  C19 UNL     1       2.973  -0.895   1.697  1.00  0.00     0.006 C 
HETATM   29  C20 UNL     1       2.396  -0.603   2.843  1.00  0.00     0.012 C 
ENDBRANCH  21  28
ENDBRANCH  15  16
ENDBRANCH  14  15
ENDBRANCH   1  14
BRANCH   4  30
HETATM   30  N3  UNL     1      -4.580   2.288   3.089  1.00  0.00    -0.383 N 
HETATM   31  H10 UNL     1      -4.291   1.450   3.641  1.00  0.00     0.157 HD
HETATM   32  H11 UNL     1      -4.906   3.299   3.101  1.00  0.00     0.157 HD
ENDBRANCH   4  30
TORSDOF 7
