REMARK  3 active torsions:
REMARK  status: ('A' for Active; 'I' for Inactive)
REMARK    1  A    between atoms: N1_7  and  C7_8 
REMARK    2  A    between atoms: C13_15  and  N4_19 
REMARK    3  A    between atoms: C15_18  and  N4_19 
ROOT
HETATM    1  C7  UNL     1      -0.185  -0.093   0.684  1.00  0.00     0.724 C 
HETATM    2  N2  UNL     1      -0.650  -1.381   0.616  1.00  0.00    -0.079 NA
HETATM    3  C8  UNL     1      -1.636  -1.761  -0.261  1.00  0.00     0.116 C 
HETATM    4  C9  UNL     1      -2.982  -1.929   0.257  1.00  0.00     0.050 A 
HETATM    5  C10 UNL     1      -3.114  -0.533   0.487  1.00  0.00     0.002 A 
HETATM    6  C11 UNL     1      -3.411   0.171  -0.699  1.00  0.00    -0.035 A 
HETATM    7  C12 UNL     1      -2.867   0.945   0.297  1.00  0.00     0.031 A 
HETATM    8  C13 UNL     1      -2.551   0.328   1.488  1.00  0.00     0.009 A 
HETATM    9  C14 UNL     1      -1.629   1.189   2.135  1.00  0.00     0.143 A 
HETATM   10  N3  UNL     1      -0.471   1.017   1.416  1.00  0.00    -0.099 NA
HETATM   11  C15 UNL     1      -2.253  -0.338   2.657  1.00  0.00     0.031 A 
HETATM   12  N4  UNL     1      -2.781  -1.100   1.690  1.00  0.00     0.000 N 
ENDROOT
BRANCH   1  13
HETATM   13  N1  UNL     1       0.907   0.167  -0.236  1.00  0.00    -0.180 N 
HETATM   14  C5  UNL     1       1.338   1.478  -0.605  1.00  0.00     0.025 A 
HETATM   15  C4  UNL     1       2.383   1.716  -1.367  1.00  0.00     0.025 A 
HETATM   16  C6  UNL     1       0.619   2.659  -0.112  1.00  0.00     0.069 C 
HETATM   17  C3  UNL     1       3.167   0.651  -1.914  1.00  0.00     0.006 A 
HETATM   18  C2  UNL     1       2.771  -0.567  -1.606  1.00  0.00    -0.065 A 
HETATM   19  C1  UNL     1       3.509  -1.765  -2.114  1.00  0.00     0.045 C 
HETATM   20  C16 UNL     1       1.624  -0.989  -0.798  1.00  0.00     0.181 A 
ENDBRANCH   1  13
TORSDOF 3
