REMARK  5 active torsions:
REMARK  status: ('A' for Active; 'I' for Inactive)
REMARK    1  A    between atoms: C5_5  and  N1_6 
REMARK    2  A    between atoms: N1_6  and  C6_7 
REMARK    3  A    between atoms: C8_10  and  N2_11 
REMARK    4  A    between atoms: N2_11  and  C9_12 
REMARK    5  A    between atoms: C12_16  and  C13_17 
ROOT
HETATM    1  N2  UNL     1       0.559  -0.327  -0.873  1.00  0.00    -0.188 N 
HETATM    2  H7  UNL     1       0.238  -0.889  -1.714  1.00  0.00     0.184 HD
ENDROOT
BRANCH   1   3
HETATM    3  C8  UNL     1       1.954  -0.118  -0.811  1.00  0.00     0.057 A 
HETATM    4  C2  UNL     1       2.808  -0.618  -1.783  1.00  0.00    -0.035 A 
HETATM    5  C1  UNL     1       2.227  -1.397  -2.922  1.00  0.00     0.050 C 
HETATM    6  C3  UNL     1       4.167  -0.438  -1.761  1.00  0.00     0.011 A 
HETATM    7  C4  UNL     1       4.770   0.269  -0.743  1.00  0.00     0.032 A 
HETATM    8  C5  UNL     1       3.970   0.790   0.251  1.00  0.00     0.063 A 
HETATM    9  C7  UNL     1       2.623   0.575   0.171  1.00  0.00     0.062 A 
BRANCH   8  10
HETATM   10  N1  UNL     1       4.581   1.521   1.307  1.00  0.00    -0.206 NA
BRANCH  10  11
HETATM   11  C6  UNL     1       5.686   1.114   1.797  1.00  0.00     0.337 C 
HETATM   12  O1  UNL     1       6.884   0.934   2.122  1.00  0.00    -0.260 OA
ENDBRANCH  10  11
ENDBRANCH   8  10
ENDBRANCH   1   3
BRANCH   1  13
HETATM   13  C9  UNL     1      -0.433   0.112   0.028  1.00  0.00     0.727 A 
HETATM   14  N3  UNL     1      -0.244   0.828   1.142  1.00  0.00    -0.075 NA
HETATM   15  C10 UNL     1      -1.203   1.234   1.984  1.00  0.00     0.138 A 
HETATM   16  C11 UNL     1      -2.501   0.886   1.679  1.00  0.00     0.048 A 
HETATM   17  C12 UNL     1      -2.755   0.148   0.543  1.00  0.00     0.067 A 
HETATM   18  N5  UNL     1      -1.715  -0.199  -0.220  1.00  0.00    -0.066 NA
BRANCH  17  19
HETATM   19  C13 UNL     1      -4.132  -0.228   0.208  1.00  0.00     0.103 A 
HETATM   20  C14 UNL     1      -4.840  -0.928   1.288  1.00  0.00     0.009 A 
HETATM   21  C15 UNL     1      -5.941  -0.241   1.622  1.00  0.00     0.113 A 
HETATM   22  N4  UNL     1      -6.038   0.939   0.804  1.00  0.00    -0.276 NA
HETATM   23  C16 UNL     1      -5.018   0.967  -0.009  1.00  0.00     0.104 A 
ENDBRANCH  17  19
ENDBRANCH   1  13
TORSDOF 5
