REMARK  6 active torsions:
REMARK  status: ('A' for Active; 'I' for Inactive)
REMARK    1  A    between atoms: C2_2  and  C3_3 
REMARK       I    between atoms: C3_3  and  N1_5 
REMARK    2  A    between atoms: N1_5  and  C4_6 
REMARK    3  A    between atoms: C8_10  and  O2_11 
REMARK    4  A    between atoms: O2_11  and  C9_12 
REMARK    5  A    between atoms: C12_17  and  N4_18 
REMARK    6  A    between atoms: N4_18  and  C13_19 
ROOT
HETATM    1  C9  UNL     1       0.141  -0.607  -0.041  1.00  0.00     0.218 A 
HETATM    2  N2  UNL     1      -0.162  -0.561  -1.343  1.00  0.00    -0.145 NA
HETATM    3  N3  UNL     1       0.906  -0.301  -2.073  1.00  0.00    -0.281 N 
HETATM    4  C10 UNL     1       0.961  -0.177  -3.524  1.00  0.00     0.179 C 
HETATM    5  C11 UNL     1       1.909  -0.180  -1.208  1.00  0.00     0.146 A 
HETATM    6  C12 UNL     1       1.502  -0.360   0.097  1.00  0.00     0.121 A 
ENDROOT
BRANCH   1   7
HETATM    7  O2  UNL     1      -0.730  -0.854   1.016  1.00  0.00    -0.289 OA
BRANCH   7   8
HETATM    8  C8  UNL     1      -2.074  -1.088   0.761  1.00  0.00     0.080 A 
HETATM    9  C7  UNL     1      -2.445  -2.421   0.550  1.00  0.00     0.037 A 
HETATM   10  C6  UNL     1      -3.767  -2.702   0.294  1.00  0.00     0.005 A 
HETATM   11  C5  UNL     1      -4.744  -1.739   0.235  1.00  0.00     0.029 A 
HETATM   12  C4  UNL     1      -4.377  -0.413   0.444  1.00  0.00     0.037 A 
HETATM   13  C18 UNL     1      -3.054  -0.119   0.702  1.00  0.00     0.066 A 
BRANCH  12  14
HETATM   14  N1  UNL     1      -5.236   0.745   0.426  1.00  0.00    -0.324 N 
HETATM   15  C3  UNL     1      -5.328   1.310  -0.879  1.00  0.00     0.244 C 
HETATM   16  O1  UNL     1      -4.685   0.775  -1.845  1.00  0.00    -0.268 OA
HETATM   17  H4  UNL     1      -5.741   1.140   1.262  1.00  0.00     0.169 HD
BRANCH  15  18
HETATM   18  C2  UNL     1      -6.150   2.489  -1.108  1.00  0.00     0.064 C 
HETATM   19  C1  UNL     1      -6.838   3.099  -0.183  1.00  0.00     0.017 C 
ENDBRANCH  15  18
ENDBRANCH  12  14
ENDBRANCH   7   8
ENDBRANCH   1   7
BRANCH   6  20
HETATM   20  N4  UNL     1       2.255  -0.313   1.302  1.00  0.00    -0.182 N 
HETATM   21  H12 UNL     1       1.751  -0.481   2.198  1.00  0.00     0.184 HD
BRANCH  20  22
HETATM   22  C13 UNL     1       3.650  -0.044   1.254  1.00  0.00     0.725 A 
HETATM   23  N5  UNL     1       4.301   0.605   0.315  1.00  0.00    -0.073 NA
HETATM   24  C14 UNL     1       5.672   0.661   0.648  1.00  0.00     0.278 A 
HETATM   25  N6  UNL     1       6.610  -0.072  -0.158  1.00  0.00    -0.371 N 
HETATM   26  C17 UNL     1       5.771  -0.165   1.917  1.00  0.00     0.099 A 
HETATM   27  C15 UNL     1       7.702  -0.024   0.807  1.00  0.00     0.087 C 
HETATM   28  H14 UNL     1       6.884  -0.584  -1.024  1.00  0.00     0.161 HD
HETATM   29  C16 UNL     1       7.243  -0.076   2.081  1.00  0.00     0.048 C 
HETATM   30  N7  UNL     1       4.572  -0.512   2.236  1.00  0.00    -0.064 NA
ENDBRANCH  20  22
ENDBRANCH   6  20
TORSDOF 6
