REMARK  4 active torsions:
REMARK  status: ('A' for Active; 'I' for Inactive)
REMARK    1  A    between atoms: C3_4  and  N2_5 
REMARK    2  A    between atoms: N2_5  and  C4_6 
REMARK    3  A    between atoms: C6_9  and  C7_10 
REMARK    4  A    between atoms: C12_19  and  C13_20 
ROOT
HETATM    1  C4  UNL     1      -2.435  -1.144   0.611  1.00  0.00     0.704 C 
HETATM    2  N3  UNL     1      -1.693  -0.484  -0.213  1.00  0.00    -0.076 NA
HETATM    3  C5  UNL     1      -0.310  -0.185  -0.051  1.00  0.00     0.151 C 
HETATM    4  C6  UNL     1       0.627  -0.604   0.786  1.00  0.00     0.050 C 
HETATM    5  C14 UNL     1       0.345  -1.574   1.847  1.00  0.00     0.063 C 
HETATM    6 CL1  UNL     1       1.720  -2.253   2.697  1.00  0.00    -0.082 Cl
HETATM    7  C15 UNL     1      -0.810  -2.059   2.304  1.00  0.00     0.130 C 
HETATM    8  N5  UNL     1      -2.159  -1.768   1.882  1.00  0.00    -0.198 N 
HETATM    9  H19 UNL     1      -2.976  -1.990   2.462  1.00  0.00     0.183 HD
ENDROOT
BRANCH   4  10
HETATM   10  C7  UNL     1       2.004  -0.105   0.709  1.00  0.00     0.247 C 
HETATM   11  F1  UNL     1       2.828  -1.259   0.732  1.00  0.00    -0.205 F 
HETATM   12  O1  UNL     1       2.278   0.573  -0.438  1.00  0.00    -0.347 OA
HETATM   13  C8  UNL     1       2.453  -0.092  -1.618  1.00  0.00     0.173 C 
HETATM   14  C9  UNL     1       3.777  -0.833  -1.641  1.00  0.00     0.048 C 
HETATM   15  C10 UNL     1       4.932   0.149  -1.541  1.00  0.00     0.148 C 
HETATM   16  N4  UNL     1       4.746   1.252  -0.704  1.00  0.00    -0.303 N 
HETATM   17  O2  UNL     1       4.091   1.370   0.333  1.00  0.00    -0.284 OA
HETATM   18  H13 UNL     1       5.166   2.150  -1.046  1.00  0.00     0.187 HD
HETATM   19  C11 UNL     1       4.054   0.807   1.508  1.00  0.00     0.217 C 
HETATM   20  C12 UNL     1       2.529   0.683   1.879  1.00  0.00     0.149 C 
BRANCH  20  21
HETATM   21  C13 UNL     1       2.056   2.092   1.972  1.00  0.00     0.365 C 
HETATM   22  F2  UNL     1       0.695   2.215   2.082  1.00  0.00    -0.214 F 
HETATM   23  F3  UNL     1       2.607   2.614   3.129  1.00  0.00    -0.214 F 
ENDBRANCH  20  21
ENDBRANCH   4  10
BRANCH   1  24
HETATM   24  N2  UNL     1      -3.769  -1.276   0.171  1.00  0.00    -0.187 N 
HETATM   25  H5  UNL     1      -4.320  -2.091   0.546  1.00  0.00     0.184 HD
BRANCH  24  26
HETATM   26  C3  UNL     1      -4.414  -0.390  -0.732  1.00  0.00     0.085 A 
HETATM   27  C2  UNL     1      -5.721  -0.499  -1.209  1.00  0.00     0.143 A 
HETATM   28  N1  UNL     1      -5.982   0.522  -2.043  1.00  0.00    -0.283 N 
HETATM   29  C1  UNL     1      -7.235   0.780  -2.756  1.00  0.00     0.179 C 
HETATM   30  N6  UNL     1      -4.904   1.289  -2.129  1.00  0.00    -0.183 NA
HETATM   31  C16 UNL     1      -3.951   0.753  -1.346  1.00  0.00     0.170 A 
ENDBRANCH  24  26
ENDBRANCH   1  24
TORSDOF 4
