REMARK  6 active torsions:
REMARK  status: ('A' for Active; 'I' for Inactive)
REMARK    1  A    between atoms: C3_4  and  C4_5 
REMARK    2  A    between atoms: N2_6  and  C5_7 
REMARK    3  A    between atoms: C5_7  and  N3_8 
REMARK    4  A    between atoms: C7_11  and  C8_12 
REMARK    5  A    between atoms: C8_12  and  N5_13 
REMARK    6  A    between atoms: N5_13  and  C9_14 
ROOT
HETATM    1  N3  UNL     1      -0.120   0.020  -1.481  1.00  0.00    -0.229 NA
HETATM    2  C6  UNL     1       0.799  -0.096  -0.592  1.00  0.00     0.243 A 
HETATM    3  N4  UNL     1       2.128   0.248  -1.034  1.00  0.00    -0.323 N 
HETATM    4  C7  UNL     1       3.225   0.156  -0.132  1.00  0.00     0.028 A 
HETATM    5  C11 UNL     1       3.010  -0.244   1.101  1.00  0.00     0.026 A 
HETATM    6  C12 UNL     1       1.679  -0.619   1.648  1.00  0.00     0.208 A 
HETATM    7  O1  UNL     1       0.642  -0.506   0.707  1.00  0.00    -0.317 OA
HETATM    8  H8  UNL     1       2.298   0.569  -2.025  1.00  0.00     0.169 HD
ENDROOT
BRANCH   1   9
HETATM    9  C5  UNL     1      -1.511  -0.301  -1.149  1.00  0.00     0.301 C 
BRANCH   9  10
HETATM   10  N2  UNL     1      -2.153   0.975  -0.908  1.00  0.00    -0.279 NA
HETATM   11  C4  UNL     1      -3.366   1.154  -0.579  1.00  0.00     0.126 C 
BRANCH  11  12
HETATM   12  C3  UNL     1      -4.534   0.333  -0.319  1.00  0.00     0.017 A 
HETATM   13  C2  UNL     1      -5.782   0.781   0.035  1.00  0.00     0.126 A 
HETATM   14  N1  UNL     1      -6.492  -0.355   0.156  1.00  0.00    -0.285 N 
HETATM   15  C1  UNL     1      -7.910  -0.389   0.527  1.00  0.00     0.179 C 
HETATM   16  N6  UNL     1      -5.750  -1.440  -0.100  1.00  0.00    -0.185 NA
HETATM   17  C13 UNL     1      -4.490  -1.035  -0.408  1.00  0.00     0.153 A 
ENDBRANCH  11  12
ENDBRANCH   9  10
ENDBRANCH   1   9
BRANCH   4  18
HETATM   18  C8  UNL     1       4.569   0.526  -0.651  1.00  0.00     0.175 C 
BRANCH  18  19
HETATM   19  N5  UNL     1       5.598   0.398   0.336  1.00  0.00    -0.393 N 
HETATM   20  H11 UNL     1       5.780   0.129   1.341  1.00  0.00     0.159 HD
BRANCH  19  21
HETATM   21  C9  UNL     1       6.867   0.765  -0.217  1.00  0.00     0.095 C 
HETATM   22  C10 UNL     1       7.784  -0.185  -0.404  1.00  0.00     0.101 C 
HETATM   23 CL1  UNL     1       7.242  -1.791   0.084  1.00  0.00    -0.096 Cl
ENDBRANCH  19  21
ENDBRANCH  18  19
ENDBRANCH   4  18
TORSDOF 6
