REMARK  6 active torsions:
REMARK  status: ('A' for Active; 'I' for Inactive)
REMARK    1  A    between atoms: C2_2  and  C3_3 
REMARK       I    between atoms: C3_3  and  N1_5 
REMARK    2  A    between atoms: C5_7  and  C6_8 
REMARK    3  A    between atoms: C6_8  and  O2_9 
REMARK    4  A    between atoms: C7_10  and  C8_11 
REMARK    5  A    between atoms: C8_11  and  O3_12 
REMARK    6  A    between atoms: O3_12  and  C9_13 
ROOT
HETATM    1  C3  UNL     1      -3.563   0.996   0.260  1.00  0.00     0.242 C 
HETATM    2  O1  UNL     1      -4.332   0.171   0.815  1.00  0.00    -0.268 OA
HETATM    3  N1  UNL     1      -2.442   0.344  -0.308  1.00  0.00    -0.348 N 
HETATM    4  C4  UNL     1      -2.208  -1.060  -0.265  1.00  0.00     0.133 C 
HETATM    5  C5  UNL     1      -0.709  -1.246   0.013  1.00  0.00     0.035 C 
HETATM    6  C7  UNL     1      -0.113  -0.010  -0.470  1.00  0.00     0.036 C 
HETATM    7  C13 UNL     1      -1.256   0.796  -1.058  1.00  0.00     0.133 C 
ENDROOT
BRANCH   6   8
HETATM    8  C8  UNL     1       1.040   0.005  -1.369  1.00  0.00     0.184 C 
BRANCH   8   9
HETATM    9  O3  UNL     1       2.215  -0.598  -0.877  1.00  0.00    -0.333 OA
BRANCH   9  10
HETATM   10  C9  UNL     1       2.833  -0.153   0.257  1.00  0.00     0.189 A 
HETATM   11  N2  UNL     1       2.482   0.869   1.076  1.00  0.00    -0.216 NA
HETATM   12  C10 UNL     1       3.210   1.167   2.152  1.00  0.00     0.235 A 
HETATM   13  N3  UNL     1       4.336   0.481   2.500  1.00  0.00    -0.252 NA
HETATM   14  C11 UNL     1       4.722  -0.544   1.712  1.00  0.00     0.146 A 
HETATM   15  C12 UNL     1       3.979  -0.876   0.582  1.00  0.00     0.104 A 
HETATM   16 CL1  UNL     1       4.612  -2.227  -0.331  1.00  0.00    -0.078 Cl
ENDBRANCH   9  10
ENDBRANCH   8   9
ENDBRANCH   6   8
BRANCH   5  17
HETATM   17  C6  UNL     1      -0.332  -2.552  -0.540  1.00  0.00     0.170 C 
BRANCH  17  18
HETATM   18  O2  UNL     1       1.014  -2.802  -0.318  1.00  0.00    -0.400 OA
HETATM   19  H9  UNL     1       1.129  -3.763  -0.585  1.00  0.00     0.209 HD
ENDBRANCH  17  18
ENDBRANCH   5  17
BRANCH   1  20
HETATM   20  C2  UNL     1      -3.878   2.413   0.261  1.00  0.00     0.064 C 
HETATM   21  C1  UNL     1      -3.092   3.303  -0.313  1.00  0.00     0.017 C 
ENDBRANCH   1  20
TORSDOF 6
