REMARK  4 active torsions:
REMARK  status: ('A' for Active; 'I' for Inactive)
REMARK    1  A    between atoms: C2_2  and  C3_3 
REMARK       I    between atoms: C3_3  and  N1_5 
REMARK    2  A    between atoms: N4_16  and  C11_17 
REMARK    3  A    between atoms: C11_17  and  N5_18 
REMARK    4  A    between atoms: N5_18  and  C12_19 
ROOT
HETATM    1  C3  UNL     1      -4.662   2.363   0.079  1.00  0.00     0.242 C 
HETATM    2  O1  UNL     1      -4.570   3.497   0.617  1.00  0.00    -0.268 OA
HETATM    3  N1  UNL     1      -3.634   1.391  -0.073  1.00  0.00    -0.343 N 
HETATM    4  C4  UNL     1      -3.779   0.072  -0.708  1.00  0.00     0.183 C 
HETATM    5  C5  UNL     1      -2.576  -0.697  -0.222  1.00  0.00     0.065 C 
HETATM    6  N2  UNL     1      -2.464  -1.919   0.240  1.00  0.00    -0.139 NA
HETATM    7  O2  UNL     1      -3.522  -2.747   0.356  1.00  0.00    -0.223 OA
HETATM    8  C6  UNL     1      -3.943  -3.451   1.446  1.00  0.00     0.499 C 
HETATM    9  N3  UNL     1      -3.007  -3.865   2.244  1.00  0.00    -0.392 NA
HETATM   10  C7  UNL     1      -1.633  -3.591   1.978  1.00  0.00     0.071 C 
HETATM   11  C8  UNL     1      -0.371  -3.497   1.534  1.00  0.00    -0.003 C 
HETATM   12  C9  UNL     1       0.623  -2.598   2.233  1.00  0.00     0.114 C 
HETATM   13  C10 UNL     1       0.997  -1.552   1.213  1.00  0.00     0.140 C 
HETATM   14  N4  UNL     1       2.164  -1.334   0.854  1.00  0.00    -0.251 NA
HETATM   15  O3  UNL     1      -0.191  -0.985   0.847  1.00  0.00    -0.337 OA
HETATM   16  C16 UNL     1      -0.205   0.105  -0.060  1.00  0.00     0.189 C 
HETATM   17  C17 UNL     1      -1.629   0.413  -0.466  1.00  0.00     0.080 C 
HETATM   18  C18 UNL     1      -2.253   1.514   0.369  1.00  0.00     0.139 C 
ENDROOT
BRANCH  14  19
HETATM   19  C11 UNL     1       2.773  -0.440  -0.056  1.00  0.00     0.273 C 
BRANCH  19  20
HETATM   20  N5  UNL     1       4.235  -0.388   0.173  1.00  0.00    -0.369 N 
HETATM   21  H13 UNL     1       4.775  -0.926   0.894  1.00  0.00     0.161 HD
BRANCH  20  22
HETATM   22  C12 UNL     1       4.956   0.491  -0.689  1.00  0.00     0.066 A 
HETATM   23  C13 UNL     1       4.391   1.265  -1.685  1.00  0.00     0.169 A 
HETATM   24  N6  UNL     1       5.403   1.958  -2.275  1.00  0.00    -0.183 NA
HETATM   25  N7  UNL     1       6.550   1.652  -1.699  1.00  0.00    -0.283 N 
HETATM   26  C14 UNL     1       7.896   2.129  -1.977  1.00  0.00     0.179 C 
HETATM   27  C15 UNL     1       6.304   0.745  -0.712  1.00  0.00     0.142 A 
ENDBRANCH  20  22
ENDBRANCH  19  20
ENDBRANCH  14  19
BRANCH   1  28
HETATM   28  C2  UNL     1      -5.998   2.078  -0.424  1.00  0.00     0.064 C 
HETATM   29  C1  UNL     1      -6.861   3.074  -0.216  1.00  0.00     0.017 C 
ENDBRANCH   1  28
TORSDOF 4
