REMARK  7 active torsions:
REMARK  status: ('A' for Active; 'I' for Inactive)
REMARK    1  A    between atoms: C2_2  and  C3_3 
REMARK       I    between atoms: C3_3  and  N1_5 
REMARK    2  A    between atoms: C6_9  and  C7_10 
REMARK    3  A    between atoms: C7_10  and  O2_11 
REMARK    4  A    between atoms: O2_11  and  C8_12 
REMARK    5  A    between atoms: C9_14  and  N3_15 
REMARK    6  A    between atoms: N3_15  and  C10_16 
REMARK    7  A    between atoms: C15_24  and  C16_25 
ROOT
HETATM    1  C8  UNL     1      -0.733  -1.138  -0.381  1.00  0.00     0.192 A 
HETATM    2  N2  UNL     1      -1.625  -0.176  -0.706  1.00  0.00    -0.038 NA
HETATM    3  C9  UNL     1      -2.913  -0.531  -0.978  1.00  0.00     0.729 A 
HETATM    4  N6  UNL     1      -3.284  -1.817  -0.921  1.00  0.00    -0.074 NA
HETATM    5  C14 UNL     1      -2.435  -2.832  -0.600  1.00  0.00     0.149 A 
HETATM    6  C15 UNL     1      -1.112  -2.482  -0.320  1.00  0.00     0.027 A 
ENDROOT
BRANCH   1   7
HETATM    7  O2  UNL     1       0.591  -0.963  -0.081  1.00  0.00    -0.333 OA
BRANCH   7   8
HETATM    8  C7  UNL     1       1.192   0.316  -0.081  1.00  0.00     0.186 C 
BRANCH   8   9
HETATM    9  C6  UNL     1       2.650   0.170   0.297  1.00  0.00     0.064 C 
HETATM   10  C5  UNL     1       3.318  -0.732  -0.743  1.00  0.00     0.195 C 
HETATM   11  C4  UNL     1       4.294   0.245  -1.407  1.00  0.00     0.163 C 
HETATM   12  F1  UNL     1       2.386  -1.179  -1.659  1.00  0.00    -0.247 F 
HETATM   13  N1  UNL     1       4.702   1.058  -0.285  1.00  0.00    -0.345 N 
HETATM   14  C3  UNL     1       6.072   1.163   0.056  1.00  0.00     0.242 C 
HETATM   15  C17 UNL     1       3.348   1.516   0.111  1.00  0.00     0.136 C 
HETATM   16  O1  UNL     1       6.732   0.460  -0.778  1.00  0.00    -0.268 OA
BRANCH  14  17
HETATM   17  C2  UNL     1       6.878   1.828   1.054  1.00  0.00     0.064 C 
HETATM   18  C1  UNL     1       8.172   1.598   0.934  1.00  0.00     0.017 C 
ENDBRANCH  14  17
ENDBRANCH   8   9
ENDBRANCH   7   8
ENDBRANCH   1   7
BRANCH   6  19
HETATM   19  C16 UNL     1      -0.198  -3.602   0.026  1.00  0.00     0.159 C 
HETATM   20 CL1  UNL     1       0.843  -4.044  -1.343  1.00  0.00    -0.125 Cl
ENDBRANCH   6  19
BRANCH   3  21
HETATM   21  N3  UNL     1      -4.069   0.197  -1.329  1.00  0.00    -0.185 N 
HETATM   22  H10 UNL     1      -4.150   0.521  -2.304  1.00  0.00     0.184 HD
BRANCH  21  23
HETATM   23  C10 UNL     1      -5.099   0.482  -0.370  1.00  0.00     0.085 A 
HETATM   24  C11 UNL     1      -5.088   0.213   0.983  1.00  0.00     0.170 A 
HETATM   25  N4  UNL     1      -6.278   0.634   1.443  1.00  0.00    -0.183 NA
HETATM   26  N5  UNL     1      -7.024   1.146   0.462  1.00  0.00    -0.283 N 
HETATM   27  C12 UNL     1      -8.369   1.686   0.593  1.00  0.00     0.179 C 
HETATM   28  C13 UNL     1      -6.321   1.074  -0.706  1.00  0.00     0.143 A 
ENDBRANCH  21  23
ENDBRANCH   3  21
TORSDOF 7
