REMARK  6 active torsions:
REMARK  status: ('A' for Active; 'I' for Inactive)
REMARK    1  A    between atoms: C2_2  and  C3_3 
REMARK       I    between atoms: C3_3  and  N1_5 
REMARK    2  A    between atoms: C6_9  and  C7_10 
REMARK    3  A    between atoms: C7_10  and  O2_11 
REMARK    4  A    between atoms: O2_11  and  S1_12 
REMARK    5  A    between atoms: C8_14  and  N3_15 
REMARK    6  A    between atoms: N3_15  and  C9_16 
ROOT
HETATM    1  S1  UNL     1       0.304   1.325  -0.988  1.00  0.00     0.055 SA
HETATM    2  N2  UNL     1       1.177   0.076  -1.492  1.00  0.00    -0.013 NA
HETATM    3  C8  UNL     1       2.533  -0.136  -1.713  1.00  0.00     0.731 C 
HETATM    4  N6  UNL     1       3.763   0.137  -2.078  1.00  0.00    -0.085 NA
HETATM    5  C13 UNL     1       4.089   1.462  -2.618  1.00  0.00     0.287 C 
HETATM    6  N7  UNL     1       4.164   2.412  -1.504  1.00  0.00    -0.384 N 
HETATM    7  C14 UNL     1       3.103   2.476  -0.583  1.00  0.00     0.206 A 
HETATM    8  C15 UNL     1       2.261   2.627   0.413  1.00  0.00     0.024 A 
HETATM    9 CL1  UNL     1       3.788   3.255   0.961  1.00  0.00    -0.158 Cl
HETATM   10  C16 UNL     1       0.850   2.252   0.535  1.00  0.00     0.166 C 
HETATM   11  H18 UNL     1       4.625   3.152  -0.958  1.00  0.00     0.156 HD
ENDROOT
BRANCH   1  12
HETATM   12  O2  UNL     1      -1.410   0.875  -0.942  1.00  0.00    -0.310 OA
BRANCH  12  13
HETATM   13  C7  UNL     1      -1.704   0.125   0.219  1.00  0.00     0.195 C 
BRANCH  13  14
HETATM   14  C6  UNL     1      -3.181  -0.178   0.111  1.00  0.00     0.064 C 
HETATM   15  C5  UNL     1      -3.911   1.151   0.070  1.00  0.00     0.195 C 
HETATM   16  C4  UNL     1      -5.023   1.038   1.099  1.00  0.00     0.163 C 
HETATM   17  F1  UNL     1      -4.396   1.397  -1.187  1.00  0.00    -0.247 F 
HETATM   18  N1  UNL     1      -5.171  -0.424   1.182  1.00  0.00    -0.345 N 
HETATM   19  C3  UNL     1      -6.277  -1.341   1.126  1.00  0.00     0.242 C 
HETATM   20  C17 UNL     1      -3.758  -0.801   1.359  1.00  0.00     0.136 C 
HETATM   21  O1  UNL     1      -6.470  -2.589   1.190  1.00  0.00    -0.268 OA
BRANCH  19  22
HETATM   22  C2  UNL     1      -7.548  -0.624   0.941  1.00  0.00     0.064 C 
HETATM   23  C1  UNL     1      -8.666  -1.340   0.869  1.00  0.00     0.017 C 
ENDBRANCH  19  22
ENDBRANCH  13  14
ENDBRANCH  12  13
ENDBRANCH   1  12
BRANCH   3  24
HETATM   24  N3  UNL     1       2.750  -1.512  -1.276  1.00  0.00    -0.185 N 
HETATM   25  H10 UNL     1       2.037  -2.319  -1.360  1.00  0.00     0.184 HD
BRANCH  24  26
HETATM   26  C9  UNL     1       3.897  -2.148  -0.646  1.00  0.00     0.085 A 
HETATM   27  C10 UNL     1       4.255  -3.426  -0.238  1.00  0.00     0.170 A 
HETATM   28  N4  UNL     1       5.481  -3.345   0.295  1.00  0.00    -0.183 NA
HETATM   29  N5  UNL     1       5.949  -2.114   0.267  1.00  0.00    -0.283 N 
HETATM   30  C11 UNL     1       7.271  -1.878   0.812  1.00  0.00     0.179 C 
HETATM   31  C12 UNL     1       4.997  -1.360  -0.306  1.00  0.00     0.143 A 
ENDBRANCH  24  26
ENDBRANCH   3  24
TORSDOF 6
