REMARK  7 active torsions:
REMARK  status: ('A' for Active; 'I' for Inactive)
REMARK    1  A    between atoms: N1_1  and  C1_2 
REMARK    2  A    between atoms: C1_2  and  C2_3 
REMARK    3  A    between atoms: C7_9  and  O1_10 
REMARK    4  A    between atoms: O1_10  and  C8_11 
REMARK    5  A    between atoms: C10_13  and  N2_14 
REMARK    6  A    between atoms: N2_14  and  C11_15 
REMARK    7  A    between atoms: C11_15  and  C12_16 
ROOT
HETATM    1  C8  UNL     1      -1.021   0.291   0.130  1.00  0.00     0.174 A 
HETATM    2  C9  UNL     1       0.187   0.711  -0.439  1.00  0.00     0.108 A 
HETATM    3  C10 UNL     1       1.458   0.112  -0.268  1.00  0.00     0.129 A 
HETATM    4  N3  UNL     1       1.415  -0.969   0.540  1.00  0.00    -0.225 NA
HETATM    5  C17 UNL     1       0.269  -1.386   1.094  1.00  0.00     0.238 A 
HETATM    6  N4  UNL     1      -0.904  -0.791   0.906  1.00  0.00    -0.217 NA
ENDROOT
BRANCH   1   7
HETATM    7  O1  UNL     1      -2.011   1.144  -0.293  1.00  0.00    -0.291 OA
BRANCH   7   8
HETATM    8  C7  UNL     1      -3.325   1.055   0.029  1.00  0.00     0.086 A 
HETATM    9  C2  UNL     1      -4.324   0.119  -0.158  1.00  0.00     0.006 A 
HETATM   10  C3  UNL     1      -5.601   0.281   0.274  1.00  0.00     0.054 A 
HETATM   11  C4  UNL     1      -5.956   1.446   0.948  1.00  0.00     0.117 A 
HETATM   12  F1  UNL     1      -7.257   1.579   1.369  1.00  0.00    -0.206 F 
HETATM   13  C5  UNL     1      -5.001   2.409   1.160  1.00  0.00     0.045 A 
HETATM   14  C6  UNL     1      -3.688   2.220   0.705  1.00  0.00     0.041 A 
BRANCH   9  15
HETATM   15  C1  UNL     1      -3.827  -1.082  -0.899  1.00  0.00     0.308 C 
BRANCH  15  16
HETATM   16  N1  UNL     1      -4.917  -1.983  -1.247  1.00  0.00     0.082 N 
HETATM   17  H1  UNL     1      -4.417  -2.882  -1.530  1.00  0.00     0.313 HD
HETATM   18  H2  UNL     1      -5.353  -2.240  -0.316  1.00  0.00     0.313 HD
ENDBRANCH  15  16
ENDBRANCH   9  15
ENDBRANCH   7   8
ENDBRANCH   1   7
BRANCH   3  19
HETATM   19  N2  UNL     1       2.593   0.680  -0.909  1.00  0.00    -0.371 N 
HETATM   20  H9  UNL     1       2.329   0.644  -1.935  1.00  0.00     0.161 HD
BRANCH  19  21
HETATM   21  C11 UNL     1       3.853   1.212  -0.531  1.00  0.00     0.155 C 
BRANCH  21  22
HETATM   22  C12 UNL     1       4.812   0.134  -0.206  1.00  0.00    -0.059 A 
HETATM   23  C13 UNL     1       5.951   0.031  -0.883  1.00  0.00     0.004 A 
HETATM   24  C14 UNL     1       6.840  -1.053  -0.503  1.00  0.00    -0.003 A 
HETATM   25  C15 UNL     1       6.177  -1.640   0.477  1.00  0.00    -0.022 A 
HETATM   26  C16 UNL     1       4.880  -0.978   0.750  1.00  0.00     0.063 A 
ENDBRANCH  21  22
ENDBRANCH  19  21
ENDBRANCH   3  19
TORSDOF 7
