REMARK  3 active torsions:
REMARK  status: ('A' for Active; 'I' for Inactive)
REMARK    1  A    between atoms: C5_6  and  C6_7 
REMARK    2  A    between atoms: C6_7  and  N1_8 
REMARK    3  A    between atoms: N1_8  and  C7_9 
ROOT
HETATM    1  C7  UNL     1      -1.031  -0.881   0.669  1.00  0.00     0.128 A 
HETATM    2  C8  UNL     1      -1.427  -1.997   0.030  1.00  0.00     0.155 A 
HETATM    3  N2  UNL     1      -2.253  -3.001   0.373  1.00  0.00    -0.222 NA
HETATM    4  C9  UNL     1      -2.852  -2.937   1.605  1.00  0.00     0.238 A 
HETATM    5  N3  UNL     1      -2.531  -1.849   2.325  1.00  0.00    -0.215 NA
HETATM    6  C10 UNL     1      -1.695  -0.913   1.875  1.00  0.00     0.201 A 
HETATM    7  O1  UNL     1      -1.326   0.239   2.483  1.00  0.00    -0.301 OA
HETATM    8  C11 UNL     1      -1.267   1.511   1.995  1.00  0.00     0.156 C 
HETATM    9  C12 UNL     1      -2.504   1.668   2.457  1.00  0.00    -0.002 C 
HETATM   10  C13 UNL     1      -3.413   1.786   1.490  1.00  0.00     0.014 C 
HETATM   11  C14 UNL     1      -3.538   0.781   0.491  1.00  0.00    -0.003 C 
HETATM   12  C15 UNL     1      -3.499  -0.122  -0.476  1.00  0.00    -0.025 C 
HETATM   13  C16 UNL     1      -3.343  -1.103  -1.576  1.00  0.00     0.047 C 
HETATM   14  C17 UNL     1      -1.983  -1.257  -2.151  1.00  0.00     0.125 C 
HETATM   15  N4  UNL     1      -1.135  -2.166  -1.338  1.00  0.00    -0.372 N 
HETATM   16  H17 UNL     1      -0.398  -2.884  -1.478  1.00  0.00     0.161 HD
ENDROOT
BRANCH   1  17
HETATM   17  N1  UNL     1      -0.100  -0.013   0.083  1.00  0.00    -0.379 N 
HETATM   18  H7  UNL     1      -0.335   0.790  -0.514  1.00  0.00     0.160 HD
BRANCH  17  19
HETATM   19  C6  UNL     1       1.168  -0.515   0.522  1.00  0.00     0.156 C 
BRANCH  19  20
HETATM   20  C5  UNL     1       2.252   0.323  -0.027  1.00  0.00    -0.035 A 
HETATM   21  C4  UNL     1       2.288   1.380  -0.794  1.00  0.00     0.051 A 
HETATM   22  C3  UNL     1       3.485   2.079  -1.236  1.00  0.00     0.145 A 
HETATM   23  C2  UNL     1       4.619   1.577  -0.807  1.00  0.00     0.081 A 
HETATM   24  F1  UNL     1       3.311   3.150  -2.027  1.00  0.00    -0.203 F 
HETATM   25  C1  UNL     1       5.954   2.135  -1.141  1.00  0.00     0.079 C 
HETATM   26  O2  UNL     1       4.660   0.463   0.008  1.00  0.00    -0.348 OA
HETATM   27  C18 UNL     1       3.547  -0.242   0.450  1.00  0.00     0.211 A 
ENDBRANCH  19  20
ENDBRANCH  17  19
ENDBRANCH   1  17
TORSDOF 3
