REMARK  5 active torsions:
REMARK  status: ('A' for Active; 'I' for Inactive)
REMARK    1  A    between atoms: C2_2  and  C3_3 
REMARK    2  A    between atoms: C3_3  and  N1_5 
REMARK    3  A    between atoms: C9_11  and  C10_12 
REMARK    4  A    between atoms: C12_16  and  N4_17 
REMARK    5  A    between atoms: N4_17  and  C13_18 
ROOT
HETATM    1  N1  UNL     1      -3.247   0.212   0.655  1.00  0.00    -0.383 N 
HETATM    2  C5  UNL     1      -4.063  -0.944   0.491  1.00  0.00     0.120 C 
HETATM    3  C6  UNL     1      -3.135  -2.064   0.045  1.00  0.00     0.030 C 
HETATM    4  C7  UNL     1      -1.796  -1.656   0.585  1.00  0.00     0.054 C 
HETATM    5  C8  UNL     1      -0.732  -1.983  -0.421  1.00  0.00     0.128 C 
HETATM    6  N2  UNL     1       0.401  -2.671   0.212  1.00  0.00    -0.391 N 
HETATM    7  C9  UNL     1       1.625  -2.854  -0.482  1.00  0.00     0.037 C 
HETATM    8  C11 UNL     1       2.160  -1.729  -0.111  1.00  0.00     0.162 C 
HETATM    9  N3  UNL     1       2.846  -0.583   0.197  1.00  0.00    -0.073 NA
HETATM   10  C12 UNL     1       2.160   0.380   0.780  1.00  0.00     0.728 C 
HETATM   11  N7  UNL     1       0.817   0.230   1.058  1.00  0.00    -0.051 NA
HETATM   12  C17 UNL     1       0.030   0.712   1.895  1.00  0.00     0.273 C 
HETATM   13  O1  UNL     1      -1.331   0.343   1.922  1.00  0.00    -0.319 OA
HETATM   14  C18 UNL     1      -1.875  -0.148   0.715  1.00  0.00     0.232 C 
HETATM   15  H17 UNL     1       0.534  -3.127   1.149  1.00  0.00     0.159 HD
ENDROOT
BRANCH  10  16
HETATM   16  N4  UNL     1       2.975   1.485   1.041  1.00  0.00    -0.185 N 
HETATM   17  H21 UNL     1       2.470   2.218   1.580  1.00  0.00     0.184 HD
BRANCH  16  18
HETATM   18  C13 UNL     1       4.322   1.621   0.638  1.00  0.00     0.085 A 
HETATM   19  C14 UNL     1       5.031   2.752   0.969  1.00  0.00     0.170 A 
HETATM   20  N5  UNL     1       6.295   2.734   0.517  1.00  0.00    -0.183 NA
HETATM   21  N6  UNL     1       6.438   1.586  -0.121  1.00  0.00    -0.283 N 
HETATM   22  C15 UNL     1       7.640   1.131  -0.773  1.00  0.00     0.179 C 
HETATM   23  C16 UNL     1       5.260   0.900  -0.059  1.00  0.00     0.143 A 
ENDBRANCH  16  18
ENDBRANCH  10  16
BRANCH   7  24
HETATM   24  C10 UNL     1       1.822  -4.080  -1.251  1.00  0.00     0.172 C 
HETATM   25 CL1  UNL     1       1.713  -5.547  -0.242  1.00  0.00    -0.124 Cl
ENDBRANCH   7  24
BRANCH   1  26
HETATM   26  C3  UNL     1      -3.594   1.351  -0.113  1.00  0.00     0.077 C 
HETATM   27  C4  UNL     1      -3.570   1.119  -1.607  1.00  0.00     0.032 C 
BRANCH  26  28
HETATM   28  C2  UNL     1      -4.971   1.802   0.348  1.00  0.00     0.020 C 
HETATM   29  C1  UNL     1      -5.407   3.093  -0.306  1.00  0.00     0.007 C 
ENDBRANCH  26  28
ENDBRANCH   1  26
TORSDOF 5
