REMARK  3 active torsions:
REMARK  status: ('A' for Active; 'I' for Inactive)
REMARK    1  A    between atoms: C2_2  and  C3_3 
REMARK    2  A    between atoms: C13_20  and  C14_21 
REMARK    3  A    between atoms: C14_21  and  O3_22 
ROOT
HETATM    1  C3  UNL     1      -2.079   2.592  -0.678  1.00  0.00     0.212 A 
HETATM    2  O1  UNL     1      -0.913   3.004  -0.476  1.00  0.00     0.000 OA
HETATM    3  N1  UNL     1      -1.146   1.656  -0.114  1.00  0.00     0.175 N 
HETATM    4  C4  UNL     1       0.108   2.147   0.087  1.00  0.00     0.284 A 
HETATM    5  C5  UNL     1       1.175   2.550   0.271  1.00  0.00     0.004 C 
HETATM    6  N2  UNL     1       2.423   3.000   0.499  1.00  0.00    -0.304 N 
HETATM    7  C6  UNL     1       3.097   1.778   0.722  1.00  0.00     0.139 A 
HETATM    8  C7  UNL     1       3.056   0.642  -0.033  1.00  0.00     0.080 A 
HETATM    9  C8  UNL     1       3.704  -0.541   0.234  1.00  0.00     0.065 A 
HETATM   10  N3  UNL     1       4.424  -0.486   1.363  1.00  0.00    -0.221 NA
HETATM   11  C9  UNL     1       4.478   0.632   2.126  1.00  0.00     0.225 A 
HETATM   12 CL1  UNL     1       5.503   0.428   3.559  1.00  0.00    -0.041 Cl
HETATM   13  N4  UNL     1       3.825   1.798   1.842  1.00  0.00    -0.200 NA
HETATM   14  C10 UNL     1       3.437  -1.599  -0.796  1.00  0.00     0.226 C 
HETATM   15  O2  UNL     1       2.260  -1.270  -1.421  1.00  0.00    -0.385 OA
HETATM   16  C11 UNL     1       1.127  -1.257  -0.634  1.00  0.00     0.168 C 
HETATM   17  C12 UNL     1       0.012  -0.735  -1.510  1.00  0.00     0.035 C 
HETATM   18  C13 UNL     1      -1.314  -0.634  -0.867  1.00  0.00     0.041 C 
HETATM   19  C16 UNL     1      -1.463   0.322   0.259  1.00  0.00     0.295 C 
HETATM   20  H4  UNL     1       2.742   3.963   0.504  1.00  0.00     0.177 HD
ENDROOT
BRANCH  18  21
HETATM   21  C14 UNL     1      -1.750  -2.047  -0.448  1.00  0.00     0.173 C 
BRANCH  21  22
HETATM   22  O3  UNL     1      -3.008  -1.973   0.160  1.00  0.00    -0.396 OA
HETATM   23  C15 UNL     1      -3.404  -3.251   0.540  1.00  0.00     0.201 C 
ENDBRANCH  21  22
ENDBRANCH  18  21
BRANCH   1  24
HETATM   24  C2  UNL     1      -3.448   2.257  -0.963  1.00  0.00     0.033 C 
HETATM   25  C1  UNL     1      -4.220   3.193  -1.481  1.00  0.00     0.014 C 
ENDBRANCH   1  24
TORSDOF 3
