REMARK  8 active torsions:
REMARK  status: ('A' for Active; 'I' for Inactive)
REMARK    1  A    between atoms: O1_2  and  C2_3 
REMARK    2  A    between atoms: C2_3  and  C3_4 
REMARK    3  A    between atoms: C6_8  and  C7_9 
REMARK    4  A    between atoms: C7_9  and  O2_10 
REMARK    5  A    between atoms: O2_10  and  C8_11 
REMARK    6  A    between atoms: C11_16  and  C12_17 
REMARK    7  A    between atoms: C13_19  and  N4_20 
REMARK    8  A    between atoms: N4_20  and  C14_21 
ROOT
HETATM    1  C8  UNL     1       0.639  -1.685   0.342  1.00  0.00     0.179 A 
HETATM    2  N2  UNL     1       0.877  -2.953   0.021  1.00  0.00    -0.217 NA
HETATM    3  C9  UNL     1      -0.011  -3.807  -0.466  1.00  0.00     0.235 A 
HETATM    4  N3  UNL     1      -1.254  -3.402  -0.664  1.00  0.00    -0.253 NA
HETATM    5  C10 UNL     1      -1.659  -2.137  -0.390  1.00  0.00     0.135 A 
HETATM    6  C11 UNL     1      -0.688  -1.267   0.124  1.00  0.00     0.057 A 
ENDROOT
BRANCH   6   7
HETATM    7  C12 UNL     1      -1.255   0.039   0.427  1.00  0.00     0.065 C 
HETATM    8 CL1  UNL     1      -0.196   1.058   1.403  1.00  0.00    -0.082 Cl
HETATM    9  C13 UNL     1      -2.385   0.648   0.152  1.00  0.00     0.113 C 
BRANCH   9  10
HETATM   10  N4  UNL     1      -3.586   0.450  -0.516  1.00  0.00    -0.361 N 
HETATM   11  H16 UNL     1      -3.347   0.138  -1.507  1.00  0.00     0.165 HD
BRANCH  10  12
HETATM   12  C14 UNL     1      -4.974   0.545  -0.282  1.00  0.00     0.075 A 
HETATM   13  C15 UNL     1      -6.116  -0.176   0.006  1.00  0.00     0.143 A 
HETATM   14  N5  UNL     1      -7.135   0.715   0.081  1.00  0.00    -0.283 N 
HETATM   15  C16 UNL     1      -8.458   0.243   0.360  1.00  0.00     0.179 C 
HETATM   16  N6  UNL     1      -6.691   1.940  -0.142  1.00  0.00    -0.176 NA
HETATM   17  C17 UNL     1      -5.355   1.880  -0.373  1.00  0.00     0.079 A 
HETATM   18  C18 UNL     1      -4.685   3.192  -0.643  1.00  0.00     0.075 C 
ENDBRANCH  10  12
ENDBRANCH   9  10
ENDBRANCH   6   7
BRANCH   1  19
HETATM   19  O2  UNL     1       1.321  -0.651   0.832  1.00  0.00    -0.333 OA
BRANCH  19  20
HETATM   20  C7  UNL     1       2.594  -0.340   1.231  1.00  0.00     0.188 C 
BRANCH  20  21
HETATM   21  C6  UNL     1       3.546  -0.464   0.050  1.00  0.00     0.058 C 
HETATM   22  C3  UNL     1       4.964  -0.050   0.410  1.00  0.00     0.040 C 
HETATM   23  C4  UNL     1       5.693  -1.329   0.557  1.00  0.00     0.155 C 
HETATM   24  N1  UNL     1       4.885  -2.359  -0.023  1.00  0.00    -0.305 NA
HETATM   25  C5  UNL     1       3.695  -1.920  -0.318  1.00  0.00     0.090 C 
BRANCH  22  26
HETATM   26  C2  UNL     1       5.435   0.824  -0.740  1.00  0.00     0.174 C 
BRANCH  26  27
HETATM   27  O1  UNL     1       6.742   1.216  -0.670  1.00  0.00    -0.395 OA
HETATM   28  C1  UNL     1       7.048   1.980   0.431  1.00  0.00     0.201 C 
ENDBRANCH  26  27
ENDBRANCH  22  26
ENDBRANCH  20  21
ENDBRANCH  19  20
ENDBRANCH   1  19
TORSDOF 8
