REMARK  7 active torsions:
REMARK  status: ('A' for Active; 'I' for Inactive)
REMARK    1  A    between atoms: C2_2  and  C3_3 
REMARK       I    between atoms: C3_3  and  N1_5 
REMARK    2  A    between atoms: C5_7  and  C6_8 
REMARK    3  A    between atoms: C6_8  and  O2_9 
REMARK    4  A    between atoms: O2_9  and  C7_10 
REMARK    5  A    between atoms: C8_12  and  N3_13 
REMARK    6  A    between atoms: N3_13  and  C9_14 
REMARK    7  A    between atoms: C16_27  and  O3_28 
ROOT
HETATM    1  C7  UNL     1       0.803  -0.998  -0.339  1.00  0.00     0.164 A 
HETATM    2  N2  UNL     1       1.548   0.052  -0.268  1.00  0.00    -0.044 NA
HETATM    3  C8  UNL     1       2.894   0.133  -0.719  1.00  0.00     0.710 A 
HETATM    4  N6  UNL     1       3.438  -0.914  -1.231  1.00  0.00    -0.147 NA
HETATM    5  B1  UNL     1       2.728  -2.280  -1.389  1.00  0.00     0.472 B 
HETATM    6  N7  UNL     1       3.197  -3.637  -0.769  1.00  0.00    -0.424 N 
HETATM    7  C13 UNL     1       2.186  -4.297   0.025  1.00  0.00     0.088 A 
HETATM    8  C14 UNL     1       1.143  -3.469  -0.061  1.00  0.00     0.033 A 
HETATM    9 CL1  UNL     1      -0.460  -3.628   0.675  1.00  0.00    -0.087 Cl
HETATM   10  C15 UNL     1       1.195  -2.273  -0.908  1.00  0.00     0.121 A 
HETATM   11  H15 UNL     1       4.157  -4.040  -0.910  1.00  0.00     0.140 HD
ENDROOT
BRANCH   1  12
HETATM   12  O2  UNL     1      -0.494  -0.921   0.156  1.00  0.00    -0.337 OA
BRANCH  12  13
HETATM   13  C6  UNL     1      -1.166   0.306   0.387  1.00  0.00     0.186 C 
BRANCH  13  14
HETATM   14  C5  UNL     1      -2.538  -0.088   0.918  1.00  0.00     0.058 C 
HETATM   15  C4  UNL     1      -3.215  -0.927  -0.143  1.00  0.00     0.135 C 
HETATM   16  N1  UNL     1      -4.633  -0.658   0.066  1.00  0.00    -0.346 N 
HETATM   17  C3  UNL     1      -5.512  -1.505  -0.662  1.00  0.00     0.242 C 
HETATM   18  C18 UNL     1      -4.826   0.449   0.998  1.00  0.00     0.158 C 
HETATM   19  O1  UNL     1      -4.902  -2.354  -1.372  1.00  0.00    -0.268 OA
HETATM   20  C16 UNL     1      -3.462   1.081   1.022  1.00  0.00     0.146 C 
BRANCH  17  21
HETATM   21  C2  UNL     1      -6.954  -1.447  -0.630  1.00  0.00     0.064 C 
HETATM   22  C1  UNL     1      -7.644  -0.601   0.077  1.00  0.00     0.017 C 
ENDBRANCH  17  21
BRANCH  20  23
HETATM   23  O3  UNL     1      -3.241   1.804   2.188  1.00  0.00    -0.389 OA
HETATM   24  C17 UNL     1      -2.884   3.106   1.779  1.00  0.00     0.202 C 
ENDBRANCH  20  23
ENDBRANCH  13  14
ENDBRANCH  12  13
ENDBRANCH   1  12
BRANCH   3  25
HETATM   25  N3  UNL     1       3.612   1.354  -0.602  1.00  0.00    -0.187 N 
HETATM   26  H9  UNL     1       3.116   2.269  -0.646  1.00  0.00     0.184 HD
BRANCH  25  27
HETATM   27  C9  UNL     1       5.017   1.326  -0.422  1.00  0.00     0.085 A 
HETATM   28  C10 UNL     1       5.888   0.264  -0.322  1.00  0.00     0.170 A 
HETATM   29  N4  UNL     1       7.160   0.670  -0.156  1.00  0.00    -0.183 NA
HETATM   30  N5  UNL     1       7.115   2.009  -0.150  1.00  0.00    -0.283 N 
HETATM   31  C11 UNL     1       8.191   2.976  -0.004  1.00  0.00     0.179 C 
HETATM   32  C12 UNL     1       5.848   2.439  -0.307  1.00  0.00     0.143 A 
ENDBRANCH  25  27
ENDBRANCH   3  25
TORSDOF 7
