REMARK  3 active torsions:
REMARK  status: ('A' for Active; 'I' for Inactive)
REMARK    1  A    between atoms: C4_6  and  N3_7 
REMARK    2  A    between atoms: N3_7  and  C5_8 
REMARK    3  A    between atoms: C5_8  and  C6_9 
ROOT
HETATM    1  N1  UNL     1      -1.236   4.246   2.052  1.00  0.00    -0.170 NA
HETATM    2  C1  UNL     1      -2.009   3.415   1.788  1.00  0.00     0.208 C 
HETATM    3  N2  UNL     1      -2.937   2.421   1.471  1.00  0.00    -0.148 NA
HETATM    4  C2  UNL     1      -2.491   1.288   0.997  1.00  0.00     0.183 C 
HETATM    5  C3  UNL     1      -1.153   0.737   0.684  1.00  0.00     0.106 C 
HETATM    6  C4  UNL     1      -0.412  -0.292   0.233  1.00  0.00     0.101 C 
HETATM    7  N4  UNL     1      -0.757  -1.591  -0.228  1.00  0.00    -0.373 N 
HETATM    8  C12 UNL     1      -1.830  -2.465   0.215  1.00  0.00     0.148 C 
HETATM    9  C13 UNL     1      -3.161  -1.950  -0.189  1.00  0.00    -0.004 C 
HETATM   10  C14 UNL     1      -3.885  -1.052  -0.804  1.00  0.00     0.041 C 
HETATM   11  C15 UNL     1      -5.192  -0.568  -1.184  1.00  0.00     0.129 C 
HETATM   12  F1  UNL     1      -5.354  -1.056  -2.422  1.00  0.00    -0.205 F 
HETATM   13  C16 UNL     1      -5.658   0.135  -0.168  1.00  0.00     0.040 C 
HETATM   14  C17 UNL     1      -4.862   1.043   0.371  1.00  0.00     0.160 C 
HETATM   15  O1  UNL     1      -3.659   0.568   0.803  1.00  0.00    -0.303 OA
HETATM   16  H10 UNL     1      -0.133  -1.943  -1.011  1.00  0.00     0.161 HD
ENDROOT
BRANCH   6  17
HETATM   17  N3  UNL     1       1.008  -0.004   0.235  1.00  0.00    -0.372 N 
HETATM   18  H2  UNL     1       1.463   0.652   0.925  1.00  0.00     0.161 HD
BRANCH  17  19
HETATM   19  C5  UNL     1       1.870  -0.620  -0.733  1.00  0.00     0.159 C 
BRANCH  19  20
HETATM   20  C6  UNL     1       3.289  -0.163  -0.598  1.00  0.00    -0.041 A 
HETATM   21  C7  UNL     1       3.717   0.952  -1.323  1.00  0.00     0.009 A 
HETATM   22  C8  UNL     1       4.990   1.451  -1.273  1.00  0.00     0.001 A 
HETATM   23  C9  UNL     1       5.924   0.815  -0.451  1.00  0.00     0.000 A 
HETATM   24  C10 UNL     1       5.526  -0.290   0.278  1.00  0.00     0.001 A 
HETATM   25  C11 UNL     1       4.237  -0.779   0.214  1.00  0.00     0.009 A 
ENDBRANCH  19  20
ENDBRANCH  17  19
ENDBRANCH   6  17
TORSDOF 3
