REMARK  3 active torsions:
REMARK  status: ('A' for Active; 'I' for Inactive)
REMARK    1  A    between atoms: C3_3  and  O1_4 
REMARK    2  A    between atoms: O1_4  and  C4_5 
REMARK    3  A    between atoms: C4_5  and  N1_6 
ROOT
HETATM    1  C1  UNL     1      -4.545  -2.447  -1.825  1.00  0.00     0.114 C 
HETATM    2  C2  UNL     1      -3.571  -1.994  -0.830  1.00  0.00    -0.081 C 
HETATM    3  C3  UNL     1      -2.768  -1.609   0.008  1.00  0.00     0.058 C 
ENDROOT
BRANCH   3   4
HETATM    4  O1  UNL     1      -1.873  -1.158   0.956  1.00  0.00    -0.237 OA
BRANCH   4   5
HETATM    5  C4  UNL     1      -0.543  -0.783   0.541  1.00  0.00     0.389 C 
HETATM    6  C5  UNL     1       0.145  -0.272   1.725  1.00  0.00     0.081 C 
HETATM    7  C6  UNL     1      -0.419   0.869   2.195  1.00  0.00     0.035 C 
HETATM    8  C19 UNL     1       1.295  -0.656   2.575  1.00  0.00     0.185 C 
HETATM    9  C7  UNL     1      -1.198   1.895   1.467  1.00  0.00     0.029 A 
HETATM   10  C8  UNL     1      -1.722   3.011   2.060  1.00  0.00     0.133 A 
HETATM   11  C10 UNL     1      -1.302   1.530   0.118  1.00  0.00     0.146 A 
HETATM   12  N2  UNL     1      -2.396   3.803   1.209  1.00  0.00    -0.253 NA
HETATM   13  C9  UNL     1      -2.530   3.505  -0.095  1.00  0.00     0.234 A 
HETATM   14  N3  UNL     1      -2.007   2.399  -0.669  1.00  0.00    -0.223 NA
HETATM   15  N4  UNL     1      -0.699   0.308  -0.392  1.00  0.00    -0.278 N 
HETATM   16  C11 UNL     1      -0.398   0.504  -1.768  1.00  0.00     0.097 C 
HETATM   17  C12 UNL     1       0.592   0.524  -2.630  1.00  0.00     0.029 C 
HETATM   18  C13 UNL     1       2.022   0.333  -2.610  1.00  0.00     0.212 A 
HETATM   19  C14 UNL     1       3.146   0.070  -1.975  1.00  0.00     0.201 A 
HETATM   20  F1  UNL     1       2.086   0.044  -1.093  1.00  0.00    -0.364 F 
HETATM   21  C15 UNL     1       3.813  -0.271  -0.739  1.00  0.00     0.053 A 
HETATM   22 CL1  UNL     1       4.878  -0.101  -2.147  1.00  0.00    -0.135 Cl
HETATM   23  C16 UNL     1       4.318  -0.580   0.437  1.00  0.00     0.023 C 
HETATM   24  C17 UNL     1       3.853  -0.815   1.788  1.00  0.00     0.005 C 
HETATM   25  C18 UNL     1       2.771  -0.842   2.547  1.00  0.00     0.055 C 
HETATM   26  O2  UNL     1       0.707  -0.880   3.706  1.00  0.00    -0.288 OA
BRANCH   5  27
HETATM   27  N1  UNL     1       0.002  -1.970  -0.033  1.00  0.00     0.141 N 
HETATM   28  H4  UNL     1      -0.267  -2.056  -1.031  1.00  0.00     0.319 HD
HETATM   29  H5  UNL     1       0.977  -2.191   0.187  1.00  0.00     0.319 HD
ENDBRANCH   5  27
ENDBRANCH   4   5
ENDBRANCH   3   4
TORSDOF 3
