REMARK  5 active torsions:
REMARK  status: ('A' for Active; 'I' for Inactive)
REMARK    1  A    between atoms: C2_2  and  C3_3 
REMARK    2  A    between atoms: C3_3  and  C4_5 
REMARK    3  A    between atoms: C6_7  and  C7_8 
REMARK    4  A    between atoms: N5_21  and  O2_22 
REMARK    5  A    between atoms: C17_24  and  O3_25 
ROOT
HETATM    1  C7  UNL     1      -0.885  -0.230   0.943  1.00  0.00     0.045 C 
HETATM    2  N1  UNL     1      -0.969   1.060   1.142  1.00  0.00    -0.287 NA
HETATM    3  C8  UNL     1      -1.840   2.177   1.020  1.00  0.00     0.212 C 
HETATM    4  C9  UNL     1      -2.544   2.299  -0.277  1.00  0.00     0.096 A 
HETATM    5  N2  UNL     1      -2.715   3.501  -0.709  1.00  0.00    -0.269 NA
HETATM    6  C10 UNL     1      -3.404   3.509  -1.967  1.00  0.00     0.272 A 
HETATM    7  N3  UNL     1      -3.652   2.115  -2.262  1.00  0.00    -0.355 N 
HETATM    8  C11 UNL     1      -3.115   1.330  -1.212  1.00  0.00     0.153 A 
HETATM    9  N4  UNL     1      -3.260   0.041  -1.349  1.00  0.00    -0.209 NA
HETATM   10  C12 UNL     1      -2.857  -1.073  -0.517  1.00  0.00     0.162 A 
HETATM   11  C13 UNL     1      -1.882  -1.148   0.408  1.00  0.00     0.039 A 
HETATM   12  C14 UNL     1      -2.227  -2.551   0.678  1.00  0.00     0.151 A 
HETATM   13  C15 UNL     1      -1.261  -3.611   0.282  1.00  0.00     0.040 C 
HETATM   14  N5  UNL     1      -3.265  -2.425  -0.327  1.00  0.00    -0.233 N 
HETATM   15  H12 UNL     1      -4.146   1.757  -3.113  1.00  0.00     0.163 HD
ENDROOT
BRANCH   1  16
HETATM   16  C6  UNL     1       0.423  -0.875   1.311  1.00  0.00     0.041 C 
HETATM   17  C5  UNL     1       1.112  -1.512   0.143  1.00  0.00     0.026 C 
HETATM   18  C4  UNL     1       2.378  -0.725  -0.139  1.00  0.00     0.089 C 
HETATM   19  C17 UNL     1       2.209   0.586   0.611  1.00  0.00     0.133 C 
HETATM   20  C16 UNL     1       1.388   0.176   1.838  1.00  0.00     0.043 C 
BRANCH  18  21
HETATM   21  C3  UNL     1       3.570  -1.404   0.435  1.00  0.00     0.155 C 
HETATM   22  O1  UNL     1       3.200  -2.471   1.037  1.00  0.00    -0.293 OA
BRANCH  21  23
HETATM   23  C2  UNL     1       4.952  -0.970   0.353  1.00  0.00     0.040 C 
HETATM   24  C1  UNL     1       5.404   0.114  -0.249  1.00  0.00     0.015 C 
ENDBRANCH  21  23
ENDBRANCH  18  21
BRANCH  19  25
HETATM   25  O3  UNL     1       1.555   1.532  -0.136  1.00  0.00    -0.390 OA
HETATM   26  C18 UNL     1       2.240   2.707  -0.300  1.00  0.00     0.202 C 
ENDBRANCH  19  25
ENDBRANCH   1  16
BRANCH  14  27
HETATM   27  O2  UNL     1      -4.216  -3.214  -0.870  1.00  0.00    -0.285 OA
HETATM   28  H17 UNL     1      -4.510  -3.840  -0.161  1.00  0.00     0.245 HD
ENDBRANCH  14  27
TORSDOF 5
