REMARK  6 active torsions:
REMARK  status: ('A' for Active; 'I' for Inactive)
REMARK    1  A    between atoms: C2_2  and  C3_3 
REMARK       I    between atoms: C3_3  and  N1_5 
REMARK    2  A    between atoms: C5_7  and  C6_8 
REMARK    3  A    between atoms: C6_8  and  C7_9 
REMARK    4  A    between atoms: C8_11  and  N3_12 
REMARK    5  A    between atoms: N3_12  and  C9_13 
REMARK    6  A    between atoms: C14_21  and  O2_22 
ROOT
HETATM    1  C7  UNL     1       0.400  -0.882   0.405  1.00  0.00     0.052 A 
HETATM    2  N2  UNL     1       1.402  -0.453   1.104  1.00  0.00    -0.070 NA
HETATM    3  C8  UNL     1       2.641  -0.650   0.461  1.00  0.00     0.722 A 
HETATM    4  N6  UNL     1       2.451  -1.213  -0.669  1.00  0.00    -0.100 NA
HETATM    5  C13 UNL     1       1.024  -1.417  -0.823  1.00  0.00     0.224 A 
ENDROOT
BRANCH   1   6
HETATM    6  C6  UNL     1      -0.938  -0.707   1.018  1.00  0.00     0.066 C 
BRANCH   6   7
HETATM    7  C5  UNL     1      -1.880   0.155   0.259  1.00  0.00     0.040 C 
HETATM    8  C4  UNL     1      -3.188   0.248   1.066  1.00  0.00     0.133 C 
HETATM    9  N1  UNL     1      -4.074   0.766   0.004  1.00  0.00    -0.346 N 
HETATM   10  C3  UNL     1      -5.259   1.541   0.229  1.00  0.00     0.239 C 
HETATM   11  C16 UNL     1      -3.573   0.376  -1.308  1.00  0.00     0.158 C 
HETATM   12  O1  UNL     1      -6.008   1.978  -0.690  1.00  0.00    -0.269 OA
HETATM   13  C14 UNL     1      -2.448  -0.608  -0.945  1.00  0.00     0.144 C 
BRANCH  10  14
HETATM   14  C2  UNL     1      -5.665   1.872   1.579  1.00  0.00     0.048 C 
HETATM   15  C1  UNL     1      -6.773   2.589   1.620  1.00  0.00     0.037 C 
ENDBRANCH  10  14
BRANCH  13  16
HETATM   16  O2  UNL     1      -2.970  -1.788  -0.490  1.00  0.00    -0.389 OA
HETATM   17  C15 UNL     1      -2.555  -2.936  -1.097  1.00  0.00     0.202 C 
ENDBRANCH  13  16
ENDBRANCH   6   7
ENDBRANCH   1   6
BRANCH   3  18
HETATM   18  N3  UNL     1       3.923  -0.286   0.973  1.00  0.00    -0.186 N 
HETATM   19  H9  UNL     1       4.104  -0.300   2.001  1.00  0.00     0.184 HD
BRANCH  18  20
HETATM   20  C9  UNL     1       4.963   0.099   0.083  1.00  0.00     0.085 A 
HETATM   21  C10 UNL     1       4.903   0.174  -1.288  1.00  0.00     0.170 A 
HETATM   22  N4  UNL     1       6.134   0.586  -1.704  1.00  0.00    -0.183 NA
HETATM   23  N5  UNL     1       6.940   0.766  -0.685  1.00  0.00    -0.283 N 
HETATM   24  C11 UNL     1       8.332   1.202  -0.737  1.00  0.00     0.179 C 
HETATM   25  C12 UNL     1       6.240   0.471   0.430  1.00  0.00     0.143 A 
ENDBRANCH  18  20
ENDBRANCH   3  18
TORSDOF 6
