REMARK  4 active torsions:
REMARK  status: ('A' for Active; 'I' for Inactive)
REMARK    1  A    between atoms: C2_2  and  C3_3 
REMARK       I    between atoms: C3_3  and  N1_5 
REMARK    2  A    between atoms: C5_7  and  C6_8 
REMARK    3  A    between atoms: C9_14  and  C10_15 
REMARK    4  A    between atoms: C15_24  and  O3_25 
ROOT
HETATM    1  C6  UNL     1       0.374  -0.490  -0.354  1.00  0.00     0.030 A 
HETATM    2  O2  UNL     1      -0.837  -1.096   0.094  1.00  0.00     0.000 OA
HETATM    3  C7  UNL     1      -1.784  -0.235   0.718  1.00  0.00     0.282 A 
HETATM    4  N2  UNL     1      -2.688   0.718   1.316  1.00  0.00    -0.030 NA
HETATM    5  C8  UNL     1      -3.841   0.892   0.493  1.00  0.00     0.389 A 
HETATM    6  N3  UNL     1      -2.650   0.422   0.909  1.00  0.00     0.090 N 
HETATM    7  C9  UNL     1      -2.320  -0.487  -0.142  1.00  0.00     0.292 A 
HETATM    8  C10 UNL     1      -0.946  -1.139   0.134  1.00  0.00     0.088 A 
HETATM    9  C11 UNL     1      -1.391  -1.737  -1.350  1.00  0.00     0.042 C 
HETATM   10 CL1  UNL     1      -0.935  -3.424  -1.370  1.00  0.00    -0.086 Cl
HETATM   11  C12 UNL     1      -2.009  -1.181  -2.395  1.00  0.00     0.104 C 
HETATM   12  N4  UNL     1      -2.629  -0.013  -3.005  1.00  0.00    -0.384 N 
HETATM   13  C13 UNL     1      -3.855   0.766  -2.886  1.00  0.00     0.233 C 
HETATM   14  N5  UNL     1      -4.170   1.488  -1.675  1.00  0.00    -0.219 NA
HETATM   15  C14 UNL     1      -5.288   2.392  -2.043  1.00  0.00     0.138 C 
HETATM   16  N6  UNL     1      -4.753   0.756  -0.569  1.00  0.00    -0.298 N 
HETATM   17  H11 UNL     1      -1.903   0.314  -3.731  1.00  0.00     0.160 HD
HETATM   18  H17 UNL     1      -5.460   0.183  -0.077  1.00  0.00     0.178 HD
ENDROOT
BRANCH   1  19
HETATM   19  C5  UNL     1       1.094   0.123   0.798  1.00  0.00     0.035 C 
HETATM   20  C4  UNL     1       2.385   0.822   0.316  1.00  0.00     0.133 C 
HETATM   21  N1  UNL     1       3.363   0.613   1.354  1.00  0.00    -0.346 N 
HETATM   22  C3  UNL     1       4.575   1.157   0.856  1.00  0.00     0.242 C 
HETATM   23  C17 UNL     1       2.712  -0.052   2.468  1.00  0.00     0.158 C 
HETATM   24  O1  UNL     1       3.985   1.507  -0.235  1.00  0.00    -0.268 OA
HETATM   25  C15 UNL     1       1.750  -0.939   1.685  1.00  0.00     0.144 C 
BRANCH  22  26
HETATM   26  C2  UNL     1       5.950   1.343   1.226  1.00  0.00     0.064 C 
HETATM   27  C1  UNL     1       6.686   1.053   2.256  1.00  0.00     0.017 C 
ENDBRANCH  22  26
BRANCH  25  28
HETATM   28  O3  UNL     1       2.543  -1.702   0.834  1.00  0.00    -0.389 OA
HETATM   29  C16 UNL     1       2.331  -3.056   0.896  1.00  0.00     0.202 C 
ENDBRANCH  25  28
ENDBRANCH   1  19
TORSDOF 4
