REMARK  10 active torsions:
REMARK  status: ('A' for Active; 'I' for Inactive)
REMARK    1  A    between atoms: C6_8  and  O1_9 
REMARK    2  A    between atoms: O1_9  and  C7_10 
REMARK    3  A    between atoms: C7_10  and  C8_11 
REMARK    4  A    between atoms: C8_11  and  N3_12 
REMARK    5  A    between atoms: C8_11  and  C9_13 
REMARK    6  A    between atoms: C13_17  and  C14_18 
REMARK    7  A    between atoms: C15_19  and  O2_20 
REMARK    8  A    between atoms: O2_20  and  C16_21 
REMARK    9  A    between atoms: C16_21  and  C17_22 
REMARK   10  A    between atoms: C17_22  and  O3_23 
ROOT
HETATM    1  C8  UNL     1      -1.431   0.148  -0.417  1.00  0.00     0.131 C 
ENDROOT
BRANCH   1   2
HETATM    2  C7  UNL     1      -2.492   1.218  -0.559  1.00  0.00     0.198 C 
BRANCH   2   3
HETATM    3  O1  UNL     1      -3.430   0.708  -1.458  1.00  0.00    -0.371 OA
BRANCH   3   4
HETATM    4  C6  UNL     1      -4.489   1.559  -1.711  1.00  0.00     0.225 A 
HETATM    5  C3  UNL     1      -5.723   0.822  -1.351  1.00  0.00     0.115 A 
HETATM    6  C2  UNL     1      -5.939   0.481  -0.100  1.00  0.00     0.012 C 
HETATM    7  N1  UNL     1      -6.300   0.713  -2.506  1.00  0.00    -0.401 NA
HETATM    8  C1  UNL     1      -7.124  -0.250   0.384  1.00  0.00     0.039 C 
HETATM    9  C4  UNL     1      -6.567   0.775  -3.658  1.00  0.00     0.298 A 
HETATM   10  N2  UNL     1      -5.384   1.494  -4.045  1.00  0.00    -0.243 NA
HETATM   11  C5  UNL     1      -4.494   1.823  -3.170  1.00  0.00     0.131 A 
ENDBRANCH   3   4
ENDBRANCH   2   3
ENDBRANCH   1   2
BRANCH   1  12
HETATM   12  N3  UNL     1      -0.832  -0.117  -1.685  1.00  0.00    -0.420 N 
HETATM   13  H11 UNL     1      -0.866  -1.103  -1.965  1.00  0.00     0.150 HD
HETATM   14  H12 UNL     1       0.045   0.390  -1.845  1.00  0.00     0.150 HD
ENDBRANCH   1  12
BRANCH   1  15
HETATM   15  C9  UNL     1      -0.358   0.533   0.556  1.00  0.00    -0.033 A 
HETATM   16  C10 UNL     1      -0.449   1.592   1.428  1.00  0.00     0.009 A 
HETATM   17  C11 UNL     1       0.599   1.852   2.281  1.00  0.00     0.002 A 
HETATM   18  C12 UNL     1       1.770   1.083   2.309  1.00  0.00     0.021 A 
HETATM   19  C13 UNL     1       1.759   0.059   1.406  1.00  0.00     0.020 A 
HETATM   20  C19 UNL     1       0.765  -0.305   0.494  1.00  0.00     0.030 A 
BRANCH  19  21
HETATM   21  C14 UNL     1       2.954  -0.777   1.381  1.00  0.00    -0.037 C 
HETATM   22  C15 UNL     1       3.939  -1.484   1.345  1.00  0.00     0.059 C 
BRANCH  22  23
HETATM   23  O2  UNL     1       5.040  -2.292   1.291  1.00  0.00    -0.301 OA
BRANCH  23  24
HETATM   24  C16 UNL     1       6.364  -1.757   1.360  1.00  0.00     0.214 C 
BRANCH  24  25
HETATM   25  C17 UNL     1       7.382  -2.847   1.273  1.00  0.00     0.194 C 
BRANCH  25  26
HETATM   26  O3  UNL     1       8.668  -2.365   1.336  1.00  0.00    -0.394 OA
HETATM   27  C18 UNL     1       9.016  -1.486   0.341  1.00  0.00     0.201 C 
ENDBRANCH  25  26
ENDBRANCH  24  25
ENDBRANCH  23  24
ENDBRANCH  22  23
ENDBRANCH  19  21
ENDBRANCH   1  15
TORSDOF 10
