REMARK  9 active torsions:
REMARK  status: ('A' for Active; 'I' for Inactive)
REMARK    1  A    between atoms: C2_2  and  N1_3 
REMARK    2  A    between atoms: N1_3  and  O1_4 
REMARK    3  A    between atoms: N1_3  and  C6_8 
REMARK    4  A    between atoms: O1_4  and  C3_5 
REMARK    5  A    between atoms: C3_5  and  C4_6 
REMARK    6  A    between atoms: C10_13  and  N2_14 
REMARK    7  A    between atoms: N2_14  and  C11_15 
REMARK    8  A    between atoms: C11_15  and  C12_16 
REMARK    9  A    between atoms: C12_16  and  N3_17 
ROOT
HETATM    1  C6  UNL     1      -0.840  -1.492  -0.646  1.00  0.00     0.271 C 
HETATM    2  C7  UNL     1      -0.322  -1.086  -1.973  1.00  0.00     0.258 C 
HETATM    3  O2  UNL     1       0.127   0.198  -2.173  1.00  0.00    -0.357 OA
HETATM    4  C8  UNL     1       1.337   0.877  -1.920  1.00  0.00     0.133 C 
HETATM    5  C9  UNL     1       2.262   0.858  -0.943  1.00  0.00     0.030 C 
HETATM    6  C10 UNL     1       2.086   0.346   0.438  1.00  0.00     0.175 C 
HETATM    7  C13 UNL     1       1.121  -0.751   0.511  1.00  0.00     0.126 C 
HETATM    8  N4  UNL     1      -0.193  -0.726   0.394  1.00  0.00    -0.216 NA
HETATM    9  N5  UNL     1       1.878  -1.930   0.731  1.00  0.00    -0.372 N 
HETATM   10  C14 UNL     1       1.407  -3.282   0.748  1.00  0.00     0.167 C 
HETATM   11  C15 UNL     1       0.385  -3.615  -0.243  1.00  0.00     0.108 C 
HETATM   12  N6  UNL     1      -0.638  -2.901  -0.505  1.00  0.00    -0.247 NA
HETATM   13  H21 UNL     1       2.869  -1.662   0.883  1.00  0.00     0.161 HD
ENDROOT
BRANCH   1  14
HETATM   14  N1  UNL     1      -2.270  -1.284  -0.469  1.00  0.00    -0.219 N 
BRANCH  14  15
HETATM   15  C2  UNL     1      -3.202  -1.934  -1.328  1.00  0.00     0.095 C 
HETATM   16  C1  UNL     1      -3.772  -1.565  -2.473  1.00  0.00     0.052 C 
ENDBRANCH  14  15
BRANCH  14  17
HETATM   17  O1  UNL     1      -3.276  -0.689   0.210  1.00  0.00    -0.275 OA
BRANCH  17  18
HETATM   18  C3  UNL     1      -3.219   0.684   0.200  1.00  0.00     0.201 C 
BRANCH  18  19
HETATM   19  C4  UNL     1      -4.350   1.335   0.966  1.00  0.00     0.024 C 
HETATM   20  C5  UNL     1      -4.179   2.837   0.885  1.00  0.00     0.007 C 
ENDBRANCH  18  19
ENDBRANCH  17  18
ENDBRANCH  14  17
ENDBRANCH   1  14
BRANCH   6  21
HETATM   21  N2  UNL     1       3.349  -0.025   1.041  1.00  0.00    -0.383 N 
HETATM   22  H16 UNL     1       4.255  -0.363   1.493  1.00  0.00     0.160 HD
BRANCH  21  23
HETATM   23  C11 UNL     1       4.156   1.177   1.013  1.00  0.00     0.100 C 
BRANCH  23  24
HETATM   24  C12 UNL     1       4.680   2.188   1.729  1.00  0.00     0.097 C 
BRANCH  24  25
HETATM   25  N3  UNL     1       5.403   3.371   2.044  1.00  0.00    -0.407 N 
HETATM   26  H19 UNL     1       6.294   3.169   2.554  1.00  0.00     0.155 HD
HETATM   27  H20 UNL     1       4.760   4.081   1.634  1.00  0.00     0.155 HD
ENDBRANCH  24  25
ENDBRANCH  23  24
ENDBRANCH  21  23
ENDBRANCH   6  21
TORSDOF 9
