REMARK  8 active torsions:
REMARK  status: ('A' for Active; 'I' for Inactive)
REMARK    1  A    between atoms: C2_2  and  C3_3 
REMARK    2  A    between atoms: C5_7  and  C6_8 
REMARK    3  A    between atoms: C6_8  and  O2_9 
REMARK    4  A    between atoms: O2_9  and  C7_10 
REMARK    5  A    between atoms: C8_12  and  N3_13 
REMARK    6  A    between atoms: C10_15  and  N4_16 
REMARK    7  A    between atoms: N4_16  and  O3_17 
REMARK    8  A    between atoms: C17_27  and  O4_28 
ROOT
HETATM    1  C7  UNL     1      -0.668   1.645   0.286  1.00  0.00     0.142 C 
HETATM    2  N2  UNL     1      -1.728   1.484  -0.273  1.00  0.00    -0.237 NA
HETATM    3  C8  UNL     1      -2.557   0.893  -1.173  1.00  0.00     0.273 C 
HETATM    4  C12 UNL     1      -3.840   1.640  -1.447  1.00  0.00     0.297 C 
HETATM    5  N6  UNL     1      -4.502   2.564  -0.823  1.00  0.00    -0.418 NA
HETATM    6  C13 UNL     1      -3.998   3.079   0.437  1.00  0.00     0.136 C 
HETATM    7  C14 UNL     1      -2.872   3.969   0.070  1.00  0.00     0.011 C 
HETATM    8  C15 UNL     1      -1.544   3.932   0.326  1.00  0.00     0.017 C 
HETATM    9 CL1  UNL     1      -0.343   5.110  -0.210  1.00  0.00    -0.089 Cl
HETATM   10  C16 UNL     1      -1.193   2.723   1.157  1.00  0.00     0.136 C 
ENDROOT
BRANCH   1  11
HETATM   11  O2  UNL     1       0.537   0.999   0.097  1.00  0.00    -0.337 OA
BRANCH  11  12
HETATM   12  C6  UNL     1       0.581  -0.146  -0.742  1.00  0.00     0.186 C 
BRANCH  12  13
HETATM   13  C5  UNL     1       1.974  -0.677  -0.777  1.00  0.00     0.070 C 
HETATM   14  C4  UNL     1       2.985   0.322  -1.309  1.00  0.00     0.287 C 
HETATM   15  N1  UNL     1       4.194  -0.176  -0.693  1.00  0.00     0.097 N 
HETATM   16  C3  UNL     1       5.492  -0.620  -0.992  1.00  0.00     0.374 A 
HETATM   17  C19 UNL     1       3.744  -0.142   0.711  1.00  0.00     0.310 C 
HETATM   18  O1  UNL     1       4.747  -0.257  -1.958  1.00  0.00    -0.144 OA
HETATM   19  C17 UNL     1       2.507  -1.047   0.610  1.00  0.00     0.157 C 
BRANCH  16  20
HETATM   20  C2  UNL     1       6.687  -0.989  -1.695  1.00  0.00     0.042 C 
HETATM   21  C1  UNL     1       7.500  -1.378  -0.720  1.00  0.00     0.012 C 
ENDBRANCH  16  20
BRANCH  19  22
HETATM   22  O4  UNL     1       1.609  -0.774   1.619  1.00  0.00    -0.388 OA
HETATM   23  C18 UNL     1       1.358  -1.974   2.289  1.00  0.00     0.202 C 
ENDBRANCH  19  22
ENDBRANCH  12  13
ENDBRANCH  11  12
ENDBRANCH   1  11
BRANCH   3  24
HETATM   24  N3  UNL     1      -3.008  -0.407  -0.650  1.00  0.00    -0.248 N 
HETATM   25  C9  UNL     1      -3.582  -1.384  -1.376  1.00  0.00     0.148 A 
HETATM   26  C10 UNL     1      -3.863  -2.448  -0.521  1.00  0.00     0.090 A 
HETATM   27  C11 UNL     1      -3.428  -2.046   0.723  1.00  0.00     0.171 A 
HETATM   28  N5  UNL     1      -2.916  -0.807   0.616  1.00  0.00    -0.180 NA
BRANCH  26  29
HETATM   29  N4  UNL     1      -4.466  -3.715  -0.787  1.00  0.00    -0.267 N 
HETATM   30  H11 UNL     1      -4.125  -4.661  -1.064  1.00  0.00     0.194 HD
BRANCH  29  31
HETATM   31  O3  UNL     1      -5.806  -3.717  -0.655  1.00  0.00    -0.289 OA
HETATM   32  H12 UNL     1      -6.217  -2.854  -0.854  1.00  0.00     0.244 HD
ENDBRANCH  29  31
ENDBRANCH  26  29
ENDBRANCH   3  24
TORSDOF 8
