REMARK  8 active torsions:
REMARK  status: ('A' for Active; 'I' for Inactive)
REMARK    1  A    between atoms: C2_2  and  C3_3 
REMARK       I    between atoms: C3_3  and  N1_5 
REMARK    2  A    between atoms: N1_5  and  C4_6 
REMARK    3  A    between atoms: C8_13  and  N4_14 
REMARK    4  A    between atoms: C11_17  and  O2_18 
REMARK    5  A    between atoms: O2_18  and  C12_19 
REMARK    6  A    between atoms: C12_19  and  C13_20 
REMARK    7  A    between atoms: C13_20  and  C14_21 
REMARK    8  A    between atoms: C14_21  and  N5_22 
ROOT
HETATM    1  C4  UNL     1      -2.119   0.734  -0.190  1.00  0.00    -0.002 A 
HETATM    2  B1  UNL     1      -3.842   0.388  -0.200  1.00  0.00     0.259 B 
HETATM    3  C5  UNL     1      -3.825  -1.628   0.161  1.00  0.00    -0.025 A 
HETATM    4  C6  UNL     1      -2.592  -2.168   0.311  1.00  0.00     0.059 A 
HETATM    5  N2  UNL     1      -2.769  -3.472   0.539  1.00  0.00    -0.242 NA
HETATM    6  C7  UNL     1      -3.957  -4.098   0.602  1.00  0.00     0.235 A 
HETATM    7  N3  UNL     1      -5.117  -3.398   0.426  1.00  0.00    -0.225 NA
HETATM    8  C8  UNL     1      -5.095  -2.077   0.189  1.00  0.00     0.121 A 
HETATM    9  C10 UNL     1      -1.424  -1.525   0.245  1.00  0.00     0.069 A 
HETATM   10  C11 UNL     1      -1.188  -0.207   0.018  1.00  0.00     0.081 A 
ENDROOT
BRANCH  10  11
HETATM   11  O2  UNL     1       0.104   0.278  -0.013  1.00  0.00    -0.350 OA
BRANCH  11  12
HETATM   12  C12 UNL     1       1.175  -0.613   0.190  1.00  0.00     0.177 C 
BRANCH  12  13
HETATM   13  C13 UNL     1       2.525   0.087   0.129  1.00  0.00     0.057 C 
BRANCH  13  14
HETATM   14  C14 UNL     1       3.558  -0.994   0.362  1.00  0.00     0.274 C 
BRANCH  14  15
HETATM   15  N5  UNL     1       4.908  -0.542   0.348  1.00  0.00     0.092 N 
HETATM   16  C15 UNL     1       5.397  -0.098  -0.939  1.00  0.00     0.298 C 
HETATM   17  C16 UNL     1       6.905  -0.396  -0.895  1.00  0.00     0.198 C 
HETATM   18  O3  UNL     1       7.394  -0.143   0.391  1.00  0.00    -0.388 OA
HETATM   19  C17 UNL     1       6.688   0.868   1.028  1.00  0.00     0.198 C 
HETATM   20  C18 UNL     1       5.231   0.488   1.293  1.00  0.00     0.298 C 
ENDBRANCH  14  15
ENDBRANCH  13  14
ENDBRANCH  12  13
ENDBRANCH  11  12
ENDBRANCH  10  11
BRANCH   1  21
HETATM   21  N1  UNL     1      -1.876   2.067  -0.420  1.00  0.00    -0.336 N 
HETATM   22  C3  UNL     1      -2.837   3.088  -0.640  1.00  0.00     0.243 C 
HETATM   23  O1  UNL     1      -4.049   2.825  -0.638  1.00  0.00    -0.268 OA
HETATM   24  H4  UNL     1      -0.883   2.442  -0.449  1.00  0.00     0.168 HD
BRANCH  22  25
HETATM   25  C2  UNL     1      -2.566   4.514  -0.886  1.00  0.00     0.064 C 
HETATM   26  C1  UNL     1      -3.694   5.182  -1.049  1.00  0.00     0.017 C 
ENDBRANCH  22  25
ENDBRANCH   1  21
BRANCH   8  27
HETATM   27  N4  UNL     1      -6.265  -1.302  -0.002  1.00  0.00    -0.379 N 
HETATM   28  C9  UNL     1      -7.551  -1.955   0.063  1.00  0.00     0.147 C 
HETATM   29  H6  UNL     1      -6.184  -0.280  -0.184  1.00  0.00     0.160 HD
ENDBRANCH   8  27
TORSDOF 8
