REMARK  1 active torsions:
REMARK  status: ('A' for Active; 'I' for Inactive)
REMARK       I    between atoms: N1_3  and  C3_4 
REMARK       I    between atoms: C3_4  and  N2_6 
REMARK    1  A    between atoms: C14_21  and  O3_22 
ROOT
HETATM    1  C1  UNL     1       5.170   1.795  -3.127  1.00  0.00     0.120 C 
HETATM    2  C2  UNL     1       4.743   0.982  -2.174  1.00  0.00    -0.038 C 
HETATM    3  N1  UNL     1       4.224   0.339  -1.187  1.00  0.00    -0.154 NA
HETATM    4  C3  UNL     1       3.114   0.894  -0.546  1.00  0.00     0.357 C 
HETATM    5  O1  UNL     1       3.046   2.166  -0.439  1.00  0.00    -0.244 OA
HETATM    6  N2  UNL     1       2.046   0.109  -0.002  1.00  0.00    -0.282 N 
HETATM    7  C4  UNL     1       2.032  -1.338  -0.073  1.00  0.00     0.149 C 
HETATM    8  C5  UNL     1       0.691  -1.747   0.546  1.00  0.00     0.100 C 
HETATM    9  C6  UNL     1      -0.357  -2.022  -0.438  1.00  0.00     0.079 A 
HETATM   10  C7  UNL     1      -1.612  -1.678  -0.580  1.00  0.00     0.068 A 
HETATM   11  C8  UNL     1      -2.196  -2.275  -1.811  1.00  0.00     0.088 A 
HETATM   12  C9  UNL     1      -1.097  -3.123  -2.334  1.00  0.00     0.181 A 
HETATM   13  O2  UNL     1      -0.010  -2.835  -1.503  1.00  0.00    -0.352 OA
HETATM   14  N3  UNL     1      -2.525  -0.881   0.163  1.00  0.00    -0.236 NA
HETATM   15  C10 UNL     1      -2.516   0.395  -0.038  1.00  0.00     0.130 C 
HETATM   16  C11 UNL     1      -1.900   1.547  -0.794  1.00  0.00     0.354 C 
HETATM   17  N4  UNL     1      -1.822   2.590   0.216  1.00  0.00     0.132 N 
HETATM   18  C12 UNL     1      -0.756   2.284   1.186  1.00  0.00     0.425 C 
HETATM   19  N5  UNL     1       0.396   1.771   0.545  1.00  0.00    -0.243 NA
HETATM   20  C13 UNL     1       0.878   0.583   0.666  1.00  0.00     0.137 C 
HETATM   21  C14 UNL     1       0.458  -0.623   1.454  1.00  0.00     0.202 C 
HETATM   22  C16 UNL     1      -3.122   2.531   0.867  1.00  0.00     0.399 C 
HETATM   23  N6  UNL     1      -3.481   1.109   0.764  1.00  0.00    -0.352 N 
HETATM   24  H20 UNL     1      -4.377   0.939   1.310  1.00  0.00     0.162 HD
ENDROOT
BRANCH  21  25
HETATM   25  O3  UNL     1       1.261  -0.787   2.585  1.00  0.00    -0.382 OA
HETATM   26  C15 UNL     1       0.573  -0.665   3.772  1.00  0.00     0.202 C 
ENDBRANCH  21  25
TORSDOF 1
