REMARK  1 active torsions:
REMARK  status: ('A' for Active; 'I' for Inactive)
REMARK    1  A    between atoms: O1_2  and  C2_3 
ROOT
HETATM    1  C2  UNL     1       1.867   1.028  -1.982  1.00  0.00     0.140 C 
HETATM    2  C3  UNL     1       1.620   2.473  -2.226  1.00  0.00     0.062 C 
HETATM    3  C4  UNL     1       0.338   2.884  -1.472  1.00  0.00     0.204 C 
HETATM    4  O2  UNL     1      -0.687   2.036  -1.957  1.00  0.00    -0.279 OA
HETATM    5  N1  UNL     1      -1.018   1.045  -1.136  1.00  0.00    -0.258 N 
HETATM    6  C5  UNL     1      -1.253   0.151  -0.003  1.00  0.00     0.103 C 
HETATM    7  N2  UNL     1      -0.600  -1.120  -0.067  1.00  0.00    -0.224 NA
HETATM    8  C6  UNL     1       0.168  -1.153  -1.316  1.00  0.00     0.155 C 
HETATM    9  C7  UNL     1      -1.109  -1.601  -1.426  1.00  0.00     0.161 C 
HETATM   10  C8  UNL     1      -2.354  -1.882  -0.648  1.00  0.00     0.049 C 
HETATM   11 CL1  UNL     1      -3.546  -2.353  -1.869  1.00  0.00    -0.086 Cl
HETATM   12  C9  UNL     1      -2.792  -1.884   0.617  1.00  0.00     0.111 C 
HETATM   13  N3  UNL     1      -2.325  -1.628   1.999  1.00  0.00    -0.342 N 
HETATM   14  C10 UNL     1      -1.037  -1.026   2.307  1.00  0.00     0.179 C 
HETATM   15  N4  UNL     1      -1.787  -0.115   2.158  1.00  0.00    -0.315 NA
HETATM   16  N5  UNL     1      -2.490   0.933   2.023  1.00  0.00    -0.260 N 
HETATM   17  C11 UNL     1      -3.385   1.792   2.775  1.00  0.00     0.186 C 
HETATM   18  C12 UNL     1      -2.109   1.162   0.621  1.00  0.00     0.228 C 
HETATM   19  C13 UNL     1       0.273  -0.459   2.623  1.00  0.00     0.097 C 
HETATM   20  C14 UNL     1       1.469  -1.191   2.131  1.00  0.00     0.033 C 
HETATM   21  C15 UNL     1       1.612  -1.577   0.733  1.00  0.00     0.077 C 
HETATM   22  C16 UNL     1       3.016  -2.183   0.519  1.00  0.00     0.032 C 
HETATM   23  N6  UNL     1       1.218  -0.722  -0.351  1.00  0.00    -0.380 N 
HETATM   24  C17 UNL     1       1.763   0.596  -0.538  1.00  0.00     0.151 C 
HETATM   25  H9  UNL     1      -1.383   0.699  -2.045  1.00  0.00     0.195 HD
HETATM   26  H12 UNL     1      -2.971  -1.948   2.787  1.00  0.00     0.167 HD
ENDROOT
BRANCH   1  27
HETATM   27  O1  UNL     1       2.848   0.392  -2.696  1.00  0.00    -0.389 OA
HETATM   28  C1  UNL     1       2.509  -0.505  -3.647  1.00  0.00     0.202 C 
ENDBRANCH   1  27
TORSDOF 1
