REMARK  5 active torsions:
REMARK  status: ('A' for Active; 'I' for Inactive)
REMARK    1  A    between atoms: C2_2  and  C3_3 
REMARK       I    between atoms: C3_3  and  N1_5 
REMARK    2  A    between atoms: C5_7  and  C6_8 
REMARK    3  A    between atoms: C6_8  and  O2_9 
REMARK    4  A    between atoms: O2_9  and  C7_10 
REMARK    5  A    between atoms: C17_27  and  O3_28 
ROOT
HETATM    1  C7  UNL     1       0.628  -0.687  -1.412  1.00  0.00     0.197 A 
HETATM    2  N2  UNL     1       1.472  -1.635  -0.982  1.00  0.00    -0.037 NA
HETATM    3  C8  UNL     1       2.462  -2.050  -1.847  1.00  0.00     0.729 A 
HETATM    4  N3  UNL     1       2.788  -1.690  -3.132  1.00  0.00    -0.074 NA
HETATM    5  C9  UNL     1       2.006  -0.720  -3.712  1.00  0.00     0.154 A 
HETATM    6  C10 UNL     1       1.319  -0.703  -2.568  1.00  0.00     0.059 A 
HETATM    7  C11 UNL     1       0.946   0.742  -2.720  1.00  0.00     0.065 C 
HETATM    8 CL1  UNL     1      -0.288   1.853  -3.224  1.00  0.00    -0.082 Cl
HETATM    9  C12 UNL     1       2.111   1.323  -2.250  1.00  0.00     0.114 C 
HETATM   10  N4  UNL     1       3.243   0.581  -1.797  1.00  0.00    -0.346 N 
HETATM   11  C13 UNL     1       3.941  -0.252  -0.870  1.00  0.00     0.176 A 
HETATM   12  N5  UNL     1       4.659   0.375   0.058  1.00  0.00    -0.153 NA
HETATM   13  N6  UNL     1       5.259  -0.450   0.876  1.00  0.00    -0.281 N 
HETATM   14  C14 UNL     1       6.118  -0.138   2.000  1.00  0.00     0.179 C 
HETATM   15  C15 UNL     1       4.872  -1.638   0.403  1.00  0.00     0.145 A 
HETATM   16  C16 UNL     1       4.038  -1.645  -0.697  1.00  0.00     0.114 A 
HETATM   17  N7  UNL     1       3.503  -2.855  -1.343  1.00  0.00    -0.183 N 
HETATM   18  H11 UNL     1       3.891   0.769  -2.611  1.00  0.00     0.167 HD
HETATM   19  H16 UNL     1       3.978  -3.747  -1.241  1.00  0.00     0.184 HD
ENDROOT
BRANCH   1  20
HETATM   20  O2  UNL     1      -0.430  -0.072  -0.827  1.00  0.00    -0.333 OA
BRANCH  20  21
HETATM   21  C6  UNL     1      -0.896  -0.300   0.451  1.00  0.00     0.186 C 
BRANCH  21  22
HETATM   22  C5  UNL     1      -2.115   0.606   0.666  1.00  0.00     0.058 C 
HETATM   23  C4  UNL     1      -2.646   0.396   2.078  1.00  0.00     0.135 C 
HETATM   24  N1  UNL     1      -4.088   0.620   1.849  1.00  0.00    -0.346 N 
HETATM   25  C3  UNL     1      -5.194   1.405   2.254  1.00  0.00     0.242 C 
HETATM   26  C19 UNL     1      -4.245  -0.402   0.836  1.00  0.00     0.158 C 
HETATM   27  O1  UNL     1      -6.410   1.557   2.022  1.00  0.00    -0.268 OA
HETATM   28  C17 UNL     1      -3.239   0.041  -0.214  1.00  0.00     0.146 C 
BRANCH  25  29
HETATM   29  C2  UNL     1      -4.919   2.396   3.283  1.00  0.00     0.064 C 
HETATM   30  C1  UNL     1      -3.934   2.884   4.056  1.00  0.00     0.017 C 
ENDBRANCH  25  29
BRANCH  28  31
HETATM   31  O3  UNL     1      -2.793  -0.996  -0.982  1.00  0.00    -0.389 OA
HETATM   32  C18 UNL     1      -3.000  -0.929  -2.327  1.00  0.00     0.202 C 
ENDBRANCH  28  31
ENDBRANCH  21  22
ENDBRANCH  20  21
ENDBRANCH   1  20
TORSDOF 5
