REMARK  2 active torsions:
REMARK  status: ('A' for Active; 'I' for Inactive)
REMARK    1  A    between atoms: O1_2  and  C2_3 
REMARK    2  A    between atoms: C6_7  and  C7_8 
REMARK       I    between atoms: N4_17  and  C13_18 
ROOT
HETATM    1  C2  UNL     1       2.106  -0.483  -0.368  1.00  0.00     0.060 A 
HETATM    2  C3  UNL     1       1.453  -1.648  -0.109  1.00  0.00     0.090 A 
HETATM    3  C4  UNL     1       0.749  -1.918   1.035  1.00  0.00     0.016 A 
HETATM    4  C5  UNL     1       0.198  -1.771   2.259  1.00  0.00    -0.032 A 
HETATM    5  C6  UNL     1       0.870  -0.565   1.987  1.00  0.00     0.054 A 
HETATM    6  C7  UNL     1       1.508  -0.450   0.832  1.00  0.00     0.090 A 
HETATM    7  N1  UNL     1       1.323   1.010   0.677  1.00  0.00    -0.310 N 
HETATM    8  C8  UNL     1       2.008   1.974   1.523  1.00  0.00     0.286 C 
HETATM    9  N2  UNL     1       1.324   3.210   1.570  1.00  0.00    -0.284 NA
HETATM   10  C9  UNL     1       0.716   3.624   0.524  1.00  0.00     0.101 C 
HETATM   11  C10 UNL     1       0.733   2.798  -0.741  1.00  0.00     0.160 C 
HETATM   12  N3  UNL     1       0.432   1.403  -0.358  1.00  0.00    -0.225 NA
HETATM   13  C11 UNL     1      -0.952   1.389  -0.103  1.00  0.00     0.134 C 
HETATM   14  C12 UNL     1      -1.624   0.215   0.441  1.00  0.00     0.142 C 
HETATM   15  N4  UNL     1      -1.752  -0.981  -0.346  1.00  0.00    -0.351 N 
HETATM   16  C13 UNL     1      -3.081  -1.386  -0.826  1.00  0.00     0.215 C 
HETATM   17  C14 UNL     1      -4.282  -0.556  -0.489  1.00  0.00     0.117 C 
HETATM   18  O2  UNL     1      -3.356  -2.401  -1.526  1.00  0.00    -0.274 OA
HETATM   19  C15 UNL     1      -0.795  -1.935  -0.834  1.00  0.00     0.127 C 
HETATM   20  C16 UNL     1      -0.186  -2.872   0.226  1.00  0.00     0.036 C 
ENDROOT
BRANCH   1  21
HETATM   21  O1  UNL     1       2.874   0.247  -1.230  1.00  0.00    -0.361 OA
HETATM   22  C1  UNL     1       3.300  -0.216  -2.472  1.00  0.00     0.209 C 
ENDBRANCH   1  21
TORSDOF 2
