REMARK  5 active torsions:
REMARK  status: ('A' for Active; 'I' for Inactive)
REMARK    1  A    between atoms: C2_2  and  N1_3 
REMARK    2  A    between atoms: N1_3  and  C3_4 
REMARK    3  A    between atoms: N1_3  and  C9_10 
REMARK    4  A    between atoms: C15_18  and  C16_19 
REMARK    5  A    between atoms: C16_19  and  N4_20 
REMARK       I    between atoms: N5_24  and  C20_25 
ROOT
HETATM    1  C9  UNL     1      -1.013  -0.264   1.180  1.00  0.00     0.127 C 
HETATM    2  C10 UNL     1      -1.560  -0.729   2.557  1.00  0.00     0.068 C 
HETATM    3  C11 UNL     1      -0.763  -1.432   0.295  1.00  0.00     0.045 C 
HETATM    4  C12 UNL     1       0.229  -1.848  -0.462  1.00  0.00     0.118 C 
HETATM    5  N2  UNL     1       1.143  -2.455  -1.305  1.00  0.00    -0.256 NA
HETATM    6  C13 UNL     1       2.426  -2.363  -1.252  1.00  0.00     0.206 C 
HETATM    7  N3  UNL     1       3.532  -1.758  -0.521  1.00  0.00    -0.360 N 
HETATM    8  C14 UNL     1       3.705  -0.503  -1.177  1.00  0.00     0.097 C 
HETATM    9  C15 UNL     1       3.514   0.784  -1.405  1.00  0.00    -0.018 C 
HETATM   10  C17 UNL     1       2.714   1.810  -0.685  1.00  0.00    -0.010 C 
HETATM   11  C18 UNL     1       2.048   1.428   0.435  1.00  0.00     0.036 C 
HETATM   12  C19 UNL     1       1.249   1.303   1.634  1.00  0.00     0.138 C 
HETATM   13  N5  UNL     1       0.269   0.247   1.513  1.00  0.00    -0.322 N 
HETATM   14  C20 UNL     1       0.913  -0.977   2.052  1.00  0.00     0.218 C 
HETATM   15  C21 UNL     1       0.765  -2.392   2.358  1.00  0.00     0.117 C 
HETATM   16  O1  UNL     1       2.122  -0.718   2.418  1.00  0.00    -0.274 OA
HETATM   17  H17 UNL     1       4.052  -2.154   0.273  1.00  0.00     0.166 HD
ENDROOT
BRANCH   1  18
HETATM   18  N1  UNL     1      -2.052   0.448   0.609  1.00  0.00    -0.351 N 
BRANCH  18  19
HETATM   19  C2  UNL     1      -2.033   1.881   0.684  1.00  0.00     0.121 C 
HETATM   20  C1  UNL     1      -1.071   2.584  -0.214  1.00  0.00     0.026 C 
ENDBRANCH  18  19
BRANCH  18  21
HETATM   21  C3  UNL     1      -3.163  -0.082  -0.115  1.00  0.00     0.032 A 
HETATM   22  C4  UNL     1      -3.573  -1.392  -0.192  1.00  0.00     0.029 A 
HETATM   23  C5  UNL     1      -4.591  -1.914  -0.951  1.00  0.00     0.002 A 
HETATM   24  C6  UNL     1      -5.303  -1.037  -1.739  1.00  0.00     0.000 A 
HETATM   25  C7  UNL     1      -4.975   0.300  -1.736  1.00  0.00     0.002 A 
HETATM   26  C8  UNL     1      -3.940   0.737  -0.945  1.00  0.00     0.029 A 
ENDBRANCH  18  21
ENDBRANCH   1  18
BRANCH   9  27
HETATM   27  C16 UNL     1       4.291   1.364  -2.566  1.00  0.00     0.306 C 
BRANCH  27  28
HETATM   28  N4  UNL     1       3.339   1.874  -3.506  1.00  0.00     0.082 N 
HETATM   29  H21 UNL     1       3.000   2.829  -3.257  1.00  0.00     0.313 HD
HETATM   30  H22 UNL     1       3.837   1.983  -4.438  1.00  0.00     0.313 HD
ENDBRANCH  27  28
ENDBRANCH   9  27
TORSDOF 5
