REMARK  10 active torsions:
REMARK  status: ('A' for Active; 'I' for Inactive)
REMARK    1  A    between atoms: C2_2  and  C3_3 
REMARK    2  A    between atoms: C2_2  and  N1_5 
REMARK    3  A    between atoms: C6_7  and  C7_8 
REMARK    4  A    between atoms: C7_8  and  O1_9 
REMARK    5  A    between atoms: O1_9  and  C8_10 
REMARK    6  A    between atoms: C9_12  and  N3_13 
REMARK    7  A    between atoms: N3_13  and  C10_14 
REMARK    8  A    between atoms: C15_22  and  C16_23 
REMARK    9  A    between atoms: C17_25  and  N7_26 
REMARK   10  A    between atoms: C18_27  and  O2_28 
ROOT
HETATM    1  C8  UNL     1      -1.193  -1.192   1.061  1.00  0.00     0.197 A 
HETATM    2  N2  UNL     1      -1.613   0.048   0.888  1.00  0.00    -0.037 NA
HETATM    3  C9  UNL     1      -2.799   0.367   0.370  1.00  0.00     0.729 A 
HETATM    4  N6  UNL     1      -3.616  -0.629   0.001  1.00  0.00    -0.074 NA
HETATM    5  C14 UNL     1      -3.275  -1.913   0.138  1.00  0.00     0.154 A 
HETATM    6  C15 UNL     1      -2.030  -2.243   0.682  1.00  0.00     0.059 A 
ENDROOT
BRANCH   1   7
HETATM    7  O1  UNL     1      -0.002  -1.623   1.581  1.00  0.00    -0.333 OA
BRANCH   7   8
HETATM    8  C7  UNL     1       0.985  -0.728   2.021  1.00  0.00     0.186 C 
BRANCH   8   9
HETATM    9  C6  UNL     1       1.430   0.124   0.883  1.00  0.00     0.069 C 
HETATM   10  C5  UNL     1       2.510   1.120   1.302  1.00  0.00     0.282 C 
HETATM   11  N1  UNL     1       3.443   1.065   0.218  1.00  0.00     0.099 N 
HETATM   12  C20 UNL     1       3.544  -0.356  -0.024  1.00  0.00     0.305 C 
HETATM   13  C18 UNL     1       2.067  -0.694  -0.218  1.00  0.00     0.157 C 
BRANCH  11  14
HETATM   14  C2  UNL     1       4.702   1.688   0.503  1.00  0.00     0.241 C 
HETATM   15  C1  UNL     1       4.378   3.153   0.820  1.00  0.00     0.047 C 
BRANCH  14  16
HETATM   16  C3  UNL     1       5.505   1.681  -0.741  1.00  0.00    -0.002 C 
HETATM   17  C4  UNL     1       6.763   2.090  -0.661  1.00  0.00     0.009 C 
ENDBRANCH  14  16
ENDBRANCH  11  14
BRANCH  13  18
HETATM   18  O2  UNL     1       1.834  -2.054  -0.108  1.00  0.00    -0.388 OA
HETATM   19  C19 UNL     1       1.269  -2.461  -1.322  1.00  0.00     0.202 C 
ENDBRANCH  13  18
ENDBRANCH   8   9
ENDBRANCH   7   8
ENDBRANCH   1   7
BRANCH   6  20
HETATM   20  C16 UNL     1      -1.689  -3.638   0.818  1.00  0.00     0.064 C 
HETATM   21 CL1  UNL     1      -2.804  -4.885   0.315  1.00  0.00    -0.082 Cl
HETATM   22  C17 UNL     1      -0.562  -4.078   1.308  1.00  0.00     0.105 C 
BRANCH  22  23
HETATM   23  N7  UNL     1      -0.192  -5.459   1.456  1.00  0.00    -0.407 N 
HETATM   24  H21 UNL     1      -0.239  -6.264   2.143  1.00  0.00     0.155 HD
HETATM   25  H22 UNL     1       0.272  -6.259   0.967  1.00  0.00     0.155 HD
ENDBRANCH  22  23
ENDBRANCH   6  20
BRANCH   3  26
HETATM   26  N3  UNL     1      -3.174   1.727   0.218  1.00  0.00    -0.185 N 
HETATM   27  H13 UNL     1      -2.491   2.474   0.525  1.00  0.00     0.184 HD
BRANCH  26  28
HETATM   28  C10 UNL     1      -4.396   2.175  -0.314  1.00  0.00     0.085 A 
HETATM   29  C11 UNL     1      -4.827   3.489  -0.492  1.00  0.00     0.170 A 
HETATM   30  N4  UNL     1      -6.055   3.497  -1.030  1.00  0.00    -0.183 NA
HETATM   31  N5  UNL     1      -6.442   2.253  -1.210  1.00  0.00    -0.283 N 
HETATM   32  C12 UNL     1      -7.736   1.872  -1.780  1.00  0.00     0.179 C 
HETATM   33  C13 UNL     1      -5.468   1.452  -0.789  1.00  0.00     0.143 A 
ENDBRANCH  26  28
ENDBRANCH   3  26
TORSDOF 10
