REMARK  5 active torsions:
REMARK  status: ('A' for Active; 'I' for Inactive)
REMARK    1  A    between atoms: C3_3  and  N1_4 
REMARK    2  A    between atoms: N1_4  and  O1_5 
REMARK    3  A    between atoms: N1_4  and  C4_6 
REMARK    4  A    between atoms: C5_7  and  C6_8 
REMARK    5  A    between atoms: N3_13  and  C10_14 
ROOT
HETATM    1  C6  UNL     1      -0.657  -1.137   0.036  1.00  0.00     0.136 C 
HETATM    2  C7  UNL     1       0.034  -1.389   1.355  1.00  0.00     0.036 C 
HETATM    3  C8  UNL     1       0.300  -0.416   2.218  1.00  0.00     0.079 C 
HETATM    4  N2  UNL     1       0.249   0.801   1.834  1.00  0.00    -0.268 NA
HETATM    5  C9  UNL     1      -0.147   1.149   0.479  1.00  0.00     0.275 C 
HETATM    6  N3  UNL     1      -1.199   0.206   0.145  1.00  0.00    -0.351 N 
ENDROOT
BRANCH   1   7
HETATM    7  C5  UNL     1       0.407  -1.134  -0.995  1.00  0.00     0.022 C 
HETATM    8  C4  UNL     1       1.686  -1.344  -1.009  1.00  0.00     0.120 C 
BRANCH   8   9
HETATM    9  N1  UNL     1       2.542  -1.676   0.070  1.00  0.00    -0.248 N 
BRANCH   9  10
HETATM   10  C3  UNL     1       3.253  -0.474   0.374  1.00  0.00     0.118 C 
HETATM   11  C2  UNL     1       4.406  -0.287  -0.241  1.00  0.00    -0.011 C 
HETATM   12  C1  UNL     1       5.186   0.944   0.038  1.00  0.00     0.037 C 
ENDBRANCH   9  10
BRANCH   9  13
HETATM   13  O1  UNL     1       2.200  -2.969   0.212  1.00  0.00    -0.284 OA
HETATM   14  H6  UNL     1       2.958  -3.558   0.394  1.00  0.00     0.245 HD
ENDBRANCH   9  13
ENDBRANCH   8   9
ENDBRANCH   1   7
BRANCH   6  15
HETATM   15  C10 UNL     1      -2.572   0.513  -0.050  1.00  0.00     0.034 A 
HETATM   16  C11 UNL     1      -3.523  -0.379  -0.492  1.00  0.00     0.032 A 
HETATM   17  C12 UNL     1      -4.840  -0.033  -0.658  1.00  0.00     0.046 A 
HETATM   18  C13 UNL     1      -5.295   1.239  -0.390  1.00  0.00     0.138 A 
HETATM   19  F1  UNL     1      -6.590   1.563  -0.559  1.00  0.00    -0.204 F 
HETATM   20  C14 UNL     1      -4.354   2.144   0.053  1.00  0.00     0.074 A 
HETATM   21 CL1  UNL     1      -4.961   3.757   0.387  1.00  0.00    -0.081 Cl
HETATM   22  C15 UNL     1      -3.048   1.777   0.212  1.00  0.00     0.056 A 
ENDBRANCH   6  15
TORSDOF 5
