REMARK  5 active torsions:
REMARK  status: ('A' for Active; 'I' for Inactive)
REMARK    1  A    between atoms: C2_2  and  C3_3 
REMARK       I    between atoms: C3_3  and  N1_5 
REMARK    2  A    between atoms: N1_5  and  C4_6 
REMARK    3  A    between atoms: C8_10  and  N2_11 
REMARK    4  A    between atoms: N2_11  and  C9_12 
REMARK    5  A    between atoms: C12_18  and  C13_19 
ROOT
HETATM    1  C4  UNL     1       2.335  -1.204   0.411  1.00  0.00     0.037 A 
HETATM    2  C5  UNL     1       2.360  -2.402  -0.269  1.00  0.00     0.029 A 
HETATM    3  C6  UNL     1       1.186  -2.878  -0.805  1.00  0.00     0.004 A 
HETATM    4  C7  UNL     1       0.044  -2.131  -0.633  1.00  0.00     0.029 A 
HETATM    5  C8  UNL     1      -0.046  -0.932   0.034  1.00  0.00     0.035 A 
HETATM    6  C15 UNL     1       1.154  -0.512   0.543  1.00  0.00     0.059 A 
ENDROOT
BRANCH   5   7
HETATM    7  N2  UNL     1      -1.224  -0.168   0.203  1.00  0.00    -0.340 N 
HETATM    8  H8  UNL     1      -1.106   0.698   0.784  1.00  0.00     0.167 HD
BRANCH   7   9
HETATM    9  C9  UNL     1      -2.518  -0.432  -0.313  1.00  0.00     0.143 A 
HETATM   10  N3  UNL     1      -2.863  -1.464  -1.079  1.00  0.00    -0.185 NA
HETATM   11  C10 UNL     1      -4.077  -1.714  -1.569  1.00  0.00     0.311 A 
HETATM   12  F1  UNL     1      -4.352  -2.792  -2.347  1.00  0.00    -0.161 F 
HETATM   13  N4  UNL     1      -5.098  -0.862  -1.290  1.00  0.00    -0.215 NA
HETATM   14  C11 UNL     1      -4.828   0.212  -0.516  1.00  0.00     0.135 A 
HETATM   15  C12 UNL     1      -3.556   0.425  -0.034  1.00  0.00     0.039 A 
BRANCH  15  16
HETATM   16  C13 UNL     1      -3.409   1.647   0.812  1.00  0.00     0.204 C 
HETATM   17  C14 UNL     1      -2.976   2.841  -0.018  1.00  0.00     0.050 C 
HETATM   18  F2  UNL     1      -4.649   2.021   1.353  1.00  0.00    -0.245 F 
ENDBRANCH  15  16
ENDBRANCH   7   9
ENDBRANCH   5   7
BRANCH   1  19
HETATM   19  N1  UNL     1       3.534  -0.673   0.982  1.00  0.00    -0.324 N 
HETATM   20  C3  UNL     1       4.201   0.172   0.029  1.00  0.00     0.244 C 
HETATM   21  O1  UNL     1       3.813   0.418  -1.124  1.00  0.00    -0.268 OA
HETATM   22  H4  UNL     1       4.026  -0.754   1.908  1.00  0.00     0.169 HD
BRANCH  20  23
HETATM   23  C2  UNL     1       5.457   0.841   0.365  1.00  0.00     0.064 C 
HETATM   24  C1  UNL     1       5.917   1.573  -0.638  1.00  0.00     0.017 C 
ENDBRANCH  20  23
ENDBRANCH   1  19
TORSDOF 5
