REMARK  5 active torsions:
REMARK  status: ('A' for Active; 'I' for Inactive)
REMARK    1  A    between atoms: C2_2  and  C3_3 
REMARK    2  A    between atoms: C3_3  and  C4_4 
REMARK    3  A    between atoms: C4_4  and  C5_5 
REMARK       I    between atoms: C5_5  and  N1_7 
REMARK    4  A    between atoms: N1_7  and  C6_8 
REMARK    5  A    between atoms: C14_16  and  O2_17 
ROOT
HETATM    1  C6  UNL     1       1.517  -0.853   0.695  1.00  0.00     0.035 A 
HETATM    2  C7  UNL     1       1.939  -1.930   1.435  1.00  0.00     0.032 A 
HETATM    3  C8  UNL     1       1.111  -2.673   2.235  1.00  0.00     0.033 A 
HETATM    4  C9  UNL     1      -0.210  -2.289   2.274  1.00  0.00     0.046 A 
HETATM    5  C10 UNL     1      -0.759  -1.217   1.570  1.00  0.00     0.011 A 
HETATM    6  C11 UNL     1       0.184  -0.565   0.813  1.00  0.00     0.044 A 
HETATM    7  C12 UNL     1      -2.171  -1.074   1.820  1.00  0.00     0.070 A 
HETATM    8  C13 UNL     1      -2.975  -0.119   1.288  1.00  0.00     0.054 C 
HETATM    9  C14 UNL     1      -2.951   1.039   0.392  1.00  0.00     0.180 C 
HETATM   10  C16 UNL     1      -4.444   1.505   0.404  1.00  0.00     0.061 C 
HETATM   11  C17 UNL     1      -5.336   0.479  -0.239  1.00  0.00    -0.020 C 
HETATM   12  C18 UNL     1      -6.212  -0.401   0.388  1.00  0.00    -0.011 C 
HETATM   13  C19 UNL     1      -5.525  -1.083   1.637  1.00  0.00     0.149 C 
HETATM   14  N2  UNL     1      -4.348  -0.231   1.606  1.00  0.00    -0.377 N 
HETATM   15  C20 UNL     1      -4.693   1.203   1.913  1.00  0.00     0.134 C 
HETATM   16  C21 UNL     1      -2.441  -2.168   2.753  1.00  0.00     0.259 A 
HETATM   17  O3  UNL     1      -3.553  -2.443   3.259  1.00  0.00    -0.267 OA
HETATM   18  N3  UNL     1      -1.258  -2.882   3.011  1.00  0.00    -0.322 N 
HETATM   19  H25 UNL     1      -1.202  -3.704   3.645  1.00  0.00     0.169 HD
ENDROOT
BRANCH   9  20
HETATM   20  O2  UNL     1      -2.630   0.770  -0.940  1.00  0.00    -0.384 OA
HETATM   21  C15 UNL     1      -1.890   1.831  -1.440  1.00  0.00     0.202 C 
ENDBRANCH   9  20
BRANCH   1  22
HETATM   22  N1  UNL     1       2.295  -0.037  -0.157  1.00  0.00    -0.327 N 
HETATM   23  C5  UNL     1       3.666  -0.135  -0.463  1.00  0.00     0.222 C 
HETATM   24  O1  UNL     1       4.314  -1.059   0.073  1.00  0.00    -0.273 OA
HETATM   25  H10 UNL     1       1.866   0.767  -0.661  1.00  0.00     0.169 HD
BRANCH  23  26
HETATM   26  C4  UNL     1       4.409   0.769  -1.372  1.00  0.00     0.103 C 
BRANCH  26  27
HETATM   27  C3  UNL     1       5.847   0.274  -1.392  1.00  0.00     0.009 C 
BRANCH  27  28
HETATM   28  C2  UNL     1       6.716   1.105  -2.279  1.00  0.00    -0.004 C 
HETATM   29  C1  UNL     1       6.275   1.132  -3.719  1.00  0.00     0.005 C 
ENDBRANCH  27  28
ENDBRANCH  26  27
ENDBRANCH  23  26
ENDBRANCH   1  22
TORSDOF 5
