REMARK  4 active torsions:
REMARK  status: ('A' for Active; 'I' for Inactive)
REMARK    1  A    between atoms: C2_2  and  N1_3 
REMARK    2  A    between atoms: C2_2  and  S1_14 
REMARK    3  A    between atoms: N1_3  and  C3_4 
REMARK    4  A    between atoms: S1_14  and  C11_15 
ROOT
HETATM    1  N1  UNL     1       1.311  -0.442   1.908  1.00  0.00    -0.377 N 
HETATM    2  H5  UNL     1       1.161   0.415   2.489  1.00  0.00     0.161 HD
ENDROOT
BRANCH   1   3
HETATM    3  C2  UNL     1       0.618  -1.668   2.235  1.00  0.00     0.144 C 
HETATM    4  C1  UNL     1       1.569  -2.794   2.560  1.00  0.00     0.044 C 
BRANCH   3   5
HETATM    5  S1  UNL     1      -0.422  -2.062   0.807  1.00  0.00    -0.109 SA
BRANCH   5   6
HETATM    6  C11 UNL     1      -1.508  -0.638   0.528  1.00  0.00    -0.020 C 
HETATM    7  C12 UNL     1      -1.860   0.614   0.914  1.00  0.00     0.014 C 
HETATM    8  C13 UNL     1      -2.720   1.813   0.738  1.00  0.00    -0.001 C 
HETATM    9  C14 UNL     1      -3.666   1.927  -0.178  1.00  0.00    -0.001 C 
HETATM   10  C15 UNL     1      -4.662   1.866  -1.250  1.00  0.00     0.195 C 
HETATM   11  O2  UNL     1      -4.612   0.674  -1.927  1.00  0.00    -0.387 OA
HETATM   12  C16 UNL     1      -4.868  -0.465  -1.250  1.00  0.00     0.168 C 
HETATM   13  C17 UNL     1      -3.915  -0.684  -0.079  1.00  0.00     0.031 C 
HETATM   14  C18 UNL     1      -2.495  -0.586  -0.547  1.00  0.00     0.048 C 
ENDBRANCH   5   6
ENDBRANCH   3   5
ENDBRANCH   1   3
BRANCH   1  15
HETATM   15  C3  UNL     1       2.202  -0.363   0.807  1.00  0.00     0.029 A 
HETATM   16  C4  UNL     1       2.475  -1.412  -0.023  1.00  0.00     0.031 A 
HETATM   17  C5  UNL     1       3.353  -1.306  -1.094  1.00  0.00     0.032 A 
HETATM   18  C6  UNL     1       3.995  -0.126  -1.368  1.00  0.00     0.041 A 
HETATM   19  C7  UNL     1       3.739   0.942  -0.551  1.00  0.00    -0.021 A 
HETATM   20  N2  UNL     1       4.927   0.298  -2.360  1.00  0.00    -0.326 N 
HETATM   21  C8  UNL     1       2.861   0.809   0.506  1.00  0.00     0.039 A 
HETATM   22  C9  UNL     1       4.517   2.152  -0.985  1.00  0.00     0.144 A 
HETATM   23  C10 UNL     1       5.264   1.655  -2.165  1.00  0.00     0.226 A 
HETATM   24  O1  UNL     1       6.037   2.410  -2.802  1.00  0.00    -0.273 OA
HETATM   25  H11 UNL     1       5.297  -0.314  -3.113  1.00  0.00     0.169 HD
ENDBRANCH   1  15
TORSDOF 4
