REMARK  0 active torsions:
REMARK  status: ('A' for Active; 'I' for Inactive)
ROOT
HETATM    1  O1  UNL     1      -1.943   1.657  -1.093  1.00  0.00    -0.146 OA
HETATM    2  C1  UNL     1      -1.791   2.109  -2.249  1.00  0.00     0.357 A 
HETATM    3  C2  UNL     1      -2.901   1.212  -2.627  1.00  0.00     0.081 C 
HETATM    4  C3  UNL     1      -3.685   0.636  -1.516  1.00  0.00     0.007 C 
HETATM    5  C4  UNL     1      -4.626  -0.469  -1.930  1.00  0.00     0.019 C 
HETATM    6  C5  UNL     1      -3.874  -1.659  -2.499  1.00  0.00     0.115 C 
HETATM    7  N1  UNL     1      -2.989  -2.268  -1.526  1.00  0.00    -0.406 N 
HETATM    8  C6  UNL     1      -2.076  -2.768  -0.567  1.00  0.00     0.117 A 
HETATM    9  O2  UNL     1      -1.436  -1.734  -0.343  1.00  0.00     0.000 OA
HETATM   10  O3  UNL     1      -1.048  -2.597   0.277  1.00  0.00     0.000 OA
HETATM   11  N2  UNL     1      -0.304  -1.548   0.614  1.00  0.00    -0.100 NA
HETATM   12  C7  UNL     1       0.972  -1.498   0.844  1.00  0.00     0.073 A 
HETATM   13  C8  UNL     1       1.699  -2.789   0.706  1.00  0.00     0.029 A 
HETATM   14  C9  UNL     1       2.969  -3.226   0.847  1.00  0.00     0.002 A 
HETATM   15  C10 UNL     1       4.380  -2.897   1.176  1.00  0.00    -0.005 A 
HETATM   16  C11 UNL     1       5.231  -1.925   1.540  1.00  0.00    -0.035 A 
HETATM   17  C12 UNL     1       5.556  -0.528   1.899  1.00  0.00    -0.002 A 
HETATM   18  B1  UNL     1       4.039   0.419   1.845  1.00  0.00     0.310 B 
HETATM   19  N3  UNL     1       2.682  -0.605   1.326  1.00  0.00    -0.361 NA
HETATM   20  C13 UNL     1       1.434  -0.131   1.205  1.00  0.00     0.060 A 
HETATM   21  C14 UNL     1       0.824   1.002   1.324  1.00  0.00    -0.045 C 
HETATM   22  C15 UNL     1       1.691   2.108   1.707  1.00  0.00     0.040 C 
HETATM   23  C16 UNL     1       0.936   3.395   1.809  1.00  0.00     0.033 C 
HETATM   24  C17 UNL     1       0.052   3.663   0.617  1.00  0.00     0.009 C 
HETATM   25  C18 UNL     1      -0.516   2.599   0.083  1.00  0.00     0.148 C 
HETATM   26  C19 UNL     1      -0.579   1.504   1.140  1.00  0.00     0.104 C 
HETATM   27  N4  UNL     1      -0.898   2.648  -1.287  1.00  0.00     0.114 N 
HETATM   28  H9  UNL     1      -3.164  -3.305  -1.332  1.00  0.00     0.154 HD
HETATM   29  H23 UNL     1      -0.351   3.327  -1.905  1.00  0.00     0.329 HD
ENDROOT
TORSDOF 0
