REMARK  2 active torsions:
REMARK  status: ('A' for Active; 'I' for Inactive)
REMARK    1  A    between atoms: C2_2  and  C5_5 
REMARK       I    between atoms: C5_5  and  N1_7 
REMARK    2  A    between atoms: N1_7  and  C6_8 
ROOT
HETATM    1  C6  UNL     1       0.833  -0.155   0.615  1.00  0.00     0.035 A 
HETATM    2  C7  UNL     1       0.583  -1.364   1.221  1.00  0.00     0.032 A 
HETATM    3  C8  UNL     1      -0.710  -1.824   1.079  1.00  0.00     0.032 A 
HETATM    4  C9  UNL     1      -1.621  -1.082   0.374  1.00  0.00     0.042 A 
HETATM    5  C10 UNL     1      -1.439   0.123  -0.250  1.00  0.00    -0.018 A 
HETATM    6  C11 UNL     1      -0.124   0.548  -0.080  1.00  0.00     0.039 A 
HETATM    7  C12 UNL     1      -2.265   1.017  -1.003  1.00  0.00     0.081 C 
HETATM    8  C13 UNL     1      -3.117   0.395  -2.082  1.00  0.00    -0.002 C 
HETATM    9  C14 UNL     1      -3.865   1.432  -2.387  1.00  0.00    -0.030 C 
HETATM   10  C15 UNL     1      -3.850   2.491  -1.625  1.00  0.00     0.022 C 
HETATM   11  C16 UNL     1      -3.304   1.848  -0.347  1.00  0.00     0.169 C 
HETATM   12  N2  UNL     1      -4.440   1.223   0.205  1.00  0.00    -0.521 NA
HETATM   13  B1  UNL     1      -5.406   0.373   0.747  1.00  0.00     0.568 B 
HETATM   14  O2  UNL     1      -5.436  -1.292   1.133  1.00  0.00    -0.416 OA
HETATM   15  C17 UNL     1      -5.413  -2.222   0.046  1.00  0.00     0.248 C 
HETATM   16  C18 UNL     1      -3.980  -2.331  -0.448  1.00  0.00     0.244 C 
HETATM   17  O3  UNL     1      -2.924  -2.629  -1.066  1.00  0.00    -0.271 OA
HETATM   18  N3  UNL     1      -2.974  -1.560   0.196  1.00  0.00    -0.325 N 
HETATM   19  H20 UNL     1      -3.264  -1.054   1.058  1.00  0.00     0.169 HD
ENDROOT
BRANCH   1  20
HETATM   20  N1  UNL     1       2.176   0.307   0.769  1.00  0.00    -0.327 N 
HETATM   21  C5  UNL     1       3.109  -0.080  -0.216  1.00  0.00     0.229 C 
HETATM   22  O1  UNL     1       2.835  -0.808  -1.224  1.00  0.00    -0.272 OA
HETATM   23  H10 UNL     1       2.432   0.905   1.584  1.00  0.00     0.169 HD
BRANCH  21  24
HETATM   24  C2  UNL     1       4.528   0.383  -0.093  1.00  0.00     0.030 C 
HETATM   25  C1  UNL     1       5.375  -0.120  -1.220  1.00  0.00     0.025 C 
HETATM   26  C3  UNL     1       5.049  -0.282   1.188  1.00  0.00     0.025 C 
HETATM   27  C4  UNL     1       4.642   1.863   0.124  1.00  0.00     0.025 C 
ENDBRANCH  21  24
ENDBRANCH   1  20
TORSDOF 2
