REMARK  4 active torsions:
REMARK  status: ('A' for Active; 'I' for Inactive)
REMARK    1  A    between atoms: C2_2  and  C3_3 
REMARK    2  A    between atoms: C3_3  and  C4_4 
REMARK    3  A    between atoms: C4_4  and  C5_5 
REMARK       I    between atoms: C5_5  and  N1_7 
REMARK    4  A    between atoms: N1_7  and  C6_8 
ROOT
HETATM    1  C6  UNL     1       1.135  -1.200  -0.419  1.00  0.00     0.035 A 
HETATM    2  C7  UNL     1       1.438  -2.368  -1.077  1.00  0.00     0.032 A 
HETATM    3  C8  UNL     1       0.494  -3.224  -1.596  1.00  0.00     0.033 A 
HETATM    4  C9  UNL     1      -0.842  -2.868  -1.435  1.00  0.00     0.046 A 
HETATM    5  C10 UNL     1      -1.217  -1.707  -0.783  1.00  0.00     0.011 A 
HETATM    6  C11 UNL     1      -0.189  -0.930  -0.306  1.00  0.00     0.044 A 
HETATM    7  C12 UNL     1      -2.660  -1.550  -0.738  1.00  0.00     0.075 A 
HETATM    8  C13 UNL     1      -3.436  -0.626  -0.234  1.00  0.00     0.101 A 
HETATM    9  N2  UNL     1      -3.202   0.579   0.462  1.00  0.00    -0.351 N 
HETATM   10  C14 UNL     1      -4.378   1.287   0.830  1.00  0.00     0.047 A 
HETATM   11  C15 UNL     1      -4.612   2.473   1.502  1.00  0.00     0.030 A 
HETATM   12  C16 UNL     1      -5.884   2.941   1.729  1.00  0.00     0.002 A 
HETATM   13  C17 UNL     1      -6.962   2.227   1.287  1.00  0.00     0.001 A 
HETATM   14  C18 UNL     1      -6.716   1.051   0.623  1.00  0.00     0.018 A 
HETATM   15  C19 UNL     1      -5.436   0.548   0.375  1.00  0.00     0.043 A 
HETATM   16  C20 UNL     1      -4.893  -0.633  -0.283  1.00  0.00     0.212 A 
HETATM   17  O2  UNL     1      -5.725  -1.440  -0.771  1.00  0.00    -0.285 OA
HETATM   18  C21 UNL     1      -3.122  -2.744  -1.436  1.00  0.00     0.259 A 
HETATM   19  O3  UNL     1      -4.251  -3.207  -1.736  1.00  0.00    -0.267 OA
HETATM   20  N3  UNL     1      -2.025  -3.543  -1.858  1.00  0.00    -0.322 N 
HETATM   21  H14 UNL     1      -2.291   0.996   0.729  1.00  0.00     0.166 HD
HETATM   22  H19 UNL     1      -1.991  -4.454  -2.378  1.00  0.00     0.169 HD
ENDROOT
BRANCH   1  23
HETATM   23  N1  UNL     1       2.079  -0.300   0.125  1.00  0.00    -0.327 N 
HETATM   24  C5  UNL     1       3.484  -0.372   0.128  1.00  0.00     0.222 C 
HETATM   25  O1  UNL     1       4.017  -1.362  -0.421  1.00  0.00    -0.273 OA
HETATM   26  H10 UNL     1       1.758   0.565   0.610  1.00  0.00     0.169 HD
BRANCH  24  27
HETATM   27  C4  UNL     1       4.385   0.637   0.734  1.00  0.00     0.103 C 
BRANCH  27  28
HETATM   28  C3  UNL     1       5.826   0.216   0.539  1.00  0.00     0.009 C 
BRANCH  28  29
HETATM   29  C2  UNL     1       6.791   1.190   1.126  1.00  0.00    -0.004 C 
HETATM   30  C1  UNL     1       6.590   2.532   0.455  1.00  0.00     0.005 C 
ENDBRANCH  28  29
ENDBRANCH  27  28
ENDBRANCH  24  27
ENDBRANCH   1  23
TORSDOF 4
