REMARK  7 active torsions:
REMARK  status: ('A' for Active; 'I' for Inactive)
REMARK    1  A    between atoms: N1_2  and  C2_3 
REMARK    2  A    between atoms: C2_3  and  C3_4 
REMARK    3  A    between atoms: C3_4  and  N2_5 
REMARK    4  A    between atoms: N2_5  and  C5_7 
REMARK    5  A    between atoms: C8_10  and  C9_11 
REMARK    6  A    between atoms: C10_13  and  N3_14 
REMARK    7  A    between atoms: N3_14  and  C11_15 
ROOT
HETATM    1  C5  UNL     1      -1.454  -0.941  -0.028  1.00  0.00     0.032 A 
HETATM    2  C6  UNL     1      -1.772  -2.265   0.146  1.00  0.00     0.030 A 
HETATM    3  C7  UNL     1      -0.779  -3.164   0.460  1.00  0.00     0.019 A 
HETATM    4  C8  UNL     1       0.494  -2.680   0.584  1.00  0.00     0.028 A 
HETATM    5  C10 UNL     1       0.891  -1.373   0.425  1.00  0.00     0.043 A 
HETATM    6  C16 UNL     1      -0.174  -0.523   0.108  1.00  0.00     0.059 A 
ENDROOT
BRANCH   5   7
HETATM    7  N3  UNL     1       2.212  -0.889   0.569  1.00  0.00    -0.384 N 
HETATM    8  H13 UNL     1       2.884  -1.639   0.852  1.00  0.00     0.160 HD
BRANCH   7   9
HETATM    9  C11 UNL     1       2.700   0.437   0.381  1.00  0.00     0.085 C 
HETATM   10  C12 UNL     1       4.178   0.472   0.823  1.00  0.00     0.051 C 
HETATM   11  C13 UNL     1       5.007   1.316  -0.086  1.00  0.00     0.169 C 
HETATM   12  O2  UNL     1       4.398   2.491  -0.509  1.00  0.00    -0.391 OA
HETATM   13  C14 UNL     1       3.178   2.256  -1.136  1.00  0.00     0.169 C 
HETATM   14  C15 UNL     1       2.769   0.820  -1.095  1.00  0.00     0.051 C 
ENDBRANCH   7   9
ENDBRANCH   5   7
BRANCH   4  15
HETATM   15  C9  UNL     1       1.507  -3.661   0.911  1.00  0.00     0.272 C 
HETATM   16  O1  UNL     1       2.699  -3.914   1.142  1.00  0.00    -0.301 OA
ENDBRANCH   4  15
BRANCH   1  17
HETATM   17  N2  UNL     1      -2.498  -0.011  -0.357  1.00  0.00    -0.384 N 
HETATM   18  C4  UNL     1      -2.275   1.407  -0.551  1.00  0.00     0.149 C 
BRANCH  17  19
HETATM   19  C3  UNL     1      -3.894  -0.344  -0.531  1.00  0.00     0.141 C 
BRANCH  19  20
HETATM   20  C2  UNL     1      -4.783   0.206   0.563  1.00  0.00     0.126 C 
BRANCH  20  21
HETATM   21  N1  UNL     1      -4.760   1.613   0.686  1.00  0.00    -0.428 NA
HETATM   22  C1  UNL     1      -5.467   2.400  -0.036  1.00  0.00     0.304 C 
ENDBRANCH  20  21
ENDBRANCH  19  20
ENDBRANCH  17  19
ENDBRANCH   1  17
TORSDOF 7
