REMARK  3 active torsions:
REMARK  status: ('A' for Active; 'I' for Inactive)
REMARK    1  A    between atoms: C2_2  and  C3_3 
REMARK    2  A    between atoms: C3_3  and  C4_4 
REMARK       I    between atoms: C4_4  and  N1_6 
REMARK    3  A    between atoms: N1_6  and  C5_7 
ROOT
HETATM    1  C5  UNL     1       2.179  -0.587   1.225  1.00  0.00     0.037 A 
HETATM    2  C6  UNL     1       1.730  -1.040   2.443  1.00  0.00     0.032 A 
HETATM    3  C7  UNL     1       0.410  -1.370   2.654  1.00  0.00     0.035 A 
HETATM    4  C8  UNL     1      -0.529  -1.265   1.655  1.00  0.00     0.068 A 
HETATM    5  C9  UNL     1      -0.104  -0.814   0.426  1.00  0.00     0.102 A 
HETATM    6  C10 UNL     1       1.218  -0.494   0.254  1.00  0.00     0.068 A 
HETATM    7  O2  UNL     1      -1.039  -0.701  -0.593  1.00  0.00    -0.303 OA
HETATM    8  C11 UNL     1      -2.395  -0.573  -0.209  1.00  0.00     0.269 C 
HETATM    9  N2  UNL     1      -3.293  -0.759  -1.331  1.00  0.00    -0.344 N 
HETATM   10  C12 UNL     1      -4.457   0.022  -1.076  1.00  0.00     0.043 A 
HETATM   11  C13 UNL     1      -5.740  -0.128  -1.592  1.00  0.00     0.030 A 
HETATM   12  C14 UNL     1      -6.687   0.783  -1.168  1.00  0.00     0.002 A 
HETATM   13  C15 UNL     1      -6.392   1.796  -0.278  1.00  0.00     0.001 A 
HETATM   14  C16 UNL     1      -5.095   1.908   0.212  1.00  0.00     0.016 A 
HETATM   15  C17 UNL     1      -4.095   1.025  -0.174  1.00  0.00     0.020 A 
HETATM   16  C18 UNL     1      -2.671   0.849   0.128  1.00  0.00     0.103 C 
HETATM   17  N3  UNL     1      -1.953   1.817   0.582  1.00  0.00    -0.298 NA
HETATM   18  C19 UNL     1      -2.789  -1.495   0.878  1.00  0.00     0.285 C 
HETATM   19  O3  UNL     1      -3.874  -2.136   0.865  1.00  0.00    -0.267 OA
HETATM   20  N4  UNL     1      -1.870  -1.630   1.963  1.00  0.00    -0.320 N 
HETATM   21  H12 UNL     1      -3.146  -1.353  -2.190  1.00  0.00     0.163 HD
HETATM   22  H17 UNL     1      -0.935   1.729   0.809  1.00  0.00     0.187 HD
HETATM   23  H18 UNL     1      -2.188  -1.970   2.890  1.00  0.00     0.169 HD
ENDROOT
BRANCH   1  24
HETATM   24  N1  UNL     1       3.552  -0.270   1.099  1.00  0.00    -0.327 N 
HETATM   25  C4  UNL     1       4.268   0.209  -0.023  1.00  0.00     0.222 C 
HETATM   26  O1  UNL     1       3.660   0.404  -1.095  1.00  0.00    -0.273 OA
HETATM   27  H8  UNL     1       4.188  -0.384   1.918  1.00  0.00     0.169 HD
BRANCH  25  28
HETATM   28  C3  UNL     1       5.716   0.508  -0.040  1.00  0.00     0.103 C 
BRANCH  28  29
HETATM   29  C2  UNL     1       6.083   0.994  -1.426  1.00  0.00     0.005 C 
HETATM   30  C1  UNL     1       5.785  -0.040  -2.476  1.00  0.00     0.005 C 
ENDBRANCH  28  29
ENDBRANCH  25  28
ENDBRANCH   1  24
TORSDOF 3
