REMARK  3 active torsions:
REMARK  status: ('A' for Active; 'I' for Inactive)
REMARK    1  A    between atoms: C2_2  and  C3_3 
REMARK    2  A    between atoms: C3_3  and  C4_4 
REMARK    3  A    between atoms: C4_4  and  C5_5 
REMARK       I    between atoms: C5_5  and  N1_7 
ROOT
HETATM    1  C5  UNL     1      -2.830  -1.242   0.005  1.00  0.00     0.220 C 
HETATM    2  O1  UNL     1      -3.170  -2.187   0.780  1.00  0.00    -0.273 OA
HETATM    3  N1  UNL     1      -1.700  -1.275  -0.895  1.00  0.00    -0.347 N 
HETATM    4  C6  UNL     1      -1.429  -0.097  -1.735  1.00  0.00     0.153 C 
HETATM    5  C7  UNL     1      -0.552   0.890  -1.127  1.00  0.00     0.002 C 
HETATM    6  C8  UNL     1       0.084   1.896  -0.604  1.00  0.00    -0.023 C 
HETATM    7  C9  UNL     1      -0.767   3.107  -0.587  1.00  0.00     0.308 C 
HETATM    8  N2  UNL     1       0.071   4.124   0.073  1.00  0.00     0.091 N 
HETATM    9  C10 UNL     1       0.933   3.302   0.910  1.00  0.00     0.310 C 
HETATM   10  C11 UNL     1       1.333   2.218  -0.017  1.00  0.00    -0.007 C 
HETATM   11  C12 UNL     1       2.539   1.735  -0.179  1.00  0.00     0.097 C 
HETATM   12  N3  UNL     1       3.578   0.921  -0.684  1.00  0.00    -0.365 N 
HETATM   13  C13 UNL     1       4.202  -0.245  -0.157  1.00  0.00     0.037 A 
HETATM   14  C14 UNL     1       5.340   0.228   0.519  1.00  0.00     0.030 A 
HETATM   15  C15 UNL     1       6.267  -0.572   1.209  1.00  0.00     0.002 A 
HETATM   16  C16 UNL     1       6.012  -1.934   1.205  1.00  0.00     0.001 A 
HETATM   17  C17 UNL     1       4.891  -2.374   0.535  1.00  0.00     0.009 A 
HETATM   18  C18 UNL     1       3.981  -1.595  -0.142  1.00  0.00    -0.038 A 
HETATM   19  C19 UNL     1       2.895  -2.322  -0.780  1.00  0.00     0.020 C 
HETATM   20  B1  UNL     1       2.209  -3.275   0.313  1.00  0.00     0.315 B 
HETATM   21  O2  UNL     1       0.794  -3.681   0.111  1.00  0.00    -0.455 OA
HETATM   22  C20 UNL     1       0.096  -2.445   0.178  1.00  0.00     0.162 C 
HETATM   23  C21 UNL     1      -0.970  -2.502  -0.878  1.00  0.00     0.150 C 
HETATM   24  H15 UNL     1       0.680   4.516  -0.678  1.00  0.00     0.316 HD
HETATM   25  H19 UNL     1       4.089   1.076  -1.576  1.00  0.00     0.165 HD
HETATM   26  H26 UNL     1       2.520  -3.178   1.440  1.00  0.00     0.008 HD
ENDROOT
BRANCH   1  27
HETATM   27  C4  UNL     1      -3.692  -0.020   0.060  1.00  0.00     0.103 C 
BRANCH  27  28
HETATM   28  C3  UNL     1      -4.816  -0.150   1.059  1.00  0.00     0.009 C 
BRANCH  28  29
HETATM   29  C2  UNL     1      -5.686   1.069   1.122  1.00  0.00    -0.004 C 
HETATM   30  C1  UNL     1      -6.331   1.370  -0.201  1.00  0.00     0.005 C 
ENDBRANCH  28  29
ENDBRANCH  27  28
ENDBRANCH   1  27
TORSDOF 3
