REMARK  3 active torsions:
REMARK  status: ('A' for Active; 'I' for Inactive)
REMARK    1  A    between atoms: C6_8  and  C7_9 
REMARK    2  A    between atoms: C7_9  and  C8_10 
REMARK    3  A    between atoms: C14_17  and  C15_18 
ROOT
HETATM    1  C1  UNL     1      -3.489   2.549   0.040  1.00  0.00     0.039 C 
HETATM    2  C2  UNL     1      -3.068   1.478  -0.819  1.00  0.00     0.130 C 
HETATM    3  N1  UNL     1      -1.630   1.128  -0.904  1.00  0.00    -0.351 N 
HETATM    4  C3  UNL     1      -0.580   0.748  -1.742  1.00  0.00     0.228 C 
HETATM    5  O1  UNL     1      -0.834   0.723  -2.959  1.00  0.00    -0.273 OA
HETATM    6  C4  UNL     1       0.423   0.527  -0.613  1.00  0.00     0.057 A 
HETATM    7  C5  UNL     1       1.346   1.527  -0.590  1.00  0.00     0.021 A 
HETATM    8  C6  UNL     1       1.128   0.480   0.201  1.00  0.00    -0.004 A 
HETATM    9  C13 UNL     1       0.418  -0.612   0.539  1.00  0.00     0.001 A 
HETATM   10  C14 UNL     1      -0.092  -1.719   1.091  1.00  0.00     0.014 A 
HETATM   11  C15 UNL     1       0.100  -0.626   0.195  1.00  0.00    -0.005 A 
HETATM   12  C16 UNL     1      -0.510  -1.695  -0.810  1.00  0.00     0.039 C 
HETATM   13  C17 UNL     1      -1.031  -2.895  -0.209  1.00  0.00    -0.024 C 
HETATM   14  C18 UNL     1      -2.339  -3.110   0.222  1.00  0.00     0.018 C 
HETATM   15  C19 UNL     1      -3.471  -2.241   0.231  1.00  0.00     0.042 C 
HETATM   16 CL1  UNL     1      -4.917  -3.141   0.744  1.00  0.00    -0.086 Cl
HETATM   17  C20 UNL     1      -4.199  -1.167   0.102  1.00  0.00     0.202 A 
HETATM   18  C21 UNL     1      -3.475   0.049  -0.295  1.00  0.00     0.060 A 
HETATM   19  N3  UNL     1      -2.602  -0.727   0.258  1.00  0.00    -0.277 N 
HETATM   20  N4  UNL     1      -1.259  -0.621   0.555  1.00  0.00     0.000 N 
HETATM   21  H5  UNL     1      -1.610   1.427   0.127  1.00  0.00     0.163 HD
HETATM   22  H19 UNL     1      -1.862  -0.337   1.427  1.00  0.00     0.000 HD
ENDROOT
BRANCH   8  23
HETATM   23  C7  UNL     1       2.339   0.714   1.089  1.00  0.00     0.050 C 
BRANCH  23  24
HETATM   24  C8  UNL     1       3.564   0.494   0.304  1.00  0.00    -0.055 A 
HETATM   25  C9  UNL     1       4.085   1.778   0.084  1.00  0.00     0.026 A 
HETATM   26  C10 UNL     1       5.239   1.984  -0.688  1.00  0.00     0.116 A 
HETATM   27  N2  UNL     1       5.822   0.901  -1.211  1.00  0.00    -0.273 NA
HETATM   28  C11 UNL     1       5.305  -0.322  -0.981  1.00  0.00     0.116 A 
HETATM   29  C12 UNL     1       4.169  -0.573  -0.224  1.00  0.00     0.026 A 
ENDBRANCH  23  24
ENDBRANCH   8  23
TORSDOF 3
