REMARK  4 active torsions:
REMARK  status: ('A' for Active; 'I' for Inactive)
REMARK    1  A    between atoms: C2_2  and  N1_3 
REMARK    2  A    between atoms: N1_3  and  C3_4 
REMARK    3  A    between atoms: C4_5  and  C5_6 
REMARK    4  A    between atoms: C14_17  and  O1_18 
ROOT
HETATM    1  C3  UNL     1      -0.158  -0.504   0.799  1.00  0.00     0.037 A 
HETATM    2  C4  UNL     1      -0.047   0.588   0.019  1.00  0.00    -0.017 A 
HETATM    3  C11 UNL     1       1.142   1.022  -0.749  1.00  0.00     0.082 A 
HETATM    4  C12 UNL     1       2.255   0.064  -0.527  1.00  0.00    -0.027 A 
HETATM    5  C13 UNL     1       3.456   0.160  -1.056  1.00  0.00     0.035 A 
HETATM    6  C14 UNL     1       4.332  -0.962  -0.630  1.00  0.00     0.242 A 
HETATM    7  N2  UNL     1       3.451  -1.720   0.220  1.00  0.00    -0.360 N 
HETATM    8  C15 UNL     1       2.162  -1.122   0.316  1.00  0.00     0.038 A 
HETATM    9  C16 UNL     1       1.019  -1.366   0.924  1.00  0.00     0.059 A 
HETATM   10  H15 UNL     1       3.724  -2.596   0.706  1.00  0.00     0.162 HD
ENDROOT
BRANCH   2  11
HETATM   11  C5  UNL     1      -1.165   1.508  -0.147  1.00  0.00    -0.021 A 
HETATM   12  C6  UNL     1      -1.718   1.899   1.082  1.00  0.00     0.054 A 
HETATM   13  C7  UNL     1      -2.815   2.749   1.162  1.00  0.00     0.120 A 
HETATM   14  F1  UNL     1      -3.329   3.104   2.377  1.00  0.00    -0.206 F 
HETATM   15  C8  UNL     1      -3.373   3.221  -0.014  1.00  0.00     0.084 A 
HETATM   16  C9  UNL     1      -2.836   2.845  -1.225  1.00  0.00     0.120 A 
HETATM   17  F2  UNL     1      -3.396   3.314  -2.349  1.00  0.00    -0.206 F 
HETATM   18  C10 UNL     1      -1.749   2.002  -1.307  1.00  0.00     0.054 A 
ENDBRANCH   2  11
BRANCH   1  19
HETATM   19  N1  UNL     1      -1.249  -0.992   1.563  1.00  0.00    -0.390 N 
HETATM   20  H6  UNL     1      -1.853  -0.654   2.329  1.00  0.00     0.159 HD
BRANCH  19  21
HETATM   21  C2  UNL     1      -1.639  -2.340   1.177  1.00  0.00     0.115 C 
HETATM   22  C1  UNL     1      -2.230  -2.334  -0.216  1.00  0.00     0.026 C 
ENDBRANCH  19  21
ENDBRANCH   1  19
BRANCH   6  23
HETATM   23  O1  UNL     1       4.795  -1.671  -1.738  1.00  0.00    -0.373 OA
HETATM   24  H14 UNL     1       5.751  -1.877  -1.586  1.00  0.00     0.212 HD
ENDBRANCH   6  23
TORSDOF 4
