REMARK  6 active torsions:
REMARK  status: ('A' for Active; 'I' for Inactive)
REMARK    1  A    between atoms: C2_2  and  N1_3 
REMARK    2  A    between atoms: C2_2  and  C14_22 
REMARK       I    between atoms: N1_3  and  C3_4 
REMARK    3  A    between atoms: C3_4  and  B1_6 
REMARK    4  A    between atoms: C5_9  and  C6_10 
REMARK    5  A    between atoms: C9_13  and  B2_14 
REMARK    6  A    between atoms: B2_14  and  C10_15 
ROOT
HETATM    1  B1  UNL     1      -2.339  -3.111  -0.485  1.00  0.00     0.374 B 
HETATM    2  C4  UNL     1      -0.865  -2.642  -0.847  1.00  0.00     0.007 A 
HETATM    3 CL1  UNL     1      -0.729  -2.620   0.923  1.00  0.00    -0.268 Cl
HETATM    4  C5  UNL     1       0.352  -2.254  -1.226  1.00  0.00     0.069 C 
HETATM    5  H6  UNL     1      -2.587  -4.224  -0.862  1.00  0.00     0.011 HD
ENDROOT
BRANCH   1   6
HETATM    6  C3  UNL     1      -3.436  -1.982  -0.645  1.00  0.00     0.187 C 
HETATM    7  N1  UNL     1      -3.145  -0.623  -0.951  1.00  0.00    -0.361 N 
HETATM    8  H5  UNL     1      -2.141  -0.391  -1.071  1.00  0.00     0.162 HD
HETATM    9  O1  UNL     1      -4.618  -2.376  -0.478  1.00  0.00    -0.286 OA
BRANCH   7  10
HETATM   10  C2  UNL     1      -4.235   0.313  -1.071  1.00  0.00     0.112 C 
HETATM   11  C1  UNL     1      -4.327   1.016  -2.377  1.00  0.00     0.037 C 
BRANCH  10  12
HETATM   12  C14 UNL     1      -4.162   1.363   0.001  1.00  0.00    -0.036 A 
HETATM   13  C15 UNL     1      -2.935   1.930   0.255  1.00  0.00     0.009 A 
HETATM   14  C16 UNL     1      -2.846   2.904   1.242  1.00  0.00     0.001 A 
HETATM   15  C17 UNL     1      -3.958   3.309   1.965  1.00  0.00     0.000 A 
HETATM   16  C18 UNL     1      -5.174   2.719   1.684  1.00  0.00     0.001 A 
HETATM   17  C19 UNL     1      -5.305   1.745   0.709  1.00  0.00     0.009 A 
ENDBRANCH  10  12
ENDBRANCH   7  10
ENDBRANCH   1   6
BRANCH   4  18
HETATM   18  C6  UNL     1       1.114  -1.995  -2.469  1.00  0.00     0.006 C 
HETATM   19  C7  UNL     1       2.178  -1.672  -1.745  1.00  0.00     0.029 A 
HETATM   20  C8  UNL     1       2.291  -1.661  -0.267  1.00  0.00     0.101 A 
HETATM   21  N4  UNL     1       3.433  -1.266  -2.252  1.00  0.00    -0.283 N 
HETATM   22  C9  UNL     1       3.705  -1.213  -0.069  1.00  0.00    -0.004 A 
HETATM   23  N3  UNL     1       4.320  -1.000  -1.197  1.00  0.00    -0.196 NA
HETATM   24  H16 UNL     1       3.593  -1.200  -3.278  1.00  0.00     0.189 HD
BRANCH  22  25
HETATM   25  B2  UNL     1       4.444  -0.997   1.300  1.00  0.00     0.249 B 
HETATM   26  H11 UNL     1       3.857  -1.277   2.290  1.00  0.00    -0.014 HD
BRANCH  25  27
HETATM   27  C10 UNL     1       5.541   0.110   1.446  1.00  0.00    -0.095 A 
HETATM   28  C11 UNL     1       5.457   1.314   0.920  1.00  0.00     0.011 A 
HETATM   29  C12 UNL     1       6.686   2.006   1.302  1.00  0.00     0.110 A 
HETATM   30  N2  UNL     1       7.464   1.248   2.022  1.00  0.00    -0.298 NA
HETATM   31  C13 UNL     1       6.829  -0.032   2.193  1.00  0.00     0.171 A 
ENDBRANCH  25  27
ENDBRANCH  22  25
ENDBRANCH   4  18
TORSDOF 6
