REMARK  4 active torsions:
REMARK  status: ('A' for Active; 'I' for Inactive)
REMARK    1  A    between atoms: C1_2  and  C2_3 
REMARK    2  A    between atoms: C2_3  and  C3_4 
REMARK    3  A    between atoms: C4_6  and  C5_7 
REMARK    4  A    between atoms: C8_10  and  C9_11 
ROOT
HETATM    1  C5  UNL     1      -0.695  -1.723   0.546  1.00  0.00     0.028 C 
HETATM    2  C6  UNL     1       0.611  -1.552   0.459  1.00  0.00     0.033 A 
HETATM    3  C7  UNL     1       1.310  -0.303   0.056  1.00  0.00     0.120 A 
HETATM    4  C8  UNL     1       2.750  -0.716   0.146  1.00  0.00     0.070 A 
HETATM    5  N2  UNL     1       2.902  -1.950   0.523  1.00  0.00    -0.178 NA
HETATM    6  N3  UNL     1       1.634  -2.504   0.727  1.00  0.00    -0.282 N 
HETATM    7  H10 UNL     1       1.417  -3.494   1.038  1.00  0.00     0.189 HD
ENDROOT
BRANCH   1   8
HETATM    8  C4  UNL     1      -1.588  -0.620   0.229  1.00  0.00     0.023 C 
HETATM    9  C3  UNL     1      -2.901  -0.769   0.309  1.00  0.00     0.031 C 
HETATM   10 CL1  UNL     1      -3.603  -2.297   0.798  1.00  0.00    -0.087 Cl
BRANCH   9  11
HETATM   11  C2  UNL     1      -3.887   0.307   0.002  1.00  0.00     0.071 A 
HETATM   12  C14 UNL     1      -4.849  -0.116  -1.011  1.00  0.00    -0.008 A 
HETATM   13  C15 UNL     1      -5.858  -0.022  -0.206  1.00  0.00    -0.027 A 
HETATM   14  C16 UNL     1      -5.036   0.414   0.917  1.00  0.00     0.053 A 
BRANCH  11  15
HETATM   15  C1  UNL     1      -3.251   1.593  -0.411  1.00  0.00     0.251 C 
HETATM   16  O1  UNL     1      -3.419   2.640   0.213  1.00  0.00    -0.305 OA
ENDBRANCH  11  15
ENDBRANCH   9  11
ENDBRANCH   1   8
BRANCH   4  17
HETATM   17  C9  UNL     1       3.840   0.214  -0.169  1.00  0.00    -0.007 A 
HETATM   18  C10 UNL     1       3.643   1.514  -0.565  1.00  0.00     0.032 A 
HETATM   19  C11 UNL     1       4.701   2.355  -0.852  1.00  0.00     0.117 A 
HETATM   20  N1  UNL     1       5.960   1.903  -0.745  1.00  0.00    -0.273 NA
HETATM   21  C12 UNL     1       6.218   0.632  -0.359  1.00  0.00     0.117 A 
HETATM   22  C13 UNL     1       5.159  -0.207  -0.073  1.00  0.00     0.032 A 
ENDBRANCH   4  17
TORSDOF 4
