REMARK  2 active torsions:
REMARK  status: ('A' for Active; 'I' for Inactive)
REMARK    1  A    between atoms: C7_8  and  N1_9 
REMARK       I    between atoms: N1_9  and  C8_10 
REMARK    2  A    between atoms: C8_10  and  C9_12 
ROOT
HETATM    1  N1  UNL     1       0.674  -0.978   0.269  1.00  0.00    -0.355 N 
HETATM    2  C8  UNL     1      -0.413  -0.533   1.071  1.00  0.00     0.231 C 
HETATM    3  O1  UNL     1      -0.098   0.229   2.031  1.00  0.00    -0.272 OA
HETATM    4  H9  UNL     1       0.684  -1.611  -0.579  1.00  0.00     0.162 HD
ENDROOT
BRANCH   2   5
HETATM    5  C9  UNL     1      -1.686  -1.064   0.601  1.00  0.00     0.152 C 
HETATM    6  C10 UNL     1      -2.859  -0.626   1.408  1.00  0.00    -0.002 C 
HETATM    7  C11 UNL     1      -3.998  -0.347   0.732  1.00  0.00    -0.059 C 
HETATM    8  C12 UNL     1      -5.118   0.664   0.567  1.00  0.00     0.064 C 
HETATM    9  C18 UNL     1      -4.170  -1.502  -0.243  1.00  0.00     0.183 C 
HETATM   10  C13 UNL     1      -4.618   1.655  -0.456  1.00  0.00    -0.003 C 
HETATM   11  C14 UNL     1      -3.304   1.807  -0.674  1.00  0.00     0.113 C 
HETATM   12  N2  UNL     1      -1.986   2.145  -1.084  1.00  0.00    -0.259 NA
HETATM   13  C15 UNL     1      -1.550   1.511  -2.132  1.00  0.00     0.087 C 
HETATM   14  C16 UNL     1      -1.598   0.198  -1.948  1.00  0.00     0.061 C 
HETATM   15  C17 UNL     1      -2.008  -0.624  -0.819  1.00  0.00     0.048 C 
HETATM   16  N3  UNL     1      -3.094  -1.251  -1.218  1.00  0.00    -0.289 NA
ENDBRANCH   2   5
BRANCH   1  17
HETATM   17  C7  UNL     1       2.065  -0.580   0.538  1.00  0.00     0.091 C 
HETATM   18  C6  UNL     1       2.871  -1.779   0.866  1.00  0.00     0.052 C 
HETATM   19  C5  UNL     1       4.322  -1.697   0.679  1.00  0.00    -0.023 C 
HETATM   20  C4  UNL     1       5.253  -0.787   0.334  1.00  0.00     0.020 C 
HETATM   21  C3  UNL     1       4.892   0.610   0.009  1.00  0.00     0.035 C 
HETATM   22  C2  UNL     1       3.699   1.081  -0.400  1.00  0.00    -0.060 C 
HETATM   23 CL1  UNL     1       6.264   1.704   0.219  1.00  0.00    -0.084 Cl
HETATM   24  C1  UNL     1       3.740   2.566  -0.626  1.00  0.00     0.045 C 
HETATM   25  C19 UNL     1       2.488   0.243  -0.607  1.00  0.00     0.060 C 
ENDBRANCH   1  17
TORSDOF 2
