REMARK  3 active torsions:
REMARK  status: ('A' for Active; 'I' for Inactive)
REMARK    1  A    between atoms: N1_1  and  C1_2 
REMARK    2  A    between atoms: C7_8  and  C8_9 
REMARK    3  A    between atoms: C14_17  and  C15_18 
ROOT
HETATM    1  C1  UNL     1      -2.454  -1.515  -0.360  1.00  0.00     0.020 A 
HETATM    2  C2  UNL     1      -1.982  -2.856  -0.386  1.00  0.00     0.022 A 
HETATM    3  C3  UNL     1      -1.094  -3.205   0.688  1.00  0.00    -0.008 A 
HETATM    4  C4  UNL     1      -0.965  -2.100   1.475  1.00  0.00     0.072 A 
HETATM    5  C5  UNL     1      -1.184  -0.801   1.884  1.00  0.00     0.034 A 
HETATM    6  C6  UNL     1      -1.894  -0.961   0.753  1.00  0.00     0.079 A 
HETATM    7  C7  UNL     1      -1.589   0.493   0.299  1.00  0.00     0.104 C 
HETATM    8  N3  UNL     1      -0.387   0.777   0.156  1.00  0.00    -0.448 NA
HETATM    9  C13 UNL     1       0.918   0.992   0.028  1.00  0.00     0.259 C 
HETATM   10  C14 UNL     1       1.799  -0.294  -0.103  1.00  0.00     0.288 C 
HETATM   11  N4  UNL     1       1.451  -1.018   1.185  1.00  0.00     0.098 N 
HETATM   12  C21 UNL     1       0.463  -1.816   2.049  1.00  0.00     0.365 A 
HETATM   13  O1  UNL     1       0.793  -1.213   1.023  1.00  0.00    -0.149 OA
HETATM   14  H17 UNL     1       2.340  -0.954   1.882  1.00  0.00     0.323 HD
ENDROOT
BRANCH  10  15
HETATM   15  C15 UNL     1       3.199  -0.037  -0.200  1.00  0.00    -0.020 A 
HETATM   16  C16 UNL     1       3.944   0.469   0.834  1.00  0.00     0.009 A 
HETATM   17  C17 UNL     1       5.295   0.693   0.682  1.00  0.00     0.002 A 
HETATM   18  C18 UNL     1       5.908   0.408  -0.520  1.00  0.00     0.024 A 
HETATM   19  C19 UNL     1       5.165  -0.107  -1.584  1.00  0.00     0.034 A 
HETATM   20 CL1  UNL     1       5.933  -0.470  -3.105  1.00  0.00    -0.084 Cl
HETATM   21  C20 UNL     1       3.834  -0.318  -1.403  1.00  0.00     0.033 A 
ENDBRANCH  10  15
BRANCH   7  22
HETATM   22  C8  UNL     1      -2.819   1.223   0.078  1.00  0.00     0.004 A 
HETATM   23  C9  UNL     1      -4.100   0.843   0.364  1.00  0.00     0.034 A 
HETATM   24  C10 UNL     1      -5.146   1.675   0.026  1.00  0.00     0.117 A 
HETATM   25  N2  UNL     1      -4.951   2.864  -0.583  1.00  0.00    -0.273 NA
HETATM   26  C11 UNL     1      -3.693   3.248  -0.868  1.00  0.00     0.117 A 
HETATM   27  C12 UNL     1      -2.594   2.455  -0.553  1.00  0.00     0.034 A 
ENDBRANCH   7  22
BRANCH   1  28
HETATM   28  N1  UNL     1      -3.288  -1.101  -1.419  1.00  0.00    -0.401 N 
HETATM   29  H1  UNL     1      -4.205  -1.628  -1.422  1.00  0.00     0.156 HD
HETATM   30  H2  UNL     1      -3.086  -0.371  -2.145  1.00  0.00     0.156 HD
ENDBRANCH   1  28
TORSDOF 3
