REMARK  6 active torsions:
REMARK  status: ('A' for Active; 'I' for Inactive)
REMARK    1  A    between atoms: C5_5  and  N1_6 
REMARK    2  A    between atoms: C9_11  and  C10_12 
REMARK    3  A    between atoms: C10_12  and  C11_13 
REMARK    4  A    between atoms: C10_12  and  C12_15 
REMARK    5  A    between atoms: C12_15  and  C13_16 
REMARK    6  A    between atoms: C13_16  and  O1_17 
ROOT
HETATM    1  N1  UNL     1      -2.738   0.991  -0.463  1.00  0.00    -0.271 N 
HETATM    2  C6  UNL     1      -1.917  -0.107  -0.081  1.00  0.00     0.140 A 
HETATM    3  C7  UNL     1      -0.701   0.259   0.296  1.00  0.00     0.057 A 
HETATM    4  N2  UNL     1       0.103  -0.854   0.669  1.00  0.00    -0.385 N 
HETATM    5  C8  UNL     1       1.485  -1.306   0.754  1.00  0.00     0.161 C 
HETATM    6  C9  UNL     1       2.450  -0.345   0.175  1.00  0.00    -0.007 C 
HETATM    7  C14 UNL     1       2.207   0.861  -0.273  1.00  0.00     0.145 C 
HETATM    8  O2  UNL     1       1.081   1.705  -0.402  1.00  0.00    -0.346 OA
HETATM    9  C15 UNL     1      -0.078   1.592   0.390  1.00  0.00     0.220 A 
HETATM   10  C16 UNL     1      -1.057   2.612  -0.043  1.00  0.00     0.150 A 
HETATM   11  N4  UNL     1      -2.251   2.302  -0.421  1.00  0.00    -0.186 NA
HETATM   12  H9  UNL     1      -0.427  -1.707   1.016  1.00  0.00     0.159 HD
ENDROOT
BRANCH   6  13
HETATM   13  C10 UNL     1       3.835  -0.864   0.123  1.00  0.00    -0.011 C 
BRANCH  13  14
HETATM   14  C11 UNL     1       4.070  -2.226   0.673  1.00  0.00     0.119 C 
HETATM   15  N3  UNL     1       3.382  -3.115   1.207  1.00  0.00    -0.311 NA
HETATM   16  H13 UNL     1       3.626  -4.046   1.566  1.00  0.00     0.186 HD
ENDBRANCH  13  14
BRANCH  13  17
HETATM   17  C12 UNL     1       4.924  -0.239  -0.348  1.00  0.00     0.012 C 
BRANCH  17  18
HETATM   18  C13 UNL     1       5.771   0.778  -0.934  1.00  0.00     0.192 C 
BRANCH  18  19
HETATM   19  O1  UNL     1       6.813   1.205  -0.076  1.00  0.00    -0.397 OA
HETATM   20  H17 UNL     1       6.393   1.796   0.623  1.00  0.00     0.209 HD
ENDBRANCH  18  19
ENDBRANCH  17  18
ENDBRANCH  13  17
ENDBRANCH   6  13
BRANCH   1  21
HETATM   21  C5  UNL     1      -4.090   0.686  -0.892  1.00  0.00     0.139 A 
HETATM   22  C2  UNL     1      -4.969   0.011   0.065  1.00  0.00     0.032 A 
HETATM   23  C1  UNL     1      -6.392   0.534   0.169  1.00  0.00     0.016 C 
HETATM   24  C3  UNL     1      -4.939  -1.131  -0.849  1.00  0.00    -0.022 A 
HETATM   25  C4  UNL     1      -4.161  -0.529  -1.691  1.00  0.00    -0.003 A 
ENDBRANCH   1  21
TORSDOF 6
