REMARK  4 active torsions:
REMARK  status: ('A' for Active; 'I' for Inactive)
REMARK    1  A    between atoms: C2_2  and  N1_3 
REMARK    2  A    between atoms: C2_2  and  C15_21 
REMARK       I    between atoms: N1_3  and  C3_4 
REMARK    3  A    between atoms: C3_4  and  C4_6 
REMARK    4  A    between atoms: C8_12  and  C9_13 
ROOT
HETATM    1  C4  UNL     1      -0.391   0.950  -0.526  1.00  0.00     0.097 C 
HETATM    2  C5  UNL     1      -0.117   1.542  -1.695  1.00  0.00     0.037 C 
HETATM    3  C6  UNL     1      -1.202   1.696  -2.657  1.00  0.00     0.031 C 
HETATM    4  C7  UNL     1      -2.473   1.281  -2.511  1.00  0.00     0.056 C 
HETATM    5  N2  UNL     1      -3.768   1.214  -3.077  1.00  0.00    -0.280 N 
HETATM    6  N3  UNL     1      -4.590   0.429  -2.279  1.00  0.00    -0.176 NA
HETATM    7  C8  UNL     1      -3.937  -0.030  -1.263  1.00  0.00     0.093 C 
HETATM    8  C14 UNL     1      -2.518   0.301  -1.367  1.00  0.00     0.188 C 
HETATM    9  N5  UNL     1      -1.760   0.634  -0.249  1.00  0.00    -0.370 N 
HETATM   10  H8  UNL     1      -3.890   1.751  -3.974  1.00  0.00     0.189 HD
HETATM   11  H14 UNL     1      -1.948   0.721   0.790  1.00  0.00     0.161 HD
ENDROOT
BRANCH   1  12
HETATM   12  C3  UNL     1       0.678   0.759   0.479  1.00  0.00     0.268 C 
HETATM   13  N1  UNL     1       2.008   1.182   0.255  1.00  0.00    -0.347 N 
HETATM   14  H5  UNL     1       2.301   1.646  -0.618  1.00  0.00     0.163 HD
HETATM   15  O1  UNL     1       0.426   0.208   1.569  1.00  0.00    -0.266 OA
BRANCH  13  16
HETATM   16  C2  UNL     1       3.054   1.002   1.221  1.00  0.00     0.114 C 
HETATM   17  C1  UNL     1       3.622   2.277   1.744  1.00  0.00     0.037 C 
BRANCH  16  18
HETATM   18  C15 UNL     1       4.090   0.050   0.761  1.00  0.00    -0.034 A 
HETATM   19  C16 UNL     1       5.450   0.237   0.865  1.00  0.00     0.009 A 
HETATM   20  C17 UNL     1       6.380  -0.675   0.424  1.00  0.00     0.002 A 
HETATM   21  C18 UNL     1       5.952  -1.848  -0.158  1.00  0.00     0.024 A 
HETATM   22  C19 UNL     1       4.591  -2.056  -0.272  1.00  0.00     0.034 A 
HETATM   23 CL1  UNL     1       4.120  -3.568  -1.021  1.00  0.00    -0.084 Cl
HETATM   24  C20 UNL     1       3.689  -1.128   0.177  1.00  0.00     0.033 A 
ENDBRANCH  16  18
ENDBRANCH  13  16
ENDBRANCH   1  12
BRANCH   7  25
HETATM   25  C9  UNL     1      -4.660  -0.864  -0.311  1.00  0.00    -0.005 A 
HETATM   26  C10 UNL     1      -4.081  -1.436   0.798  1.00  0.00     0.033 A 
HETATM   27  C11 UNL     1      -4.762  -2.216   1.703  1.00  0.00     0.117 A 
HETATM   28  N4  UNL     1      -6.070  -2.463   1.538  1.00  0.00    -0.273 NA
HETATM   29  C12 UNL     1      -6.711  -1.942   0.480  1.00  0.00     0.117 A 
HETATM   30  C13 UNL     1      -6.011  -1.164  -0.414  1.00  0.00     0.033 A 
ENDBRANCH   7  25
TORSDOF 4
