REMARK  6 active torsions:
REMARK  status: ('A' for Active; 'I' for Inactive)
REMARK    1  A    between atoms: C2_2  and  N1_3 
REMARK    2  A    between atoms: C2_2  and  C14_19 
REMARK    3  A    between atoms: N1_3  and  C3_4 
REMARK    4  A    between atoms: C3_4  and  C4_5 
REMARK    5  A    between atoms: C6_9  and  C7_10 
REMARK    6  A    between atoms: C13_17  and  O1_18 
ROOT
HETATM    1  C4  UNL     1       0.632  -1.429   0.243  1.00  0.00     0.002 C 
HETATM    2  C5  UNL     1       1.765  -1.675   0.880  1.00  0.00     0.047 C 
HETATM    3  N2  UNL     1       2.834  -2.090   1.709  1.00  0.00    -0.281 N 
HETATM    4  N3  UNL     1       3.948  -1.371   1.326  1.00  0.00    -0.178 NA
HETATM    5  C6  UNL     1       3.726  -0.573   0.343  1.00  0.00     0.077 C 
HETATM    6  C12 UNL     1       2.490  -1.017  -0.247  1.00  0.00     0.125 C 
HETATM    7  C13 UNL     1       1.278  -0.306  -0.544  1.00  0.00     0.166 C 
HETATM    8  H8  UNL     1       2.610  -2.813   2.415  1.00  0.00     0.189 HD
ENDROOT
BRANCH   1   9
HETATM    9  C3  UNL     1      -0.812  -1.768   0.215  1.00  0.00     0.309 C 
BRANCH   9  10
HETATM   10  N1  UNL     1      -1.655  -0.630   0.407  1.00  0.00     0.096 N 
HETATM   11  H5  UNL     1      -1.498  -0.165   1.326  1.00  0.00     0.317 HD
BRANCH  10  12
HETATM   12  C2  UNL     1      -3.040  -1.031   0.368  1.00  0.00     0.249 C 
HETATM   13  C1  UNL     1      -3.446  -1.665  -0.927  1.00  0.00     0.048 C 
BRANCH  12  14
HETATM   14  C14 UNL     1      -3.940   0.136   0.576  1.00  0.00    -0.024 A 
HETATM   15  C15 UNL     1      -5.030   0.161   1.397  1.00  0.00     0.009 A 
HETATM   16  C16 UNL     1      -5.761   1.325   1.477  1.00  0.00     0.002 A 
HETATM   17  C17 UNL     1      -5.398   2.444   0.742  1.00  0.00     0.024 A 
HETATM   18  C18 UNL     1      -4.298   2.414  -0.084  1.00  0.00     0.034 A 
HETATM   19 CL1  UNL     1      -3.858   3.831  -1.000  1.00  0.00    -0.084 Cl
HETATM   20  C19 UNL     1      -3.570   1.239  -0.158  1.00  0.00     0.033 A 
ENDBRANCH  12  14
ENDBRANCH  10  12
ENDBRANCH   9  10
ENDBRANCH   1   9
BRANCH   7  21
HETATM   21  O1  UNL     1       0.871  -0.362  -1.904  1.00  0.00    -0.390 OA
HETATM   22  H15 UNL     1       0.792   0.551  -2.280  1.00  0.00     0.210 HD
ENDBRANCH   7  21
BRANCH   5  23
HETATM   23  C7  UNL     1       4.465   0.401  -0.433  1.00  0.00    -0.006 A 
HETATM   24  C8  UNL     1       4.124   1.206  -1.459  1.00  0.00     0.032 A 
HETATM   25  C9  UNL     1       5.053   2.051  -2.025  1.00  0.00     0.117 A 
HETATM   26  N4  UNL     1       6.337   2.103  -1.570  1.00  0.00    -0.273 NA
HETATM   27  C10 UNL     1       6.723   1.317  -0.545  1.00  0.00     0.117 A 
HETATM   28  C11 UNL     1       5.788   0.465   0.025  1.00  0.00     0.032 A 
ENDBRANCH   5  23
TORSDOF 6
