REMARK  6 active torsions:
REMARK  status: ('A' for Active; 'I' for Inactive)
REMARK    1  A    between atoms: C8_10  and  C9_11 
REMARK    2  A    between atoms: N3_18  and  C14_19 
REMARK    3  A    between atoms: C14_19  and  C16_21 
REMARK    4  A    between atoms: C16_21  and  C17_22 
REMARK    5  A    between atoms: N4_23  and  C18_24 
REMARK    6  A    between atoms: C18_24  and  C19_25 
ROOT
HETATM    1  C1  UNL     1      -5.024  -1.885  -1.205  1.00  0.00     0.045 C 
HETATM    2  C2  UNL     1      -3.696  -1.356  -0.841  1.00  0.00    -0.059 C 
HETATM    3  C3  UNL     1      -2.781  -2.199  -0.309  1.00  0.00     0.032 C 
HETATM    4  C4  UNL     1      -3.326  -3.562  -0.187  1.00  0.00     0.070 C 
HETATM    5  N1  UNL     1      -1.613  -1.572  -0.056  1.00  0.00    -0.266 NA
HETATM    6  C5  UNL     1      -0.824  -1.450   0.884  1.00  0.00     0.136 C 
HETATM    7  C6  UNL     1       0.291  -0.570   0.418  1.00  0.00     0.229 C 
HETATM    8  N2  UNL     1       0.169  -0.157  -0.971  1.00  0.00    -0.367 N 
HETATM    9  C7  UNL     1      -0.353   1.108  -1.453  1.00  0.00     0.017 C 
HETATM   10  C8  UNL     1       0.078   1.637  -2.570  1.00  0.00     0.014 C 
HETATM   11  C10 UNL     1      -1.378   1.667  -0.541  1.00  0.00     0.132 C 
HETATM   12  C11 UNL     1      -2.720   1.217  -0.986  1.00  0.00     0.047 C 
HETATM   13  C12 UNL     1      -3.493   0.116  -1.066  1.00  0.00     0.008 C 
HETATM   14  C13 UNL     1      -1.059   1.273   0.887  1.00  0.00     0.232 C 
HETATM   15  O1  UNL     1      -1.340   1.166   2.099  1.00  0.00    -0.272 OA
HETATM   16  N3  UNL     1       0.237   0.683   1.168  1.00  0.00    -0.321 N 
HETATM   17  H9  UNL     1       0.477  -0.808  -1.714  1.00  0.00     0.161 HD
ENDROOT
BRANCH  16  18
HETATM   18  C14 UNL     1       1.376   1.040   1.956  1.00  0.00     0.090 C 
HETATM   19  C15 UNL     1       1.762  -0.051   2.929  1.00  0.00     0.033 C 
BRANCH  18  20
HETATM   20  C16 UNL     1       2.567   1.214   1.000  1.00  0.00     0.072 C 
BRANCH  20  21
HETATM   21  C17 UNL     1       3.777   1.589   1.804  1.00  0.00     0.091 C 
HETATM   22  N4  UNL     1       5.039   1.270   1.963  1.00  0.00    -0.276 NA
BRANCH  22  23
HETATM   23  C18 UNL     1       5.539   0.204   1.129  1.00  0.00     0.127 C 
BRANCH  23  24
HETATM   24  C19 UNL     1       6.250  -0.559   0.332  1.00  0.00     0.103 C 
HETATM   25 CL2  UNL     1       6.598  -1.985  -0.602  1.00  0.00    -0.096 Cl
ENDBRANCH  23  24
ENDBRANCH  22  23
ENDBRANCH  20  21
ENDBRANCH  18  20
ENDBRANCH  16  18
BRANCH  10  26
HETATM   26  C9  UNL     1      -0.420   2.926  -3.109  1.00  0.00     0.143 C 
HETATM   27 CL1  UNL     1       0.969   4.054  -3.231  1.00  0.00    -0.126 Cl
ENDBRANCH  10  26
TORSDOF 6
