REMARK  0 active torsions:
REMARK  status: ('A' for Active; 'I' for Inactive)
ROOT
HETATM    1  C1  UNL     1      -3.128  -1.491   1.517  1.00  0.00     0.043 C 
HETATM    2  C2  UNL     1      -2.256  -1.247   0.310  1.00  0.00     0.046 C 
HETATM    3  C3  UNL     1      -3.001  -1.817  -0.903  1.00  0.00     0.043 C 
HETATM    4  C4  UNL     1      -1.035  -2.065   0.486  1.00  0.00    -0.001 C 
HETATM    5  C5  UNL     1       0.219  -2.533   0.729  1.00  0.00    -0.024 C 
HETATM    6  C6  UNL     1       1.384  -1.689   1.179  1.00  0.00     0.074 C 
HETATM    7  C7  UNL     1       2.399  -1.612   0.077  1.00  0.00     0.194 C 
HETATM    8  N1  UNL     1       3.743  -1.926   0.451  1.00  0.00    -0.351 N 
HETATM    9  C8  UNL     1       4.672  -1.104  -0.304  1.00  0.00     0.151 A 
HETATM   10  N2  UNL     1       5.955  -1.023  -0.696  1.00  0.00    -0.241 NA
HETATM   11  C9  UNL     1       6.402   0.027  -1.445  1.00  0.00     0.119 A 
HETATM   12  C10 UNL     1       5.597   1.094  -1.869  1.00  0.00     0.022 A 
HETATM   13  C11 UNL     1       4.243   1.073  -1.494  1.00  0.00     0.035 A 
HETATM   14  C12 UNL     1       3.897  -0.023  -0.745  1.00  0.00     0.083 A 
HETATM   15  N3  UNL     1       2.583  -0.171  -0.294  1.00  0.00    -0.321 N 
HETATM   16  C13 UNL     1       1.404   0.607  -0.048  1.00  0.00     0.039 A 
HETATM   17  C14 UNL     1       1.757   1.711   0.692  1.00  0.00     0.031 A 
HETATM   18  C15 UNL     1       0.674   2.437   1.204  1.00  0.00     0.022 A 
HETATM   19  C16 UNL     1      -0.612   2.007   0.942  1.00  0.00     0.058 A 
HETATM   20  C17 UNL     1      -0.726   0.877   0.181  1.00  0.00     0.051 A 
HETATM   21  C18 UNL     1       0.197   0.068  -0.399  1.00  0.00     0.060 A 
HETATM   22  N4  UNL     1      -1.991   0.176   0.088  1.00  0.00    -0.342 N 
HETATM   23  C19 UNL     1      -2.971   1.157  -0.217  1.00  0.00     0.102 C 
HETATM   24  C20 UNL     1      -2.546   2.024  -1.382  1.00  0.00     0.063 C 
HETATM   25  C21 UNL     1      -4.357   0.685  -0.486  1.00  0.00     0.063 C 
HETATM   26  N5  UNL     1      -3.122   2.094   0.934  1.00  0.00    -0.331 N 
HETATM   27  C22 UNL     1      -1.865   2.667   1.354  1.00  0.00     0.255 C 
HETATM   28  O1  UNL     1      -1.715   3.703   2.056  1.00  0.00    -0.268 OA
HETATM   29  H12 UNL     1       4.175  -2.604   1.134  1.00  0.00     0.163 HD
HETATM   30  H25 UNL     1      -3.933   2.434   1.511  1.00  0.00     0.165 HD
ENDROOT
TORSDOF 0
