REMARK  0 active torsions:
REMARK  status: ('A' for Active; 'I' for Inactive)
ROOT
HETATM    1  C1  UNL     1       2.880   1.540  -4.027  1.00  0.00     0.065 C 
HETATM    2  C2  UNL     1       2.471   0.903  -2.944  1.00  0.00     0.115 A 
HETATM    3  N1  UNL     1       1.487   1.397  -2.058  1.00  0.00    -0.354 N 
HETATM    4  C3  UNL     1       1.141   0.476  -1.003  1.00  0.00     0.115 A 
HETATM    5  C4  UNL     1       1.281   1.214   0.381  1.00  0.00     0.032 C 
HETATM    6  C5  UNL     1       0.380   1.225   1.447  1.00  0.00     0.086 C 
HETATM    7  N2  UNL     1      -0.555   0.296   2.053  1.00  0.00    -0.377 N 
HETATM    8  C6  UNL     1      -1.790   1.083   2.343  1.00  0.00     0.114 C 
HETATM    9  C7  UNL     1      -1.632   2.384   2.939  1.00  0.00     0.037 C 
HETATM   10  C8  UNL     1      -2.532   1.133   0.984  1.00  0.00    -0.025 A 
HETATM   11  C9  UNL     1      -3.547   2.005   0.703  1.00  0.00     0.010 A 
HETATM   12  C10 UNL     1      -3.979   2.061  -0.603  1.00  0.00     0.001 A 
HETATM   13  C11 UNL     1      -3.489   1.324  -1.658  1.00  0.00     0.001 A 
HETATM   14  C12 UNL     1      -2.465   0.406  -1.501  1.00  0.00     0.012 A 
HETATM   15  C13 UNL     1      -2.060   0.376  -0.173  1.00  0.00    -0.021 A 
HETATM   16  C14 UNL     1      -0.916  -0.645  -0.063  1.00  0.00    -0.042 C 
HETATM   17  C15 UNL     1      -0.280   0.059  -1.088  1.00  0.00     0.023 C 
HETATM   18  C16 UNL     1      -0.791  -1.798   0.932  1.00  0.00     0.038 C 
HETATM   19  C17 UNL     1      -2.108  -2.515   1.029  1.00  0.00     0.017 C 
HETATM   20  C18 UNL     1      -0.435  -1.179   2.293  1.00  0.00     0.088 C 
HETATM   21  C19 UNL     1       0.876  -1.587   2.826  1.00  0.00     0.033 C 
HETATM   22  C20 UNL     1       2.067  -0.597  -1.144  1.00  0.00     0.072 A 
HETATM   23  C21 UNL     1       2.532  -1.722  -0.647  1.00  0.00     0.032 A 
HETATM   24  C22 UNL     1       3.576  -2.626  -1.107  1.00  0.00     0.021 A 
HETATM   25  C23 UNL     1       4.221  -2.332  -2.219  1.00  0.00     0.108 A 
HETATM   26  N3  UNL     1       3.858  -1.143  -2.903  1.00  0.00    -0.304 N 
HETATM   27  N4  UNL     1       2.824  -0.342  -2.354  1.00  0.00    -0.242 N 
HETATM   28  H3  UNL     1       0.985   2.329  -2.069  1.00  0.00     0.163 HD
HETATM   29  H26 UNL     1       4.388  -0.946  -3.772  1.00  0.00     0.186 HD
ENDROOT
TORSDOF 0
