REMARK  4 active torsions:
REMARK  status: ('A' for Active; 'I' for Inactive)
REMARK    1  A    between atoms: C2_2  and  N1_3 
REMARK    2  A    between atoms: C2_2  and  C9_13 
REMARK    3  A    between atoms: N1_3  and  C3_4 
REMARK    4  A    between atoms: C14_20  and  C15_21 
ROOT
HETATM    1  C9  UNL     1      -0.199  -1.184   1.257  1.00  0.00     0.056 C 
HETATM    2  C10 UNL     1      -0.497   0.299   1.115  1.00  0.00    -0.006 C 
HETATM    3  C11 UNL     1      -1.236   0.568   0.016  1.00  0.00    -0.019 C 
HETATM    4  C12 UNL     1      -1.100   0.040  -1.424  1.00  0.00     0.154 C 
HETATM    5  N3  UNL     1      -2.432  -0.641  -1.326  1.00  0.00    -0.223 NA
HETATM    6  N4  UNL     1      -3.172   0.576  -1.067  1.00  0.00    -0.318 N 
HETATM    7  C13 UNL     1      -2.469   1.405  -0.102  1.00  0.00     0.051 C 
HETATM    8  C14 UNL     1      -2.589   2.502   0.606  1.00  0.00     0.049 C 
HETATM    9  C16 UNL     1      -2.407  -1.317  -0.006  1.00  0.00     0.077 C 
HETATM   10  C17 UNL     1      -3.484  -2.405  -0.133  1.00  0.00     0.028 C 
HETATM   11  C18 UNL     1      -1.118  -1.962   0.347  1.00  0.00     0.035 C 
HETATM   12  H12 UNL     1      -4.092   1.001  -1.409  1.00  0.00     0.181 HD
ENDROOT
BRANCH   1  13
HETATM   13  C2  UNL     1       1.226  -1.460   1.059  1.00  0.00    -0.009 C 
HETATM   14  C1  UNL     1       1.977  -1.948   2.063  1.00  0.00     0.058 C 
BRANCH  13  15
HETATM   15  N1  UNL     1       2.046  -1.306  -0.066  1.00  0.00    -0.383 N 
HETATM   16  H3  UNL     1       1.794  -1.700  -0.998  1.00  0.00     0.160 HD
BRANCH  15  17
HETATM   17  C3  UNL     1       3.315  -0.577   0.008  1.00  0.00     0.152 C 
HETATM   18  C4  UNL     1       3.075   0.812   0.429  1.00  0.00     0.029 C 
HETATM   19  C5  UNL     1       3.545   1.995   0.081  1.00  0.00     0.050 C 
HETATM   20 CL1  UNL     1       2.954   3.446   0.879  1.00  0.00    -0.083 Cl
HETATM   21  C6  UNL     1       4.550   2.241  -0.945  1.00  0.00     0.139 C 
HETATM   22  N2  UNL     1       5.067   1.445  -1.791  1.00  0.00    -0.270 NA
HETATM   23  C7  UNL     1       4.814   0.070  -1.986  1.00  0.00     0.138 C 
HETATM   24  C8  UNL     1       4.095  -0.714  -1.229  1.00  0.00     0.055 C 
HETATM   25 CL2  UNL     1       3.967  -2.392  -1.741  1.00  0.00    -0.085 Cl
ENDBRANCH  15  17
ENDBRANCH  13  15
ENDBRANCH   1  13
BRANCH   8  26
HETATM   26  C15 UNL     1      -3.782   3.333   0.508  1.00  0.00     0.109 C 
HETATM   27  N5  UNL     1      -4.728   2.979  -0.289  1.00  0.00    -0.312 NA
HETATM   28  H15 UNL     1      -5.593   3.536  -0.393  1.00  0.00     0.186 HD
ENDBRANCH   8  26
TORSDOF 4
