REMARK  7 active torsions:
REMARK  status: ('A' for Active; 'I' for Inactive)
REMARK    1  A    between atoms: C3_3  and  N1_4 
REMARK    2  A    between atoms: C8_10  and  C9_11 
REMARK    3  A    between atoms: C9_11  and  C10_12 
REMARK    4  A    between atoms: C10_12  and  C11_14 
REMARK    5  A    between atoms: C11_14  and  C13_16 
REMARK    6  A    between atoms: C19_25  and  C20_26 
REMARK    7  A    between atoms: C20_26  and  N4_27 
ROOT
HETATM    1  C1  UNL     1       5.274  -3.021  -0.581  1.00  0.00     0.072 C 
HETATM    2  C2  UNL     1       4.482  -1.959   0.096  1.00  0.00     0.056 C 
HETATM    3  C3  UNL     1       3.288  -1.459  -0.271  1.00  0.00     0.064 C 
HETATM    4  C4  UNL     1       2.663  -0.413   0.530  1.00  0.00     0.114 A 
HETATM    5  C5  UNL     1       3.382  -0.206   1.841  1.00  0.00     0.048 C 
HETATM    6  C6  UNL     1       4.677  -0.408   1.867  1.00  0.00     0.085 C 
HETATM    7  N2  UNL     1       5.100  -1.437   1.271  1.00  0.00    -0.250 NA
HETATM    8  C7  UNL     1       1.229  -0.649   0.840  1.00  0.00     0.024 A 
HETATM    9  C8  UNL     1       0.390   0.321   0.538  1.00  0.00    -0.026 A 
HETATM   10  C18 UNL     1       1.240   1.369  -0.073  1.00  0.00     0.033 A 
HETATM   11  C19 UNL     1       1.135   2.576  -0.602  1.00  0.00     0.032 C 
HETATM   12  N5  UNL     1       2.582   0.889  -0.076  1.00  0.00    -0.368 N 
HETATM   13  H21 UNL     1       3.533   1.167  -0.372  1.00  0.00     0.161 HD
ENDROOT
BRANCH   9  14
HETATM   14  C9  UNL     1      -1.052   0.651   0.604  1.00  0.00     0.119 C 
BRANCH  14  15
HETATM   15  C10 UNL     1      -1.869  -0.432   1.185  1.00  0.00     0.139 C 
HETATM   16  O1  UNL     1      -1.412  -1.448   1.692  1.00  0.00    -0.297 OA
BRANCH  15  17
HETATM   17  C11 UNL     1      -3.353  -0.438   1.241  1.00  0.00     0.088 C 
HETATM   18  C12 UNL     1      -3.857   0.990   1.482  1.00  0.00     0.023 C 
BRANCH  17  19
HETATM   19  C13 UNL     1      -4.015  -0.878  -0.006  1.00  0.00    -0.001 A 
HETATM   20  C14 UNL     1      -5.404  -0.804   0.165  1.00  0.00     0.060 A 
HETATM   21 CL1  UNL     1      -6.344  -0.282   1.573  1.00  0.00    -0.082 Cl
HETATM   22  C15 UNL     1      -6.272  -1.178  -0.861  1.00  0.00     0.140 A 
HETATM   23  N3  UNL     1      -5.815  -1.623  -2.051  1.00  0.00    -0.270 NA
HETATM   24  C16 UNL     1      -4.466  -1.707  -2.248  1.00  0.00     0.140 A 
HETATM   25  C17 UNL     1      -3.616  -1.339  -1.235  1.00  0.00     0.060 A 
HETATM   26 CL2  UNL     1      -1.889  -1.476  -1.402  1.00  0.00    -0.082 Cl
ENDBRANCH  17  19
ENDBRANCH  15  17
ENDBRANCH  14  15
ENDBRANCH   9  14
BRANCH  11  27
HETATM   27  C20 UNL     1       2.030   3.570  -1.196  1.00  0.00     0.296 C 
BRANCH  27  28
HETATM   28  N4  UNL     1       1.984   4.816  -0.457  1.00  0.00     0.081 N 
HETATM   29  H19 UNL     1       1.005   5.187  -0.439  1.00  0.00     0.313 HD
HETATM   30  H20 UNL     1       2.404   4.668   0.487  1.00  0.00     0.313 HD
ENDBRANCH  27  28
ENDBRANCH  11  27
BRANCH   3  31
HETATM   31  N1  UNL     1       2.609  -1.929  -1.431  1.00  0.00    -0.398 N 
HETATM   32  H4  UNL     1       1.639  -2.334  -1.333  1.00  0.00     0.156 HD
HETATM   33  H5  UNL     1       3.265  -1.763  -2.214  1.00  0.00     0.156 HD
ENDBRANCH   3  31
TORSDOF 7
