REMARK  0 active torsions:
REMARK  status: ('A' for Active; 'I' for Inactive)
ROOT
HETATM    1  C1  UNL     1       3.153   3.148   2.361  1.00  0.00     0.065 C 
HETATM    2  C2  UNL     1       2.809   2.169   1.553  1.00  0.00     0.114 A 
HETATM    3  N1  UNL     1       1.506   1.620   1.532  1.00  0.00    -0.357 N 
HETATM    4  C3  UNL     1       1.329   0.493   0.550  1.00  0.00     0.101 A 
HETATM    5  C4  UNL     1       0.899  -0.696   1.428  1.00  0.00     0.107 C 
HETATM    6  C5  UNL     1      -0.300  -1.415   1.428  1.00  0.00     0.070 C 
HETATM    7  N2  UNL     1      -1.635  -1.499   0.751  1.00  0.00    -0.384 N 
HETATM    8  C6  UNL     1      -1.570  -2.777  -0.008  1.00  0.00     0.178 C 
HETATM    9  C7  UNL     1      -0.974  -3.867   0.797  1.00  0.00     0.055 C 
HETATM   10  N3  UNL     1      -0.825  -2.434  -1.200  1.00  0.00    -0.336 N 
HETATM   11  C8  UNL     1      -0.028  -1.248  -1.559  1.00  0.00     0.253 C 
HETATM   12  O1  UNL     1       0.681  -2.108  -2.066  1.00  0.00    -0.268 OA
HETATM   13  C9  UNL     1      -0.471   0.168  -1.154  1.00  0.00     0.042 C 
HETATM   14  C10 UNL     1       0.161   0.892  -0.245  1.00  0.00     0.029 C 
HETATM   15  C11 UNL     1      -1.791   0.682  -1.589  1.00  0.00    -0.012 A 
HETATM   16  C12 UNL     1      -2.094   1.397  -2.683  1.00  0.00     0.013 A 
HETATM   17  C13 UNL     1      -3.401   1.717  -2.799  1.00  0.00     0.001 A 
HETATM   18  C14 UNL     1      -4.402   1.389  -1.935  1.00  0.00     0.001 A 
HETATM   19  C15 UNL     1      -4.006   0.644  -0.822  1.00  0.00     0.010 A 
HETATM   20  C16 UNL     1      -2.719   0.244  -0.565  1.00  0.00    -0.025 A 
HETATM   21  C17 UNL     1      -2.780  -0.547   0.742  1.00  0.00     0.111 C 
HETATM   22  C18 UNL     1      -2.602   0.377   1.915  1.00  0.00     0.037 C 
HETATM   23  C19 UNL     1       2.602   0.411  -0.047  1.00  0.00     0.069 A 
HETATM   24  C20 UNL     1       3.341  -0.204  -0.942  1.00  0.00     0.031 A 
HETATM   25  C21 UNL     1       4.733  -0.031  -1.337  1.00  0.00     0.021 A 
HETATM   26  C22 UNL     1       5.469   0.891  -0.742  1.00  0.00     0.108 A 
HETATM   27  N4  UNL     1       4.846   1.674   0.269  1.00  0.00    -0.304 N 
HETATM   28  N5  UNL     1       3.475   1.403   0.561  1.00  0.00    -0.243 N 
HETATM   29  H3  UNL     1       0.656   1.880   2.097  1.00  0.00     0.162 HD
HETATM   30  H10 UNL     1      -1.041  -3.298  -1.714  1.00  0.00     0.164 HD
HETATM   31  H23 UNL     1       5.446   2.392   0.722  1.00  0.00     0.186 HD
ENDROOT
TORSDOF 0
