REMARK  3 active torsions:
REMARK  status: ('A' for Active; 'I' for Inactive)
REMARK    1  A    between atoms: N2_8  and  C7_9 
REMARK    2  A    between atoms: C7_9  and  P1_10 
REMARK    3  A    between atoms: P1_10  and  C8_11 
ROOT
HETATM    1  C1  UNL     1      -3.727  -1.873  -3.052  1.00  0.00     0.045 C 
HETATM    2  C2  UNL     1      -2.858  -1.077  -2.122  1.00  0.00    -0.059 C 
HETATM    3  C3  UNL     1      -2.236  -0.041  -2.741  1.00  0.00     0.034 C 
HETATM    4  C4  UNL     1      -2.542   0.092  -4.186  1.00  0.00     0.020 C 
HETATM    5  N1  UNL     1      -2.803   0.214  -5.356  1.00  0.00    -0.096 N 
HETATM    6  C5  UNL     1      -1.261   1.009  -2.394  1.00  0.00     0.039 C 
HETATM    7  C6  UNL     1      -0.539   1.449  -1.359  1.00  0.00     0.092 C 
HETATM    8  N2  UNL     1      -0.251   1.204   0.013  1.00  0.00    -0.359 N 
HETATM    9  C14 UNL     1      -0.881   1.679   1.239  1.00  0.00     0.113 C 
HETATM   10  C15 UNL     1      -0.365   1.126   2.487  1.00  0.00     0.034 C 
HETATM   11  C16 UNL     1      -2.399   1.671   1.025  1.00  0.00     0.300 C 
HETATM   12  N3  UNL     1      -2.661   0.406   0.363  1.00  0.00     0.088 N 
HETATM   13  C17 UNL     1      -2.628  -1.032   0.341  1.00  0.00     0.354 A 
HETATM   14  O1  UNL     1      -2.263  -0.302   1.289  1.00  0.00    -0.150 OA
HETATM   15  C18 UNL     1      -3.084  -1.786  -0.844  1.00  0.00     0.115 C 
HETATM   16  H18 UNL     1      -3.171   0.755  -0.535  1.00  0.00     0.322 HD
ENDROOT
BRANCH   8  17
HETATM   17  C7  UNL     1       0.878   0.303   0.129  1.00  0.00     0.107 C 
BRANCH  17  18
HETATM   18  P1  UNL     1       2.133   0.994   0.950  1.00  0.00    -0.005 P 
BRANCH  18  19
HETATM   19  C8  UNL     1       3.666   0.036   1.215  1.00  0.00    -0.021 A 
HETATM   20  C9  UNL     1       4.111  -1.101   0.583  1.00  0.00     0.013 A 
HETATM   21  C10 UNL     1       5.304  -1.690   0.923  1.00  0.00     0.001 A 
HETATM   22  C11 UNL     1       6.041  -1.110   1.913  1.00  0.00     0.000 A 
HETATM   23  C12 UNL     1       5.641   0.038   2.588  1.00  0.00     0.001 A 
HETATM   24  C13 UNL     1       4.437   0.611   2.227  1.00  0.00     0.013 A 
ENDBRANCH  18  19
ENDBRANCH  17  18
ENDBRANCH   8  17
TORSDOF 3
