REMARK  5 active torsions:
REMARK  status: ('A' for Active; 'I' for Inactive)
REMARK    1  A    between atoms: O1_2  and  C2_3 
REMARK    2  A    between atoms: C9_12  and  O2_13 
REMARK    3  A    between atoms: O2_13  and  C10_14 
REMARK    4  A    between atoms: C10_14  and  C11_15 
REMARK    5  A    between atoms: C12_16  and  C13_17 
REMARK       I    between atoms: N4_23  and  C17_24 
ROOT
HETATM    1  C2  UNL     1      -2.745  -0.510  -1.054  1.00  0.00     0.138 A 
HETATM    2  C3  UNL     1      -3.178   0.726  -0.740  1.00  0.00     0.075 A 
HETATM    3  C4  UNL     1      -2.750   0.712  -2.037  1.00  0.00     0.092 A 
HETATM    4  C5  UNL     1      -2.295   0.559  -3.313  1.00  0.00     0.010 A 
HETATM    5  C6  UNL     1      -1.907  -0.813  -3.403  1.00  0.00     0.026 A 
HETATM    6  C7  UNL     1      -2.216  -1.209  -2.096  1.00  0.00     0.045 A 
HETATM    7  N1  UNL     1      -1.536  -2.413  -2.135  1.00  0.00    -0.364 N 
HETATM    8  C8  UNL     1      -0.607  -2.271  -1.012  1.00  0.00     0.344 C 
HETATM    9  N2  UNL     1       0.052  -1.158  -0.689  1.00  0.00    -0.407 NA
HETATM   10  C9  UNL     1       0.603  -0.092  -0.394  1.00  0.00     0.213 C 
HETATM   11  C14 UNL     1      -0.268   0.998  -0.342  1.00  0.00     0.195 C 
HETATM   12  C15 UNL     1      -0.667   1.544  -1.734  1.00  0.00     0.154 C 
HETATM   13  N3  UNL     1      -2.012   1.825  -1.277  1.00  0.00    -0.379 N 
HETATM   14  C16 UNL     1      -1.406   2.943  -0.462  1.00  0.00     0.248 C 
HETATM   15  N4  UNL     1      -0.185   2.327   0.181  1.00  0.00    -0.321 N 
HETATM   16  C17 UNL     1       0.837   2.678   1.065  1.00  0.00     0.217 C 
HETATM   17  C18 UNL     1       1.105   3.933   1.809  1.00  0.00     0.117 C 
HETATM   18  O3  UNL     1       1.820   1.948   1.455  1.00  0.00    -0.274 OA
HETATM   19  H7  UNL     1      -1.625  -3.233  -2.760  1.00  0.00     0.162 HD
ENDROOT
BRANCH  10  20
HETATM   20  O2  UNL     1       1.805  -0.783  -0.314  1.00  0.00    -0.323 OA
BRANCH  20  21
HETATM   21  C10 UNL     1       2.135  -1.543   0.804  1.00  0.00     0.205 C 
BRANCH  21  22
HETATM   22  C11 UNL     1       3.349  -2.364   0.666  1.00  0.00    -0.004 C 
HETATM   23  C12 UNL     1       4.484  -2.415   1.307  1.00  0.00    -0.018 C 
BRANCH  23  24
HETATM   24  C13 UNL     1       5.171  -1.753   2.448  1.00  0.00     0.112 C 
HETATM   25 BR1  UNL     1       6.784  -0.924   1.715  1.00  0.00    -0.092 Br
ENDBRANCH  23  24
ENDBRANCH  21  22
ENDBRANCH  20  21
ENDBRANCH  10  20
BRANCH   1  26
HETATM   26  O1  UNL     1      -2.815  -1.505  -0.050  1.00  0.00    -0.375 OA
HETATM   27  C1  UNL     1      -3.330  -1.126   1.199  1.00  0.00     0.203 C 
ENDBRANCH   1  26
TORSDOF 5
