REMARK  4 active torsions:
REMARK  status: ('A' for Active; 'I' for Inactive)
REMARK    1  A    between atoms: O1_2  and  C2_3 
REMARK    2  A    between atoms: C4_5  and  N1_6 
REMARK       I    between atoms: N2_9  and  C7_10 
REMARK    3  A    between atoms: C13_17  and  N3_18 
REMARK    4  A    between atoms: C16_23  and  S1_24 
ROOT
HETATM    1  C2  UNL     1      -0.847   0.663  -0.316  1.00  0.00     0.098 A 
HETATM    2  C3  UNL     1       0.521   0.639  -0.151  1.00  0.00     0.068 A 
HETATM    3  C4  UNL     1       1.287  -0.481  -0.386  1.00  0.00     0.033 A 
HETATM    4  C11 UNL     1       0.622  -1.612  -0.805  1.00  0.00     0.032 A 
HETATM    5  C12 UNL     1      -0.761  -1.572  -0.969  1.00  0.00     0.036 A 
HETATM    6  C13 UNL     1      -1.538  -0.454  -0.736  1.00  0.00     0.086 A 
ENDROOT
BRANCH   6   7
HETATM    7  N3  UNL     1      -2.953  -0.557  -0.967  1.00  0.00    -0.270 N 
HETATM    8  C14 UNL     1      -3.405  -1.897  -1.135  1.00  0.00     0.299 C 
HETATM    9  N4  UNL     1      -4.772  -2.179  -1.007  1.00  0.00    -0.257 NA
HETATM   10  C15 UNL     1      -5.861  -1.789  -0.486  1.00  0.00     0.255 C 
HETATM   11  O3  UNL     1      -6.142  -0.678   0.338  1.00  0.00    -0.296 OA
HETATM   12  C16 UNL     1      -5.842   0.694   0.183  1.00  0.00     0.130 C 
HETATM   13  C18 UNL     1      -4.766   1.261  -0.384  1.00  0.00     0.152 C 
HETATM   14  N5  UNL     1      -3.604   0.691  -0.998  1.00  0.00    -0.304 N 
HETATM   15  H25 UNL     1      -3.079   1.355  -1.652  1.00  0.00     0.186 HD
BRANCH  12  16
HETATM   16  S1  UNL     1      -6.974   1.935   0.783  1.00  0.00    -0.108 SA
HETATM   17  C17 UNL     1      -8.380   1.059   1.521  1.00  0.00     0.097 C 
ENDBRANCH  12  16
ENDBRANCH   6   7
BRANCH   1  18
HETATM   18  O1  UNL     1      -1.575   1.812  -0.065  1.00  0.00    -0.354 OA
HETATM   19  C1  UNL     1      -0.888   2.967   0.366  1.00  0.00     0.210 C 
ENDBRANCH   1  18
BRANCH   3  20
HETATM   20  N1  UNL     1       2.687  -0.465  -0.201  1.00  0.00    -0.378 N 
HETATM   21  C5  UNL     1       3.405   0.667   0.300  1.00  0.00     0.143 C 
HETATM   22  C6  UNL     1       4.568   0.187   1.168  1.00  0.00     0.145 C 
HETATM   23  N2  UNL     1       5.530  -0.430   0.276  1.00  0.00    -0.349 N 
HETATM   24  C7  UNL     1       6.964  -0.364   0.233  1.00  0.00     0.215 C 
HETATM   25  C9  UNL     1       4.954  -1.253  -0.746  1.00  0.00     0.145 C 
HETATM   26  C8  UNL     1       7.558   0.501   1.307  1.00  0.00     0.117 C 
HETATM   27  O2  UNL     1       7.759  -0.920  -0.564  1.00  0.00    -0.274 OA
HETATM   28  C10 UNL     1       3.505  -1.612  -0.515  1.00  0.00     0.143 C 
ENDBRANCH   3  20
TORSDOF 4
