REMARK  4 active torsions:
REMARK  status: ('A' for Active; 'I' for Inactive)
REMARK    1  A    between atoms: C2_2  and  C3_3 
REMARK       I    between atoms: C3_3  and  N1_5 
REMARK    2  A    between atoms: N1_5  and  C4_6 
REMARK    3  A    between atoms: C14_18  and  C15_19 
REMARK    4  A    between atoms: C16_20  and  O4_21 
REMARK       I    between atoms: N3_27  and  C21_28 
ROOT
HETATM    1  C4  UNL     1       4.294  -0.258   0.703  1.00  0.00     0.037 A 
HETATM    2  C5  UNL     1       3.503  -0.576   1.786  1.00  0.00     0.032 A 
HETATM    3  C6  UNL     1       2.132  -0.420   1.690  1.00  0.00     0.034 A 
HETATM    4  C7  UNL     1       1.500   0.052   0.533  1.00  0.00     0.063 A 
HETATM    5  C8  UNL     1       2.356   0.353  -0.520  1.00  0.00     0.097 A 
HETATM    6  C9  UNL     1       3.715   0.207  -0.451  1.00  0.00     0.068 A 
HETATM    7  O2  UNL     1       1.440   0.787  -1.501  1.00  0.00    -0.342 OA
HETATM    8  C10 UNL     1       0.844   2.066  -1.255  1.00  0.00     0.254 C 
HETATM    9  C11 UNL     1      -0.144   2.334  -2.311  1.00  0.00     0.154 C 
HETATM   10  O3  UNL     1      -0.325   1.707  -3.341  1.00  0.00    -0.295 OA
HETATM   11  C12 UNL     1      -0.879   3.544  -1.824  1.00  0.00     0.110 C 
HETATM   12  C13 UNL     1      -1.803   3.179  -0.727  1.00  0.00     0.010 C 
HETATM   13  C14 UNL     1      -2.174   2.051  -0.153  1.00  0.00     0.030 C 
HETATM   14  N2  UNL     1      -1.875   0.677  -0.353  1.00  0.00    -0.358 N 
HETATM   15  C18 UNL     1      -3.113   0.210  -1.000  1.00  0.00     0.127 C 
HETATM   16  C19 UNL     1      -2.826  -0.641  -2.193  1.00  0.00     0.040 C 
HETATM   17  C20 UNL     1      -2.986  -2.075  -1.747  1.00  0.00     0.127 C 
HETATM   18  N3  UNL     1      -2.217  -2.430  -0.592  1.00  0.00    -0.349 N 
HETATM   19  C21 UNL     1      -2.247  -3.828  -0.317  1.00  0.00     0.215 C 
HETATM   20  C22 UNL     1      -2.991  -4.804  -1.136  1.00  0.00     0.117 C 
HETATM   21  O5  UNL     1      -1.620  -4.311   0.669  1.00  0.00    -0.274 OA
HETATM   22  C23 UNL     1      -1.427  -1.647   0.331  1.00  0.00     0.172 C 
HETATM   23  C24 UNL     1      -0.911  -0.371  -0.179  1.00  0.00     0.202 C 
HETATM   24  N4  UNL     1       0.098   0.105   0.740  1.00  0.00    -0.365 N 
HETATM   25  H30 UNL     1      -0.271   0.520   1.622  1.00  0.00     0.162 HD
ENDROOT
BRANCH   1  26
HETATM   26  N1  UNL     1       5.709  -0.357   0.639  1.00  0.00    -0.324 N 
HETATM   27  C3  UNL     1       6.525  -1.443   0.240  1.00  0.00     0.244 C 
HETATM   28  O1  UNL     1       6.053  -2.545  -0.140  1.00  0.00    -0.268 OA
HETATM   29  H4  UNL     1       6.135   0.562   0.955  1.00  0.00     0.169 HD
BRANCH  27  30
HETATM   30  C2  UNL     1       7.970  -1.289   0.267  1.00  0.00     0.064 C 
HETATM   31  C1  UNL     1       8.525  -0.158   0.653  1.00  0.00     0.017 C 
ENDBRANCH  27  30
ENDBRANCH   1  26
BRANCH  13  32
HETATM   32  C15 UNL     1      -3.124   2.213   0.909  1.00  0.00     0.053 C 
HETATM   33  C16 UNL     1      -3.690   1.329   1.673  1.00  0.00     0.136 C 
BRANCH  33  34
HETATM   34  O4  UNL     1      -4.607   1.422   2.708  1.00  0.00    -0.368 OA
HETATM   35  C17 UNL     1      -4.379   2.393   3.711  1.00  0.00     0.208 C 
ENDBRANCH  33  34
ENDBRANCH  13  32
TORSDOF 4
