REMARK  3 active torsions:
REMARK  status: ('A' for Active; 'I' for Inactive)
REMARK    1  A    between atoms: C2_2  and  C3_3 
REMARK       I    between atoms: C3_3  and  N1_5 
REMARK    2  A    between atoms: N1_5  and  C4_6 
REMARK    3  A    between atoms: C12_17  and  S1_18 
ROOT
HETATM    1  C4  UNL     1       1.588   0.493   1.957  1.00  0.00     0.052 C 
HETATM    2  C5  UNL     1       0.439  -0.096   1.979  1.00  0.00     0.031 C 
HETATM    3  C6  UNL     1      -0.497  -0.879   1.240  1.00  0.00     0.000 C 
HETATM    4  C7  UNL     1      -0.618  -1.474   0.087  1.00  0.00    -0.000 C 
HETATM    5  C8  UNL     1      -1.446  -2.276  -0.845  1.00  0.00     0.205 C 
HETATM    6  O2  UNL     1      -1.540  -1.471  -2.018  1.00  0.00    -0.329 OA
HETATM    7  C9  UNL     1      -1.994  -0.202  -2.085  1.00  0.00     0.202 A 
HETATM    8  N2  UNL     1      -0.779   0.008  -1.567  1.00  0.00    -0.038 NA
HETATM    9  C10 UNL     1      -0.284   1.171  -1.252  1.00  0.00     0.719 A 
HETATM   10  N3  UNL     1      -1.099   2.194  -1.492  1.00  0.00    -0.074 NA
HETATM   11  C11 UNL     1      -2.325   2.088  -2.007  1.00  0.00     0.159 A 
HETATM   12  C12 UNL     1      -2.815   0.847  -2.323  1.00  0.00     0.072 A 
HETATM   13  N4  UNL     1       0.975   1.435  -0.643  1.00  0.00    -0.224 NA
HETATM   14  C14 UNL     1       1.314   1.025   0.559  1.00  0.00     0.355 C 
ENDROOT
BRANCH   1  15
HETATM   15  N1  UNL     1       2.811   1.160   2.045  1.00  0.00    -0.336 N 
HETATM   16  C3  UNL     1       3.892   0.263   1.783  1.00  0.00     0.137 C 
HETATM   17  O1  UNL     1       3.332  -0.868   1.550  1.00  0.00    -0.287 OA
HETATM   18  H4  UNL     1       2.942   2.164   2.273  1.00  0.00     0.168 HD
BRANCH  16  19
HETATM   19  C2  UNL     1       5.305   0.697   1.811  1.00  0.00     0.046 C 
HETATM   20  C1  UNL     1       5.579  -0.577   1.500  1.00  0.00     0.176 C 
ENDBRANCH  16  19
ENDBRANCH   1  15
BRANCH  12  21
HETATM   21  S1  UNL     1      -4.244   0.006  -2.976  1.00  0.00    -0.129 SA
HETATM   22  C13 UNL     1      -5.338  -0.470  -1.586  1.00  0.00     0.096 C 
ENDBRANCH  12  21
TORSDOF 3
