REMARK  5 active torsions:
REMARK  status: ('A' for Active; 'I' for Inactive)
REMARK    1  A    between atoms: S1_3  and  C3_4 
REMARK    2  A    between atoms: C5_6  and  N1_7 
REMARK    3  A    between atoms: N1_7  and  C6_8 
REMARK    4  A    between atoms: C9_11  and  N2_12 
REMARK    5  A    between atoms: C11_14  and  O1_15 
ROOT
HETATM    1  C3  UNL     1      -1.735  -0.734  -0.709  1.00  0.00     0.003 C 
HETATM    2  C4  UNL     1      -0.583  -0.117  -0.879  1.00  0.00     0.040 C 
HETATM    3  C5  UNL     1       0.406   0.926  -0.565  1.00  0.00     0.232 C 
HETATM    4  N3  UNL     1       0.240   1.373   0.821  1.00  0.00    -0.249 NA
HETATM    5  C13 UNL     1      -0.727   1.457   1.627  1.00  0.00     0.248 C 
HETATM    6  O2  UNL     1      -2.045   1.292   1.919  1.00  0.00    -0.342 OA
HETATM    7  C14 UNL     1      -3.126   0.936   1.031  1.00  0.00     0.121 C 
HETATM    8  C15 UNL     1      -4.349   0.668   1.881  1.00  0.00     0.098 A 
HETATM    9  C16 UNL     1      -4.682   1.672   2.531  1.00  0.00     0.008 A 
HETATM   10  C17 UNL     1      -5.695   0.727   2.965  1.00  0.00     0.036 A 
HETATM   11  C18 UNL     1      -6.203  -0.525   2.888  1.00  0.00     0.069 C 
HETATM   12  N4  UNL     1      -5.417  -1.291   1.999  1.00  0.00    -0.337 N 
HETATM   13  C19 UNL     1      -4.625  -2.067   1.100  1.00  0.00     0.245 C 
HETATM   14  O3  UNL     1      -4.987  -3.212   0.977  1.00  0.00    -0.268 OA
HETATM   15  C20 UNL     1      -3.450  -1.451   0.394  1.00  0.00     0.085 C 
HETATM   16  C21 UNL     1      -2.724  -0.301   0.239  1.00  0.00    -0.014 C 
HETATM   17  H21 UNL     1      -6.080  -2.092   2.316  1.00  0.00     0.168 HD
ENDROOT
BRANCH   3  18
HETATM   18  N1  UNL     1       1.748   0.514  -0.833  1.00  0.00    -0.362 N 
HETATM   19  H6  UNL     1       1.719  -0.462  -1.271  1.00  0.00     0.162 HD
BRANCH  18  20
HETATM   20  C6  UNL     1       3.014   1.105  -0.660  1.00  0.00     0.063 A 
HETATM   21  C7  UNL     1       3.301   2.369  -0.156  1.00  0.00     0.034 A 
HETATM   22  C8  UNL     1       4.566   2.852  -0.069  1.00  0.00     0.031 A 
HETATM   23  C9  UNL     1       5.619   2.089  -0.484  1.00  0.00     0.028 A 
HETATM   24  C10 UNL     1       5.369   0.861  -0.978  1.00  0.00     0.068 A 
HETATM   25  C11 UNL     1       4.117   0.320  -1.093  1.00  0.00     0.096 A 
BRANCH  23  26
HETATM   26  N2  UNL     1       6.896   2.646  -0.352  1.00  0.00    -0.399 N 
HETATM   27  H9  UNL     1       7.002   3.069  -1.319  1.00  0.00     0.156 HD
HETATM   28  H10 UNL     1       7.631   2.718   0.367  1.00  0.00     0.156 HD
ENDBRANCH  23  26
BRANCH  25  29
HETATM   29  O1  UNL     1       3.954  -0.999  -1.635  1.00  0.00    -0.354 OA
HETATM   30  C12 UNL     1       5.141  -1.725  -2.018  1.00  0.00     0.210 C 
ENDBRANCH  25  29
ENDBRANCH  18  20
ENDBRANCH   3  18
BRANCH   1  31
HETATM   31  S1  UNL     1      -2.171  -2.156  -1.717  1.00  0.00    -0.161 SA
HETATM   32  C2  UNL     1      -0.583  -2.804  -2.333  1.00  0.00     0.023 A 
HETATM   33  C1  UNL     1      -0.774  -3.523  -1.178  1.00  0.00     0.106 A 
ENDBRANCH   1  31
TORSDOF 5
