REMARK  7 active torsions:
REMARK  status: ('A' for Active; 'I' for Inactive)
REMARK    1  A    between atoms: N1_2  and  C2_3 
REMARK    2  A    between atoms: O1_9  and  C8_10 
REMARK    3  A    between atoms: C17_21  and  C18_22 
REMARK    4  A    between atoms: C17_21  and  O3_31 
REMARK    5  A    between atoms: C18_22  and  C19_23 
REMARK    6  A    between atoms: C19_23  and  N4_24 
REMARK       I    between atoms: N4_24  and  C20_25 
REMARK    7  A    between atoms: C20_25  and  C21_27 
ROOT
HETATM    1  C8  UNL     1       3.086   0.026  -0.320  1.00  0.00     0.434 A 
HETATM    2  N2  UNL     1       3.541   1.248  -0.081  1.00  0.00     0.219 N 
HETATM    3  C9  UNL     1       3.160   2.517  -0.040  1.00  0.00     0.452 A 
HETATM    4  N3  UNL     1       3.514   1.266  -0.086  1.00  0.00     0.219 N 
HETATM    5  C10 UNL     1       2.696   0.334  -0.385  1.00  0.00     0.496 A 
HETATM    6  C11 UNL     1       1.754  -0.581  -0.715  1.00  0.00     0.118 A 
HETATM    7  C12 UNL     1       0.389  -0.442  -0.366  1.00  0.00     0.075 A 
HETATM    8  C13 UNL     1      -0.313   0.889  -0.690  1.00  0.00    -0.037 A 
HETATM    9  C14 UNL     1       0.168   2.115  -0.656  1.00  0.00     0.006 C 
HETATM   10  C15 UNL     1       0.942   3.259  -0.534  1.00  0.00     0.001 C 
HETATM   11  C16 UNL     1       2.228   3.579  -0.275  1.00  0.00     0.054 C 
HETATM   12  C17 UNL     1      -0.908  -0.437  -0.751  1.00  0.00     0.094 A 
ENDROOT
BRANCH  12  13
HETATM   13  C18 UNL     1      -2.100  -0.824   0.047  1.00  0.00     0.063 C 
BRANCH  13  14
HETATM   14  C19 UNL     1      -2.308  -0.066   1.307  1.00  0.00     0.125 C 
BRANCH  14  15
HETATM   15  N4  UNL     1      -3.632  -0.454   1.887  1.00  0.00    -0.371 N 
HETATM   16  C20 UNL     1      -4.707  -0.032   1.048  1.00  0.00     0.159 C 
HETATM   17  O2  UNL     1      -4.034   0.606   0.122  1.00  0.00    -0.177 OA
HETATM   18  H16 UNL     1      -4.223  -0.914   2.661  1.00  0.00     0.161 HD
BRANCH  16  19
HETATM   19  C21 UNL     1      -6.089   0.120   0.595  1.00  0.00     0.017 C 
HETATM   20  C22 UNL     1      -6.843  -1.210   0.721  1.00  0.00     0.023 C 
HETATM   21  C23 UNL     1      -6.832   1.238   1.274  1.00  0.00     0.023 C 
HETATM   22  C24 UNL     1      -6.081   0.448  -0.900  1.00  0.00     0.023 C 
ENDBRANCH  16  19
ENDBRANCH  14  15
ENDBRANCH  13  14
ENDBRANCH  12  13
BRANCH  12  23
HETATM   23  O3  UNL     1      -1.140  -0.707  -2.213  1.00  0.00    -0.380 OA
HETATM   24  C25 UNL     1      -0.631  -1.917  -2.551  1.00  0.00     0.203 C 
ENDBRANCH  12  23
BRANCH   1  25
HETATM   25  O1  UNL     1       3.797  -1.167  -0.265  1.00  0.00     0.000 OA
HETATM   26  C7  UNL     1       5.106  -1.200   0.124  1.00  0.00    -0.006 A 
HETATM   27  C2  UNL     1       6.494  -1.272   0.497  1.00  0.00     0.035 C 
HETATM   28  C6  UNL     1       4.761  -2.046  -0.895  1.00  0.00     0.052 A 
HETATM   29  C3  UNL     1       7.242  -2.082  -0.301  1.00  0.00     0.030 C 
HETATM   30  C4  UNL     1       6.782  -2.716  -1.610  1.00  0.00     0.011 C 
HETATM   31  C5  UNL     1       5.661  -2.067  -1.865  1.00  0.00    -0.034 C 
BRANCH  27  32
HETATM   32  N1  UNL     1       6.244  -0.450   1.624  1.00  0.00    -0.394 N 
HETATM   33  C1  UNL     1       6.489   0.954   1.273  1.00  0.00     0.146 C 
HETATM   34  H4  UNL     1       5.944  -0.802   2.590  1.00  0.00     0.159 HD
ENDBRANCH  27  32
ENDBRANCH   1  25
TORSDOF 7
