REMARK  4 active torsions:
REMARK  status: ('A' for Active; 'I' for Inactive)
REMARK    1  A    between atoms: C2_2  and  C3_3 
REMARK    2  A    between atoms: C3_3  and  N1_5 
REMARK    3  A    between atoms: N1_5  and  C5_6 
REMARK    4  A    between atoms: N3_14  and  C12_15 
ROOT
HETATM    1  C5  UNL     1       2.699   0.509   0.599  1.00  0.00     0.030 A 
HETATM    2  C6  UNL     1       2.891   1.376  -0.451  1.00  0.00     0.032 A 
HETATM    3  C7  UNL     1       1.867   2.080  -1.041  1.00  0.00     0.042 A 
HETATM    4  C8  UNL     1       0.560   1.979  -0.633  1.00  0.00     0.103 A 
HETATM    5  C9  UNL     1       0.273   1.135   0.411  1.00  0.00     0.065 A 
HETATM    6  C10 UNL     1       1.350   0.440   0.980  1.00  0.00     0.061 A 
HETATM    7  N2  UNL     1      -0.930   0.786   1.065  1.00  0.00    -0.371 N 
HETATM    8  C11 UNL     1      -2.071  -0.056   1.089  1.00  0.00     0.248 C 
HETATM    9  N3  UNL     1      -2.972  -0.013   0.000  1.00  0.00    -0.346 N 
HETATM   10  C18 UNL     1      -2.709   0.895  -1.062  1.00  0.00     0.276 C 
HETATM   11  N4  UNL     1      -2.653   2.277  -0.621  1.00  0.00    -0.263 NA
HETATM   12  C19 UNL     1      -2.073   3.123  -1.397  1.00  0.00     0.230 C 
HETATM   13  N5  UNL     1      -1.390   3.248  -2.662  1.00  0.00    -0.230 NA
HETATM   14  C20 UNL     1      -0.104   3.015  -2.725  1.00  0.00     0.260 C 
HETATM   15  O1  UNL     1      -0.298   2.778  -1.369  1.00  0.00    -0.302 OA
HETATM   16  H12 UNL     1      -0.836   1.486   1.834  1.00  0.00     0.161 HD
ENDROOT
BRANCH   9  17
HETATM   17  C12 UNL     1      -4.062  -0.916   0.122  1.00  0.00     0.034 A 
HETATM   18  C13 UNL     1      -4.191  -1.748   1.202  1.00  0.00     0.032 A 
HETATM   19  C14 UNL     1      -5.253  -2.641   1.339  1.00  0.00     0.046 A 
HETATM   20  C15 UNL     1      -6.235  -2.727   0.378  1.00  0.00     0.138 A 
HETATM   21  F1  UNL     1      -7.259  -3.587   0.509  1.00  0.00    -0.204 F 
HETATM   22  C16 UNL     1      -6.131  -1.901  -0.721  1.00  0.00     0.074 A 
HETATM   23 CL1  UNL     1      -7.368  -2.006  -1.937  1.00  0.00    -0.081 Cl
HETATM   24  C17 UNL     1      -5.064  -1.033  -0.815  1.00  0.00     0.056 A 
ENDBRANCH   9  17
BRANCH   1  25
HETATM   25  N1  UNL     1       3.686  -0.239   1.245  1.00  0.00    -0.385 N 
HETATM   26  H8  UNL     1       3.403  -0.855   2.038  1.00  0.00     0.160 HD
BRANCH  25  27
HETATM   27  C3  UNL     1       5.063  -0.174   0.837  1.00  0.00     0.082 C 
HETATM   28  C4  UNL     1       5.276  -0.637  -0.577  1.00  0.00     0.032 C 
BRANCH  27  29
HETATM   29  C2  UNL     1       5.898  -1.028   1.725  1.00  0.00     0.014 C 
HETATM   30  C1  UNL     1       6.289  -2.264   1.396  1.00  0.00     0.007 C 
ENDBRANCH  27  29
ENDBRANCH  25  27
ENDBRANCH   1  25
TORSDOF 4
