REMARK  2 active torsions:
REMARK  status: ('A' for Active; 'I' for Inactive)
REMARK       I    between atoms: C2_2  and  N1_4 
REMARK    1  A    between atoms: C11_17  and  C12_18 
REMARK    2  A    between atoms: C12_18  and  C13_19 
ROOT
HETATM    1  C1  UNL     1       1.698  -3.201  -3.482  1.00  0.00     0.117 C 
HETATM    2  C2  UNL     1       2.259  -2.846  -2.161  1.00  0.00     0.216 C 
HETATM    3  O1  UNL     1       3.219  -3.120  -1.377  1.00  0.00    -0.274 OA
HETATM    4  N1  UNL     1       1.420  -1.823  -1.556  1.00  0.00    -0.337 N 
HETATM    5  C3  UNL     1       0.194  -1.204  -2.003  1.00  0.00     0.146 C 
HETATM    6  C4  UNL     1      -0.975  -1.324  -1.103  1.00  0.00     0.137 C 
HETATM    7  N2  UNL     1      -0.653  -1.571   0.306  1.00  0.00    -0.400 N 
HETATM    8  C5  UNL     1      -1.306  -1.639   1.566  1.00  0.00     0.135 C 
HETATM    9  C6  UNL     1      -2.117  -1.099   2.440  1.00  0.00     0.165 A 
HETATM   10  C7  UNL     1      -3.067  -0.264   3.242  1.00  0.00     0.093 A 
HETATM   11  C8  UNL     1      -3.555   0.895   2.809  1.00  0.00     0.200 A 
HETATM   12  F1  UNL     1      -2.716  -0.039   2.332  1.00  0.00    -0.368 F 
HETATM   13  N3  UNL     1      -3.246   1.423   1.571  1.00  0.00    -0.347 N 
HETATM   14  C9  UNL     1      -2.149   2.398   1.741  1.00  0.00     0.204 C 
HETATM   15  N4  UNL     1      -0.903   2.770   1.528  1.00  0.00    -0.256 NA
HETATM   16  C10 UNL     1       0.053   2.063   0.819  1.00  0.00     0.129 C 
HETATM   17  C11 UNL     1       1.019   1.521   0.101  1.00  0.00     0.013 C 
HETATM   18  C14 UNL     1       1.604   0.292  -0.309  1.00  0.00     0.181 C 
HETATM   19  O2  UNL     1       2.597   0.559  -1.080  1.00  0.00    -0.290 OA
HETATM   20  C15 UNL     1       1.651  -1.149  -0.300  1.00  0.00     0.179 C 
HETATM   21  C16 UNL     1       0.745  -1.823   0.722  1.00  0.00     0.151 C 
HETATM   22  H11 UNL     1      -3.000   1.840   0.604  1.00  0.00     0.163 HD
ENDROOT
BRANCH  17  23
HETATM   23  C12 UNL     1       1.586   2.808  -0.335  1.00  0.00     0.115 C 
BRANCH  23  24
HETATM   24  C13 UNL     1       0.961   4.033   0.208  1.00  0.00     0.357 C 
HETATM   25  F2  UNL     1       1.690   5.112  -0.373  1.00  0.00    -0.214 F 
HETATM   26  F3  UNL     1       1.174   4.201   1.564  1.00  0.00    -0.214 F 
ENDBRANCH  23  24
ENDBRANCH  17  23
TORSDOF 2
