REMARK  5 active torsions:
REMARK  status: ('A' for Active; 'I' for Inactive)
REMARK    1  A    between atoms: C3_3  and  C4_5 
REMARK    2  A    between atoms: C5_6  and  N1_7 
REMARK    3  A    between atoms: N1_7  and  C7_9 
REMARK    4  A    between atoms: C7_9  and  C8_10 
REMARK    5  A    between atoms: C8_10  and  O2_11 
ROOT
HETATM    1  C4  UNL     1      -0.536   0.309   0.934  1.00  0.00     0.099 C 
HETATM    2  C5  UNL     1      -1.376   0.019  -0.203  1.00  0.00     0.020 C 
HETATM    3  C9  UNL     1      -1.735  -0.929  -1.044  1.00  0.00     0.034 C 
HETATM    4  C10 UNL     1      -1.453  -2.368  -1.316  1.00  0.00    -0.044 C 
HETATM    5  C11 UNL     1      -1.625  -2.740   0.134  1.00  0.00     0.049 C 
HETATM    6  C12 UNL     1      -1.271  -3.662  -1.657  1.00  0.00     0.113 C 
HETATM    7  N2  UNL     1      -0.400  -4.569  -0.933  1.00  0.00    -0.198 N 
HETATM    8  C13 UNL     1       0.712  -3.855  -0.368  1.00  0.00     0.726 A 
HETATM    9  N3  UNL     1       1.438  -4.650   0.420  1.00  0.00    -0.075 NA
HETATM   10  C14 UNL     1       2.523  -4.160   1.096  1.00  0.00     0.139 A 
HETATM   11  C15 UNL     1       2.731  -2.797   0.845  1.00  0.00     0.053 A 
HETATM   12  C16 UNL     1       1.978  -1.945   0.018  1.00  0.00     0.089 A 
HETATM   13  N4  UNL     1       0.961  -2.569  -0.567  1.00  0.00    -0.062 NA
HETATM   14  C17 UNL     1       2.348  -0.557  -0.110  1.00  0.00     0.022 A 
HETATM   15  C18 UNL     1       3.655  -0.327  -0.587  1.00  0.00     0.105 A 
HETATM   16  N5  UNL     1       3.914   1.000  -0.664  1.00  0.00    -0.359 N 
HETATM   17  C19 UNL     1       5.156   1.651  -1.108  1.00  0.00     0.156 C 
HETATM   18  C20 UNL     1       2.778   1.586  -0.238  1.00  0.00     0.045 A 
HETATM   19  C21 UNL     1       2.583   2.948  -0.146  1.00  0.00     0.030 A 
HETATM   20  C22 UNL     1       1.363   3.386   0.309  1.00  0.00     0.003 A 
HETATM   21  C23 UNL     1       0.357   2.512   0.664  1.00  0.00     0.009 A 
HETATM   22  C24 UNL     1       0.643   1.178   0.540  1.00  0.00    -0.031 A 
HETATM   23  C25 UNL     1       1.816   0.660   0.102  1.00  0.00     0.012 A 
HETATM   24  H18 UNL     1      -0.735  -5.515  -0.967  1.00  0.00     0.183 HD
ENDROOT
BRANCH   2  25
HETATM   25  N1  UNL     1      -2.159   1.122  -0.716  1.00  0.00    -0.386 N 
HETATM   26  C6  UNL     1      -3.318   1.507   0.102  1.00  0.00     0.149 C 
BRANCH  25  27
HETATM   27  C7  UNL     1      -2.180   2.057  -1.823  1.00  0.00     0.148 C 
BRANCH  27  28
HETATM   28  C8  UNL     1      -3.342   1.939  -2.747  1.00  0.00     0.183 C 
BRANCH  28  29
HETATM   29  O2  UNL     1      -3.509   0.739  -3.383  1.00  0.00    -0.399 OA
HETATM   30  H12 UNL     1      -4.098   0.156  -2.834  1.00  0.00     0.209 HD
ENDBRANCH  28  29
ENDBRANCH  27  28
ENDBRANCH  25  27
ENDBRANCH   2  25
BRANCH   1  31
HETATM   31  C3  UNL     1      -1.220   0.870   2.111  1.00  0.00    -0.057 A 
HETATM   32  C2  UNL     1      -0.420   0.904   3.358  1.00  0.00     0.024 A 
HETATM   33  C1  UNL     1      -1.235   1.437   4.281  1.00  0.00     0.010 A 
HETATM   34  O1  UNL     1      -1.867   1.369   3.098  1.00  0.00     0.000 OA
ENDBRANCH   1  31
TORSDOF 5
