REMARK  2 active torsions:
REMARK  status: ('A' for Active; 'I' for Inactive)
REMARK    1  A    between atoms: C2_3  and  C5_7 
REMARK    2  A    between atoms: C5_7  and  C6_8 
ROOT
HETATM    1  C1  UNL     1      -4.058   0.634  -0.341  1.00  0.00     0.044 A 
HETATM    2  O1  UNL     1      -3.326   0.055   0.704  1.00  0.00     0.000 OA
HETATM    3  C2  UNL     1      -1.909   0.523   0.758  1.00  0.00     0.230 A 
HETATM    4  N1  UNL     1      -0.681   0.929   0.787  1.00  0.00     0.002 N 
HETATM    5  C3  UNL     1      -0.008   1.968   1.130  1.00  0.00     0.288 A 
HETATM    6  C4  UNL     1      -1.332   2.254   1.386  1.00  0.00     0.291 A 
HETATM    7  C5  UNL     1      -2.259   1.288   1.101  1.00  0.00     0.270 A 
HETATM    8  C6  UNL     1      -3.099   0.120   0.725  1.00  0.00     0.114 A 
HETATM    9  N2  UNL     1      -2.284  -1.144   0.235  1.00  0.00    -0.209 N 
HETATM   10  C7  UNL     1      -1.383  -1.975  -0.525  1.00  0.00     0.715 C 
HETATM   11  N3  UNL     1      -2.154  -1.607  -1.493  1.00  0.00    -0.116 NA
HETATM   12  N4  UNL     1      -0.237  -2.664   0.082  1.00  0.00    -0.078 NA
HETATM   13  C8  UNL     1       0.810  -1.852   0.211  1.00  0.00     0.131 C 
HETATM   14  C9  UNL     1       2.079  -1.099   0.438  1.00  0.00     0.120 C 
HETATM   15  C10 UNL     1       1.896   0.129   1.302  1.00  0.00     0.145 C 
HETATM   16  N5  UNL     1       1.159   1.205   0.697  1.00  0.00    -0.369 N 
HETATM   17  C11 UNL     1       1.541   1.754  -0.611  1.00  0.00     0.166 C 
HETATM   18  P1  UNL     1       2.999   0.809  -1.214  1.00  0.00    -0.036 P 
HETATM   19  N6  UNL     1       2.806  -0.915  -0.760  1.00  0.00    -0.284 NA
HETATM   20  C12 UNL     1       4.081  -1.613  -0.779  1.00  0.00     0.116 C 
HETATM   21  H6  UNL     1      -2.642  -1.884   0.937  1.00  0.00     0.178 HD
HETATM   22  H7  UNL     1      -1.962  -1.954  -2.450  1.00  0.00     0.206 HD
HETATM   23  H14 UNL     1       4.264   1.336  -0.838  1.00  0.00     0.075 HD
ENDROOT
TORSDOF 2
