REMARK  4 active torsions:
REMARK  status: ('A' for Active; 'I' for Inactive)
REMARK    1  A    between atoms: O1_2  and  C2_3 
REMARK    2  A    between atoms: C6_7  and  N1_8 
REMARK    3  A    between atoms: C15_19  and  C16_20 
REMARK    4  A    between atoms: C18_24  and  C19_25 
ROOT
HETATM    1  N1  UNL     1      -1.089  -0.897  -0.432  1.00  0.00    -0.254 N 
HETATM    2  C7  UNL     1      -0.931  -0.013  -1.537  1.00  0.00     0.228 C 
HETATM    3  N2  UNL     1       0.062   0.398  -2.266  1.00  0.00    -0.255 NA
HETATM    4  C8  UNL     1       1.464   0.087  -2.216  1.00  0.00     0.115 C 
HETATM    5  C9  UNL     1       2.244  -0.506  -1.318  1.00  0.00     0.009 C 
HETATM    6  C10 UNL     1       2.218  -1.138   0.004  1.00  0.00     0.031 C 
HETATM    7  C11 UNL     1       1.007  -1.912   0.332  1.00  0.00     0.127 C 
HETATM    8  N3  UNL     1      -0.268  -1.853   0.184  1.00  0.00    -0.186 NA
HETATM    9  C12 UNL     1       3.378  -2.117   0.033  1.00  0.00     0.027 C 
HETATM   10  C13 UNL     1       4.723  -1.471  -0.127  1.00  0.00     0.058 C 
HETATM   11  C14 UNL     1       4.705  -0.023   0.202  1.00  0.00     0.003 C 
HETATM   12  C15 UNL     1       5.605   0.795  -0.323  1.00  0.00     0.028 C 
HETATM   13  N4  UNL     1       3.711   0.477   1.087  1.00  0.00    -0.392 N 
HETATM   14  C17 UNL     1       2.426  -0.172   1.152  1.00  0.00     0.138 C 
HETATM   15  H21 UNL     1       3.900   1.297   1.680  1.00  0.00     0.159 HD
ENDROOT
BRANCH   1  16
HETATM   16  C6  UNL     1      -2.428  -0.726   0.155  1.00  0.00     0.154 A 
HETATM   17  C4  UNL     1      -3.505  -1.021  -0.840  1.00  0.00     0.036 A 
HETATM   18  C3  UNL     1      -4.374   0.159  -1.137  1.00  0.00     0.017 A 
HETATM   19  C5  UNL     1      -4.455  -2.074  -0.255  1.00  0.00     0.017 C 
HETATM   20  C2  UNL     1      -4.323   1.373  -0.663  1.00  0.00     0.065 A 
HETATM   21  C20 UNL     1      -3.261   1.653   0.314  1.00  0.00     0.048 A 
HETATM   22  C18 UNL     1      -2.454   0.678   0.634  1.00  0.00     0.008 A 
BRANCH  20  23
HETATM   23  O1  UNL     1      -5.195   2.387  -1.023  1.00  0.00    -0.356 OA
HETATM   24  C1  UNL     1      -6.487   2.364  -0.417  1.00  0.00     0.210 C 
ENDBRANCH  20  23
BRANCH  22  25
HETATM   25  C19 UNL     1      -1.398   0.986   1.616  1.00  0.00     0.268 C 
HETATM   26  O2  UNL     1      -1.331   2.163   2.090  1.00  0.00    -0.302 OA
ENDBRANCH  22  25
ENDBRANCH   1  16
BRANCH  12  27
HETATM   27  C16 UNL     1       5.739   2.248  -0.110  1.00  0.00     0.251 C 
HETATM   28  F1  UNL     1       6.950   2.624   0.432  1.00  0.00    -0.251 F 
ENDBRANCH  12  27
TORSDOF 4
