REMARK  7 active torsions:
REMARK  status: ('A' for Active; 'I' for Inactive)
REMARK    1  A    between atoms: C2_2  and  C3_3 
REMARK       I    between atoms: C3_3  and  N1_5 
REMARK    2  A    between atoms: N1_5  and  C4_6 
REMARK    3  A    between atoms: C8_10  and  N2_11 
REMARK    4  A    between atoms: N2_11  and  C9_12 
REMARK    5  A    between atoms: N4_15  and  C11_16 
REMARK    6  A    between atoms: C18_25  and  O2_26 
REMARK    7  A    between atoms: C21_29  and  C22_30 
ROOT
HETATM    1  C9  UNL     1      -1.039   0.607  -0.474  1.00  0.00     0.134 A 
HETATM    2  N3  UNL     1      -0.710  -0.621  -0.506  1.00  0.00    -0.252 NA
HETATM    3  C10 UNL     1       0.630  -1.148  -0.364  1.00  0.00     0.280 A 
HETATM    4  N4  UNL     1       1.597  -0.070  -0.165  1.00  0.00    -0.334 N 
HETATM    5  C20 UNL     1       1.253   1.308  -0.127  1.00  0.00     0.106 A 
HETATM    6  C21 UNL     1      -0.037   1.647  -0.278  1.00  0.00     0.031 A 
ENDROOT
BRANCH   1   7
HETATM    7  N2  UNL     1      -2.400   0.942  -0.630  1.00  0.00    -0.341 N 
HETATM    8  H8  UNL     1      -2.565   1.850  -1.133  1.00  0.00     0.167 HD
BRANCH   7   9
HETATM    9  C8  UNL     1      -3.491   0.163  -0.164  1.00  0.00     0.035 A 
HETATM   10  C7  UNL     1      -3.379  -1.007   0.545  1.00  0.00     0.029 A 
HETATM   11  C6  UNL     1      -4.487  -1.718   0.959  1.00  0.00     0.004 A 
HETATM   12  C5  UNL     1      -5.717  -1.195   0.626  1.00  0.00     0.029 A 
HETATM   13  C4  UNL     1      -5.916  -0.043  -0.073  1.00  0.00     0.037 A 
HETATM   14  C23 UNL     1      -4.765   0.607  -0.450  1.00  0.00     0.059 A 
BRANCH  13  15
HETATM   15  N1  UNL     1      -7.158   0.527  -0.441  1.00  0.00    -0.324 N 
HETATM   16  C3  UNL     1      -8.452   0.042  -0.210  1.00  0.00     0.241 C 
HETATM   17  O1  UNL     1      -8.605  -1.029   0.390  1.00  0.00    -0.269 OA
HETATM   18  H4  UNL     1      -7.190   1.435  -0.957  1.00  0.00     0.169 HD
BRANCH  16  19
HETATM   19  C2  UNL     1      -9.681   0.704  -0.626  1.00  0.00     0.048 C 
HETATM   20  C1  UNL     1     -10.699  -0.049  -0.239  1.00  0.00     0.037 C 
ENDBRANCH  16  19
ENDBRANCH  13  15
ENDBRANCH   7   9
ENDBRANCH   1   7
BRANCH   6  21
HETATM   21  C22 UNL     1      -0.411   3.085  -0.241  1.00  0.00     0.266 C 
HETATM   22  F1  UNL     1      -1.006   3.490  -1.419  1.00  0.00    -0.250 F 
ENDBRANCH   6  21
BRANCH   4  23
HETATM   23  C11 UNL     1       2.973  -0.384   0.004  1.00  0.00     0.084 A 
HETATM   24  C12 UNL     1       3.638  -0.530  -1.131  1.00  0.00     0.119 A 
HETATM   25  N5  UNL     1       5.015  -0.842  -0.960  1.00  0.00    -0.376 N 
HETATM   26  C13 UNL     1       5.876  -1.002  -2.102  1.00  0.00     0.153 C 
HETATM   27  C16 UNL     1       5.772  -1.040   0.232  1.00  0.00     0.137 A 
HETATM   28  C14 UNL     1       6.847   0.179  -2.042  1.00  0.00     0.289 C 
HETATM   29  N6  UNL     1       7.725  -0.092  -0.918  1.00  0.00     0.087 N 
HETATM   30  C15 UNL     1       7.023  -0.216   0.313  1.00  0.00     0.298 C 
HETATM   31  H16 UNL     1       8.166  -1.033  -1.138  1.00  0.00     0.316 HD
HETATM   32  C17 UNL     1       4.880  -0.840   1.400  1.00  0.00     0.039 A 
HETATM   33  C18 UNL     1       3.585  -0.537   1.321  1.00  0.00     0.094 A 
BRANCH  33  34
HETATM   34  O2  UNL     1       2.805  -0.362   2.468  1.00  0.00    -0.354 OA
HETATM   35  C19 UNL     1       3.370  -0.687   3.736  1.00  0.00     0.210 C 
ENDBRANCH  33  34
ENDBRANCH   4  23
TORSDOF 7
