REMARK  10 active torsions:
REMARK  status: ('A' for Active; 'I' for Inactive)
REMARK    1  A    between atoms: C2_2  and  C3_3 
REMARK       I    between atoms: C3_3  and  N1_5 
REMARK    2  A    between atoms: N1_5  and  C4_6 
REMARK    3  A    between atoms: C6_8  and  N2_9 
REMARK    4  A    between atoms: N2_9  and  C7_10 
REMARK    5  A    between atoms: C10_14  and  C11_15 
REMARK    6  A    between atoms: C13_18  and  O2_19 
REMARK    7  A    between atoms: C16_22  and  N5_23 
REMARK    8  A    between atoms: N5_23  and  C18_25 
REMARK    9  A    between atoms: C18_25  and  C19_26 
REMARK   10  A    between atoms: C19_26  and  N6_27 
ROOT
HETATM    1  C4  UNL     1      -0.144  -0.442  -0.698  1.00  0.00     0.064 A 
HETATM    2  C5  UNL     1       1.182  -0.298  -0.345  1.00  0.00     0.065 A 
HETATM    3  C6  UNL     1       1.686   0.614   0.553  1.00  0.00     0.085 A 
HETATM    4  C13 UNL     1       0.716   1.446   1.130  1.00  0.00     0.097 A 
HETATM    5  C15 UNL     1      -0.626   1.354   0.822  1.00  0.00     0.070 A 
HETATM    6  C16 UNL     1      -1.060   0.414  -0.089  1.00  0.00     0.059 A 
ENDROOT
BRANCH   3   7
HETATM    7  N2  UNL     1       3.055   0.758   0.903  1.00  0.00    -0.186 N 
HETATM    8  H6  UNL     1       3.304   1.545   1.576  1.00  0.00     0.184 HD
BRANCH   7   9
HETATM    9  C7  UNL     1       4.086  -0.073   0.407  1.00  0.00     0.722 A 
HETATM   10  N3  UNL     1       3.840  -1.317   0.347  1.00  0.00    -0.105 NA
HETATM   11  C8  UNL     1       4.807  -2.259  -0.139  1.00  0.00     0.175 A 
HETATM   12  C9  UNL     1       6.131  -1.714  -0.562  1.00  0.00     0.082 A 
HETATM   13  C10 UNL     1       6.288  -0.250  -0.443  1.00  0.00     0.054 A 
HETATM   14  N4  UNL     1       5.335   0.509   0.008  1.00  0.00    -0.068 NA
BRANCH  13  15
HETATM   15  C11 UNL     1       7.548   0.355  -0.844  1.00  0.00     0.018 C 
HETATM   16  C12 UNL     1       7.749   1.643  -0.767  1.00  0.00     0.013 C 
ENDBRANCH  13  15
ENDBRANCH   7   9
ENDBRANCH   3   7
BRANCH   4  17
HETATM   17  O2  UNL     1       1.141   2.385   2.038  1.00  0.00    -0.354 OA
HETATM   18  C14 UNL     1       0.336   3.298   2.716  1.00  0.00     0.210 C 
ENDBRANCH   4  17
BRANCH   1  19
HETATM   19  N1  UNL     1      -0.548  -1.428  -1.645  1.00  0.00    -0.322 N 
HETATM   20  C3  UNL     1      -0.924  -2.753  -1.307  1.00  0.00     0.244 C 
HETATM   21  O1  UNL     1      -0.950  -3.221  -0.140  1.00  0.00    -0.268 OA
HETATM   22  H4  UNL     1      -0.603  -1.261  -2.686  1.00  0.00     0.169 HD
BRANCH  20  23
HETATM   23  C2  UNL     1      -1.336  -3.757  -2.279  1.00  0.00     0.064 C 
HETATM   24  C1  UNL     1      -1.553  -4.739  -1.418  1.00  0.00     0.017 C 
ENDBRANCH  20  23
ENDBRANCH   1  19
BRANCH   6  25
HETATM   25  N5  UNL     1      -2.442   0.298  -0.424  1.00  0.00    -0.382 N 
HETATM   26  C17 UNL     1      -2.920   0.524  -1.774  1.00  0.00     0.150 C 
BRANCH  25  27
HETATM   27  C18 UNL     1      -3.347  -0.063   0.637  1.00  0.00     0.152 C 
BRANCH  27  28
HETATM   28  C19 UNL     1      -4.263   1.089   0.963  1.00  0.00     0.291 C 
BRANCH  28  29
HETATM   29  N6  UNL     1      -5.082   1.511  -0.157  1.00  0.00     0.081 N 
HETATM   30  C20 UNL     1      -5.928   2.627   0.282  1.00  0.00     0.309 C 
HETATM   31  C21 UNL     1      -6.029   0.419  -0.417  1.00  0.00     0.309 C 
ENDBRANCH  28  29
ENDBRANCH  27  28
ENDBRANCH  25  27
ENDBRANCH   6  25
TORSDOF 10
