REMARK  6 active torsions:
REMARK  status: ('A' for Active; 'I' for Inactive)
REMARK    1  A    between atoms: C1_2  and  C2_3 
REMARK       I    between atoms: C1_2  and  N1_8 
REMARK    2  A    between atoms: C3_4  and  C4_5 
REMARK    3  A    between atoms: N1_8  and  C6_9 
REMARK    4  A    between atoms: C10_13  and  C11_14 
REMARK    5  A    between atoms: C11_14  and  C12_15 
REMARK    6  A    between atoms: C12_15  and  C13_16 
ROOT
HETATM    1  C6  UNL     1       0.315   0.024   0.088  1.00  0.00     0.035 A 
HETATM    2  C7  UNL     1       1.065   1.148   0.288  1.00  0.00     0.029 A 
HETATM    3  C8  UNL     1       0.762   2.147   1.187  1.00  0.00     0.003 A 
HETATM    4  C9  UNL     1      -0.368   2.049   1.961  1.00  0.00     0.007 A 
HETATM    5  C10 UNL     1      -1.151   0.927   1.787  1.00  0.00    -0.056 A 
HETATM    6  C14 UNL     1      -0.811  -0.046   0.879  1.00  0.00     0.036 A 
ENDROOT
BRANCH   1   7
HETATM    7  N1  UNL     1       0.571  -1.034  -0.815  1.00  0.00    -0.324 N 
HETATM    8  C1  UNL     1       1.640  -1.205  -1.725  1.00  0.00     0.245 C 
HETATM    9  O1  UNL     1       2.507  -0.298  -1.760  1.00  0.00    -0.268 OA
HETATM   10  H5  UNL     1      -0.114  -1.825  -0.838  1.00  0.00     0.169 HD
BRANCH   8  11
HETATM   11  C2  UNL     1       1.731  -2.375  -2.580  1.00  0.00     0.074 C 
HETATM   12  C3  UNL     1       2.691  -2.601  -3.445  1.00  0.00     0.003 C 
BRANCH  12  13
HETATM   13  C4  UNL     1       3.912  -2.029  -3.968  1.00  0.00    -0.009 C 
HETATM   14  C5  UNL     1       4.827  -2.330  -4.851  1.00  0.00     0.206 C 
HETATM   15 BR1  UNL     1       6.254  -1.089  -5.076  1.00  0.00    -0.193 Br
ENDBRANCH  12  13
ENDBRANCH   8  11
ENDBRANCH   1   7
BRANCH   5  16
HETATM   16  C11 UNL     1      -2.379   0.795   2.612  1.00  0.00     0.047 C 
BRANCH  16  17
HETATM   17  C12 UNL     1      -3.534   1.431   1.882  1.00  0.00     0.122 C 
BRANCH  17  18
HETATM   18  C13 UNL     1      -4.797   1.297   2.726  1.00  0.00     0.388 C 
HETATM   19  F1  UNL     1      -4.563   1.948   3.936  1.00  0.00    -0.171 F 
HETATM   20  F2  UNL     1      -5.112  -0.033   2.919  1.00  0.00    -0.171 F 
HETATM   21  F3  UNL     1      -5.854   1.964   2.146  1.00  0.00    -0.171 F 
ENDBRANCH  17  18
ENDBRANCH  16  17
ENDBRANCH   5  16
TORSDOF 6
