REMARK  7 active torsions:
REMARK  status: ('A' for Active; 'I' for Inactive)
REMARK    1  A    between atoms: C3_3  and  C4_4 
REMARK    2  A    between atoms: C6_6  and  N1_7 
REMARK    3  A    between atoms: C17_21  and  O1_22 
REMARK    4  A    between atoms: C20_25  and  N5_26 
REMARK    5  A    between atoms: N5_26  and  C22_28 
REMARK    6  A    between atoms: C22_28  and  C23_29 
REMARK    7  A    between atoms: C23_29  and  N6_30 
ROOT
HETATM    1  C4  UNL     1      -1.597  -0.936   0.334  1.00  0.00    -0.008 A 
HETATM    2  C5  UNL     1      -0.298  -0.708  -0.125  1.00  0.00     0.046 A 
HETATM    3  C6  UNL     1      -0.000   0.507  -0.757  1.00  0.00     0.083 A 
HETATM    4  C17 UNL     1      -1.049   1.436  -0.887  1.00  0.00     0.097 A 
HETATM    5  C19 UNL     1      -2.310   1.157  -0.408  1.00  0.00     0.069 A 
HETATM    6  C20 UNL     1      -2.600  -0.013   0.201  1.00  0.00     0.043 A 
ENDROOT
BRANCH   3   7
HETATM    7  N1  UNL     1       1.225   0.838  -1.356  1.00  0.00    -0.186 N 
HETATM    8  C7  UNL     1       2.452   0.434  -1.008  1.00  0.00     0.726 A 
HETATM    9  N2  UNL     1       3.130   1.711  -1.006  1.00  0.00    -0.064 NA
HETATM   10  N3  UNL     1       3.049  -0.872  -0.659  1.00  0.00    -0.063 NA
HETATM   11  C8  UNL     1       4.432   1.969  -0.682  1.00  0.00     0.216 A 
HETATM   12  C9  UNL     1       4.402   0.679  -0.519  1.00  0.00     0.066 A 
HETATM   13  N4  UNL     1       5.902   1.633  -0.301  1.00  0.00    -0.354 N 
HETATM   14  C10 UNL     1       4.317  -0.692  -0.358  1.00  0.00     0.085 A 
HETATM   15  C11 UNL     1       5.708  -0.742  -0.009  1.00  0.00    -0.002 A 
HETATM   16  C12 UNL     1       6.566   0.330   0.035  1.00  0.00     0.038 A 
HETATM   17  C16 UNL     1       5.821  -2.205   0.191  1.00  0.00     0.047 A 
HETATM   18  C13 UNL     1       7.954   0.178   0.314  1.00  0.00     0.026 A 
HETATM   19  C14 UNL     1       8.068  -1.156   0.477  1.00  0.00    -0.024 A 
HETATM   20  C15 UNL     1       7.318  -2.440   0.469  1.00  0.00     0.032 A 
HETATM   21  H15 UNL     1       6.302   2.572  -0.448  1.00  0.00     0.162 HD
HETATM   22  H7  UNL     1       1.116   1.435  -2.240  1.00  0.00     0.184 HD
ENDBRANCH   3   7
BRANCH   4  23
HETATM   23  O1  UNL     1      -0.701   2.626  -1.522  1.00  0.00    -0.354 OA
HETATM   24  C18 UNL     1      -1.705   3.601  -1.691  1.00  0.00     0.210 C 
ENDBRANCH   4  23
BRANCH   1  25
HETATM   25  C3  UNL     1      -1.898  -2.272   0.872  1.00  0.00     0.009 C 
HETATM   26  C2  UNL     1      -1.185  -3.361   1.016  1.00  0.00    -0.030 C 
HETATM   27  C1  UNL     1      -1.525  -4.686   1.561  1.00  0.00     0.036 C 
ENDBRANCH   1  25
BRANCH   6  28
HETATM   28  N5  UNL     1      -3.936  -0.123   0.669  1.00  0.00    -0.383 N 
HETATM   29  C21 UNL     1      -4.201  -0.110   2.099  1.00  0.00     0.150 C 
BRANCH  28  30
HETATM   30  C22 UNL     1      -5.155  -0.290  -0.090  1.00  0.00     0.152 C 
BRANCH  30  31
HETATM   31  C23 UNL     1      -6.133   0.844   0.023  1.00  0.00     0.288 C 
BRANCH  31  32
HETATM   32  N6  UNL     1      -5.600   2.084  -0.423  1.00  0.00     0.080 N 
HETATM   33  C24 UNL     1      -6.451   3.224  -0.271  1.00  0.00     0.306 C 
HETATM   34  H27 UNL     1      -5.221   1.970  -1.385  1.00  0.00     0.315 HD
ENDBRANCH  31  32
ENDBRANCH  30  31
ENDBRANCH  28  30
ENDBRANCH   6  28
TORSDOF 7
