REMARK  5 active torsions:
REMARK  status: ('A' for Active; 'I' for Inactive)
REMARK    1  A    between atoms: C2_2  and  N1_3 
REMARK    2  A    between atoms: N1_3  and  O1_4 
REMARK    3  A    between atoms: N1_3  and  C3_5 
REMARK    4  A    between atoms: C4_6  and  C5_7 
REMARK    5  A    between atoms: C8_11  and  N3_12 
ROOT
HETATM    1  C5  UNL     1      -0.932  -1.086  -0.601  1.00  0.00     0.022 C 
HETATM    2  C6  UNL     1      -0.215  -1.404  -1.711  1.00  0.00     0.149 C 
HETATM    3  N2  UNL     1      -0.193  -0.026  -2.286  1.00  0.00    -0.364 N 
HETATM    4  C7  UNL     1       1.296   0.263  -2.369  1.00  0.00     0.179 C 
HETATM    5  C8  UNL     1       1.936  -0.240  -1.070  1.00  0.00     0.038 C 
HETATM    6  C14 UNL     1       1.776  -1.530  -0.676  1.00  0.00    -0.027 C 
HETATM    7  C15 UNL     1       1.762  -2.778  -1.561  1.00  0.00     0.214 C 
HETATM    8  O2  UNL     1       0.373  -2.678  -2.191  1.00  0.00    -0.331 OA
HETATM    9  C16 UNL     1       1.389  -1.509   0.822  1.00  0.00     0.077 C 
HETATM   10  C17 UNL     1      -0.180  -1.404   0.676  1.00  0.00    -0.044 C 
HETATM   11  C18 UNL     1      -0.988  -1.506   1.701  1.00  0.00    -0.023 C 
HETATM   12  C19 UNL     1      -0.489  -1.810   3.039  1.00  0.00     0.036 C 
HETATM   13  H7  UNL     1      -1.204   0.193  -2.399  1.00  0.00     0.162 HD
ENDROOT
BRANCH   5  14
HETATM   14  N3  UNL     1       2.681   0.545  -0.175  1.00  0.00    -0.333 N 
HETATM   15  C9  UNL     1       2.205   1.880  -0.032  1.00  0.00     0.095 A 
HETATM   16  C10 UNL     1       2.842   2.716   0.766  1.00  0.00     0.033 A 
HETATM   17  C11 UNL     1       4.034   2.422   1.554  1.00  0.00     0.240 A 
HETATM   18  F1  UNL     1       3.812   2.581   2.901  1.00  0.00    -0.239 F 
HETATM   19  C12 UNL     1       4.500   1.008   1.381  1.00  0.00     0.065 A 
HETATM   20 CL1  UNL     1       5.906   0.414   2.228  1.00  0.00    -0.084 Cl
HETATM   21  C13 UNL     1       3.824   0.223   0.572  1.00  0.00     0.119 A 
ENDBRANCH   5  14
BRANCH   1  22
HETATM   22  C4  UNL     1      -2.167  -0.453  -0.726  1.00  0.00     0.036 C 
HETATM   23  C3  UNL     1      -3.208   0.050  -0.143  1.00  0.00     0.123 C 
BRANCH  23  24
HETATM   24  N1  UNL     1      -4.368   0.664  -0.576  1.00  0.00    -0.248 N 
BRANCH  24  25
HETATM   25  C2  UNL     1      -5.499   1.326  -0.967  1.00  0.00     0.112 C 
HETATM   26  C1  UNL     1      -5.613   2.618  -0.665  1.00  0.00     0.032 C 
ENDBRANCH  24  25
BRANCH  24  27
HETATM   27  O1  UNL     1      -4.686  -0.503  -1.265  1.00  0.00    -0.284 OA
HETATM   28  H4  UNL     1      -5.278  -1.023  -0.644  1.00  0.00     0.245 HD
ENDBRANCH  24  27
ENDBRANCH  23  24
ENDBRANCH   1  22
TORSDOF 5
