REMARK  8 active torsions:
REMARK  status: ('A' for Active; 'I' for Inactive)
REMARK    1  A    between atoms: C2_2  and  C3_3 
REMARK    2  A    between atoms: C3_3  and  C4_5 
REMARK    3  A    between atoms: C4_5  and  N1_6 
REMARK    4  A    between atoms: C5_7  and  C6_8 
REMARK    5  A    between atoms: C6_8  and  N2_9 
REMARK    6  A    between atoms: N2_9  and  C7_10 
REMARK    7  A    between atoms: C9_13  and  C10_14 
REMARK    8  A    between atoms: N4_16  and  S1_17 
ROOT
HETATM    1  C7  UNL     1       0.337  -0.075  -1.109  1.00  0.00     0.718 A 
HETATM    2  N3  UNL     1       0.238   1.020  -0.456  1.00  0.00    -0.100 NA
HETATM    3  C8  UNL     1      -0.932   0.906   0.425  1.00  0.00     0.229 A 
HETATM    4  C9  UNL     1      -1.482  -0.447   0.160  1.00  0.00     0.086 A 
HETATM    5  N5  UNL     1      -0.688  -0.964  -0.749  1.00  0.00    -0.065 NA
ENDROOT
BRANCH   1   6
HETATM    6  N2  UNL     1       1.330  -0.432  -2.093  1.00  0.00    -0.219 N 
HETATM    7  H9  UNL     1       1.402  -1.430  -2.436  1.00  0.00     0.178 HD
BRANCH   6   8
HETATM    8  C6  UNL     1       2.216   0.603  -2.593  1.00  0.00     0.167 C 
BRANCH   8   9
HETATM    9  C5  UNL     1       3.171   1.113  -1.620  1.00  0.00     0.026 C 
HETATM   10  C4  UNL     1       4.490   1.206  -1.470  1.00  0.00     0.070 C 
BRANCH  10  11
HETATM   11  C3  UNL     1       5.046   1.825  -0.276  1.00  0.00     0.175 C 
HETATM   12  O1  UNL     1       4.183   2.245   0.569  1.00  0.00    -0.291 OA
BRANCH  11  13
HETATM   13  C2  UNL     1       6.468   1.975  -0.023  1.00  0.00     0.046 C 
HETATM   14  C1  UNL     1       7.476   1.593  -0.796  1.00  0.00     0.047 C 
ENDBRANCH  11  13
ENDBRANCH  10  11
BRANCH  10  15
HETATM   15  N1  UNL     1       4.930   0.598  -2.665  1.00  0.00    -0.396 N 
HETATM   16  H4  UNL     1       4.976   1.157  -3.520  1.00  0.00     0.156 HD
HETATM   17  H5  UNL     1       5.145  -0.406  -2.415  1.00  0.00     0.156 HD
ENDBRANCH  10  15
ENDBRANCH   8   9
ENDBRANCH   6   8
ENDBRANCH   1   6
BRANCH   4  18
HETATM   18  C10 UNL     1      -2.619  -1.180   0.695  1.00  0.00     0.020 A 
HETATM   19  C11 UNL     1      -2.752  -2.554   0.736  1.00  0.00     0.119 A 
HETATM   20  N4  UNL     1      -3.922  -2.888   1.293  1.00  0.00    -0.297 N 
HETATM   21  C12 UNL     1      -4.576  -1.766   1.627  1.00  0.00     0.056 A 
HETATM   22  C13 UNL     1      -5.796  -1.648   2.216  1.00  0.00     0.031 A 
HETATM   23  C17 UNL     1      -3.781  -0.700   1.262  1.00  0.00     0.005 A 
HETATM   24  C14 UNL     1      -6.274  -0.386   2.468  1.00  0.00     0.002 A 
HETATM   25  C15 UNL     1      -5.501   0.699   2.114  1.00  0.00     0.001 A 
HETATM   26  C16 UNL     1      -4.245   0.575   1.507  1.00  0.00     0.014 A 
BRANCH  20  27
HETATM   27  S1  UNL     1      -4.456  -4.549   1.521  1.00  0.00    -0.061 SA
HETATM   28  H13 UNL     1      -5.610  -4.822   0.769  1.00  0.00     0.126 HD
ENDBRANCH  20  27
ENDBRANCH   4  18
TORSDOF 8
