REMARK  7 active torsions:
REMARK  status: ('A' for Active; 'I' for Inactive)
REMARK    1  A    between atoms: C2_2  and  C3_3 
REMARK       I    between atoms: C3_3  and  N1_5 
REMARK    2  A    between atoms: N1_5  and  C4_6 
REMARK    3  A    between atoms: C8_10  and  N2_11 
REMARK    4  A    between atoms: N2_11  and  C9_12 
REMARK    5  A    between atoms: C10_14  and  N4_15 
REMARK    6  A    between atoms: N4_15  and  C11_16 
REMARK    7  A    between atoms: C15_21  and  C16_22 
ROOT
HETATM    1  C9  UNL     1       1.499   1.008  -0.006  1.00  0.00     0.164 A 
HETATM    2  N3  UNL     1       2.217  -0.111   0.141  1.00  0.00    -0.044 NA
HETATM    3  C10 UNL     1       3.536  -0.172   0.362  1.00  0.00     0.728 A 
HETATM    4  N5  UNL     1       4.204   0.993   0.444  1.00  0.00    -0.074 NA
HETATM    5  C14 UNL     1       3.587   2.173   0.312  1.00  0.00     0.156 A 
HETATM    6  C15 UNL     1       2.227   2.167   0.086  1.00  0.00     0.112 A 
ENDROOT
BRANCH   1   7
HETATM    7  N2  UNL     1       0.104   1.066  -0.242  1.00  0.00    -0.340 N 
HETATM    8  H8  UNL     1      -0.319   2.025  -0.347  1.00  0.00     0.167 HD
BRANCH   7   9
HETATM    9  C8  UNL     1      -0.809  -0.010  -0.360  1.00  0.00     0.035 A 
HETATM   10  C7  UNL     1      -0.500  -1.346  -0.260  1.00  0.00     0.029 A 
HETATM   11  C6  UNL     1      -1.397  -2.383  -0.377  1.00  0.00     0.004 A 
HETATM   12  C5  UNL     1      -2.722  -2.080  -0.614  1.00  0.00     0.029 A 
HETATM   13  C4  UNL     1      -3.088  -0.756  -0.723  1.00  0.00     0.037 A 
HETATM   14  C17 UNL     1      -2.146   0.227  -0.597  1.00  0.00     0.059 A 
BRANCH  13  15
HETATM   15  N1  UNL     1      -4.451  -0.424  -0.968  1.00  0.00    -0.324 N 
HETATM   16  C3  UNL     1      -5.512  -0.172  -0.054  1.00  0.00     0.244 C 
HETATM   17  O1  UNL     1      -5.499  -0.183   1.204  1.00  0.00    -0.268 OA
HETATM   18  H4  UNL     1      -4.606  -0.380  -1.982  1.00  0.00     0.169 HD
BRANCH  16  19
HETATM   19  C2  UNL     1      -6.811   0.147  -0.632  1.00  0.00     0.064 C 
HETATM   20  C1  UNL     1      -7.745   0.369   0.277  1.00  0.00     0.017 C 
ENDBRANCH  16  19
ENDBRANCH  13  15
ENDBRANCH   7   9
ENDBRANCH   1   7
BRANCH   6  21
HETATM   21  C16 UNL     1       1.552   3.483  -0.053  1.00  0.00     0.422 C 
HETATM   22  F1  UNL     1       0.580   3.699   0.903  1.00  0.00    -0.166 F 
HETATM   23  F2  UNL     1       2.457   4.515   0.078  1.00  0.00    -0.166 F 
HETATM   24  F3  UNL     1       1.017   3.611  -1.327  1.00  0.00    -0.166 F 
ENDBRANCH   6  21
BRANCH   3  25
HETATM   25  N4  UNL     1       4.189  -1.418   0.501  1.00  0.00    -0.192 N 
HETATM   26  H9  UNL     1       3.642  -2.300   0.431  1.00  0.00     0.184 HD
BRANCH  25  27
HETATM   27  C11 UNL     1       5.590  -1.425   0.736  1.00  0.00     0.026 A 
HETATM   28  C12 UNL     1       6.619  -2.120   1.391  1.00  0.00     0.005 A 
HETATM   29  C13 UNL     1       6.922  -0.896   0.586  1.00  0.00     0.086 A 
ENDBRANCH  25  27
ENDBRANCH   3  25
TORSDOF 7
