REMARK  6 active torsions:
REMARK  status: ('A' for Active; 'I' for Inactive)
REMARK    1  A    between atoms: O1_2  and  C2_3 
REMARK    2  A    between atoms: C4_5  and  N1_6 
REMARK       I    between atoms: N2_9  and  C7_10 
REMARK    3  A    between atoms: C13_17  and  N3_18 
REMARK    4  A    between atoms: N3_18  and  C14_19 
REMARK    5  A    between atoms: N4_20  and  C15_21 
REMARK    6  A    between atoms: C16_22  and  C17_23 
ROOT
HETATM    1  C2  UNL     1       1.573  -0.517   0.875  1.00  0.00     0.097 A 
HETATM    2  C3  UNL     1       0.230  -0.784   0.714  1.00  0.00     0.068 A 
HETATM    3  C4  UNL     1      -0.696   0.236   0.716  1.00  0.00     0.033 A 
HETATM    4  C11 UNL     1      -0.351   1.560   0.876  1.00  0.00     0.032 A 
HETATM    5  C12 UNL     1       0.999   1.809   1.036  1.00  0.00     0.035 A 
HETATM    6  C13 UNL     1       1.961   0.821   1.041  1.00  0.00     0.067 A 
ENDROOT
BRANCH   3   7
HETATM    7  N1  UNL     1      -2.049  -0.146   0.534  1.00  0.00    -0.378 N 
HETATM    8  C5  UNL     1      -2.508  -1.419   0.059  1.00  0.00     0.143 C 
HETATM    9  C6  UNL     1      -3.542  -1.284  -1.039  1.00  0.00     0.145 C 
HETATM   10  N2  UNL     1      -4.618  -0.400  -0.721  1.00  0.00    -0.349 N 
HETATM   11  C7  UNL     1      -5.998  -0.733  -0.713  1.00  0.00     0.215 C 
HETATM   12  C9  UNL     1      -4.046   0.893  -0.410  1.00  0.00     0.145 C 
HETATM   13  C8  UNL     1      -6.955   0.337  -0.352  1.00  0.00     0.117 C 
HETATM   14  O2  UNL     1      -6.194  -1.928  -1.027  1.00  0.00    -0.274 OA
HETATM   15  C10 UNL     1      -3.197   0.693   0.816  1.00  0.00     0.143 C 
ENDBRANCH   3   7
BRANCH   1  16
HETATM   16  O1  UNL     1       2.669  -1.361   0.907  1.00  0.00    -0.354 OA
HETATM   17  C1  UNL     1       2.442  -2.747   0.755  1.00  0.00     0.210 C 
ENDBRANCH   1  16
BRANCH   6  18
HETATM   18  N3  UNL     1       3.333   1.236   1.228  1.00  0.00    -0.349 N 
HETATM   19  H18 UNL     1       3.564   1.350   2.261  1.00  0.00     0.167 HD
BRANCH  18  20
HETATM   20  C14 UNL     1       4.232   1.458   0.122  1.00  0.00     0.207 C 
HETATM   21  N4  UNL     1       4.009   0.564  -0.806  1.00  0.00    -0.256 NA
BRANCH  21  22
HETATM   22  C15 UNL     1       4.805   0.628  -1.973  1.00  0.00     0.116 C 
HETATM   23  C16 UNL     1       6.115   0.597  -1.883  1.00  0.00     0.023 C 
BRANCH  23  24
HETATM   24  C17 UNL     1       7.075   0.504  -0.760  1.00  0.00     0.251 C 
HETATM   25  F1  UNL     1       7.919   1.593  -0.712  1.00  0.00    -0.251 F 
ENDBRANCH  23  24
ENDBRANCH  21  22
ENDBRANCH  18  20
ENDBRANCH   6  18
TORSDOF 6
