REMARK  2 active torsions:
REMARK  status: ('A' for Active; 'I' for Inactive)
REMARK       I    between atoms: C2_2  and  N1_4 
REMARK    1  A    between atoms: N2_7  and  C5_8 
REMARK    2  A    between atoms: C7_10  and  N3_11 
ROOT
HETATM    1  C5  UNL     1      -0.123   0.294  -0.197  1.00  0.00     0.227 C 
HETATM    2  C6  UNL     1      -0.720   1.059   0.933  1.00  0.00     0.072 C 
HETATM    3  C7  UNL     1      -2.025   0.912   0.191  1.00  0.00     0.237 C 
HETATM    4  C12 UNL     1      -1.473  -0.283  -0.471  1.00  0.00     0.072 C 
ENDROOT
BRANCH   1   5
HETATM    5  N2  UNL     1       0.907  -0.656   0.149  1.00  0.00     0.096 N 
HETATM    6  C4  UNL     1       2.060  -0.090   0.774  1.00  0.00     0.292 C 
HETATM    7  C3  UNL     1       3.247  -1.011   0.459  1.00  0.00     0.156 C 
HETATM    8  N1  UNL     1       3.472  -0.990  -0.970  1.00  0.00    -0.349 N 
HETATM    9  C2  UNL     1       4.821  -1.005  -1.399  1.00  0.00     0.215 C 
HETATM   10  C14 UNL     1       2.313  -0.956  -1.857  1.00  0.00     0.156 C 
HETATM   11  C1  UNL     1       5.830  -1.003  -2.451  1.00  0.00     0.117 C 
HETATM   12  O1  UNL     1       5.453  -1.037  -0.286  1.00  0.00    -0.274 OA
HETATM   13  C13 UNL     1       1.161  -1.462  -1.015  1.00  0.00     0.292 C 
ENDBRANCH   1   5
BRANCH   3  14
HETATM   14  N3  UNL     1      -3.192   0.828   0.917  1.00  0.00     0.214 N 
HETATM   15  C8  UNL     1      -4.466   0.728   1.715  1.00  0.00     0.457 A 
HETATM   16  C9  UNL     1      -5.775   1.286   2.055  1.00  0.00     0.090 A 
HETATM   17  N5  UNL     1      -4.868  -0.246   2.678  1.00  0.00    -0.051 NA
HETATM   18  C11 UNL     1      -4.197   1.409   1.068  1.00  0.00     0.460 A 
HETATM   19  N4  UNL     1      -4.079   0.270   1.833  1.00  0.00     0.265 N 
HETATM   20  C10 UNL     1      -5.408   2.397   1.039  1.00  0.00     0.096 A 
HETATM   21  H15 UNL     1      -4.786  -1.074   3.264  1.00  0.00     0.161 HD
ENDBRANCH   3  14
TORSDOF 2
