REMARK  6 active torsions:
REMARK  status: ('A' for Active; 'I' for Inactive)
REMARK    1  A    between atoms: O1_2  and  C2_3 
REMARK    2  A    between atoms: C4_5  and  N1_6 
REMARK       I    between atoms: N2_9  and  C7_10 
REMARK    3  A    between atoms: C13_17  and  N3_18 
REMARK    4  A    between atoms: N3_18  and  C14_19 
REMARK    5  A    between atoms: N4_20  and  C15_21 
REMARK    6  A    between atoms: C16_22  and  C18_24 
ROOT
HETATM    1  C2  UNL     1       1.020  -0.531   0.232  1.00  0.00     0.097 A 
HETATM    2  C3  UNL     1      -0.299  -0.400  -0.147  1.00  0.00     0.068 A 
HETATM    3  C4  UNL     1      -1.249   0.302   0.561  1.00  0.00     0.033 A 
HETATM    4  C11 UNL     1      -0.772   0.883   1.715  1.00  0.00     0.032 A 
HETATM    5  C12 UNL     1       0.542   0.766   2.115  1.00  0.00     0.035 A 
HETATM    6  C13 UNL     1       1.497   0.049   1.382  1.00  0.00     0.067 A 
ENDROOT
BRANCH   3   7
HETATM    7  N1  UNL     1      -2.580   0.393   0.122  1.00  0.00    -0.378 N 
HETATM    8  C5  UNL     1      -3.104  -0.347  -0.971  1.00  0.00     0.143 C 
HETATM    9  C6  UNL     1      -4.530  -0.728  -0.927  1.00  0.00     0.145 C 
HETATM   10  N2  UNL     1      -5.411   0.060  -0.141  1.00  0.00    -0.349 N 
HETATM   11  C7  UNL     1      -6.713   0.430  -0.601  1.00  0.00     0.215 C 
HETATM   12  C9  UNL     1      -4.741   0.363   1.104  1.00  0.00     0.145 C 
HETATM   13  C8  UNL     1      -7.603   1.262   0.266  1.00  0.00     0.117 C 
HETATM   14  O2  UNL     1      -6.930  -0.036  -1.756  1.00  0.00    -0.274 OA
HETATM   15  C10 UNL     1      -3.570   1.261   0.724  1.00  0.00     0.143 C 
ENDBRANCH   3   7
BRANCH   1  16
HETATM   16  O1  UNL     1       1.946  -1.248  -0.506  1.00  0.00    -0.354 OA
HETATM   17  C1  UNL     1       1.514  -1.868  -1.700  1.00  0.00     0.210 C 
ENDBRANCH   1  16
BRANCH   6  18
HETATM   18  N3  UNL     1       2.812   0.036   1.907  1.00  0.00    -0.349 N 
HETATM   19  H18 UNL     1       2.993   0.428   2.883  1.00  0.00     0.167 HD
BRANCH  18  20
HETATM   20  C14 UNL     1       3.949  -0.494   1.212  1.00  0.00     0.207 C 
HETATM   21  N4  UNL     1       4.107   0.035   0.039  1.00  0.00    -0.256 NA
BRANCH  21  22
HETATM   22  C15 UNL     1       5.122  -0.278  -0.869  1.00  0.00     0.122 C 
HETATM   23  C16 UNL     1       6.387  -0.039  -0.598  1.00  0.00    -0.038 C 
HETATM   24  C17 UNL     1       7.380  -0.403  -1.613  1.00  0.00     0.047 C 
BRANCH  23  25
HETATM   25  C18 UNL     1       6.864   0.568   0.654  1.00  0.00     0.257 C 
HETATM   26  F1  UNL     1       7.716  -0.322   1.278  1.00  0.00    -0.251 F 
ENDBRANCH  23  25
ENDBRANCH  21  22
ENDBRANCH  18  20
ENDBRANCH   6  18
TORSDOF 6
