REMARK  0 active torsions:
REMARK  status: ('A' for Active; 'I' for Inactive)
ROOT
HETATM    1 CL1  UNL     1      -3.590  -3.272  -0.167  1.00  0.00    -0.082 Cl
HETATM    2  C1  UNL     1      -3.334  -1.539   0.013  1.00  0.00     0.063 A 
HETATM    3  C2  UNL     1      -4.458  -0.762  -0.180  1.00  0.00     0.026 A 
HETATM    4  C3  UNL     1      -4.374   0.609  -0.053  1.00  0.00     0.004 A 
HETATM    5  C4  UNL     1      -3.092   1.087   0.273  1.00  0.00     0.032 A 
HETATM    6  C5  UNL     1      -1.954   0.288   0.467  1.00  0.00     0.062 A 
HETATM    7  C6  UNL     1      -2.081  -1.065   0.332  1.00  0.00     0.080 A 
HETATM    8  N1  UNL     1      -1.146  -2.080   0.473  1.00  0.00    -0.364 N 
HETATM    9  C7  UNL     1       0.031  -2.309  -0.279  1.00  0.00     0.088 C 
HETATM   10  C8  UNL     1       0.937  -2.756  -1.128  1.00  0.00     0.143 A 
HETATM   11  C9  UNL     1       2.311  -2.600  -1.584  1.00  0.00     0.132 A 
HETATM   12  N2  UNL     1       2.099  -1.772  -0.664  1.00  0.00    -0.390 N 
HETATM   13  C10 UNL     1       3.141  -0.868  -0.228  1.00  0.00     0.145 C 
HETATM   14  C11 UNL     1       3.051  -0.812   1.248  1.00  0.00    -0.005 C 
HETATM   15  C12 UNL     1       2.779   0.354   1.808  1.00  0.00     0.030 C 
HETATM   16  C13 UNL     1       2.601   1.441   0.865  1.00  0.00     0.077 A 
HETATM   17  C14 UNL     1       1.505   1.913   0.371  1.00  0.00     0.086 A 
HETATM   18  C15 UNL     1       0.148   1.950   0.228  1.00  0.00     0.146 A 
HETATM   19  N3  UNL     1      -0.403   2.857  -0.590  1.00  0.00    -0.223 NA
HETATM   20  C16 UNL     1       0.241   3.769  -1.314  1.00  0.00     0.237 A 
HETATM   21  N4  UNL     1       1.586   3.766  -1.199  1.00  0.00    -0.221 NA
HETATM   22  C17 UNL     1       2.180   2.871  -0.388  1.00  0.00     0.167 A 
HETATM   23  N5  UNL     1       3.269   2.420   0.087  1.00  0.00    -0.227 NA
HETATM   24  N6  UNL     1      -0.948   1.234   0.764  1.00  0.00    -0.338 N 
HETATM   25  H4  UNL     1      -1.386  -2.746   1.241  1.00  0.00     0.165 HD
HETATM   26  H13 UNL     1      -1.016   1.578   1.743  1.00  0.00     0.167 HD
ENDROOT
TORSDOF 0
