REMARK  4 active torsions:
REMARK  status: ('A' for Active; 'I' for Inactive)
REMARK    1  A    between atoms: C4_4  and  N1_5 
REMARK    2  A    between atoms: C8_11  and  C9_12 
REMARK    3  A    between atoms: C9_12  and  C10_13 
REMARK    4  A    between atoms: C10_13  and  N4_14 
REMARK       I    between atoms: N5_17  and  C13_18 
ROOT
HETATM    1  C1  UNL     1      -4.541  -1.707   1.099  1.00  0.00     0.038 C 
HETATM    2  C2  UNL     1      -3.969  -0.644   0.622  1.00  0.00     0.018 C 
HETATM    3  C3  UNL     1      -4.382   0.228  -0.502  1.00  0.00     0.056 A 
HETATM    4  C4  UNL     1      -5.642   0.239  -1.143  1.00  0.00     0.136 A 
HETATM    5  N2  UNL     1      -6.027   1.231  -2.007  1.00  0.00    -0.224 NA
HETATM    6  C5  UNL     1      -5.134   2.240  -2.240  1.00  0.00     0.235 A 
HETATM    7  N3  UNL     1      -3.894   2.273  -1.646  1.00  0.00    -0.244 NA
HETATM    8  C6  UNL     1      -3.553   1.278  -0.808  1.00  0.00     0.071 A 
HETATM    9  C7  UNL     1      -2.252   0.888  -0.235  1.00  0.00     0.135 A 
HETATM   10  C8  UNL     1      -1.624   0.943   0.987  1.00  0.00     0.090 A 
HETATM   11  N6  UNL     1      -2.799   0.092   0.928  1.00  0.00    -0.265 NA
ENDROOT
BRANCH  10  12
HETATM   12  C9  UNL     1      -0.317   0.224   1.207  1.00  0.00     0.041 C 
BRANCH  12  13
HETATM   13  C10 UNL     1       0.718   0.756   0.247  1.00  0.00     0.118 C 
BRANCH  13  14
HETATM   14  N4  UNL     1       2.003   0.160   0.345  1.00  0.00    -0.409 N 
HETATM   15  C11 UNL     1       2.754   0.417   1.525  1.00  0.00     0.136 C 
HETATM   16  C12 UNL     1       4.005  -0.469   1.447  1.00  0.00     0.145 C 
HETATM   17  N5  UNL     1       4.404  -0.661   0.044  1.00  0.00    -0.349 N 
HETATM   18  C13 UNL     1       5.533  -0.213  -0.714  1.00  0.00     0.215 C 
HETATM   19  C15 UNL     1       3.444  -1.475  -0.719  1.00  0.00     0.145 C 
HETATM   20  C14 UNL     1       6.595   0.616  -0.105  1.00  0.00     0.117 C 
HETATM   21  O1  UNL     1       5.835  -0.408  -1.940  1.00  0.00    -0.274 OA
HETATM   22  C16 UNL     1       2.073  -1.222  -0.078  1.00  0.00     0.136 C 
ENDBRANCH  13  14
ENDBRANCH  12  13
ENDBRANCH  10  12
BRANCH   4  23
HETATM   23  N1  UNL     1      -6.645  -0.756  -0.973  1.00  0.00    -0.383 N 
HETATM   24  H3  UNL     1      -7.355  -0.609  -0.254  1.00  0.00     0.157 HD
HETATM   25  H4  UNL     1      -6.708  -1.645  -1.543  1.00  0.00     0.157 HD
ENDBRANCH   4  23
TORSDOF 4
