REMARK  5 active torsions:
REMARK  status: ('A' for Active; 'I' for Inactive)
REMARK       I    between atoms: C2_2  and  N1_4 
REMARK    1  A    between atoms: N2_7  and  C5_8 
REMARK    2  A    between atoms: C8_12  and  C9_13 
REMARK    3  A    between atoms: C13_17  and  O2_18 
REMARK    4  A    between atoms: O2_18  and  C14_19 
REMARK    5  A    between atoms: C14_19  and  C15_20 
ROOT
HETATM    1  C5  UNL     1       3.218   0.812  -0.210  1.00  0.00     0.234 C 
HETATM    2  C6  UNL     1       2.136   0.917   0.876  1.00  0.00     0.073 C 
HETATM    3  C7  UNL     1       1.286   1.563  -0.227  1.00  0.00     0.233 C 
HETATM    4  N3  UNL     1      -0.121   1.322  -0.149  1.00  0.00     0.101 N 
HETATM    5  C8  UNL     1      -0.557   0.519  -1.233  1.00  0.00     0.279 C 
HETATM    6  C20 UNL     1       0.225  -0.773  -1.190  1.00  0.00     0.010 C 
HETATM    7  C21 UNL     1       1.553  -0.731  -1.165  1.00  0.00    -0.019 C 
HETATM    8  C22 UNL     1       2.037   0.678  -1.186  1.00  0.00     0.074 C 
HETATM    9  H12 UNL     1      -0.564   2.292  -0.146  1.00  0.00     0.317 HD
ENDROOT
BRANCH   5  10
HETATM   10  C9  UNL     1      -1.988   0.282  -1.364  1.00  0.00     0.020 A 
HETATM   11  C10 UNL     1      -2.196  -0.691  -2.352  1.00  0.00     0.013 A 
HETATM   12  C11 UNL     1      -3.477  -1.124  -2.699  1.00  0.00     0.003 A 
HETATM   13  C12 UNL     1      -4.538  -0.556  -2.032  1.00  0.00     0.040 A 
HETATM   14  C13 UNL     1      -4.416   0.400  -1.056  1.00  0.00     0.107 A 
HETATM   15  C19 UNL     1      -3.109   0.801  -0.743  1.00  0.00     0.158 A 
HETATM   16  F1  UNL     1      -2.733   1.722   0.181  1.00  0.00    -0.203 F 
BRANCH  14  17
HETATM   17  O2  UNL     1      -5.265   1.096  -0.274  1.00  0.00    -0.345 OA
BRANCH  17  18
HETATM   18  C14 UNL     1      -6.631   1.082  -0.165  1.00  0.00     0.207 C 
BRANCH  18  19
HETATM   19  C15 UNL     1      -7.119  -0.266   0.300  1.00  0.00     0.145 C 
HETATM   20  C16 UNL     1      -6.567  -0.468   1.691  1.00  0.00     0.036 C 
HETATM   21  C17 UNL     1      -7.659   0.188   2.540  1.00  0.00     0.029 C 
HETATM   22  C18 UNL     1      -8.869  -0.224   1.723  1.00  0.00     0.168 C 
HETATM   23  O3  UNL     1      -8.501  -0.263   0.407  1.00  0.00    -0.384 OA
ENDBRANCH  18  19
ENDBRANCH  17  18
ENDBRANCH  14  17
ENDBRANCH   5  10
BRANCH   1  24
HETATM   24  N2  UNL     1       3.973  -0.416  -0.176  1.00  0.00     0.097 N 
HETATM   25  C4  UNL     1       4.956  -0.433  -1.219  1.00  0.00     0.292 C 
HETATM   26  C3  UNL     1       6.304   0.107  -0.805  1.00  0.00     0.156 C 
HETATM   27  N1  UNL     1       6.771  -0.529   0.424  1.00  0.00    -0.349 N 
HETATM   28  C2  UNL     1       8.068  -0.016   0.701  1.00  0.00     0.215 C 
HETATM   29  C24 UNL     1       5.827  -1.474   1.010  1.00  0.00     0.156 C 
HETATM   30  C1  UNL     1       8.922  -0.383   1.854  1.00  0.00     0.117 C 
HETATM   31  O1  UNL     1       8.262   0.781  -0.248  1.00  0.00    -0.274 OA
HETATM   32  C23 UNL     1       4.506  -0.713   1.126  1.00  0.00     0.292 C 
ENDBRANCH   1  24
TORSDOF 5
