REMARK  3 active torsions:
REMARK  status: ('A' for Active; 'I' for Inactive)
REMARK       I    between atoms: C2_2  and  N1_4 
REMARK    1  A    between atoms: N2_7  and  C5_8 
REMARK    2  A    between atoms: C9_13  and  C10_14 
REMARK    3  A    between atoms: C12_17  and  N4_18 
ROOT
HETATM    1  C5  UNL     1       0.230  -0.025   0.146  1.00  0.00     0.228 C 
HETATM    2  C6  UNL     1      -0.696  -0.410  -0.990  1.00  0.00     0.084 C 
HETATM    3  C7  UNL     1      -1.718   0.513  -0.359  1.00  0.00     0.207 C 
HETATM    4  C8  UNL     1      -0.508   1.316   0.137  1.00  0.00     0.084 C 
HETATM    5  N3  UNL     1      -2.588   1.224  -1.247  1.00  0.00     0.111 N 
HETATM    6  C9  UNL     1      -3.949   0.836  -0.929  1.00  0.00     0.289 C 
HETATM    7  C11 UNL     1      -3.856   0.131   0.359  1.00  0.00     0.050 A 
HETATM    8  C12 UNL     1      -4.790  -0.351   1.248  1.00  0.00     0.133 A 
HETATM    9  N5  UNL     1      -4.431  -0.980   2.395  1.00  0.00    -0.224 NA
HETATM   10  C13 UNL     1      -3.120  -1.161   2.714  1.00  0.00     0.235 A 
HETATM   11  N6  UNL     1      -2.184  -0.688   1.842  1.00  0.00    -0.243 NA
HETATM   12  C14 UNL     1      -2.537  -0.068   0.710  1.00  0.00     0.087 A 
HETATM   13  H13 UNL     1      -2.499   2.257  -1.176  1.00  0.00     0.318 HD
ENDROOT
BRANCH   1  14
HETATM   14  N2  UNL     1       1.613   0.163  -0.181  1.00  0.00     0.096 N 
HETATM   15  C4  UNL     1       2.390   0.526   0.983  1.00  0.00     0.292 C 
HETATM   16  C3  UNL     1       3.603  -0.357   1.174  1.00  0.00     0.156 C 
HETATM   17  N1  UNL     1       4.376  -0.222  -0.067  1.00  0.00    -0.349 N 
HETATM   18  C2  UNL     1       5.769   0.037  -0.164  1.00  0.00     0.215 C 
HETATM   19  C16 UNL     1       3.625  -0.371  -1.303  1.00  0.00     0.156 C 
HETATM   20  C1  UNL     1       6.451   0.173   1.149  1.00  0.00     0.117 C 
HETATM   21  O1  UNL     1       6.377   0.142  -1.270  1.00  0.00    -0.274 OA
HETATM   22  C15 UNL     1       2.206  -0.849  -0.991  1.00  0.00     0.292 C 
ENDBRANCH   1  14
BRANCH   6  23
HETATM   23  C10 UNL     1      -4.423  -0.066  -2.051  1.00  0.00     0.262 C 
HETATM   24  F1  UNL     1      -3.590  -1.171  -2.112  1.00  0.00    -0.253 F 
ENDBRANCH   6  23
BRANCH   8  25
HETATM   25  N4  UNL     1      -6.177  -0.162   0.914  1.00  0.00    -0.383 N 
HETATM   26  H17 UNL     1      -6.480   0.628   0.337  1.00  0.00     0.157 HD
HETATM   27  H18 UNL     1      -6.864  -0.863   1.284  1.00  0.00     0.157 HD
ENDBRANCH   8  25
TORSDOF 3
