REMARK  6 active torsions:
REMARK  status: ('A' for Active; 'I' for Inactive)
REMARK    1  A    between atoms: N1_2  and  C1_3 
REMARK    2  A    between atoms: C2_4  and  C3_5 
REMARK    3  A    between atoms: C3_5  and  C4_6 
REMARK    4  A    between atoms: C6_9  and  O1_10 
REMARK    5  A    between atoms: O1_10  and  C7_11 
REMARK    6  A    between atoms: C7_11  and  C8_12 
ROOT
HETATM    1  C4  UNL     1       2.724  -0.074   0.405  1.00  0.00     0.173 C 
HETATM    2  N2  UNL     1       1.829  -0.087  -0.712  1.00  0.00    -0.286 NA
HETATM    3  C5  UNL     1       0.571  -0.345  -0.738  1.00  0.00     0.147 C 
HETATM    4  C6  UNL     1      -0.352  -0.704   0.334  1.00  0.00     0.086 C 
HETATM    5  C12 UNL     1       0.027  -1.272   1.488  1.00  0.00     0.041 C 
HETATM    6  C13 UNL     1       1.372  -1.660   1.956  1.00  0.00     0.043 C 
HETATM    7  C14 UNL     1       2.464  -1.090   1.430  1.00  0.00     0.118 C 
HETATM    8  F2  UNL     1       3.587  -1.605   2.017  1.00  0.00    -0.208 F 
ENDROOT
BRANCH   4   9
HETATM    9  O1  UNL     1      -1.702  -0.455   0.177  1.00  0.00    -0.347 OA
BRANCH   9  10
HETATM   10  C7  UNL     1      -2.387  -0.544  -1.037  1.00  0.00     0.207 C 
BRANCH  10  11
HETATM   11  C8  UNL     1      -3.853  -0.223  -0.912  1.00  0.00     0.145 C 
HETATM   12  C9  UNL     1      -4.082   1.112  -0.226  1.00  0.00     0.036 C 
HETATM   13  C10 UNL     1      -5.582   0.986   0.036  1.00  0.00     0.029 C 
HETATM   14  C11 UNL     1      -5.787  -0.514   0.017  1.00  0.00     0.168 C 
HETATM   15  O2  UNL     1      -4.510  -1.082  -0.037  1.00  0.00    -0.384 OA
ENDBRANCH  10  11
ENDBRANCH   9  10
ENDBRANCH   4   9
BRANCH   1  16
HETATM   16  C3  UNL     1       4.140  -0.270  -0.127  1.00  0.00     0.063 C 
BRANCH  16  17
HETATM   17  C2  UNL     1       4.518   0.802  -1.066  1.00  0.00    -0.005 C 
HETATM   18  C1  UNL     1       5.544   1.611  -0.868  1.00  0.00     0.115 C 
BRANCH  18  19
HETATM   19  N1  UNL     1       6.343   1.469   0.295  1.00  0.00    -0.236 N 
HETATM   20  F1  UNL     1       6.404   2.161   1.470  1.00  0.00    -0.102 F 
HETATM   21  H1  UNL     1       7.076   0.717   0.401  1.00  0.00     0.198 HD
ENDBRANCH  18  19
ENDBRANCH  16  17
ENDBRANCH   1  16
TORSDOF 6
