REMARK  0 active torsions:
REMARK  status: ('A' for Active; 'I' for Inactive)
REMARK       I    between atoms: C2_2  and  N1_4 
ROOT
HETATM    1  C1  UNL     1       2.885   2.778   2.406  1.00  0.00     0.117 C 
HETATM    2  C2  UNL     1       1.507   2.723   1.884  1.00  0.00     0.215 C 
HETATM    3  O1  UNL     1       1.293   3.678   1.057  1.00  0.00    -0.274 OA
HETATM    4  N1  UNL     1       0.539   1.702   2.275  1.00  0.00    -0.349 N 
HETATM    5  C3  UNL     1       0.653   0.638   3.176  1.00  0.00     0.155 C 
HETATM    6  C4  UNL     1       1.021  -0.731   2.901  1.00  0.00     0.289 C 
HETATM    7  N2  UNL     1       2.288  -1.042   2.263  1.00  0.00     0.085 NA
HETATM    8  C5  UNL     1       2.184  -2.449   1.898  1.00  0.00     0.270 C 
HETATM    9  C6  UNL     1       3.226  -3.060   1.082  1.00  0.00     0.035 C 
HETATM   10  C7  UNL     1       3.598  -2.592  -0.238  1.00  0.00    -0.008 C 
HETATM   11  C8  UNL     1       4.318  -1.312  -0.442  1.00  0.00     0.011 C 
HETATM   12  C9  UNL     1       3.337  -0.223  -0.737  1.00  0.00     0.059 C 
HETATM   13  C10 UNL     1       1.952  -0.822  -0.759  1.00  0.00     0.033 A 
HETATM   14  C11 UNL     1       1.310  -1.919  -1.014  1.00  0.00    -0.019 A 
HETATM   15  C12 UNL     1       2.481  -2.701  -1.315  1.00  0.00     0.046 C 
HETATM   16  C13 UNL     1      -0.122  -1.971  -0.873  1.00  0.00     0.028 A 
HETATM   17  C14 UNL     1      -0.950  -1.040  -0.504  1.00  0.00     0.126 A 
HETATM   18  N3  UNL     1      -0.535   0.258  -0.170  1.00  0.00    -0.293 N 
HETATM   19  N4  UNL     1       0.712  -0.244  -0.454  1.00  0.00    -0.302 N 
HETATM   20  C15 UNL     1      -0.869   1.572   0.207  1.00  0.00     0.154 C 
HETATM   21  C16 UNL     1      -0.742   1.968   1.650  1.00  0.00     0.155 C 
HETATM   22  C17 UNL     1      -2.271   1.879  -0.310  1.00  0.00     0.154 C 
HETATM   23  O2  UNL     1      -2.560   3.105   0.322  1.00  0.00    -0.383 OA
HETATM   24  C18 UNL     1      -3.661   3.752  -0.147  1.00  0.00     0.168 C 
HETATM   25  C19 UNL     1      -4.675   2.749  -0.692  1.00  0.00     0.027 C 
HETATM   26  C20 UNL     1      -4.023   2.157  -1.925  1.00  0.00     0.011 C 
HETATM   27  C21 UNL     1      -2.478   2.052  -1.744  1.00  0.00     0.041 C 
HETATM   28  C22 UNL     1      -2.146   0.890  -2.674  1.00  0.00     0.181 C 
HETATM   29  O3  UNL     1      -3.089  -0.105  -2.582  1.00  0.00    -0.363 OA
HETATM   30  C23 UNL     1      -3.285  -1.384  -2.801  1.00  0.00     0.134 C 
HETATM   31  C24 UNL     1      -2.763  -2.606  -2.537  1.00  0.00     0.027 C 
HETATM   32  C25 UNL     1      -1.788  -3.492  -1.957  1.00  0.00     0.045 C 
HETATM   33  C26 UNL     1      -0.691  -3.268  -1.263  1.00  0.00     0.128 C 
HETATM   34  F1  UNL     1       0.023  -4.337  -0.846  1.00  0.00    -0.205 F 
HETATM   35  H8  UNL     1       3.115  -0.865   2.864  1.00  0.00     0.315 HD
HETATM   36  H21 UNL     1       1.207   0.427   0.233  1.00  0.00     0.186 HD
ENDROOT
TORSDOF 0
