REMARK  6 active torsions:
REMARK  status: ('A' for Active; 'I' for Inactive)
REMARK       I    between atoms: C2_2  and  N1_4 
REMARK    1  A    between atoms: N2_7  and  C5_8 
REMARK    2  A    between atoms: C7_10  and  N3_11 
REMARK    3  A    between atoms: N3_11  and  C8_12 
REMARK    4  A    between atoms: C13_18  and  N5_19 
REMARK    5  A    between atoms: C14_20  and  C15_21 
REMARK    6  A    between atoms: C18_25  and  N6_26 
ROOT
HETATM    1  C8  UNL     1       1.492  -0.233  -0.255  1.00  0.00     0.123 C 
HETATM    2  N4  UNL     1       1.806  -0.461  -1.502  1.00  0.00    -0.272 NA
HETATM    3  C9  UNL     1       2.400  -1.856  -1.598  1.00  0.00     0.159 C 
HETATM    4  C10 UNL     1       3.836  -1.719  -1.097  1.00  0.00     0.047 A 
HETATM    5  C11 UNL     1       3.936  -0.216  -0.863  1.00  0.00     0.081 A 
HETATM    6  C12 UNL     1       2.796  -0.844   0.190  1.00  0.00    -0.001 A 
HETATM    7  C13 UNL     1       4.003  -1.418   0.391  1.00  0.00     0.090 A 
ENDROOT
BRANCH   1   8
HETATM    8  N3  UNL     1       0.506   0.258   0.650  1.00  0.00    -0.370 N 
HETATM    9  H12 UNL     1       0.747   0.401   1.650  1.00  0.00     0.161 HD
BRANCH   8  10
HETATM   10  C7  UNL     1      -0.674   0.470  -0.164  1.00  0.00     0.087 C 
HETATM   11  C6  UNL     1      -1.951   0.591   0.682  1.00  0.00     0.061 C 
HETATM   12  C5  UNL     1      -2.628   0.190  -0.620  1.00  0.00     0.227 C 
HETATM   13  C19 UNL     1      -1.354  -0.708  -0.774  1.00  0.00     0.061 C 
BRANCH  12  14
HETATM   14  N2  UNL     1      -3.796  -0.650  -0.540  1.00  0.00     0.096 N 
HETATM   15  C4  UNL     1      -4.775  -0.037   0.320  1.00  0.00     0.292 C 
HETATM   16  C3  UNL     1      -6.132  -0.053  -0.367  1.00  0.00     0.156 C 
HETATM   17  N1  UNL     1      -6.084   0.869  -1.486  1.00  0.00    -0.349 N 
HETATM   18  C2  UNL     1      -6.710   2.076  -1.927  1.00  0.00     0.215 C 
HETATM   19  C21 UNL     1      -5.088   0.367  -2.400  1.00  0.00     0.156 C 
HETATM   20  C1  UNL     1      -7.726   2.637  -0.943  1.00  0.00     0.117 C 
HETATM   21  O1  UNL     1      -6.744   2.926  -2.901  1.00  0.00    -0.274 OA
HETATM   22  C20 UNL     1      -4.284  -0.830  -1.867  1.00  0.00     0.292 C 
ENDBRANCH  12  14
ENDBRANCH   8  10
ENDBRANCH   1   8
BRANCH   7  23
HETATM   23  N5  UNL     1       4.836  -1.497   1.552  1.00  0.00    -0.282 NA
HETATM   24  C14 UNL     1       5.958  -0.778   1.553  1.00  0.00     0.154 C 
BRANCH  24  25
HETATM   25  C15 UNL     1       6.528  -1.100   2.877  1.00  0.00     0.142 C 
HETATM   26  F1  UNL     1       6.439  -1.804   4.060  1.00  0.00    -0.204 F 
HETATM   27  C16 UNL     1       7.707  -0.441   3.108  1.00  0.00     0.016 A 
HETATM   28  C17 UNL     1       8.433   0.479   2.226  1.00  0.00     0.088 A 
HETATM   29  C18 UNL     1       8.984   0.236   3.460  1.00  0.00     0.022 A 
BRANCH  29  30
HETATM   30  N6  UNL     1       9.684   0.122   4.631  1.00  0.00    -0.401 N 
HETATM   31  H20 UNL     1       9.632   0.870   5.373  1.00  0.00     0.156 HD
HETATM   32  H21 UNL     1      10.340  -0.309   5.383  1.00  0.00     0.156 HD
ENDBRANCH  29  30
ENDBRANCH  24  25
ENDBRANCH   7  23
TORSDOF 6
