REMARK  0 active torsions:
REMARK  status: ('A' for Active; 'I' for Inactive)
ROOT
HETATM    1  O1  UNL     1      -1.637  -2.678  -0.484  1.00  0.00    -0.266 OA
HETATM    2  C1  UNL     1      -1.070  -2.070   0.442  1.00  0.00     0.270 C 
HETATM    3  C2  UNL     1       0.150  -2.365  -0.277  1.00  0.00     0.126 C 
HETATM    4  N1  UNL     1       1.042  -3.225   0.165  1.00  0.00    -0.173 NA
HETATM    5  N2  UNL     1       2.421  -2.868  -0.011  1.00  0.00    -0.281 N 
HETATM    6  C3  UNL     1       2.770  -1.606  -0.655  1.00  0.00     0.038 C 
HETATM    7  C4  UNL     1       1.745  -0.829  -1.056  1.00  0.00    -0.019 C 
HETATM    8  C5  UNL     1       0.651  -1.753  -1.563  1.00  0.00     0.108 C 
HETATM    9  C6  UNL     1       1.423   0.563  -1.097  1.00  0.00    -0.024 C 
HETATM   10  C7  UNL     1       2.050   1.658  -0.727  1.00  0.00     0.142 C 
HETATM   11  O2  UNL     1       3.230   1.204  -0.226  1.00  0.00    -0.362 OA
HETATM   12  C8  UNL     1       4.414   1.966  -0.033  1.00  0.00     0.181 C 
HETATM   13  C9  UNL     1       5.590   0.964   0.013  1.00  0.00     0.096 C 
HETATM   14  C10 UNL     1       5.373   0.009   1.112  1.00  0.00     0.092 C 
HETATM   15  F1  UNL     1       5.665   0.037   2.412  1.00  0.00    -0.211 F 
HETATM   16  C11 UNL     1       4.760  -1.071   0.623  1.00  0.00     0.017 C 
HETATM   17  C12 UNL     1       4.282  -1.464  -0.729  1.00  0.00     0.089 C 
HETATM   18  C13 UNL     1       0.115   0.985  -1.637  1.00  0.00     0.069 C 
HETATM   19  C14 UNL     1      -0.071   2.434  -1.534  1.00  0.00    -0.006 C 
HETATM   20  C15 UNL     1      -1.055   2.977  -0.801  1.00  0.00     0.079 C 
HETATM   21  N3  UNL     1      -2.140   2.515   0.037  1.00  0.00    -0.399 N 
HETATM   22  C16 UNL     1      -3.267   1.983  -0.665  1.00  0.00     0.119 C 
HETATM   23  C17 UNL     1      -4.389   1.449   0.127  1.00  0.00     0.024 C 
HETATM   24  C18 UNL     1      -4.131   0.233   0.979  1.00  0.00    -0.010 C 
HETATM   25  C19 UNL     1      -2.798   0.182   1.613  1.00  0.00     0.024 C 
HETATM   26  C20 UNL     1      -2.550  -1.268   2.081  1.00  0.00     0.126 C 
HETATM   27  N4  UNL     1      -2.393  -1.977   0.833  1.00  0.00    -0.347 N 
HETATM   28  C21 UNL     1      -3.820  -2.260   0.518  1.00  0.00     0.126 C 
HETATM   29  C22 UNL     1      -4.547  -0.981   0.234  1.00  0.00     0.024 C 
HETATM   30  H1  UNL     1       3.137  -3.563   0.353  1.00  0.00     0.189 HD
HETATM   31  H16 UNL     1      -1.962   2.638   1.072  1.00  0.00     0.158 HD
ENDROOT
TORSDOF 0
