REMARK  6 active torsions:
REMARK  status: ('A' for Active; 'I' for Inactive)
REMARK    1  A    between atoms: C3_3  and  C4_4 
REMARK    2  A    between atoms: C5_5  and  N1_6 
REMARK    3  A    between atoms: N1_6  and  C6_7 
REMARK    4  A    between atoms: C7_8  and  C8_9 
REMARK    5  A    between atoms: C8_9  and  C9_10 
REMARK    6  A    between atoms: C10_13  and  N3_14 
ROOT
HETATM    1  C4  UNL     1      -1.074   0.867  -0.556  1.00  0.00     0.009 C 
HETATM    2  C5  UNL     1      -0.195  -0.106  -0.255  1.00  0.00     0.115 C 
HETATM    3  N2  UNL     1      -0.641  -1.479  -0.135  1.00  0.00    -0.325 N 
HETATM    4  C10 UNL     1      -1.287  -2.231   0.879  1.00  0.00     0.155 C 
HETATM    5  C11 UNL     1      -2.338  -2.251   1.679  1.00  0.00     0.029 C 
HETATM    6  C12 UNL     1      -3.345  -1.121   1.640  1.00  0.00     0.032 C 
HETATM    7  C13 UNL     1      -3.747   0.083   1.103  1.00  0.00     0.186 C 
HETATM    8  O2  UNL     1      -3.268   1.008   0.117  1.00  0.00    -0.378 OA
HETATM    9  C14 UNL     1      -2.461   0.397  -0.910  1.00  0.00     0.210 C 
HETATM   10  H13 UNL     1      -0.370  -1.864  -1.035  1.00  0.00     0.169 HD
ENDROOT
BRANCH   2  11
HETATM   11  N1  UNL     1       1.170   0.164   0.028  1.00  0.00    -0.352 N 
HETATM   12  H6  UNL     1       1.383  -0.123   1.026  1.00  0.00     0.166 HD
BRANCH  11  13
HETATM   13  C6  UNL     1       2.382   0.666  -0.482  1.00  0.00     0.085 C 
HETATM   14  C7  UNL     1       3.372  -0.186  -0.678  1.00  0.00    -0.007 C 
BRANCH  14  15
HETATM   15  C8  UNL     1       3.356  -1.633  -0.419  1.00  0.00     0.060 C 
BRANCH  15  16
HETATM   16  C9  UNL     1       4.418  -2.010   0.594  1.00  0.00     0.226 C 
HETATM   17  F1  UNL     1       4.171  -1.344   1.759  1.00  0.00    -0.255 F 
ENDBRANCH  15  16
ENDBRANCH  14  15
ENDBRANCH  11  13
ENDBRANCH   2  11
BRANCH   1  18
HETATM   18  C3  UNL     1      -0.668   2.258  -0.600  1.00  0.00     0.008 C 
HETATM   19  C2  UNL     1      -1.494   3.250  -0.890  1.00  0.00    -0.030 C 
HETATM   20  C1  UNL     1      -1.022   4.657  -0.920  1.00  0.00     0.036 C 
ENDBRANCH   1  18
BRANCH   4  21
HETATM   21  N3  UNL     1      -0.443  -3.388   1.068  1.00  0.00    -0.080 NA
HETATM   22  O1  UNL     1      -0.907  -4.449   0.562  1.00  0.00    -0.059 OA
ENDBRANCH   4  21
TORSDOF 6
