REMARK  8 active torsions:
REMARK  status: ('A' for Active; 'I' for Inactive)
REMARK    1  A    between atoms: C3_3  and  C4_4 
REMARK    2  A    between atoms: C4_4  and  C5_5 
REMARK    3  A    between atoms: C5_5  and  N1_6 
REMARK    4  A    between atoms: C12_14  and  C13_15 
REMARK    5  A    between atoms: C14_16  and  C15_17 
REMARK    6  A    between atoms: N3_18  and  C16_19 
REMARK    7  A    between atoms: C16_19  and  O1_20 
REMARK    8  A    between atoms: O1_20  and  C17_21 
ROOT
HETATM    1  N1  UNL     1      -1.846  -0.103   0.411  1.00  0.00    -0.382 N 
HETATM    2  C6  UNL     1      -2.176  -0.942   1.500  1.00  0.00     0.123 C 
HETATM    3  C7  UNL     1      -3.412  -1.719   1.555  1.00  0.00     0.022 C 
HETATM    4  C8  UNL     1      -3.766  -2.781   0.627  1.00  0.00     0.031 C 
HETATM    5  C9  UNL     1      -4.050  -2.468  -0.813  1.00  0.00     0.269 C 
HETATM    6  N2  UNL     1      -3.063  -1.612  -1.385  1.00  0.00     0.083 N 
HETATM    7  C10 UNL     1      -1.744  -2.178  -1.404  1.00  0.00     0.272 C 
HETATM    8  C11 UNL     1      -0.842  -0.970  -1.725  1.00  0.00     0.059 C 
HETATM    9  C12 UNL     1      -1.440   0.182  -0.941  1.00  0.00     0.108 C 
HETATM   10  H11 UNL     1      -3.372  -1.391  -2.365  1.00  0.00     0.315 HD
ENDROOT
BRANCH   9  11
HETATM   11  C13 UNL     1      -0.566   1.371  -1.064  1.00  0.00    -0.000 C 
HETATM   12  C14 UNL     1       0.694   1.330  -0.682  1.00  0.00     0.017 C 
BRANCH  12  13
HETATM   13  C15 UNL     1       1.619   0.376  -0.107  1.00  0.00     0.277 C 
HETATM   14  N3  UNL     1       2.696  -0.100   0.358  1.00  0.00    -0.400 NA
BRANCH  14  15
HETATM   15  C16 UNL     1       3.962   0.609   0.495  1.00  0.00     0.287 C 
BRANCH  15  16
HETATM   16  O1  UNL     1       5.048  -0.228   0.196  1.00  0.00    -0.333 OA
BRANCH  16  17
HETATM   17  C17 UNL     1       6.356   0.175   0.248  1.00  0.00     0.070 A 
HETATM   18  C18 UNL     1       6.920   1.389   0.575  1.00  0.00     0.037 A 
HETATM   19  C19 UNL     1       8.292   1.500   0.539  1.00  0.00     0.003 A 
HETATM   20  C20 UNL     1       9.142   0.492   0.202  1.00  0.00     0.000 A 
HETATM   21  C21 UNL     1       8.589  -0.736  -0.129  1.00  0.00     0.003 A 
HETATM   22  C22 UNL     1       7.216  -0.859  -0.097  1.00  0.00     0.037 A 
ENDBRANCH  16  17
ENDBRANCH  15  16
ENDBRANCH  14  15
ENDBRANCH  12  13
ENDBRANCH   9  11
BRANCH   1  23
HETATM   23  C5  UNL     1      -2.102   1.275   0.850  1.00  0.00     0.083 C 
BRANCH  23  24
HETATM   24  C4  UNL     1      -2.920   2.309   0.916  1.00  0.00     0.007 C 
BRANCH  24  25
HETATM   25  C3  UNL     1      -4.030   3.210   0.808  1.00  0.00     0.030 A 
HETATM   26  C2  UNL     1      -4.917   2.972   0.341  1.00  0.00    -0.053 A 
HETATM   27  C1  UNL     1      -5.591   2.772  -0.022  1.00  0.00    -0.066 A 
HETATM   28  C23 UNL     1      -4.633   1.659  -0.053  1.00  0.00     0.055 A 
HETATM   29  C24 UNL     1      -6.514   2.468  -0.530  1.00  0.00     0.049 A 
ENDBRANCH  24  25
ENDBRANCH  23  24
ENDBRANCH   1  23
TORSDOF 8
