REMARK  9 active torsions:
REMARK  status: ('A' for Active; 'I' for Inactive)
REMARK    1  A    between atoms: N1_1  and  C1_2 
REMARK    2  A    between atoms: C6_9  and  C7_10 
REMARK    3  A    between atoms: C8_11  and  C9_12 
REMARK    4  A    between atoms: C9_12  and  O1_13 
REMARK    5  A    between atoms: O1_13  and  C10_14 
REMARK    6  A    between atoms: C10_14  and  C11_15 
REMARK    7  A    between atoms: N4_22  and  C18_23 
REMARK    8  A    between atoms: C20_25  and  C21_26 
REMARK    9  A    between atoms: C21_26  and  N5_27 
ROOT
HETATM    1  C1  UNL     1       0.453   2.536  -1.648  1.00  0.00     0.116 A 
HETATM    2  N2  UNL     1       1.442   3.346  -2.060  1.00  0.00    -0.229 NA
HETATM    3  C2  UNL     1       2.702   2.938  -1.844  1.00  0.00     0.237 A 
HETATM    4  N3  UNL     1       2.951   1.786  -1.250  1.00  0.00    -0.224 NA
HETATM    5  C3  UNL     1       1.970   0.978  -0.838  1.00  0.00     0.141 A 
HETATM    6  C4  UNL     1       0.660   1.325  -1.023  1.00  0.00     0.058 A 
HETATM    7  C5  UNL     1      -0.170   0.236  -0.470  1.00  0.00    -0.023 C 
HETATM    8  C6  UNL     1      -1.422   0.048  -0.819  1.00  0.00     0.010 C 
HETATM    9  C17 UNL     1       0.776  -0.440   0.466  1.00  0.00     0.164 C 
HETATM   10  N4  UNL     1       2.069  -0.280  -0.187  1.00  0.00    -0.356 N 
ENDROOT
BRANCH   8  11
HETATM   11  C7  UNL     1      -2.251  -1.019  -0.286  1.00  0.00    -0.001 C 
HETATM   12  C8  UNL     1      -3.506  -1.188  -0.654  1.00  0.00    -0.001 C 
BRANCH  12  13
HETATM   13  C9  UNL     1      -4.514  -2.174  -0.260  1.00  0.00     0.195 C 
BRANCH  13  14
HETATM   14  O1  UNL     1      -5.654  -1.667   0.312  1.00  0.00    -0.383 OA
BRANCH  14  15
HETATM   15  C10 UNL     1      -6.367  -0.802  -0.484  1.00  0.00     0.206 C 
BRANCH  15  16
HETATM   16  C11 UNL     1      -7.593  -0.308   0.218  1.00  0.00    -0.035 A 
HETATM   17  C12 UNL     1      -8.783  -1.014   0.097  1.00  0.00     0.009 A 
HETATM   18  C13 UNL     1      -9.961  -0.643   0.703  1.00  0.00     0.001 A 
HETATM   19  C14 UNL     1      -9.992   0.487   1.477  1.00  0.00     0.000 A 
HETATM   20  C15 UNL     1      -8.826   1.204   1.612  1.00  0.00     0.001 A 
HETATM   21  C16 UNL     1      -7.667   0.827   1.009  1.00  0.00     0.009 A 
ENDBRANCH  15  16
ENDBRANCH  14  15
ENDBRANCH  13  14
ENDBRANCH  12  13
ENDBRANCH   8  11
BRANCH   1  22
HETATM   22  N1  UNL     1      -0.895   2.917  -1.845  1.00  0.00    -0.286 NA
HETATM   23  H1  UNL     1      -1.755   3.482  -1.931  1.00  0.00     0.125 HD
HETATM   24  H2  UNL     1      -1.100   3.944  -1.756  1.00  0.00     0.125 HD
ENDBRANCH   1  22
BRANCH  10  25
HETATM   25  C18 UNL     1       3.073  -1.298  -0.049  1.00  0.00     0.087 C 
HETATM   26  C19 UNL     1       3.613  -1.464   1.360  1.00  0.00     0.031 C 
HETATM   27  C20 UNL     1       4.645  -0.401   1.029  1.00  0.00     0.018 C 
HETATM   28  C25 UNL     1       4.437  -0.803  -0.443  1.00  0.00     0.031 C 
BRANCH  27  29
HETATM   29  C21 UNL     1       6.069  -0.718   1.413  1.00  0.00     0.277 C 
BRANCH  29  30
HETATM   30  N5  UNL     1       6.892   0.404   1.027  1.00  0.00     0.088 N 
HETATM   31  C22 UNL     1       7.076   0.656  -0.365  1.00  0.00     0.274 C 
HETATM   32  C23 UNL     1       8.534   1.003  -0.094  1.00  0.00     0.060 C 
HETATM   33  C24 UNL     1       8.316   0.243   1.211  1.00  0.00     0.274 C 
ENDBRANCH  29  30
ENDBRANCH  27  29
ENDBRANCH  10  25
TORSDOF 9
