REMARK  5 active torsions:
REMARK  status: ('A' for Active; 'I' for Inactive)
REMARK    1  A    between atoms: N1_5  and  C5_6 
REMARK    2  A    between atoms: C12_14  and  C13_15 
REMARK    3  A    between atoms: C13_15  and  C14_16 
REMARK    4  A    between atoms: C24_26  and  N3_27 
REMARK    5  A    between atoms: N3_27  and  O1_28 
ROOT
HETATM    1  C5  UNL     1      -1.203   1.171   0.153  1.00  0.00     0.206 C 
HETATM    2  C6  UNL     1      -2.023   0.574   1.210  1.00  0.00     0.068 C 
HETATM    3  C7  UNL     1      -2.736  -0.689   1.134  1.00  0.00     0.125 C 
HETATM    4  N2  UNL     1      -2.166  -1.888   0.583  1.00  0.00    -0.383 N 
HETATM    5  C8  UNL     1      -1.456  -2.868   1.403  1.00  0.00     0.086 C 
HETATM    6  C9  UNL     1      -0.141  -3.067   1.604  1.00  0.00     0.028 C 
HETATM    7  C10 UNL     1       0.498  -2.049   0.786  1.00  0.00    -0.034 A 
HETATM    8  C11 UNL     1       1.612  -2.042  -0.030  1.00  0.00     0.019 A 
HETATM    9  C12 UNL     1       1.897  -0.937  -0.840  1.00  0.00    -0.052 A 
HETATM   10  C20 UNL     1       1.128   0.204  -0.904  1.00  0.00     0.017 A 
HETATM   11  C21 UNL     1       0.001   0.359  -0.167  1.00  0.00    -0.017 A 
HETATM   12  C22 UNL     1      -0.025  -0.819   0.502  1.00  0.00     0.021 A 
HETATM   13  C23 UNL     1      -2.042  -2.320  -0.783  1.00  0.00     0.202 C 
HETATM   14  C24 UNL     1      -3.427  -2.556  -1.374  1.00  0.00     0.142 C 
HETATM   15  N4  UNL     1      -3.753  -1.621  -2.237  1.00  0.00    -0.226 NA
HETATM   16  C25 UNL     1      -2.756  -0.591  -2.437  1.00  0.00     0.228 C 
HETATM   17  N5  UNL     1      -2.752   0.186  -1.457  1.00  0.00    -0.280 NA
HETATM   18  C26 UNL     1      -2.017   1.337  -1.110  1.00  0.00     0.197 C 
ENDROOT
BRANCH   9  19
HETATM   19  C13 UNL     1       3.110  -0.965  -1.709  1.00  0.00     0.077 C 
BRANCH  19  20
HETATM   20  C14 UNL     1       4.248  -0.437  -0.944  1.00  0.00    -0.054 A 
HETATM   21  C15 UNL     1       4.921  -1.418  -0.225  1.00  0.00     0.007 A 
HETATM   22  C16 UNL     1       6.035  -1.136   0.572  1.00  0.00     0.001 A 
HETATM   23  C17 UNL     1       6.448   0.194   0.614  1.00  0.00     0.000 A 
HETATM   24  C18 UNL     1       5.781   1.168  -0.100  1.00  0.00     0.001 A 
HETATM   25  C19 UNL     1       4.673   0.869  -0.888  1.00  0.00     0.007 A 
ENDBRANCH  19  20
ENDBRANCH   9  19
BRANCH   1  26
HETATM   26  N1  UNL     1      -0.631   2.468   0.461  1.00  0.00     0.108 N 
HETATM   27  C2  UNL     1      -1.492   3.538   0.807  1.00  0.00     0.222 C 
HETATM   28  C1  UNL     1      -1.417   4.644  -0.256  1.00  0.00     0.043 C 
HETATM   29  C3  UNL     1      -0.498   3.872   1.931  1.00  0.00     0.066 C 
HETATM   30  C4  UNL     1       0.233   2.567   1.585  1.00  0.00     0.276 C 
ENDBRANCH   1  26
BRANCH  14  31
HETATM   31  N3  UNL     1      -4.299  -3.625  -1.042  1.00  0.00    -0.254 N 
HETATM   32  H27 UNL     1      -3.760  -4.467  -0.709  1.00  0.00     0.195 HD
BRANCH  31  33
HETATM   33  O1  UNL     1      -5.632  -3.384  -1.206  1.00  0.00    -0.288 OA
HETATM   34  H28 UNL     1      -6.080  -3.383  -0.324  1.00  0.00     0.244 HD
ENDBRANCH  31  33
ENDBRANCH  14  31
TORSDOF 5
