REMARK  6 active torsions:
REMARK  status: ('A' for Active; 'I' for Inactive)
REMARK    1  A    between atoms: N1_1  and  C1_2 
REMARK    2  A    between atoms: C5_8  and  C6_9 
REMARK    3  A    between atoms: C6_9  and  C7_10 
REMARK    4  A    between atoms: N4_21  and  C17_22 
REMARK    5  A    between atoms: C19_24  and  C20_25 
REMARK    6  A    between atoms: C20_25  and  N5_26 
ROOT
HETATM    1  C1  UNL     1       0.347   2.986   1.451  1.00  0.00     0.137 A 
HETATM    2  N2  UNL     1      -0.528   4.018   1.371  1.00  0.00    -0.224 NA
HETATM    3  C2  UNL     1      -1.719   3.872   0.771  1.00  0.00     0.237 A 
HETATM    4  N3  UNL     1      -2.024   2.674   0.251  1.00  0.00    -0.223 NA
HETATM    5  C3  UNL     1      -1.180   1.662   0.323  1.00  0.00     0.146 A 
HETATM    6  C4  UNL     1       0.046   1.752   0.920  1.00  0.00     0.063 A 
HETATM    7  C5  UNL     1       0.749   0.574   0.880  1.00  0.00    -0.021 A 
HETATM    8  C16 UNL     1      -0.107  -0.292   0.215  1.00  0.00     0.101 A 
HETATM    9  N4  UNL     1      -1.244   0.378  -0.104  1.00  0.00    -0.336 N 
ENDROOT
BRANCH   7  10
HETATM   10  C6  UNL     1       2.117   0.289   1.395  1.00  0.00     0.071 C 
BRANCH  10  11
HETATM   11  C7  UNL     1       3.134   0.785   0.446  1.00  0.00     0.014 C 
HETATM   12  C8  UNL     1       4.159   0.530  -0.316  1.00  0.00     0.061 C 
HETATM   13  C9  UNL     1       5.179   0.964  -1.252  1.00  0.00     0.015 C 
HETATM   14  O1  UNL     1       4.177  -0.825   0.069  1.00  0.00    -0.351 OA
HETATM   15  C10 UNL     1       5.969   0.014  -1.704  1.00  0.00     0.022 C 
HETATM   16  C11 UNL     1       7.033  -0.714  -2.414  1.00  0.00     0.036 C 
HETATM   17  C12 UNL     1       7.668  -1.619  -1.325  1.00  0.00    -0.030 C 
HETATM   18  C13 UNL     1       6.733  -1.953  -0.376  1.00  0.00    -0.029 C 
HETATM   19  C14 UNL     1       5.816  -2.395   0.739  1.00  0.00     0.053 C 
HETATM   20  C15 UNL     1       5.047  -1.160   1.227  1.00  0.00     0.179 C 
ENDBRANCH  10  11
ENDBRANCH   7  10
BRANCH   1  21
HETATM   21  N1  UNL     1       1.559   3.276   2.122  1.00  0.00    -0.383 N 
HETATM   22  H1  UNL     1       2.585   3.179   2.190  1.00  0.00     0.157 HD
HETATM   23  H2  UNL     1       1.543   3.869   2.979  1.00  0.00     0.157 HD
ENDBRANCH   1  21
BRANCH   9  24
HETATM   24  C17 UNL     1      -2.294  -0.299  -0.801  1.00  0.00     0.092 C 
HETATM   25  C18 UNL     1      -3.383   0.536  -1.370  1.00  0.00     0.032 C 
HETATM   26  C19 UNL     1      -4.242   0.208  -0.146  1.00  0.00     0.018 C 
HETATM   27  C24 UNL     1      -3.328  -0.964   0.081  1.00  0.00     0.032 C 
BRANCH  26  28
HETATM   28  C20 UNL     1      -5.642  -0.086  -0.584  1.00  0.00     0.277 C 
BRANCH  28  29
HETATM   29  N5  UNL     1      -6.561  -0.409   0.459  1.00  0.00     0.088 N 
HETATM   30  C21 UNL     1      -7.881  -0.667  -0.139  1.00  0.00     0.274 C 
HETATM   31  C22 UNL     1      -7.491  -2.127  -0.219  1.00  0.00     0.060 C 
HETATM   32  C23 UNL     1      -6.602  -1.750   0.950  1.00  0.00     0.274 C 
ENDBRANCH  28  29
ENDBRANCH  26  28
ENDBRANCH   9  24
TORSDOF 6
