REMARK  7 active torsions:
REMARK  status: ('A' for Active; 'I' for Inactive)
REMARK    1  A    between atoms: C1_2  and  C2_3 
REMARK       I    between atoms: C1_2  and  N2_12 
REMARK    2  A    between atoms: C2_3  and  N1_4 
REMARK    3  A    between atoms: N1_4  and  C3_5 
REMARK    4  A    between atoms: C8_10  and  C9_11 
REMARK    5  A    between atoms: N2_12  and  C10_13 
REMARK    6  A    between atoms: C10_13  and  C11_14 
REMARK    7  A    between atoms: C12_15  and  C13_16 
ROOT
HETATM    1  O1  UNL     1      -0.414  -0.052  -2.792  1.00  0.00    -0.272 OA
HETATM    2  C1  UNL     1      -0.111  -0.787  -1.787  1.00  0.00     0.235 C 
HETATM    3  N2  UNL     1      -1.150  -1.039  -0.869  1.00  0.00    -0.356 N 
HETATM    4  H9  UNL     1      -0.796  -1.632  -0.095  1.00  0.00     0.162 HD
ENDROOT
BRANCH   2   5
HETATM    5  C2  UNL     1       1.269  -1.103  -1.983  1.00  0.00     0.218 C 
BRANCH   5   6
HETATM    6  N1  UNL     1       1.831  -1.986  -0.907  1.00  0.00    -0.402 N 
HETATM    7  H3  UNL     1       1.005  -2.403  -0.366  1.00  0.00     0.154 HD
BRANCH   6   8
HETATM    8  C3  UNL     1       3.433  -2.221  -0.682  1.00  0.00     0.052 A 
HETATM    9  C4  UNL     1       3.353  -1.311   0.029  1.00  0.00     0.020 A 
HETATM   10  C5  UNL     1       3.829  -0.267   0.980  1.00  0.00    -0.014 A 
HETATM   11  C9  UNL     1       4.225  -2.607  -0.727  1.00  0.00     0.062 A 
HETATM   12  C8  UNL     1       4.782  -1.679   0.071  1.00  0.00     0.020 A 
HETATM   13  C6  UNL     1       5.083  -0.003   1.487  1.00  0.00    -0.006 A 
HETATM   14  C7  UNL     1       5.651  -1.046   0.783  1.00  0.00    -0.014 A 
ENDBRANCH   6   8
ENDBRANCH   5   6
ENDBRANCH   2   5
BRANCH   3  15
HETATM   15  C10 UNL     1      -2.507  -0.587  -0.926  1.00  0.00     0.149 C 
BRANCH  15  16
HETATM   16  C11 UNL     1      -3.229  -1.101   0.280  1.00  0.00    -0.011 C 
HETATM   17  C12 UNL     1      -3.889  -0.398   1.249  1.00  0.00    -0.019 C 
BRANCH  17  18
HETATM   18  C13 UNL     1      -3.770   0.984   0.899  1.00  0.00     0.057 C 
HETATM   19  C14 UNL     1      -4.103   2.188   1.269  1.00  0.00     0.001 A 
HETATM   20  C15 UNL     1      -3.483   3.031   0.215  1.00  0.00     0.016 A 
HETATM   21  C17 UNL     1      -4.558   3.474   1.806  1.00  0.00     0.178 A 
HETATM   22  C16 UNL     1      -3.894   4.181   0.698  1.00  0.00     0.056 A 
HETATM   23  O2  UNL     1      -5.251   3.369   2.886  1.00  0.00    -0.288 OA
ENDBRANCH  17  18
ENDBRANCH  15  16
ENDBRANCH   3  15
TORSDOF 7
