REMARK  7 active torsions:
REMARK  status: ('A' for Active; 'I' for Inactive)
REMARK    1  A    between atoms: C3_3  and  N1_4 
REMARK    2  A    between atoms: N1_4  and  N2_5 
REMARK    3  A    between atoms: N2_5  and  C4_6 
REMARK    4  A    between atoms: C4_6  and  C5_7 
REMARK    5  A    between atoms: C8_10  and  C9_11 
REMARK    6  A    between atoms: C12_14  and  C13_15 
REMARK    7  A    between atoms: C16_19  and  O2_20 
ROOT
HETATM    1  C5  UNL     1       2.483   0.294  -0.797  1.00  0.00     0.080 A 
HETATM    2  C6  UNL     1       2.370   1.297   0.292  1.00  0.00     0.097 A 
HETATM    3  C7  UNL     1       0.895   1.204   0.548  1.00  0.00     0.012 A 
HETATM    4  C8  UNL     1       0.320   0.326  -0.244  1.00  0.00     0.056 A 
HETATM    5  N4  UNL     1       1.237  -0.302  -1.129  1.00  0.00    -0.350 N 
HETATM    6  H20 UNL     1       1.137  -1.017  -1.862  1.00  0.00     0.166 HD
ENDROOT
BRANCH   4   7
HETATM    7  C9  UNL     1      -1.108   0.038  -0.207  1.00  0.00     0.060 C 
HETATM    8  C10 UNL     1      -1.570  -0.866  -1.053  1.00  0.00     0.033 C 
HETATM    9  C11 UNL     1      -2.925  -1.371  -1.262  1.00  0.00     0.017 C 
HETATM   10  C12 UNL     1      -4.072  -0.917  -0.785  1.00  0.00     0.013 C 
HETATM   11  C15 UNL     1      -4.214   0.239   0.092  1.00  0.00     0.071 C 
HETATM   12  C16 UNL     1      -3.319   0.968   0.752  1.00  0.00     0.143 C 
HETATM   13  N3  UNL     1      -1.917   0.739   0.729  1.00  0.00    -0.335 N 
HETATM   14  H19 UNL     1      -1.389   1.152   1.530  1.00  0.00     0.168 HD
BRANCH  10  15
HETATM   15  C13 UNL     1      -5.265  -1.649  -1.183  1.00  0.00     0.155 C 
HETATM   16  C14 UNL     1      -6.576  -1.186  -0.678  1.00  0.00     0.096 C 
HETATM   17  O1  UNL     1      -5.089  -2.638  -1.940  1.00  0.00    -0.293 OA
ENDBRANCH  10  15
BRANCH  12  18
HETATM   18  O2  UNL     1      -3.759   2.025   1.520  1.00  0.00    -0.341 OA
HETATM   19  C17 UNL     1      -3.586   3.351   1.027  1.00  0.00     0.211 C 
ENDBRANCH  12  18
ENDBRANCH   4   7
BRANCH   1  20
HETATM   20  C4  UNL     1       3.641   0.005  -1.375  1.00  0.00     0.031 C 
BRANCH  20  21
HETATM   21  N2  UNL     1       4.802  -0.468  -1.685  1.00  0.00    -0.128 NA
BRANCH  21  22
HETATM   22  N1  UNL     1       5.258  -1.573  -0.947  1.00  0.00    -0.282 N 
HETATM   23  H6  UNL     1       5.128  -2.038  -1.872  1.00  0.00     0.189 HD
BRANCH  22  24
HETATM   24  C3  UNL     1       5.710  -2.128   0.283  1.00  0.00     0.105 C 
HETATM   25  C2  UNL     1       6.501  -1.408   1.060  1.00  0.00    -0.012 C 
HETATM   26  C1  UNL     1       6.821  -0.063   0.520  1.00  0.00     0.037 C 
ENDBRANCH  22  24
ENDBRANCH  21  22
ENDBRANCH  20  21
ENDBRANCH   1  20
TORSDOF 7
