REMARK  5 active torsions:
REMARK  status: ('A' for Active; 'I' for Inactive)
REMARK    1  A    between atoms: C2_2  and  C3_3 
REMARK    2  A    between atoms: C3_3  and  C4_4 
REMARK    3  A    between atoms: C6_6  and  C7_7 
REMARK       I    between atoms: C7_7  and  N1_8 
REMARK    4  A    between atoms: C9_12  and  C10_13 
REMARK    5  A    between atoms: C13_16  and  C14_17 
ROOT
HETATM    1  C4  UNL     1      -1.655  -0.358   0.099  1.00  0.00    -0.023 A 
HETATM    2  C5  UNL     1      -3.071  -0.128   0.153  1.00  0.00     0.036 A 
HETATM    3  C6  UNL     1      -3.544   1.074  -0.069  1.00  0.00     0.073 A 
HETATM    4  S1  UNL     1      -2.473   2.447  -0.426  1.00  0.00    -0.096 SA
HETATM    5  C8  UNL     1      -0.824   1.778  -0.411  1.00  0.00     0.063 A 
HETATM    6  C9  UNL     1      -0.556   0.512  -0.167  1.00  0.00    -0.009 A 
ENDROOT
BRANCH   6   7
HETATM    7  C10 UNL     1       0.848   0.228  -0.184  1.00  0.00    -0.025 A 
HETATM    8  C11 UNL     1       1.773   1.261  -0.136  1.00  0.00     0.013 A 
HETATM    9  C12 UNL     1       3.144   1.147  -0.196  1.00  0.00     0.016 A 
HETATM   10  C13 UNL     1       3.682  -0.093  -0.314  1.00  0.00     0.009 A 
HETATM   11  C16 UNL     1       2.845  -1.186  -0.370  1.00  0.00     0.016 A 
HETATM   12  C17 UNL     1       1.496  -0.960  -0.303  1.00  0.00     0.013 A 
BRANCH  10  13
HETATM   13  C14 UNL     1       5.126  -0.273  -0.381  1.00  0.00     0.155 C 
HETATM   14  C15 UNL     1       6.037   0.899  -0.322  1.00  0.00     0.096 C 
HETATM   15  O2  UNL     1       5.611  -1.424  -0.491  1.00  0.00    -0.293 OA
ENDBRANCH  10  13
ENDBRANCH   6   7
BRANCH   1  16
HETATM   16  C3  UNL     1      -1.302  -1.569   0.422  1.00  0.00     0.008 C 
BRANCH  16  17
HETATM   17  C2  UNL     1      -2.256  -2.590   0.801  1.00  0.00    -0.008 C 
HETATM   18  C1  UNL     1      -2.739  -3.733   1.176  1.00  0.00     0.013 C 
ENDBRANCH  16  17
ENDBRANCH   1  16
BRANCH   3  19
HETATM   19  C7  UNL     1      -4.898   1.535  -0.070  1.00  0.00     0.256 C 
HETATM   20  N1  UNL     1      -5.505   2.800  -0.294  1.00  0.00    -0.366 N 
HETATM   21  H6  UNL     1      -6.315   2.937  -0.937  1.00  0.00     0.159 HD
HETATM   22  H7  UNL     1      -5.369   3.787   0.037  1.00  0.00     0.159 HD
HETATM   23  O1  UNL     1      -5.800   0.673   0.176  1.00  0.00    -0.267 OA
ENDBRANCH   3  19
TORSDOF 5
