REMARK  5 active torsions:
REMARK  status: ('A' for Active; 'I' for Inactive)
REMARK    1  A    between atoms: C1_2  and  C2_3 
REMARK    2  A    between atoms: C1_2  and  C16_19 
REMARK    3  A    between atoms: N1_7  and  C6_8 
REMARK    4  A    between atoms: C6_8  and  C7_9 
REMARK    5  A    between atoms: C8_10  and  C9_11 
ROOT
HETATM    1  C2  UNL     1       1.912   0.290   0.847  1.00  0.00     0.011 A 
HETATM    2  C3  UNL     1       2.429   0.330   2.058  1.00  0.00     0.014 A 
HETATM    3  C4  UNL     1       1.852   0.640   3.352  1.00  0.00     0.018 A 
HETATM    4  C5  UNL     1       0.556   0.955   3.378  1.00  0.00     0.086 A 
HETATM    5  N1  UNL     1      -0.067   0.941   2.114  1.00  0.00    -0.380 N 
HETATM    6  C15 UNL     1       0.452   0.606   0.857  1.00  0.00     0.165 A 
ENDROOT
BRANCH   5   7
HETATM    7  C6  UNL     1      -1.463   1.356   2.163  1.00  0.00     0.181 C 
BRANCH   7   8
HETATM    8  C7  UNL     1      -2.086   1.313   0.818  1.00  0.00     0.055 A 
HETATM    9  C8  UNL     1      -3.009   0.879  -0.081  1.00  0.00     0.067 A 
HETATM   10  N2  UNL     1      -2.033   1.807  -0.525  1.00  0.00    -0.354 N 
HETATM   11  H11 UNL     1      -1.567   2.417  -1.232  1.00  0.00     0.166 HD
BRANCH   9  12
HETATM   12  C9  UNL     1      -4.171   0.034  -0.326  1.00  0.00    -0.007 A 
HETATM   13  C10 UNL     1      -4.378  -1.216   0.214  1.00  0.00     0.014 A 
HETATM   14  C11 UNL     1      -5.543  -1.927  -0.093  1.00  0.00     0.001 A 
HETATM   15  C12 UNL     1      -6.489  -1.384  -0.936  1.00  0.00     0.000 A 
HETATM   16  C13 UNL     1      -6.346  -0.120  -1.521  1.00  0.00     0.001 A 
HETATM   17  C14 UNL     1      -5.161   0.525  -1.167  1.00  0.00     0.014 A 
ENDBRANCH   9  12
ENDBRANCH   7   8
ENDBRANCH   5   7
BRANCH   1  18
HETATM   18  C1  UNL     1       2.478  -0.011  -0.431  1.00  0.00     0.190 C 
HETATM   19  O1  UNL     1       1.574   0.071  -1.346  1.00  0.00    -0.287 OA
BRANCH  18  20
HETATM   20  C16 UNL     1       3.754  -0.377  -0.988  1.00  0.00     0.015 A 
HETATM   21  C17 UNL     1       4.951  -0.562  -0.344  1.00  0.00     0.015 A 
HETATM   22  C18 UNL     1       6.174  -0.909  -0.849  1.00  0.00     0.001 A 
HETATM   23  C19 UNL     1       6.178  -1.094  -2.214  1.00  0.00     0.000 A 
HETATM   24  C20 UNL     1       5.053  -0.942  -2.992  1.00  0.00     0.001 A 
HETATM   25  C21 UNL     1       3.909  -0.595  -2.346  1.00  0.00     0.015 A 
ENDBRANCH  18  20
ENDBRANCH   1  18
TORSDOF 5
