REMARK  7 active torsions:
REMARK  status: ('A' for Active; 'I' for Inactive)
REMARK    1  A    between atoms: C1_2  and  C2_3 
REMARK       I    between atoms: C1_2  and  N2_20 
REMARK    2  A    between atoms: C2_3  and  N1_4 
REMARK    3  A    between atoms: N1_4  and  C3_5 
REMARK    4  A    between atoms: C7_9  and  C8_10 
REMARK    5  A    between atoms: C8_10  and  S1_12 
REMARK    6  A    between atoms: S1_12  and  C9_13 
REMARK    7  A    between atoms: N2_20  and  C16_21 
ROOT
HETATM    1  C3  UNL     1       0.297   2.258   0.135  1.00  0.00     0.029 A 
HETATM    2  C4  UNL     1       0.142   3.623   0.184  1.00  0.00     0.029 A 
HETATM    3  C5  UNL     1      -1.057   4.301   0.182  1.00  0.00     0.003 A 
HETATM    4  C6  UNL     1      -2.223   3.570   0.124  1.00  0.00     0.016 A 
HETATM    5  C7  UNL     1      -2.152   2.200   0.072  1.00  0.00     0.023 A 
HETATM    6  C15 UNL     1      -0.929   1.597   0.079  1.00  0.00     0.045 A 
ENDROOT
BRANCH   1   7
HETATM    7  N1  UNL     1       1.539   1.596   0.139  1.00  0.00    -0.381 N 
HETATM    8  H3  UNL     1       2.381   2.209   0.184  1.00  0.00     0.160 HD
BRANCH   7   9
HETATM    9  C2  UNL     1       1.520   0.165   0.082  1.00  0.00     0.223 C 
BRANCH   9  10
HETATM   10  C1  UNL     1       2.872  -0.451   0.091  1.00  0.00     0.239 C 
HETATM   11  O1  UNL     1       2.691  -1.715   0.037  1.00  0.00    -0.271 OA
HETATM   12  N2  UNL     1       4.182   0.104   0.145  1.00  0.00    -0.326 N 
HETATM   13  H13 UNL     1       4.117   1.138   0.184  1.00  0.00     0.169 HD
BRANCH  12  14
HETATM   14  C16 UNL     1       5.275  -0.809   0.136  1.00  0.00     0.034 A 
HETATM   15  C17 UNL     1       5.831  -1.202  -1.071  1.00  0.00     0.029 A 
HETATM   16  C18 UNL     1       6.903  -2.091  -1.192  1.00  0.00     0.002 A 
HETATM   17  C19 UNL     1       7.404  -2.582   0.009  1.00  0.00     0.000 A 
HETATM   18  C20 UNL     1       6.891  -2.226   1.237  1.00  0.00     0.002 A 
HETATM   19  C21 UNL     1       5.818  -1.333   1.310  1.00  0.00     0.029 A 
ENDBRANCH  12  14
ENDBRANCH   9  10
ENDBRANCH   7   9
ENDBRANCH   1   7
BRANCH   5  20
HETATM   20  C8  UNL     1      -3.394   1.439   0.012  1.00  0.00     0.224 C 
HETATM   21  O2  UNL     1      -4.485   2.050   0.009  1.00  0.00    -0.279 OA
BRANCH  20  22
HETATM   22  S1  UNL     1      -3.328  -0.353  -0.057  1.00  0.00    -0.048 SA
BRANCH  22  23
HETATM   23  C9  UNL     1      -4.996  -0.988  -0.123  1.00  0.00     0.008 A 
HETATM   24  C10 UNL     1      -5.589  -1.178  -1.353  1.00  0.00     0.019 A 
HETATM   25  C11 UNL     1      -6.889  -1.674  -1.410  1.00  0.00     0.001 A 
HETATM   26  C12 UNL     1      -7.611  -1.984  -0.278  1.00  0.00     0.000 A 
HETATM   27  C13 UNL     1      -7.002  -1.787   0.951  1.00  0.00     0.001 A 
HETATM   28  C14 UNL     1      -5.714  -1.297   1.029  1.00  0.00     0.019 A 
ENDBRANCH  22  23
ENDBRANCH  20  22
ENDBRANCH   5  20
TORSDOF 7
