REMARK  1 active torsions:
REMARK  status: ('A' for Active; 'I' for Inactive)
REMARK    1  A    between atoms: C16_17  and  N2_18 
ROOT
HETATM    1  C1  UNL     1       0.840   0.483   2.339  1.00  0.00     0.052 C 
HETATM    2  C2  UNL     1       1.235   1.337   1.156  1.00  0.00    -0.019 A 
HETATM    3  C3  UNL     1       0.979   2.723   1.254  1.00  0.00     0.105 A 
HETATM    4  C4  UNL     1       1.493   3.613   0.345  1.00  0.00     0.040 A 
HETATM    5  C5  UNL     1       2.252   3.051  -0.653  1.00  0.00     0.003 A 
HETATM    6  C6  UNL     1       2.471   1.693  -0.723  1.00  0.00     0.009 A 
HETATM    7  C7  UNL     1       1.989   0.747   0.154  1.00  0.00    -0.035 A 
HETATM    8  C8  UNL     1       2.171  -0.680  -0.017  1.00  0.00     0.103 A 
HETATM    9  C9  UNL     1       3.359  -0.961  -0.858  1.00  0.00     0.012 A 
HETATM   10  C10 UNL     1       4.655  -0.622  -0.856  1.00  0.00     0.039 C 
HETATM   11  N1  UNL     1       2.957  -1.783  -1.948  1.00  0.00    -0.368 N 
HETATM   12  C11 UNL     1       1.572  -2.017  -1.859  1.00  0.00     0.096 A 
HETATM   13  C12 UNL     1       1.092  -1.391  -0.764  1.00  0.00    -0.022 A 
HETATM   14  C13 UNL     1      -0.365  -1.502  -0.500  1.00  0.00    -0.049 C 
HETATM   15  C14 UNL     1      -1.263  -1.540  -1.520  1.00  0.00    -0.016 C 
HETATM   16  C15 UNL     1      -2.678  -2.014  -1.498  1.00  0.00     0.067 C 
HETATM   17  C16 UNL     1      -3.432  -1.574  -0.254  1.00  0.00     0.250 C 
HETATM   18  C17 UNL     1      -2.401  -0.713   0.473  1.00  0.00    -0.038 C 
HETATM   19  C18 UNL     1      -2.526   0.559   0.850  1.00  0.00     0.081 C 
HETATM   20  C19 UNL     1      -2.471   1.940   1.337  1.00  0.00     0.265 C 
HETATM   21  O1  UNL     1      -3.326   2.856   1.363  1.00  0.00    -0.266 OA
HETATM   22  N3  UNL     1      -1.217   2.363   1.871  1.00  0.00    -0.225 N 
HETATM   23  O2  UNL     1       0.106   2.811   2.435  1.00  0.00    -0.235 OA
HETATM   24  C20 UNL     1      -1.216  -1.606   0.685  1.00  0.00     0.075 C 
HETATM   25  H10 UNL     1       3.539  -2.184  -2.728  1.00  0.00     0.165 HD
HETATM   26  H19 UNL     1      -1.188   3.381   2.139  1.00  0.00     0.198 HD
ENDROOT
BRANCH  17  27
HETATM   27  N2  UNL     1      -4.582  -0.815  -0.637  1.00  0.00     0.087 N 
HETATM   28  H16 UNL     1      -5.239  -0.648   0.175  1.00  0.00     0.313 HD
HETATM   29  H17 UNL     1      -5.141  -1.460  -1.273  1.00  0.00     0.313 HD
ENDBRANCH  17  27
TORSDOF 1
