REMARK  2 active torsions:
REMARK  status: ('A' for Active; 'I' for Inactive)
REMARK    1  A    between atoms: C2_2  and  C3_3 
REMARK    2  A    between atoms: C4_4  and  O1_5 
ROOT
HETATM    1  C3  UNL     1       1.450   2.435   1.285  1.00  0.00     0.061 C 
HETATM    2  C4  UNL     1       0.304   2.390   1.935  1.00  0.00     0.091 C 
HETATM    3  C5  UNL     1      -0.776   1.477   1.607  1.00  0.00     0.036 C 
HETATM    4  C6  UNL     1      -1.253   0.508   0.846  1.00  0.00    -0.009 C 
HETATM    5  C7  UNL     1      -2.255  -0.486   0.382  1.00  0.00     0.003 C 
HETATM    6  C8  UNL     1      -3.572  -0.319   1.117  1.00  0.00     0.045 C 
HETATM    7  C9  UNL     1      -4.573  -1.220   0.492  1.00  0.00    -0.029 C 
HETATM    8  C10 UNL     1      -5.086  -1.101  -0.728  1.00  0.00    -0.026 C 
HETATM    9  C11 UNL     1      -4.525   0.100  -1.460  1.00  0.00     0.059 C 
HETATM   10  P1  UNL     1      -2.664  -0.199  -1.431  1.00  0.00    -0.112 P 
HETATM   11  C12 UNL     1      -1.766  -1.882   0.517  1.00  0.00     0.038 C 
HETATM   12  C13 UNL     1      -0.267  -1.986   0.609  1.00  0.00     0.121 C 
HETATM   13  N1  UNL     1       0.395  -1.496  -0.570  1.00  0.00    -0.389 N 
HETATM   14  C14 UNL     1       1.768  -1.372  -0.912  1.00  0.00     0.035 A 
HETATM   15  C15 UNL     1       2.122  -2.240  -1.940  1.00  0.00     0.030 A 
HETATM   16  C16 UNL     1       3.404  -2.353  -2.494  1.00  0.00     0.002 A 
HETATM   17  C17 UNL     1       4.362  -1.525  -1.954  1.00  0.00     0.001 A 
HETATM   18  C18 UNL     1       4.013  -0.665  -0.936  1.00  0.00     0.011 A 
HETATM   19  C19 UNL     1       2.762  -0.542  -0.383  1.00  0.00    -0.014 A 
HETATM   20  C20 UNL     1       2.498   0.419   0.714  1.00  0.00     0.160 C 
HETATM   21  N2  UNL     1       1.747   1.571   0.194  1.00  0.00    -0.383 N 
HETATM   22  H13 UNL     1      -2.359  -1.382  -2.231  1.00  0.00     0.059 HD
HETATM   23  H18 UNL     1      -0.142  -1.142  -1.404  1.00  0.00     0.159 HD
HETATM   24  H25 UNL     1       1.269   2.195  -0.479  1.00  0.00     0.160 HD
ENDROOT
BRANCH   2  25
HETATM   25  O1  UNL     1      -0.034   3.193   3.008  1.00  0.00    -0.358 OA
HETATM   26  H4  UNL     1      -0.289   4.172   2.875  1.00  0.00     0.217 HD
ENDBRANCH   2  25
BRANCH   1  27
HETATM   27  C2  UNL     1       2.451   3.402   1.716  1.00  0.00     0.022 C 
HETATM   28  C1  UNL     1       3.619   3.493   1.101  1.00  0.00     0.013 C 
ENDBRANCH   1  27
TORSDOF 2
