REMARK  8 active torsions:
REMARK  status: ('A' for Active; 'I' for Inactive)
REMARK    1  A    between atoms: C2_2  and  C3_3 
REMARK    2  A    between atoms: C3_3  and  C4_4 
REMARK    3  A    between atoms: C4_4  and  C5_5 
REMARK    4  A    between atoms: C8_8  and  C9_9 
REMARK       I    between atoms: C9_9  and  N1_11 
REMARK    5  A    between atoms: N1_11  and  C10_12 
REMARK    6  A    between atoms: C14_17  and  C15_18 
REMARK    7  A    between atoms: C15_18  and  C16_19 
REMARK    8  A    between atoms: C16_19  and  C17_21 
ROOT
HETATM    1  C10 UNL     1      -1.184   1.734   2.229  1.00  0.00     0.105 C 
HETATM    2  C11 UNL     1      -1.848   1.401   3.538  1.00  0.00    -0.023 C 
HETATM    3  B1  UNL     1      -2.230   3.058   4.231  1.00  0.00     0.171 B 
HETATM    4  C12 UNL     1      -2.976   4.055   2.564  1.00  0.00    -0.087 C 
HETATM    5  C13 UNL     1      -2.946   3.133   1.450  1.00  0.00    -0.011 C 
HETATM    6  C14 UNL     1      -2.196   2.082   1.209  1.00  0.00    -0.052 C 
ENDROOT
BRANCH   1   7
HETATM    7  N1  UNL     1      -0.225   0.754   1.814  1.00  0.00    -0.348 N 
HETATM    8  C9  UNL     1       1.157   1.043   1.716  1.00  0.00     0.268 C 
HETATM    9  O1  UNL     1       1.592   2.190   1.997  1.00  0.00    -0.266 OA
HETATM   10  H8  UNL     1      -0.544  -0.226   1.567  1.00  0.00     0.163 HD
BRANCH   8  11
HETATM   11  C8  UNL     1       2.076  -0.005   1.286  1.00  0.00     0.097 A 
HETATM   12  C7  UNL     1       3.382   0.245   1.188  1.00  0.00     0.014 A 
HETATM   13  C6  UNL     1       4.134  -0.976   0.729  1.00  0.00     0.086 A 
HETATM   14  C5  UNL     1       3.003  -1.931   0.597  1.00  0.00     0.013 A 
HETATM   15  N2  UNL     1       1.756  -1.333   0.937  1.00  0.00    -0.355 N 
HETATM   16  H21 UNL     1       0.808  -1.741   0.942  1.00  0.00     0.166 HD
BRANCH  14  17
HETATM   17  C4  UNL     1       3.131  -3.190   0.209  1.00  0.00     0.033 C 
BRANCH  17  18
HETATM   18  C3  UNL     1       4.379  -3.811  -0.139  1.00  0.00     0.052 C 
BRANCH  18  19
HETATM   19  C2  UNL     1       5.112  -3.342  -1.138  1.00  0.00    -0.155 C 
HETATM   20  C1  UNL     1       5.622  -2.684  -2.168  1.00  0.00     0.096 C 
ENDBRANCH  18  19
ENDBRANCH  17  18
ENDBRANCH  14  17
ENDBRANCH   8  11
ENDBRANCH   1   7
BRANCH   6  21
HETATM   21  C15 UNL     1      -2.202   1.170   0.059  1.00  0.00     0.119 C 
BRANCH  21  22
HETATM   22  C16 UNL     1      -3.198   1.468  -0.996  1.00  0.00     0.159 C 
HETATM   23  O2  UNL     1      -4.095   2.328  -1.214  1.00  0.00    -0.292 OA
BRANCH  22  24
HETATM   24  C17 UNL     1      -3.092   0.464  -2.092  1.00  0.00    -0.009 A 
HETATM   25  C18 UNL     1      -3.865   0.491  -3.164  1.00  0.00     0.011 A 
HETATM   26  C19 UNL     1      -3.576  -0.599  -4.103  1.00  0.00    -0.003 A 
HETATM   27  C20 UNL     1      -2.600  -1.277  -3.547  1.00  0.00    -0.022 A 
HETATM   28  C21 UNL     1      -2.179  -0.725  -2.260  1.00  0.00     0.069 A 
ENDBRANCH  22  24
ENDBRANCH  21  22
ENDBRANCH   6  21
TORSDOF 8
