REMARK  3 active torsions:
REMARK  status: ('A' for Active; 'I' for Inactive)
REMARK    1  A    between atoms: P1_2  and  C2_3 
REMARK    2  A    between atoms: C2_3  and  C3_5 
REMARK    3  A    between atoms: C3_5  and  C4_6 
ROOT
HETATM    1  C4  UNL     1       2.558   1.366  -0.450  1.00  0.00     0.017 C 
HETATM    2  C5  UNL     1       1.612   0.453  -0.441  1.00  0.00     0.148 C 
HETATM    3  C6  UNL     1       1.514  -0.943   0.077  1.00  0.00     0.094 C 
HETATM    4  C7  UNL     1       0.865  -1.120   1.360  1.00  0.00    -0.024 C 
HETATM    5  C8  UNL     1      -0.145  -1.548   2.180  1.00  0.00    -0.024 C 
HETATM    6  C9  UNL     1      -0.721  -1.987   0.931  1.00  0.00     0.053 C 
HETATM    7  C10 UNL     1      -1.904  -2.524   0.760  1.00  0.00    -0.040 C 
HETATM    8  C11 UNL     1      -1.438  -2.545  -0.670  1.00  0.00     0.011 C 
HETATM    9  C12 UNL     1      -3.286  -2.970   0.310  1.00  0.00     0.005 C 
HETATM   10  C13 UNL     1      -4.062  -2.566  -0.737  1.00  0.00     0.087 C 
HETATM   11  P2  UNL     1      -3.650  -1.276  -2.002  1.00  0.00    -0.123 P 
HETATM   12  C14 UNL     1      -3.348   0.381  -1.181  1.00  0.00    -0.015 A 
HETATM   13  C15 UNL     1      -2.335   1.280  -1.029  1.00  0.00     0.091 A 
HETATM   14  N1  UNL     1      -2.666   2.453  -0.255  1.00  0.00    -0.385 N 
HETATM   15  C16 UNL     1      -3.924   2.891   0.339  1.00  0.00     0.147 A 
HETATM   16  C17 UNL     1      -4.962   1.840   0.126  1.00  0.00    -0.007 A 
HETATM   17  C18 UNL     1      -4.609   0.763  -0.563  1.00  0.00     0.011 A 
HETATM   18  C19 UNL     1      -0.950   1.177  -1.561  1.00  0.00     0.405 A 
HETATM   19  O2  UNL     1      -0.597   0.816  -0.364  1.00  0.00    -0.138 OA
HETATM   20  N2  UNL     1       0.368   0.839  -1.121  1.00  0.00     0.121 N 
HETATM   21  H18 UNL     1      -4.794  -1.169  -2.898  1.00  0.00     0.052 HD
HETATM   22  H19 UNL     1      -1.862   3.074  -0.099  1.00  0.00     0.159 HD
HETATM   23  H24 UNL     1       0.769   1.004  -2.130  1.00  0.00     0.329 HD
ENDROOT
BRANCH   1  24
HETATM   24  C3  UNL     1       3.844   1.076   0.160  1.00  0.00     0.112 C 
BRANCH  24  25
HETATM   25  C2  UNL     1       4.937   1.153  -0.841  1.00  0.00     0.151 C 
HETATM   26  O1  UNL     1       4.085   1.458  -1.635  1.00  0.00    -0.293 OA
BRANCH  25  27
HETATM   27  P1  UNL     1       6.620   0.781  -0.251  1.00  0.00    -0.059 P 
HETATM   28  C1  UNL     1       6.608   0.300   1.530  1.00  0.00     0.049 C 
HETATM   29  H4  UNL     1       7.444   1.952  -0.439  1.00  0.00     0.065 HD
ENDBRANCH  25  27
ENDBRANCH  24  25
ENDBRANCH   1  24
TORSDOF 3
