REMARK  5 active torsions:
REMARK  status: ('A' for Active; 'I' for Inactive)
REMARK       I    between atoms: C1_2  and  N1_3 
REMARK    1  A    between atoms: C1_2  and  C16_21 
REMARK    2  A    between atoms: N1_3  and  C2_4 
REMARK    3  A    between atoms: C5_7  and  N2_8 
REMARK    4  A    between atoms: N2_8  and  C6_9 
REMARK    5  A    between atoms: N3_17  and  O2_18 
ROOT
HETATM    1  C2  UNL     1      -1.915   0.340  -0.371  1.00  0.00     0.035 A 
HETATM    2  C3  UNL     1      -0.780   1.064  -0.323  1.00  0.00     0.032 A 
HETATM    3  C4  UNL     1       0.164   0.583   0.593  1.00  0.00     0.031 A 
HETATM    4  C5  UNL     1      -0.127  -0.563   1.342  1.00  0.00     0.029 A 
HETATM    5  C14 UNL     1      -1.341  -1.242   1.207  1.00  0.00     0.031 A 
HETATM    6  C15 UNL     1      -2.324  -0.813   0.318  1.00  0.00     0.032 A 
ENDROOT
BRANCH   4   7
HETATM    7  N2  UNL     1       0.805  -1.142   2.258  1.00  0.00    -0.366 N 
HETATM    8  H4  UNL     1       0.470  -2.032   2.750  1.00  0.00     0.162 HD
BRANCH   7   9
HETATM    9  C6  UNL     1       2.162  -0.741   2.660  1.00  0.00     0.221 C 
HETATM   10  C7  UNL     1       2.166   0.445   3.538  1.00  0.00     0.056 C 
HETATM   11  C8  UNL     1       3.488   0.829   4.028  1.00  0.00     0.007 C 
HETATM   12  C9  UNL     1       4.622   0.379   3.558  1.00  0.00     0.055 A 
HETATM   13  C10 UNL     1       6.070   0.374   3.647  1.00  0.00    -0.015 A 
HETATM   14  C12 UNL     1       5.335  -0.556   2.280  1.00  0.00     0.015 A 
HETATM   15  C11 UNL     1       6.665  -0.367   2.688  1.00  0.00     0.014 A 
HETATM   16  C13 UNL     1       4.253  -0.691   1.938  1.00  0.00    -0.006 C 
HETATM   17  N3  UNL     1       2.992  -0.824   1.539  1.00  0.00    -0.201 N 
BRANCH  17  18
HETATM   18  O2  UNL     1       2.989  -0.969   0.195  1.00  0.00    -0.278 OA
HETATM   19  H12 UNL     1       2.952  -0.063  -0.201  1.00  0.00     0.245 HD
ENDBRANCH  17  18
ENDBRANCH   7   9
ENDBRANCH   4   7
BRANCH   1  20
HETATM   20  N1  UNL     1      -2.941   0.760  -1.314  1.00  0.00    -0.323 N 
HETATM   21  C1  UNL     1      -2.785  -0.047  -2.465  1.00  0.00     0.256 C 
HETATM   22  O1  UNL     1      -1.892  -0.899  -2.491  1.00  0.00    -0.267 OA
HETATM   23  H1  UNL     1      -3.652   1.500  -1.201  1.00  0.00     0.169 HD
BRANCH  21  24
HETATM   24  C16 UNL     1      -3.679   0.116  -3.629  1.00  0.00     0.032 A 
HETATM   25  C17 UNL     1      -3.556  -0.744  -4.697  1.00  0.00     0.017 A 
HETATM   26  C18 UNL     1      -4.405  -0.583  -5.769  1.00  0.00     0.001 A 
HETATM   27  C19 UNL     1      -5.385   0.388  -5.864  1.00  0.00     0.000 A 
HETATM   28  C20 UNL     1      -5.432   1.211  -4.734  1.00  0.00     0.001 A 
HETATM   29  C21 UNL     1      -4.624   1.128  -3.610  1.00  0.00     0.017 A 
ENDBRANCH  21  24
ENDBRANCH   1  20
TORSDOF 5
