REMARK  4 active torsions:
REMARK  status: ('A' for Active; 'I' for Inactive)
REMARK    1  A    between atoms: N1_1  and  C1_2 
REMARK    2  A    between atoms: C12_13  and  C13_14 
REMARK    3  A    between atoms: C18_19  and  O1_20 
REMARK    4  A    between atoms: O1_20  and  O2_21 
ROOT
HETATM    1  C1  UNL     1       0.337   1.086   2.094  1.00  0.00     0.353 C 
HETATM    2  C2  UNL     1      -0.782   0.930   3.123  1.00  0.00    -0.003 A 
HETATM    3  C3  UNL     1      -0.764   0.929   4.422  1.00  0.00    -0.011 A 
HETATM    4  C4  UNL     1      -2.182   0.737   4.734  1.00  0.00     0.067 A 
HETATM    5  C5  UNL     1      -2.235   0.766   3.227  1.00  0.00    -0.045 A 
HETATM    6  C6  UNL     1      -3.386   0.605   2.501  1.00  0.00     0.008 C 
HETATM    7  C7  UNL     1      -3.891   0.476   1.103  1.00  0.00    -0.003 C 
HETATM    8  C8  UNL     1      -3.681   0.399  -0.221  1.00  0.00    -0.022 C 
HETATM    9  C9  UNL     1      -2.811   0.363  -1.457  1.00  0.00     0.063 C 
HETATM   10  C10 UNL     1      -1.360   0.302  -1.094  1.00  0.00    -0.058 C 
HETATM   11  C11 UNL     1      -0.310   0.002  -1.827  1.00  0.00     0.018 C 
HETATM   12  C12 UNL     1       0.968  -0.362  -1.227  1.00  0.00    -0.007 C 
HETATM   13  C19 UNL     1       1.045  -0.377   0.093  1.00  0.00     0.100 C 
HETATM   14  N2  UNL     1       0.139   0.406   0.862  1.00  0.00    -0.352 N 
HETATM   15  C20 UNL     1      -1.139   0.573   0.347  1.00  0.00     0.159 C 
ENDROOT
BRANCH  12  16
HETATM   16  C13 UNL     1       2.140  -0.737  -1.998  1.00  0.00     0.012 A 
HETATM   17  C14 UNL     1       3.268  -1.131  -1.324  1.00  0.00     0.015 A 
HETATM   18  C15 UNL     1       4.437  -1.511  -1.924  1.00  0.00     0.001 A 
HETATM   19  C16 UNL     1       4.584  -1.531  -3.312  1.00  0.00     0.003 A 
HETATM   20  C17 UNL     1       3.438  -1.135  -3.950  1.00  0.00     0.041 A 
HETATM   21  C18 UNL     1       2.265  -0.752  -3.374  1.00  0.00     0.117 A 
BRANCH  21  22
HETATM   22  O1  UNL     1       1.214  -0.380  -4.133  1.00  0.00    -0.199 OA
BRANCH  22  23
HETATM   23  O2  UNL     1       1.280  -0.374  -5.465  1.00  0.00    -0.245 OA
HETATM   24  H17 UNL     1       1.369  -1.321  -5.766  1.00  0.00     0.254 HD
ENDBRANCH  22  23
ENDBRANCH  21  22
ENDBRANCH  12  16
BRANCH   1  25
HETATM   25  N1  UNL     1       1.573   0.603   2.641  1.00  0.00     0.105 N 
HETATM   26  H1  UNL     1       1.829   1.134   3.520  1.00  0.00     0.316 HD
HETATM   27  H2  UNL     1       1.636  -0.431   2.743  1.00  0.00     0.316 HD
ENDBRANCH   1  25
TORSDOF 4
