REMARK  7 active torsions:
REMARK  status: ('A' for Active; 'I' for Inactive)
REMARK    1  A    between atoms: C2_2  and  O1_3 
REMARK    2  A    between atoms: C2_2  and  C11_14 
REMARK    3  A    between atoms: N1_4  and  C3_5 
REMARK    4  A    between atoms: C7_9  and  C8_10 
REMARK    5  A    between atoms: C8_10  and  O2_12 
REMARK    6  A    between atoms: C11_14  and  N2_15 
REMARK    7  A    between atoms: C12_16  and  C13_17 
ROOT
HETATM    1  O1  UNL     1       0.118   1.955  -1.739  1.00  0.00     0.000 OA
HETATM    2  N1  UNL     1      -0.864   1.254  -1.211  1.00  0.00    -0.222 NA
HETATM    3  H5  UNL     1      -0.819   1.858  -2.087  1.00  0.00     0.147 HD
ENDROOT
BRANCH   1   4
HETATM    4  C2  UNL     1       1.186   2.177  -0.882  1.00  0.00     0.040 C 
HETATM    5  C1  UNL     1       1.393   3.671  -0.667  1.00  0.00     0.017 C 
BRANCH   4   6
HETATM    6  C11 UNL     1       2.455   1.625  -1.344  1.00  0.00     0.008 C 
HETATM    7  C12 UNL     1       3.402   0.754  -1.066  1.00  0.00     0.036 C 
BRANCH   6   8
HETATM    8  N2  UNL     1       2.612   2.391  -2.529  1.00  0.00    -0.402 N 
HETATM    9  H15 UNL     1       2.801   2.994  -3.351  1.00  0.00     0.156 HD
HETATM   10  H16 UNL     1       2.062   2.384  -3.439  1.00  0.00     0.156 HD
ENDBRANCH   6   8
BRANCH   7  11
HETATM   11  C13 UNL     1       3.473  -0.138   0.076  1.00  0.00    -0.034 A 
HETATM   12  C14 UNL     1       4.677  -0.419   0.726  1.00  0.00     0.011 A 
HETATM   13  C15 UNL     1       4.836  -1.250   1.807  1.00  0.00     0.001 A 
HETATM   14  C16 UNL     1       3.680  -1.840   2.262  1.00  0.00     0.000 A 
HETATM   15  C17 UNL     1       2.438  -1.637   1.701  1.00  0.00     0.001 A 
HETATM   16  C18 UNL     1       2.361  -0.788   0.617  1.00  0.00     0.011 A 
ENDBRANCH   7  11
ENDBRANCH   4   6
ENDBRANCH   1   4
BRANCH   2  17
HETATM   17  C3  UNL     1      -2.094   0.635  -0.936  1.00  0.00     0.023 A 
HETATM   18  C4  UNL     1      -3.202   0.784  -1.762  1.00  0.00     0.025 A 
HETATM   19  C5  UNL     1      -4.391   0.137  -1.423  1.00  0.00     0.002 A 
HETATM   20  C6  UNL     1      -4.324  -0.595  -0.276  1.00  0.00     0.010 A 
HETATM   21  C7  UNL     1      -3.251  -0.768   0.569  1.00  0.00    -0.028 A 
HETATM   22  C10 UNL     1      -2.087  -0.120   0.215  1.00  0.00     0.034 A 
BRANCH  21  23
HETATM   23  C8  UNL     1      -3.388  -1.627   1.798  1.00  0.00     0.147 C 
HETATM   24  C9  UNL     1      -3.516  -3.051   1.304  1.00  0.00     0.044 C 
BRANCH  23  25
HETATM   25  O2  UNL     1      -4.595  -1.286   2.404  1.00  0.00    -0.391 OA
HETATM   26  H13 UNL     1      -4.631  -0.347   2.690  1.00  0.00     0.210 HD
ENDBRANCH  23  25
ENDBRANCH  21  23
ENDBRANCH   2  17
TORSDOF 7
