REMARK  5 active torsions:
REMARK  status: ('A' for Active; 'I' for Inactive)
REMARK    1  A    between atoms: O1_2  and  C2_3 
REMARK    2  A    between atoms: C2_3  and  C3_4 
REMARK    3  A    between atoms: C3_4  and  C4_5 
REMARK    4  A    between atoms: C6_7  and  N1_8 
REMARK       I    between atoms: N1_8  and  C7_9 
REMARK    5  A    between atoms: C7_9  and  C8_11 
ROOT
HETATM    1  N1  UNL     1      -0.291   0.049  -0.289  1.00  0.00    -0.322 N 
HETATM    2  C7  UNL     1      -1.137   0.739   0.620  1.00  0.00     0.252 C 
HETATM    3  O2  UNL     1      -0.684   1.469   1.536  1.00  0.00    -0.268 OA
HETATM    4  H8  UNL     1      -0.717  -0.546  -1.034  1.00  0.00     0.169 HD
ENDROOT
BRANCH   1   5
HETATM    5  C6  UNL     1       1.126   0.141  -0.220  1.00  0.00     0.046 C 
HETATM    6  C5  UNL     1       1.989  -0.448  -1.000  1.00  0.00     0.010 C 
HETATM    7  C4  UNL     1       3.143  -0.702  -0.402  1.00  0.00    -0.043 C 
HETATM    8  C16 UNL     1       3.189   0.371   0.593  1.00  0.00     0.010 C 
HETATM    9  C15 UNL     1       1.957   0.893   0.712  1.00  0.00     0.031 C 
BRANCH   7  10
HETATM   10  C3  UNL     1       4.131  -1.761  -0.645  1.00  0.00     0.066 C 
BRANCH  10  11
HETATM   11  C2  UNL     1       5.452  -1.118  -1.015  1.00  0.00     0.171 C 
BRANCH  11  12
HETATM   12  O1  UNL     1       5.857  -0.318   0.030  1.00  0.00    -0.396 OA
HETATM   13  C1  UNL     1       7.072   0.310  -0.239  1.00  0.00     0.201 C 
ENDBRANCH  11  12
ENDBRANCH  10  11
ENDBRANCH   7  10
ENDBRANCH   1   5
BRANCH   2  14
HETATM   14  C8  UNL     1      -2.582   0.605   0.497  1.00  0.00     0.011 C 
HETATM   15  C9  UNL     1      -3.520   1.184   1.267  1.00  0.00     0.021 C 
HETATM   16  C10 UNL     1      -4.888   0.824   0.854  1.00  0.00    -0.036 C 
HETATM   17  C11 UNL     1      -6.174   0.670   1.092  1.00  0.00     0.090 C 
HETATM   18  C13 UNL     1      -4.701   0.436  -0.594  1.00  0.00     0.042 C 
HETATM   19  N2  UNL     1      -6.906   0.202  -0.061  1.00  0.00    -0.398 N 
HETATM   20  C12 UNL     1      -5.836  -0.520  -0.773  1.00  0.00     0.128 C 
HETATM   21  H11 UNL     1      -7.909   0.504  -0.032  1.00  0.00     0.158 HD
HETATM   22  C14 UNL     1      -3.337  -0.211  -0.526  1.00  0.00     0.055 C 
ENDBRANCH   2  14
TORSDOF 5
