REMARK  6 active torsions:
REMARK  status: ('A' for Active; 'I' for Inactive)
REMARK    1  A    between atoms: C4_4  and  C5_5 
REMARK    2  A    between atoms: C5_5  and  O1_7 
REMARK    3  A    between atoms: O1_7  and  N1_8 
REMARK    4  A    between atoms: N1_8  and  O2_9 
REMARK    5  A    between atoms: N1_8  and  C7_10 
REMARK    6  A    between atoms: C7_10  and  N2_11 
ROOT
HETATM    1  N1  UNL     1       0.832  -2.021  -0.203  1.00  0.00    -0.053 NA
ENDROOT
BRANCH   1   2
HETATM    2  O1  UNL     1       1.264  -0.814   0.145  1.00  0.00    -0.268 OA
BRANCH   2   3
HETATM    3  C5  UNL     1       2.466  -0.820   0.826  1.00  0.00     0.174 C 
HETATM    4  C6  UNL     1       2.209  -0.208   2.208  1.00  0.00     0.046 C 
BRANCH   3   5
HETATM    5  C4  UNL     1       3.402   0.086   0.107  1.00  0.00    -0.034 C 
HETATM    6  C3  UNL     1       4.027   1.222   0.360  1.00  0.00    -0.018 C 
HETATM    7  C2  UNL     1       3.812   1.531  -0.905  1.00  0.00    -0.068 C 
HETATM    8  C1  UNL     1       3.512   2.913  -1.360  1.00  0.00     0.044 C 
HETATM    9  C16 UNL     1       4.026   0.076  -1.217  1.00  0.00     0.072 C 
ENDBRANCH   3   5
ENDBRANCH   2   3
ENDBRANCH   1   2
BRANCH   1  10
HETATM   10  O2  UNL     1       1.801  -2.947  -0.235  1.00  0.00    -0.287 OA
HETATM   11  H8  UNL     1       1.444  -3.845  -0.085  1.00  0.00     0.239 HD
ENDBRANCH   1  10
BRANCH   1  12
HETATM   12  C7  UNL     1      -0.325  -2.451   0.560  1.00  0.00     0.276 C 
BRANCH  12  13
HETATM   13  N2  UNL     1      -1.404  -1.508   0.344  1.00  0.00    -0.369 N 
HETATM   14  C8  UNL     1      -1.355  -0.114   0.657  1.00  0.00     0.095 A 
HETATM   15  C9  UNL     1      -2.479   0.487   0.351  1.00  0.00    -0.032 A 
HETATM   16  C10 UNL     1      -2.914   1.914   0.485  1.00  0.00     0.067 A 
HETATM   17  C14 UNL     1      -3.418  -0.502  -0.218  1.00  0.00    -0.032 A 
HETATM   18  C11 UNL     1      -4.305   2.067  -0.018  1.00  0.00    -0.022 A 
HETATM   19  C12 UNL     1      -5.130   1.165  -0.525  1.00  0.00    -0.003 A 
HETATM   20  C13 UNL     1      -4.622  -0.200  -0.617  1.00  0.00     0.009 A 
HETATM   21  C15 UNL     1      -2.727  -1.795  -0.226  1.00  0.00     0.162 A 
ENDBRANCH  12  13
ENDBRANCH   1  12
TORSDOF 6
