REMARK  5 active torsions:
REMARK  status: ('A' for Active; 'I' for Inactive)
REMARK    1  A    between atoms: C4_4  and  N1_5 
REMARK       I    between atoms: N1_5  and  C5_6 
REMARK    2  A    between atoms: C5_6  and  C6_8 
REMARK    3  A    between atoms: C6_8  and  N2_9 
REMARK    4  A    between atoms: C16_20  and  C17_21 
REMARK    5  A    between atoms: C17_21  and  O2_23 
ROOT
HETATM    1  N1  UNL     1      -0.278   0.099  -0.248  1.00  0.00    -0.326 N 
HETATM    2  C5  UNL     1      -0.422  -0.748  -1.378  1.00  0.00     0.239 C 
HETATM    3  O1  UNL     1       0.647  -1.061  -1.976  1.00  0.00    -0.271 OA
HETATM    4  H5  UNL     1      -1.199   0.338   0.227  1.00  0.00     0.169 HD
ENDROOT
BRANCH   1   5
HETATM    5  C4  UNL     1       1.113   0.378  -0.092  1.00  0.00     0.035 A 
HETATM    6  C3  UNL     1       1.777  -0.526   0.711  1.00  0.00     0.037 A 
HETATM    7  C2  UNL     1       3.135  -0.394   0.961  1.00  0.00    -0.051 A 
HETATM    8  C1  UNL     1       3.866  -1.359   1.823  1.00  0.00     0.049 C 
HETATM    9  C16 UNL     1       3.791   0.672   0.378  1.00  0.00    -0.024 A 
HETATM   10  C15 UNL     1       3.119   1.572  -0.424  1.00  0.00     0.012 A 
HETATM   11  C14 UNL     1       1.770   1.459  -0.686  1.00  0.00     0.030 A 
BRANCH   9  12
HETATM   12  C17 UNL     1       5.241   0.905   0.580  1.00  0.00     0.147 C 
HETATM   13  C18 UNL     1       6.113   0.234  -0.439  1.00  0.00     0.044 C 
BRANCH  12  14
HETATM   14  O2  UNL     1       5.651   0.519   1.858  1.00  0.00    -0.391 OA
HETATM   15  H21 UNL     1       6.441   1.031   2.157  1.00  0.00     0.210 HD
ENDBRANCH  12  14
ENDBRANCH   9  12
ENDBRANCH   1   5
BRANCH   2  16
HETATM   16  C6  UNL     1      -1.689  -1.316  -1.947  1.00  0.00     0.225 C 
BRANCH  16  17
HETATM   17  N2  UNL     1      -2.841  -0.899  -1.194  1.00  0.00    -0.375 N 
HETATM   18  C7  UNL     1      -3.269   0.468  -1.200  1.00  0.00     0.116 A 
HETATM   19  C8  UNL     1      -4.340   0.673  -0.457  1.00  0.00     0.055 A 
HETATM   20  N3  UNL     1      -5.201   1.721  -0.068  1.00  0.00    -0.364 N 
HETATM   21  C12 UNL     1      -4.680  -0.651   0.104  1.00  0.00    -0.012 A 
HETATM   22  C9  UNL     1      -6.314   1.563   0.791  1.00  0.00     0.088 A 
HETATM   23  H9  UNL     1      -4.984   2.670  -0.450  1.00  0.00     0.165 HD
HETATM   24  C10 UNL     1      -6.570   0.344   1.266  1.00  0.00     0.018 A 
HETATM   25  C11 UNL     1      -5.719  -0.776   0.900  1.00  0.00     0.012 A 
HETATM   26  C13 UNL     1      -3.721  -1.697  -0.359  1.00  0.00     0.163 A 
ENDBRANCH  16  17
ENDBRANCH   2  16
TORSDOF 5
