REMARK  6 active torsions:
REMARK  status: ('A' for Active; 'I' for Inactive)
REMARK    1  A    between atoms: C2_2  and  C3_3 
REMARK       I    between atoms: C3_3  and  N1_5 
REMARK    2  A    between atoms: N1_5  and  C4_6 
REMARK    3  A    between atoms: C10_12  and  N2_13 
REMARK    4  A    between atoms: N2_13  and  C11_14 
REMARK    5  A    between atoms: C14_19  and  N5_20 
REMARK    6  A    between atoms: N5_20  and  C15_21 
ROOT
HETATM    1  C11 UNL     1      -1.808  -2.744  -1.851  1.00  0.00     0.094 A 
HETATM    2  C12 UNL     1      -2.613  -3.671  -2.441  1.00  0.00     0.151 A 
HETATM    3  N3  UNL     1      -3.249  -3.280  -3.554  1.00  0.00    -0.252 NA
HETATM    4  C13 UNL     1      -3.098  -2.045  -4.057  1.00  0.00     0.235 A 
HETATM    5  N4  UNL     1      -2.296  -1.092  -3.487  1.00  0.00    -0.222 NA
HETATM    6  C14 UNL     1      -1.616  -1.438  -2.338  1.00  0.00     0.157 A 
ENDROOT
BRANCH   1   7
HETATM    7  N2  UNL     1      -0.953  -2.662  -0.708  1.00  0.00    -0.355 N 
HETATM    8  H9  UNL     1      -1.201  -3.657  -0.406  1.00  0.00     0.162 HD
BRANCH   7   9
HETATM    9  C10 UNL     1      -0.153  -2.739   0.450  1.00  0.00     0.265 A 
HETATM   10  C8  UNL     1       0.521  -1.416   0.778  1.00  0.00     0.026 A 
HETATM   11  C7  UNL     1      -0.147  -1.433   1.963  1.00  0.00     0.082 A 
HETATM   12  C9  UNL     1       1.391  -0.410   0.383  1.00  0.00     0.044 A 
HETATM   13  C6  UNL     1       0.032  -0.380   2.866  1.00  0.00     0.040 A 
HETATM   14  O2  UNL     1      -0.773  -2.621   1.707  1.00  0.00    -0.321 OA
HETATM   15  C5  UNL     1       0.897   0.646   2.504  1.00  0.00     0.032 A 
HETATM   16  C4  UNL     1       1.562   0.626   1.282  1.00  0.00     0.035 A 
BRANCH  16  17
HETATM   17  N1  UNL     1       2.445   1.694   0.938  1.00  0.00    -0.324 N 
HETATM   18  C3  UNL     1       3.797   1.525   1.321  1.00  0.00     0.244 C 
HETATM   19  O1  UNL     1       4.233   0.508   1.931  1.00  0.00    -0.268 OA
HETATM   20  H4  UNL     1       2.348   2.630   0.445  1.00  0.00     0.169 HD
BRANCH  18  21
HETATM   21  C2  UNL     1       4.909   2.453   1.098  1.00  0.00     0.064 C 
HETATM   22  C1  UNL     1       5.965   1.848   1.636  1.00  0.00     0.017 C 
ENDBRANCH  18  21
ENDBRANCH  16  17
ENDBRANCH   7   9
ENDBRANCH   1   7
BRANCH   6  23
HETATM   23  N5  UNL     1      -0.890  -0.278  -1.981  1.00  0.00    -0.339 N 
HETATM   24  H12 UNL     1       0.104  -0.146  -2.290  1.00  0.00     0.167 HD
BRANCH  23  25
HETATM   25  C15 UNL     1      -1.505   0.732  -1.189  1.00  0.00     0.035 A 
HETATM   26  C16 UNL     1      -0.854   1.866  -0.795  1.00  0.00     0.032 A 
HETATM   27  C17 UNL     1      -1.365   2.898  -0.036  1.00  0.00     0.046 A 
HETATM   28  C18 UNL     1      -2.699   2.727   0.354  1.00  0.00     0.138 A 
HETATM   29  F1  UNL     1      -3.194   3.751   1.103  1.00  0.00    -0.204 F 
HETATM   30  C19 UNL     1      -3.408   1.583  -0.025  1.00  0.00     0.074 A 
HETATM   31 CL1  UNL     1      -5.060   1.461   0.507  1.00  0.00    -0.081 Cl
HETATM   32  C20 UNL     1      -2.812   0.602  -0.786  1.00  0.00     0.056 A 
ENDBRANCH  23  25
ENDBRANCH   6  23
TORSDOF 6
