REMARK  5 active torsions:
REMARK  status: ('A' for Active; 'I' for Inactive)
REMARK    1  A    between atoms: C6_7  and  C7_8 
REMARK       I    between atoms: C7_8  and  N2_10 
REMARK    2  A    between atoms: N2_10  and  C8_11 
REMARK    3  A    between atoms: C11_14  and  C12_15 
REMARK    4  A    between atoms: C12_15  and  O2_16 
REMARK    5  A    between atoms: C12_15  and  C13_17 
ROOT
HETATM    1  C1  UNL     1       8.651  -1.415   1.549  1.00  0.00     0.017 C 
HETATM    2  C2  UNL     1       7.845  -1.110   0.706  1.00  0.00    -0.087 C 
HETATM    3  C3  UNL     1       6.887  -0.745  -0.300  1.00  0.00     0.090 C 
HETATM    4  C4  UNL     1       5.778  -0.057   0.014  1.00  0.00     0.035 C 
HETATM    5  C5  UNL     1       4.739   0.361  -0.956  1.00  0.00     0.177 C 
HETATM    6  N1  UNL     1       3.407   0.043  -0.427  1.00  0.00    -0.379 N 
HETATM    7  C6  UNL     1       3.186   0.418   0.935  1.00  0.00     0.112 C 
HETATM    8  C20 UNL     1       4.199   0.553   1.802  1.00  0.00     0.123 C 
HETATM    9  N3  UNL     1       5.548   0.318   1.371  1.00  0.00    -0.365 N 
HETATM   10  H5  UNL     1       2.610  -0.422  -0.927  1.00  0.00     0.160 HD
HETATM   11  H19 UNL     1       6.360   0.418   2.039  1.00  0.00     0.165 HD
ENDROOT
BRANCH   7  12
HETATM   12  C7  UNL     1       1.845   0.681   1.478  1.00  0.00     0.270 C 
HETATM   13  O1  UNL     1       1.629   1.012   2.671  1.00  0.00    -0.266 OA
HETATM   14  N2  UNL     1       0.712   0.560   0.616  1.00  0.00    -0.345 N 
HETATM   15  H6  UNL     1       0.773   0.292  -0.389  1.00  0.00     0.163 HD
BRANCH  14  16
HETATM   16  C8  UNL     1      -0.678   0.778   0.968  1.00  0.00     0.131 A 
HETATM   17  C9  UNL     1      -1.269   1.827   0.104  1.00  0.00     0.003 A 
HETATM   18  C10 UNL     1      -2.218   1.220  -0.611  1.00  0.00     0.008 A 
HETATM   19  C11 UNL     1      -2.327  -0.180  -0.305  1.00  0.00    -0.027 A 
HETATM   20  C19 UNL     1      -1.421  -0.445   0.626  1.00  0.00     0.012 A 
BRANCH  19  21
HETATM   21  C12 UNL     1      -3.266  -1.167  -0.900  1.00  0.00     0.184 C 
BRANCH  21  22
HETATM   22  O2  UNL     1      -3.007  -1.350  -2.255  1.00  0.00    -0.386 OA
HETATM   23  H11 UNL     1      -2.776  -0.525  -2.726  1.00  0.00     0.210 HD
ENDBRANCH  21  22
BRANCH  21  24
HETATM   24  C13 UNL     1      -4.655  -0.719  -0.624  1.00  0.00    -0.025 A 
HETATM   25  C14 UNL     1      -5.297   0.280  -1.351  1.00  0.00     0.010 A 
HETATM   26  C15 UNL     1      -6.606   0.649  -1.033  1.00  0.00     0.001 A 
HETATM   27  C16 UNL     1      -7.307   0.067  -0.023  1.00  0.00     0.000 A 
HETATM   28  C17 UNL     1      -6.711  -0.918   0.713  1.00  0.00     0.001 A 
HETATM   29  C18 UNL     1      -5.418  -1.276   0.393  1.00  0.00     0.010 A 
ENDBRANCH  21  24
ENDBRANCH  19  21
ENDBRANCH  14  16
ENDBRANCH   7  12
TORSDOF 5
