REMARK  6 active torsions:
REMARK  status: ('A' for Active; 'I' for Inactive)
REMARK    1  A    between atoms: C2_2  and  C3_3 
REMARK    2  A    between atoms: C11_13  and  C12_14 
REMARK    3  A    between atoms: C12_14  and  O1_15 
REMARK    4  A    between atoms: O1_15  and  C13_16 
REMARK    5  A    between atoms: C13_16  and  C14_17 
REMARK    6  A    between atoms: C15_18  and  C16_19 
ROOT
HETATM    1  C16 UNL     1       5.850  -0.990  -0.551  1.00  0.00     0.150 C 
HETATM    2  C17 UNL     1       5.651  -1.943   0.517  1.00  0.00     0.062 C 
HETATM    3  N3  UNL     1       5.473  -2.710   1.368  1.00  0.00    -0.197 NA
ENDROOT
BRANCH   1   4
HETATM    4  C15 UNL     1       4.530  -0.418  -0.968  1.00  0.00    -0.015 C 
HETATM    5  C14 UNL     1       4.009   0.793  -1.005  1.00  0.00    -0.004 C 
BRANCH   5   6
HETATM    6  C13 UNL     1       2.898   1.736  -1.296  1.00  0.00     0.195 C 
BRANCH   6   7
HETATM    7  O1  UNL     1       2.476   2.431  -0.187  1.00  0.00    -0.383 OA
BRANCH   7   8
HETATM    8  C12 UNL     1       1.978   1.669   0.834  1.00  0.00     0.206 C 
BRANCH   8   9
HETATM    9  C11 UNL     1       0.762   0.894   0.403  1.00  0.00    -0.032 A 
HETATM   10  C10 UNL     1       0.924  -0.376  -0.092  1.00  0.00     0.038 A 
HETATM   11  C9  UNL     1      -0.171  -1.105  -0.495  1.00  0.00     0.031 A 
HETATM   12  N2  UNL     1      -0.629  -2.391  -0.957  1.00  0.00    -0.357 N 
HETATM   13  C20 UNL     1      -1.124  -0.148  -0.209  1.00  0.00     0.041 A 
HETATM   14  C7  UNL     1      -1.717  -2.766  -0.019  1.00  0.00     0.343 C 
HETATM   15  H12 UNL     1       0.076  -2.350  -1.718  1.00  0.00     0.162 HD
HETATM   16  C6  UNL     1      -1.497  -2.159   1.332  1.00  0.00     0.030 C 
HETATM   17  N1  UNL     1      -3.044  -2.606  -0.473  1.00  0.00     0.114 N 
HETATM   18  C5  UNL     1      -2.253  -1.112   1.600  1.00  0.00     0.009 C 
HETATM   19  C4  UNL     1      -3.115  -0.430   0.584  1.00  0.00    -0.023 C 
HETATM   20  C3  UNL     1      -3.073   0.807  -0.017  1.00  0.00    -0.040 C 
HETATM   21  C8  UNL     1      -3.875  -1.620   0.219  1.00  0.00     0.311 C 
HETATM   22  C19 UNL     1      -1.666   1.100   0.240  1.00  0.00    -0.027 A 
HETATM   23  C18 UNL     1      -0.419   1.574   0.558  1.00  0.00     0.021 A 
HETATM   24  H9  UNL     1      -3.572  -3.487  -0.633  1.00  0.00     0.319 HD
BRANCH  20  25
HETATM   25  C2  UNL     1      -3.420   1.952  -0.858  1.00  0.00     0.035 C 
HETATM   26  C1  UNL     1      -3.584   3.211  -0.029  1.00  0.00     0.010 C 
ENDBRANCH  20  25
ENDBRANCH   8   9
ENDBRANCH   7   8
ENDBRANCH   6   7
ENDBRANCH   5   6
ENDBRANCH   1   4
TORSDOF 6
