REMARK  6 active torsions:
REMARK  status: ('A' for Active; 'I' for Inactive)
REMARK    1  A    between atoms: N1_7  and  C7_8 
REMARK    2  A    between atoms: C7_8  and  C8_9 
REMARK       I    between atoms: C8_9  and  N2_11 
REMARK    3  A    between atoms: N2_11  and  C9_12 
REMARK    4  A    between atoms: C13_16  and  C14_17 
REMARK    5  A    between atoms: C14_17  and  O2_18 
REMARK    6  A    between atoms: C14_17  and  C15_19 
ROOT
HETATM    1  C9  UNL     1      -0.313   1.865   0.054  1.00  0.00     0.035 A 
HETATM    2  C10 UNL     1      -0.812   2.712   1.043  1.00  0.00     0.029 A 
HETATM    3  C11 UNL     1      -2.132   3.022   1.211  1.00  0.00     0.003 A 
HETATM    4  C12 UNL     1      -3.026   2.451   0.331  1.00  0.00     0.010 A 
HETATM    5  C13 UNL     1      -2.616   1.605  -0.673  1.00  0.00    -0.023 A 
HETATM    6  C21 UNL     1      -1.251   1.319  -0.800  1.00  0.00     0.039 A 
ENDROOT
BRANCH   1   7
HETATM    7  N2  UNL     1       1.067   1.562  -0.096  1.00  0.00    -0.326 N 
HETATM    8  C8  UNL     1       1.862   0.537   0.456  1.00  0.00     0.240 C 
HETATM    9  O1  UNL     1       1.316  -0.302   1.235  1.00  0.00    -0.271 OA
HETATM   10  H11 UNL     1       1.292   2.350  -0.749  1.00  0.00     0.169 HD
BRANCH   8  11
HETATM   11  C7  UNL     1       3.257   0.695  -0.043  1.00  0.00     0.226 C 
BRANCH  11  12
HETATM   12  N1  UNL     1       4.131  -0.319   0.479  1.00  0.00    -0.372 N 
HETATM   13  C2  UNL     1       4.682  -1.318  -0.372  1.00  0.00     0.004 A 
HETATM   14  C1  UNL     1       4.370  -1.352  -1.844  1.00  0.00     0.068 C 
HETATM   15  C3  UNL     1       5.479  -2.222   0.165  1.00  0.00     0.024 A 
HETATM   16  C4  UNL     1       5.784  -2.194   1.588  1.00  0.00    -0.001 A 
HETATM   17  C5  UNL     1       5.275  -1.266   2.394  1.00  0.00    -0.007 A 
HETATM   18  C6  UNL     1       4.374  -0.212   1.890  1.00  0.00     0.150 A 
ENDBRANCH  11  12
ENDBRANCH   8  11
ENDBRANCH   1   7
BRANCH   5  19
HETATM   19  C14 UNL     1      -3.572   0.982  -1.628  1.00  0.00     0.184 C 
BRANCH  19  20
HETATM   20  O2  UNL     1      -4.512   1.882  -2.122  1.00  0.00    -0.386 OA
HETATM   21  H16 UNL     1      -5.290   1.957  -1.521  1.00  0.00     0.210 HD
ENDBRANCH  19  20
BRANCH  19  22
HETATM   22  C15 UNL     1      -4.202  -0.186  -0.978  1.00  0.00    -0.025 A 
HETATM   23  C16 UNL     1      -5.266  -0.739  -1.697  1.00  0.00     0.010 A 
HETATM   24  C17 UNL     1      -5.907  -1.841  -1.145  1.00  0.00     0.001 A 
HETATM   25  C18 UNL     1      -5.537  -2.397   0.062  1.00  0.00     0.000 A 
HETATM   26  C19 UNL     1      -4.473  -1.832   0.767  1.00  0.00     0.001 A 
HETATM   27  C20 UNL     1      -3.827  -0.742   0.236  1.00  0.00     0.010 A 
ENDBRANCH  19  22
ENDBRANCH   5  19
TORSDOF 6
