REMARK  7 active torsions:
REMARK  status: ('A' for Active; 'I' for Inactive)
REMARK    1  A    between atoms: C2_2  and  C3_3 
REMARK    2  A    between atoms: C3_3  and  C4_4 
REMARK    3  A    between atoms: C5_5  and  C6_6 
REMARK    4  A    between atoms: C7_8  and  C8_9 
REMARK    5  A    between atoms: C10_11  and  N2_12 
REMARK    6  A    between atoms: C14_16  and  O1_17 
REMARK    7  A    between atoms: C16_19  and  O2_20 
ROOT
HETATM    1  C6  UNL     1       0.852   0.374  -0.648  1.00  0.00     0.137 C 
HETATM    2  N1  UNL     1      -0.349   0.002   0.120  1.00  0.00    -0.379 N 
HETATM    3  C7  UNL     1      -1.113  -0.828  -0.747  1.00  0.00     0.028 C 
HETATM    4  C15 UNL     1      -0.235  -1.439  -1.566  1.00  0.00     0.036 C 
HETATM    5  C16 UNL     1       1.144  -1.012  -1.244  1.00  0.00     0.169 C 
HETATM    6  H11 UNL     1      -0.429   0.370   1.083  1.00  0.00     0.160 HD
ENDROOT
BRANCH   3   7
HETATM    7  C8  UNL     1      -2.562  -0.929  -0.685  1.00  0.00     0.041 C 
HETATM    8  C9  UNL     1      -3.461  -0.356   0.090  1.00  0.00     0.002 A 
HETATM    9  C10 UNL     1      -4.848  -0.774  -0.222  1.00  0.00     0.035 A 
HETATM   10  C14 UNL     1      -3.210   0.617   1.177  1.00  0.00     0.176 A 
HETATM   11  C11 UNL     1      -5.904  -0.318   0.413  1.00  0.00     0.029 A 
HETATM   12  C12 UNL     1      -5.787   0.648   1.493  1.00  0.00     0.001 A 
HETATM   13  C13 UNL     1      -4.542   0.999   1.753  1.00  0.00     0.009 A 
BRANCH   9  14
HETATM   14  N2  UNL     1      -5.204  -1.714  -1.243  1.00  0.00    -0.399 N 
HETATM   15  H13 UNL     1      -4.931  -2.718  -1.189  1.00  0.00     0.156 HD
HETATM   16  H14 UNL     1      -5.748  -1.524  -2.112  1.00  0.00     0.156 HD
ENDBRANCH   9  14
BRANCH  10  17
HETATM   17  O1  UNL     1      -2.687   1.807   0.672  1.00  0.00    -0.387 OA
HETATM   18  H19 UNL     1      -2.740   2.465   1.430  1.00  0.00     0.210 HD
ENDBRANCH  10  17
ENDBRANCH   3   7
BRANCH   1  19
HETATM   19  C5  UNL     1       1.976   0.781   0.201  1.00  0.00    -0.003 C 
HETATM   20  C4  UNL     1       3.179   0.233   0.274  1.00  0.00    -0.029 C 
BRANCH  20  21
HETATM   21  C3  UNL     1       4.473   0.417   1.010  1.00  0.00     0.026 C 
BRANCH  21  22
HETATM   22  C2  UNL     1       5.587   0.680  -0.009  1.00  0.00    -0.001 C 
HETATM   23  C1  UNL     1       6.923   0.878   0.634  1.00  0.00     0.005 C 
ENDBRANCH  21  22
ENDBRANCH  20  21
ENDBRANCH   1  19
BRANCH   5  24
HETATM   24  O2  UNL     1       1.932  -0.888  -2.386  1.00  0.00    -0.389 OA
HETATM   25  H22 UNL     1       2.217  -1.813  -2.612  1.00  0.00     0.210 HD
ENDBRANCH   5  24
TORSDOF 7
