REMARK  5 active torsions:
REMARK  status: ('A' for Active; 'I' for Inactive)
REMARK       I    between atoms: C1_2  and  N1_3 
REMARK    1  A    between atoms: C1_2  and  C15_18 
REMARK    2  A    between atoms: N1_3  and  C2_4 
REMARK    3  A    between atoms: C5_7  and  C6_8 
REMARK    4  A    between atoms: C6_8  and  O2_9 
REMARK    5  A    between atoms: C6_8  and  C7_10 
ROOT
HETATM    1  C2  UNL     1      -0.082   1.266  -0.388  1.00  0.00     0.035 A 
HETATM    2  C3  UNL     1      -0.621   1.683   0.817  1.00  0.00     0.030 A 
HETATM    3  C4  UNL     1      -1.994   1.812   0.876  1.00  0.00     0.012 A 
HETATM    4  C5  UNL     1      -2.866   1.554  -0.184  1.00  0.00    -0.025 A 
HETATM    5  C13 UNL     1      -2.261   1.149  -1.334  1.00  0.00     0.012 A 
HETATM    6  C14 UNL     1      -0.892   0.998  -1.466  1.00  0.00     0.030 A 
ENDROOT
BRANCH   1   7
HETATM    7  N1  UNL     1       1.352   1.132  -0.447  1.00  0.00    -0.322 N 
HETATM    8  C1  UNL     1       1.891  -0.136  -0.099  1.00  0.00     0.273 C 
HETATM    9  O1  UNL     1       1.149  -1.092   0.243  1.00  0.00    -0.266 OA
HETATM   10  H1  UNL     1       2.043   1.869  -0.719  1.00  0.00     0.169 HD
BRANCH   8  11
HETATM   11  C15 UNL     1       3.319  -0.390  -0.122  1.00  0.00     0.113 A 
HETATM   12  C16 UNL     1       4.331   0.378  -0.426  1.00  0.00     0.018 A 
HETATM   13  C17 UNL     1       5.509  -0.172  -0.341  1.00  0.00    -0.014 A 
HETATM   14  C18 UNL     1       6.832   0.436  -0.618  1.00  0.00     0.069 A 
HETATM   15  C22 UNL     1       5.333  -1.554   0.092  1.00  0.00     0.040 A 
HETATM   16  C19 UNL     1       7.927  -0.532  -0.400  1.00  0.00    -0.022 A 
HETATM   17  C20 UNL     1       7.731  -1.782  -0.007  1.00  0.00    -0.001 A 
HETATM   18  C21 UNL     1       6.397  -2.325   0.252  1.00  0.00     0.030 A 
HETATM   19  N2  UNL     1       3.901  -1.654   0.222  1.00  0.00    -0.351 N 
HETATM   20  H18 UNL     1       3.435  -2.560   0.530  1.00  0.00     0.166 HD
ENDBRANCH   8  11
ENDBRANCH   1   7
BRANCH   4  21
HETATM   21  C6  UNL     1      -4.318   1.723  -0.017  1.00  0.00     0.184 C 
BRANCH  21  22
HETATM   22  O2  UNL     1      -4.808   2.401  -1.132  1.00  0.00    -0.386 OA
HETATM   23  H5  UNL     1      -4.975   1.748  -1.863  1.00  0.00     0.210 HD
ENDBRANCH  21  22
BRANCH  21  24
HETATM   24  C7  UNL     1      -5.059   0.446   0.092  1.00  0.00    -0.025 A 
HETATM   25  C8  UNL     1      -4.461  -0.785   0.348  1.00  0.00     0.010 A 
HETATM   26  C9  UNL     1      -5.244  -1.920   0.431  1.00  0.00     0.001 A 
HETATM   27  C10 UNL     1      -6.615  -1.877   0.267  1.00  0.00     0.000 A 
HETATM   28  C11 UNL     1      -7.216  -0.662   0.013  1.00  0.00     0.001 A 
HETATM   29  C12 UNL     1      -6.430   0.482  -0.070  1.00  0.00     0.010 A 
ENDBRANCH  21  24
ENDBRANCH   4  21
TORSDOF 5
