REMARK  7 active torsions:
REMARK  status: ('A' for Active; 'I' for Inactive)
REMARK    1  A    between atoms: O1_1  and  C1_2 
REMARK    2  A    between atoms: C3_5  and  C4_6 
REMARK    3  A    between atoms: C4_6  and  N2_7 
REMARK    4  A    between atoms: N2_7  and  C5_8 
REMARK    5  A    between atoms: C9_12  and  C10_13 
REMARK    6  A    between atoms: C10_13  and  O2_14 
REMARK    7  A    between atoms: C10_13  and  C11_15 
ROOT
HETATM    1  C5  UNL     1       0.059   0.762  -0.610  1.00  0.00     0.028 A 
HETATM    2  C6  UNL     1       0.270   0.469  -1.941  1.00  0.00     0.029 A 
HETATM    3  C7  UNL     1       1.536   0.389  -2.532  1.00  0.00     0.003 A 
HETATM    4  C8  UNL     1       2.627   0.620  -1.720  1.00  0.00     0.010 A 
HETATM    5  C9  UNL     1       2.440   0.916  -0.378  1.00  0.00    -0.023 A 
HETATM    6  C17 UNL     1       1.177   0.988   0.174  1.00  0.00     0.039 A 
ENDROOT
BRANCH   1   7
HETATM    7  N2  UNL     1      -1.246   0.834  -0.060  1.00  0.00    -0.386 N 
HETATM    8  H6  UNL     1      -1.360   1.057   0.944  1.00  0.00     0.160 HD
BRANCH   7   9
HETATM    9  C4  UNL     1      -2.307   0.579  -0.996  1.00  0.00     0.160 C 
BRANCH   9  10
HETATM   10  C3  UNL     1      -3.657   0.668  -0.430  1.00  0.00    -0.013 A 
HETATM   11  C2  UNL     1      -4.268  -0.270   0.370  1.00  0.00     0.049 A 
HETATM   12  N1  UNL     1      -4.192  -1.513   1.028  1.00  0.00    -0.359 N 
HETATM   13  C21 UNL     1      -5.550  -0.060   0.838  1.00  0.00     0.017 A 
HETATM   14  C1  UNL     1      -5.536  -1.343   1.545  1.00  0.00     0.255 A 
HETATM   15  H3  UNL     1      -3.485  -2.252   1.118  1.00  0.00     0.162 HD
HETATM   16  C20 UNL     1      -6.277   1.083   0.531  1.00  0.00     0.014 A 
HETATM   17  C19 UNL     1      -5.688   2.036  -0.268  1.00  0.00     0.001 A 
HETATM   18  C18 UNL     1      -4.406   1.798  -0.720  1.00  0.00     0.011 A 
BRANCH  14  19
HETATM   19  O1  UNL     1      -6.427  -2.308   1.094  1.00  0.00    -0.372 OA
HETATM   20  H1  UNL     1      -5.971  -3.190   1.119  1.00  0.00     0.212 HD
ENDBRANCH  14  19
ENDBRANCH   9  10
ENDBRANCH   7   9
ENDBRANCH   1   7
BRANCH   5  21
HETATM   21  C10 UNL     1       3.712   1.140   0.361  1.00  0.00     0.184 C 
BRANCH  21  22
HETATM   22  O2  UNL     1       4.562   1.967  -0.371  1.00  0.00    -0.386 OA
HETATM   23  H11 UNL     1       4.086   2.289  -1.178  1.00  0.00     0.210 HD
ENDBRANCH  21  22
BRANCH  21  24
HETATM   24  C11 UNL     1       4.366  -0.207   0.506  1.00  0.00    -0.025 A 
HETATM   25  C12 UNL     1       5.709  -0.125   0.857  1.00  0.00     0.010 A 
HETATM   26  C13 UNL     1       6.516  -1.233   1.045  1.00  0.00     0.001 A 
HETATM   27  C14 UNL     1       5.917  -2.477   0.863  1.00  0.00     0.000 A 
HETATM   28  C15 UNL     1       4.589  -2.565   0.516  1.00  0.00     0.001 A 
HETATM   29  C16 UNL     1       3.803  -1.446   0.334  1.00  0.00     0.010 A 
ENDBRANCH  21  24
ENDBRANCH   5  21
TORSDOF 7
