REMARK  11 active torsions:
REMARK  status: ('A' for Active; 'I' for Inactive)
REMARK    1  A    between atoms: C2_2  and  C3_3 
REMARK    2  A    between atoms: C2_2  and  C8_9 
REMARK    3  A    between atoms: C3_3  and  C4_4 
REMARK    4  A    between atoms: C4_4  and  C5_5 
REMARK    5  A    between atoms: C5_5  and  C6_6 
REMARK    6  A    between atoms: C6_6  and  C7_7 
REMARK    7  A    between atoms: C7_7  and  O1_8 
REMARK    8  A    between atoms: C10_11  and  N1_12 
REMARK       I    between atoms: N1_12  and  C11_13 
REMARK    9  A    between atoms: C11_13  and  C12_15 
REMARK   10  A    between atoms: C12_15  and  N2_16 
REMARK   11  A    between atoms: C17_21  and  C18_22 
ROOT
HETATM    1  C8  UNL     1       1.706  -1.888  -1.569  1.00  0.00     0.044 A 
HETATM    2  C9  UNL     1       0.729  -2.352  -0.591  1.00  0.00     0.008 A 
HETATM    3  C10 UNL     1       0.069  -1.258  -0.598  1.00  0.00     0.010 A 
HETATM    4  C20 UNL     1       0.947  -0.611  -1.554  1.00  0.00     0.069 A 
ENDROOT
BRANCH   3   5
HETATM    5  N1  UNL     1      -1.047  -0.546  -0.072  1.00  0.00    -0.330 N 
HETATM    6  C11 UNL     1      -1.125   0.670   0.648  1.00  0.00     0.240 C 
HETATM    7  O2  UNL     1      -0.078   1.309   0.922  1.00  0.00    -0.271 OA
HETATM    8  H12 UNL     1      -1.871  -1.133  -0.339  1.00  0.00     0.168 HD
BRANCH   6   9
HETATM    9  C12 UNL     1      -2.442   1.191   1.081  1.00  0.00     0.231 C 
BRANCH   9  10
HETATM   10  N2  UNL     1      -3.557   0.366   0.709  1.00  0.00    -0.351 N 
HETATM   11  C13 UNL     1      -3.569  -0.889   1.417  1.00  0.00     0.091 C 
HETATM   12  C14 UNL     1      -4.564  -1.754   1.157  1.00  0.00     0.018 C 
HETATM   13  C15 UNL     1      -5.538  -1.300   0.157  1.00  0.00     0.015 C 
HETATM   14  C16 UNL     1      -5.154  -0.395  -0.725  1.00  0.00    -0.001 C 
HETATM   15  C17 UNL     1      -4.569   0.679  -0.238  1.00  0.00     0.022 C 
BRANCH  15  16
HETATM   16  C18 UNL     1      -4.761   2.130  -0.486  1.00  0.00     0.054 C 
HETATM   17  C19 UNL     1      -5.163   2.788   0.800  1.00  0.00     0.011 C 
ENDBRANCH  15  16
ENDBRANCH   9  10
ENDBRANCH   6   9
ENDBRANCH   3   5
BRANCH   1  18
HETATM   18  C2  UNL     1       3.110  -1.822  -1.081  1.00  0.00    -0.080 C 
HETATM   19  C1  UNL     1       4.058  -2.169  -1.979  1.00  0.00     0.015 C 
BRANCH  18  20
HETATM   20  C3  UNL     1       3.619  -1.455   0.259  1.00  0.00     0.051 C 
BRANCH  20  21
HETATM   21  C4  UNL     1       3.282  -0.073   0.567  1.00  0.00     0.071 C 
BRANCH  21  22
HETATM   22  C5  UNL     1       4.060   0.913   0.132  1.00  0.00    -0.169 C 
BRANCH  22  23
HETATM   23  C6  UNL     1       4.942   1.684  -0.489  1.00  0.00     0.092 C 
BRANCH  23  24
HETATM   24  C7  UNL     1       6.231   1.724   0.191  1.00  0.00     0.181 C 
BRANCH  24  25
HETATM   25  O1  UNL     1       6.023   1.998   1.542  1.00  0.00    -0.400 OA
HETATM   26  H9  UNL     1       6.857   1.835   2.076  1.00  0.00     0.209 HD
ENDBRANCH  24  25
ENDBRANCH  23  24
ENDBRANCH  22  23
ENDBRANCH  21  22
ENDBRANCH  20  21
ENDBRANCH  18  20
ENDBRANCH   1  18
TORSDOF 11
