REMARK  4 active torsions:
REMARK  status: ('A' for Active; 'I' for Inactive)
REMARK    1  A    between atoms: O1_1  and  O2_2 
REMARK    2  A    between atoms: O2_2  and  N1_3 
REMARK    3  A    between atoms: N2_11  and  C8_12 
REMARK    4  A    between atoms: C9_13  and  C10_14 
ROOT
HETATM    1  N1  UNL     1       1.381   0.050   0.712  1.00  0.00    -0.057 NA
HETATM    2  C1  UNL     1       2.665  -0.436   0.190  1.00  0.00     0.165 C 
HETATM    3  C2  UNL     1       3.811  -0.151   1.028  1.00  0.00    -0.002 C 
HETATM    4  C3  UNL     1       4.815   0.581   0.530  1.00  0.00    -0.025 C 
HETATM    5  C4  UNL     1       4.885   1.148  -0.827  1.00  0.00     0.054 C 
HETATM    6  C5  UNL     1       3.633   1.030  -1.593  1.00  0.00    -0.016 C 
HETATM    7  C6  UNL     1       2.639   0.304  -1.106  1.00  0.00    -0.039 C 
HETATM    8  C7  UNL     1       1.238  -0.028  -1.571  1.00  0.00     0.182 C 
HETATM    9  N2  UNL     1       0.551  -0.442  -0.336  1.00  0.00    -0.280 N 
ENDROOT
BRANCH   9  10
HETATM   10  C8  UNL     1      -0.612  -1.145   0.074  1.00  0.00     0.055 A 
HETATM   11  C9  UNL     1      -1.883  -0.790   0.112  1.00  0.00    -0.020 A 
HETATM   12  C16 UNL     1      -2.980  -1.652   0.548  1.00  0.00     0.045 A 
HETATM   13  C17 UNL     1      -2.620  -3.002   1.044  1.00  0.00     0.032 A 
HETATM   14  C18 UNL     1      -1.180  -3.338   0.976  1.00  0.00    -0.024 A 
HETATM   15  C19 UNL     1      -0.273  -2.485   0.533  1.00  0.00     0.027 A 
BRANCH  11  16
HETATM   16  C10 UNL     1      -2.376   0.520  -0.301  1.00  0.00    -0.028 A 
HETATM   17  C11 UNL     1      -2.137   1.211  -1.469  1.00  0.00     0.012 A 
HETATM   18  C12 UNL     1      -2.626   2.453  -1.724  1.00  0.00     0.001 A 
HETATM   19  C13 UNL     1      -3.410   3.118  -0.816  1.00  0.00     0.000 A 
HETATM   20  C14 UNL     1      -3.683   2.479   0.366  1.00  0.00     0.001 A 
HETATM   21  C15 UNL     1      -3.174   1.212   0.607  1.00  0.00     0.012 A 
ENDBRANCH  11  16
ENDBRANCH   9  10
BRANCH   1  22
HETATM   22  O2  UNL     1       1.077  -0.391   1.915  1.00  0.00    -0.120 OA
BRANCH  22  23
HETATM   23  O1  UNL     1       0.585   0.647   2.596  1.00  0.00    -0.230 OA
HETATM   24  H1  UNL     1       0.468   1.453   2.019  1.00  0.00     0.255 HD
ENDBRANCH  22  23
ENDBRANCH   1  22
TORSDOF 4
