REMARK  9 active torsions:
REMARK  status: ('A' for Active; 'I' for Inactive)
REMARK    1  A    between atoms: C2_2  and  C3_3 
REMARK    2  A    between atoms: C2_2  and  C5_8 
REMARK    3  A    between atoms: C3_3  and  O1_4 
REMARK    4  A    between atoms: O1_4  and  C4_5 
REMARK       I    between atoms: C4_5  and  N1_6 
REMARK    5  A    between atoms: C11_14  and  C12_15 
REMARK    6  A    between atoms: C11_14  and  N2_21 
REMARK    7  A    between atoms: C12_15  and  C13_16 
REMARK    8  A    between atoms: C14_17  and  C15_19 
REMARK    9  A    between atoms: C16_22  and  N3_23 
ROOT
HETATM    1  C5  UNL     1       2.008   0.346   0.087  1.00  0.00    -0.002 A 
HETATM    2  C6  UNL     1       0.760   0.036  -0.248  1.00  0.00     0.018 A 
HETATM    3  C7  UNL     1       1.823  -0.753  -0.854  1.00  0.00    -0.003 A 
HETATM    4  C8  UNL     1       1.373  -1.707  -1.687  1.00  0.00     0.006 A 
HETATM    5  C9  UNL     1      -0.129  -1.682  -1.753  1.00  0.00     0.043 A 
HETATM    6  C10 UNL     1      -0.441  -0.564  -0.825  1.00  0.00    -0.043 A 
HETATM    7  C11 UNL     1      -1.698  -0.172  -0.565  1.00  0.00     0.042 C 
ENDROOT
BRANCH   7   8
HETATM    8  C12 UNL     1      -2.968  -0.724  -1.106  1.00  0.00     0.088 C 
BRANCH   8   9
HETATM    9  C13 UNL     1      -3.727   0.333  -1.848  1.00  0.00     0.001 C 
HETATM   10  C14 UNL     1      -4.952   0.867  -1.673  1.00  0.00     0.036 C 
HETATM   11 CL1  UNL     1      -5.728   2.126  -2.640  1.00  0.00    -0.087 Cl
BRANCH  10  12
HETATM   12  C15 UNL     1      -5.923   0.481  -0.588  1.00  0.00     0.273 C 
HETATM   13  F1  UNL     1      -6.175   1.627   0.163  1.00  0.00    -0.250 F 
ENDBRANCH  10  12
ENDBRANCH   8   9
ENDBRANCH   7   8
BRANCH   7  14
HETATM   14  N2  UNL     1      -1.963   0.903   0.330  1.00  0.00    -0.248 NA
HETATM   15  C16 UNL     1      -2.403   0.567   1.497  1.00  0.00     0.200 C 
BRANCH  15  16
HETATM   16  N3  UNL     1      -2.711   1.542   2.497  1.00  0.00    -0.394 N 
HETATM   17  H18 UNL     1      -2.426   1.465   3.490  1.00  0.00     0.156 HD
HETATM   18  H19 UNL     1      -3.208   2.451   2.570  1.00  0.00     0.156 HD
ENDBRANCH  15  16
ENDBRANCH   7  14
BRANCH   1  19
HETATM   19  C2  UNL     1       3.032   1.144   0.821  1.00  0.00     0.017 C 
HETATM   20  C1  UNL     1       2.283   2.138   1.682  1.00  0.00     0.013 C 
BRANCH  19  21
HETATM   21  C3  UNL     1       3.838   0.220   1.711  1.00  0.00     0.185 C 
BRANCH  21  22
HETATM   22  O1  UNL     1       4.571  -0.742   0.992  1.00  0.00    -0.304 OA
BRANCH  22  23
HETATM   23  C4  UNL     1       5.538  -0.499   0.056  1.00  0.00     0.358 C 
HETATM   24  N1  UNL     1       6.169  -1.620  -0.565  1.00  0.00    -0.346 N 
HETATM   25  H7  UNL     1       6.071  -2.404  -1.221  1.00  0.00     0.161 HD
HETATM   26  H8  UNL     1       7.159  -1.816  -0.313  1.00  0.00     0.161 HD
HETATM   27  O2  UNL     1       5.843   0.687  -0.229  1.00  0.00    -0.239 OA
ENDBRANCH  22  23
ENDBRANCH  21  22
ENDBRANCH  19  21
ENDBRANCH   1  19
TORSDOF 9
