REMARK  1 active torsions:
REMARK  status: ('A' for Active; 'I' for Inactive)
REMARK    1  A    between atoms: C1_2  and  C2_3 
ROOT
HETATM    1  C2  UNL     1      -2.446  -1.218   0.009  1.00  0.00     0.134 C 
HETATM    2  N2  UNL     1      -1.738  -2.246   0.647  1.00  0.00    -0.407 N 
HETATM    3  C3  UNL     1      -0.480  -2.667   0.217  1.00  0.00     0.142 C 
HETATM    4  C4  UNL     1       0.655  -1.800   0.576  1.00  0.00    -0.008 C 
HETATM    5  C5  UNL     1       1.673  -1.007   0.740  1.00  0.00    -0.001 C 
HETATM    6  C6  UNL     1       2.794  -0.148   1.045  1.00  0.00     0.015 C 
HETATM    7  C7  UNL     1       3.436   0.532   0.139  1.00  0.00    -0.005 C 
HETATM    8 BR1  UNL     1       4.757   1.372   1.234  1.00  0.00    -0.055 Br
HETATM    9  C8  UNL     1       3.113   0.751  -1.292  1.00  0.00     0.109 C 
HETATM   10  C9  UNL     1       1.623   0.911  -1.487  1.00  0.00     0.032 C 
HETATM   11  C10 UNL     1       1.468   1.753  -0.441  1.00  0.00     0.044 C 
HETATM   12  C11 UNL     1       0.419   2.330   0.419  1.00  0.00    -0.010 A 
HETATM   13  C12 UNL     1       0.301   3.347   1.293  1.00  0.00     0.022 A 
HETATM   14 BR2  UNL     1       1.542   4.682   1.920  1.00  0.00    -0.050 Br
HETATM   15  C13 UNL     1      -1.078   3.000   1.521  1.00  0.00     0.028 A 
HETATM   16  C14 UNL     1      -0.955   2.000   0.660  1.00  0.00    -0.042 A 
HETATM   17  C15 UNL     1      -2.000   1.071   0.292  1.00  0.00     0.061 C 
HETATM   18  C16 UNL     1      -1.681  -0.069  -0.526  1.00  0.00    -0.083 C 
HETATM   19  B1  UNL     1      -0.732  -0.665  -1.982  1.00  0.00     0.364 B 
HETATM   20  O1  UNL     1       0.670   0.432  -2.366  1.00  0.00    -0.420 OA
HETATM   21  H4  UNL     1      -2.081  -2.524   1.565  1.00  0.00     0.154 HD
ENDROOT
BRANCH   1  22
HETATM   22  C1  UNL     1      -3.226  -1.711  -1.190  1.00  0.00     0.108 C 
HETATM   23  N1  UNL     1      -3.057  -2.412  -2.241  1.00  0.00    -0.314 NA
HETATM   24  H1  UNL     1      -2.153  -2.861  -2.505  1.00  0.00     0.185 HD
ENDBRANCH   1  22
TORSDOF 1
