REMARK  4 active torsions:
REMARK  status: ('A' for Active; 'I' for Inactive)
REMARK    1  A    between atoms: C4_4  and  C5_5 
REMARK    2  A    between atoms: C8_8  and  N1_9 
REMARK    3  A    between atoms: N1_9  and  C9_10 
REMARK    4  A    between atoms: C9_10  and  N2_11 
ROOT
HETATM    1  C5  UNL     1      -1.516  -0.918   0.435  1.00  0.00     0.044 A 
HETATM    2  C6  UNL     1      -0.957  -2.278   0.622  1.00  0.00    -0.015 A 
HETATM    3  C7  UNL     1       0.305  -2.331   0.256  1.00  0.00     0.025 A 
HETATM    4  C8  UNL     1       0.706  -0.998  -0.215  1.00  0.00     0.026 A 
HETATM    5  C17 UNL     1      -0.347  -0.180  -0.111  1.00  0.00     0.012 A 
ENDROOT
BRANCH   4   6
HETATM    6  N1  UNL     1       1.854  -0.333  -0.735  1.00  0.00    -0.352 N 
HETATM    7  H9  UNL     1       2.083  -0.610  -1.735  1.00  0.00     0.162 HD
BRANCH   6   8
HETATM    8  C9  UNL     1       2.642   0.631   0.016  1.00  0.00     0.260 A 
HETATM    9  C10 UNL     1       3.260   0.128   1.263  1.00  0.00     0.108 A 
HETATM   10  C11 UNL     1       4.546   0.274   0.606  1.00  0.00    -0.043 A 
HETATM   11  C12 UNL     1       5.922   0.141   0.690  1.00  0.00     0.008 A 
HETATM   12  C16 UNL     1       3.974   0.735  -0.536  1.00  0.00     0.007 A 
HETATM   13  C13 UNL     1       6.723   0.480  -0.398  1.00  0.00     0.001 A 
HETATM   14  C14 UNL     1       6.128   0.953  -1.566  1.00  0.00     0.001 A 
HETATM   15  C15 UNL     1       4.739   1.087  -1.653  1.00  0.00     0.012 A 
BRANCH   8  16
HETATM   16  N2  UNL     1       1.899   1.872   0.160  1.00  0.00     0.112 N 
HETATM   17  H10 UNL     1       2.386   2.673  -0.304  1.00  0.00     0.316 HD
HETATM   18  H11 UNL     1       1.685   2.073   1.161  1.00  0.00     0.316 HD
ENDBRANCH   8  16
ENDBRANCH   6   8
ENDBRANCH   4   6
BRANCH   1  19
HETATM   19  C4  UNL     1      -2.661  -0.954  -0.542  1.00  0.00     0.042 C 
HETATM   20  C3  UNL     1      -3.269   0.361  -0.780  1.00  0.00    -0.011 C 
HETATM   21  C2  UNL     1      -4.425   0.973  -0.592  1.00  0.00    -0.065 C 
HETATM   22  C1  UNL     1      -4.551   2.388  -1.029  1.00  0.00     0.048 C 
HETATM   23  C21 UNL     1      -5.561   0.327   0.015  1.00  0.00     0.006 C 
HETATM   24  C20 UNL     1      -5.785  -0.907   0.385  1.00  0.00     0.000 C 
HETATM   25  C19 UNL     1      -4.871  -2.036   0.271  1.00  0.00    -0.003 C 
HETATM   26  C18 UNL     1      -3.605  -2.007  -0.111  1.00  0.00    -0.017 C 
ENDBRANCH   1  19
TORSDOF 4
