REMARK  7 active torsions:
REMARK  status: ('A' for Active; 'I' for Inactive)
REMARK    1  A    between atoms: O1_2  and  C2_3 
REMARK    2  A    between atoms: C6_7  and  N1_9 
REMARK    3  A    between atoms: N1_9  and  C7_10 
REMARK    4  A    between atoms: C7_10  and  C8_11 
REMARK    5  A    between atoms: C14_19  and  C15_20 
REMARK    6  A    between atoms: C15_20  and  N3_21 
REMARK       I    between atoms: N3_21  and  C16_22 
REMARK    7  A    between atoms: C16_22  and  C17_24 
ROOT
HETATM    1  C2  UNL     1      -1.037  -1.971   0.612  1.00  0.00     0.072 A 
HETATM    2  C3  UNL     1       0.053  -2.161  -0.147  1.00  0.00     0.015 A 
HETATM    3  C4  UNL     1       1.190  -1.227  -0.092  1.00  0.00     0.072 A 
HETATM    4  C5  UNL     1       0.967  -0.118   0.863  1.00  0.00    -0.016 A 
HETATM    5  C6  UNL     1       1.928   0.783   0.995  1.00  0.00     0.106 C 
HETATM    6 CL1  UNL     1       1.848   2.148   2.061  1.00  0.00    -0.064 Cl
HETATM    7  C13 UNL     1      -0.236   0.045   1.666  1.00  0.00     0.022 A 
HETATM    8  C14 UNL     1      -1.209  -0.858   1.541  1.00  0.00    -0.007 A 
ENDROOT
BRANCH   5   9
HETATM    9  N1  UNL     1       3.150   0.778   0.301  1.00  0.00    -0.376 N 
HETATM   10  H7  UNL     1       3.623   0.074   0.915  1.00  0.00     0.160 HD
BRANCH   9  11
HETATM   11  C7  UNL     1       3.653   1.483  -0.876  1.00  0.00     0.159 C 
BRANCH  11  12
HETATM   12  C8  UNL     1       5.044   1.070  -1.153  1.00  0.00    -0.004 C 
HETATM   13  C9  UNL     1       5.986   2.002  -1.137  1.00  0.00     0.124 C 
HETATM   14  F1  UNL     1       5.766   3.306  -0.885  1.00  0.00    -0.206 F 
HETATM   15  C10 UNL     1       7.346   1.555  -1.416  1.00  0.00     0.076 C 
HETATM   16  C11 UNL     1       7.554   0.317  -1.770  1.00  0.00     0.082 C 
HETATM   17  N2  UNL     1       6.658  -0.535  -1.963  1.00  0.00    -0.283 NA
HETATM   18  C12 UNL     1       5.299  -0.368  -1.432  1.00  0.00     0.188 C 
ENDBRANCH  11  12
ENDBRANCH   9  11
ENDBRANCH   5   9
BRANCH   8  19
HETATM   19  C15 UNL     1      -2.453  -0.727   2.343  1.00  0.00     0.164 C 
BRANCH  19  20
HETATM   20  N3  UNL     1      -3.625  -0.605   1.469  1.00  0.00    -0.355 N 
HETATM   21  C16 UNL     1      -3.580   0.513   0.611  1.00  0.00     0.242 C 
HETATM   22  O2  UNL     1      -2.705   1.417   0.475  1.00  0.00    -0.271 OA
HETATM   23  H16 UNL     1      -4.460  -1.228   1.410  1.00  0.00     0.162 HD
BRANCH  21  24
HETATM   24  C17 UNL     1      -4.719   0.756  -0.336  1.00  0.00     0.203 C 
HETATM   25  C18 UNL     1      -5.908   1.216   0.497  1.00  0.00     0.215 C 
HETATM   26  O3  UNL     1      -6.591   2.057  -0.393  1.00  0.00    -0.301 OA
HETATM   27  C19 UNL     1      -5.716   2.582  -1.332  1.00  0.00     0.361 C 
HETATM   28  O4  UNL     1      -5.983   3.448  -2.206  1.00  0.00    -0.238 OA
HETATM   29  N4  UNL     1      -4.459   1.952  -1.114  1.00  0.00    -0.322 N 
HETATM   30  H20 UNL     1      -3.549   2.341  -1.481  1.00  0.00     0.165 HD
ENDBRANCH  21  24
ENDBRANCH  19  20
ENDBRANCH   8  19
BRANCH   1  31
HETATM   31  O1  UNL     1      -2.085  -2.877   0.528  1.00  0.00    -0.356 OA
HETATM   32  C1  UNL     1      -1.976  -4.064  -0.209  1.00  0.00     0.210 C 
ENDBRANCH   1  31
TORSDOF 7
