REMARK  3 active torsions:
REMARK  status: ('A' for Active; 'I' for Inactive)
REMARK    1  A    between atoms: O1_2  and  C2_3 
REMARK    2  A    between atoms: C6_9  and  N2_10 
REMARK    3  A    between atoms: N2_10  and  C7_11 
ROOT
HETATM    1  C2  UNL     1       3.271  -0.385  -0.621  1.00  0.00     0.044 C 
HETATM    2  C3  UNL     1       2.602   0.658  -0.157  1.00  0.00     0.020 C 
HETATM    3  C4  UNL     1       1.488   1.243   0.588  1.00  0.00     0.080 A 
HETATM    4  P1  UNL     1       0.907   2.855  -0.120  1.00  0.00    -0.074 P 
HETATM    5  C5  UNL     1      -0.903   2.675  -0.213  1.00  0.00     0.122 A 
HETATM    6  N1  UNL     1      -1.576   1.637   0.145  1.00  0.00    -0.242 NA
HETATM    7  C6  UNL     1      -0.979   0.445   0.681  1.00  0.00     0.136 A 
HETATM    8  C13 UNL     1       0.330   0.411   0.814  1.00  0.00     0.017 A 
HETATM    9  C14 UNL     1       0.465  -0.963   1.356  1.00  0.00     0.122 C 
HETATM   10  N3  UNL     1       1.311  -1.945   1.498  1.00  0.00    -0.301 NA
HETATM   11  C15 UNL     1       2.706  -2.106   1.110  1.00  0.00     0.155 C 
HETATM   12  C16 UNL     1       2.799  -1.765  -0.344  1.00  0.00     0.086 C 
HETATM   13  H6  UNL     1       1.397   3.061  -1.464  1.00  0.00     0.064 HD
ENDROOT
BRANCH   7  14
HETATM   14  N2  UNL     1      -1.969  -0.517   1.012  1.00  0.00    -0.340 N 
HETATM   15  H8  UNL     1      -2.322  -1.324   1.582  1.00  0.00     0.167 HD
BRANCH  14  16
HETATM   16  C7  UNL     1      -3.213  -0.569   0.323  1.00  0.00     0.035 A 
HETATM   17  C8  UNL     1      -3.850  -1.410  -0.571  1.00  0.00     0.029 A 
HETATM   18  C9  UNL     1      -5.115  -1.201  -1.134  1.00  0.00     0.004 A 
HETATM   19  C10 UNL     1      -5.785  -0.047  -0.756  1.00  0.00     0.019 A 
HETATM   20  C11 UNL     1      -5.220   0.846   0.131  1.00  0.00     0.013 A 
HETATM   21 BR1  UNL     1      -6.283   2.354   0.511  1.00  0.00    -0.051 Br
HETATM   22  C12 UNL     1      -3.947   0.574   0.657  1.00  0.00     0.048 A 
ENDBRANCH  14  16
ENDBRANCH   7  14
BRANCH   1  23
HETATM   23  O1  UNL     1       4.395  -0.017  -1.350  1.00  0.00    -0.360 OA
HETATM   24  C1  UNL     1       5.593   0.443  -0.768  1.00  0.00     0.209 C 
ENDBRANCH   1  23
TORSDOF 3
