REMARK  4 active torsions:
REMARK  status: ('A' for Active; 'I' for Inactive)
REMARK    1  A    between atoms: C2_4  and  C3_5 
REMARK    2  A    between atoms: C3_5  and  N2_6 
REMARK    3  A    between atoms: N2_6  and  C4_7 
REMARK    4  A    between atoms: C7_10  and  N3_11 
ROOT
HETATM    1  C4  UNL     1       0.505   0.300   1.089  1.00  0.00     0.094 A 
HETATM    2  C5  UNL     1       0.015  -0.250   2.251  1.00  0.00     0.047 A 
HETATM    3  C6  UNL     1      -1.011   0.442   1.421  1.00  0.00     0.042 A 
HETATM    4  C7  UNL     1      -1.752   0.324   0.330  1.00  0.00     0.032 C 
HETATM    5  C13 UNL     1      -2.462   1.556  -0.079  1.00  0.00     0.307 C 
HETATM    6  N4  UNL     1      -1.845   2.080  -1.332  1.00  0.00     0.054 NA
HETATM    7  C14 UNL     1      -0.576   2.522  -1.259  1.00  0.00     0.829 C 
HETATM    8  O2  UNL     1       0.504   2.673  -0.265  1.00  0.00    -0.313 OA
HETATM    9  C15 UNL     1       0.253   1.754   0.781  1.00  0.00     0.075 C 
HETATM   10  C16 UNL     1      -0.381   2.758   1.435  1.00  0.00     0.009 C 
HETATM   11  C17 UNL     1      -1.180   1.736   2.216  1.00  0.00     0.049 C 
ENDROOT
BRANCH   1  12
HETATM   12  N2  UNL     1       1.278  -0.045  -0.057  1.00  0.00    -0.404 N 
HETATM   13  H5  UNL     1       0.786  -0.761  -0.609  1.00  0.00     0.154 HD
BRANCH  12  14
HETATM   14  C3  UNL     1       2.546   0.457  -0.447  1.00  0.00     0.142 C 
BRANCH  14  15
HETATM   15  C2  UNL     1       3.721   0.068   0.377  1.00  0.00     0.128 C 
HETATM   16  N1  UNL     1       3.931  -1.368   0.415  1.00  0.00    -0.329 N 
HETATM   17  C1  UNL     1       3.730  -1.828   1.741  1.00  0.00     0.361 C 
HETATM   18  H1  UNL     1       4.188  -1.911  -0.445  1.00  0.00     0.165 HD
HETATM   19  O1  UNL     1       3.589  -3.067   1.971  1.00  0.00    -0.239 OA
HETATM   20  O3  UNL     1       3.729  -0.734   2.579  1.00  0.00    -0.302 OA
HETATM   21  C18 UNL     1       3.669   0.451   1.812  1.00  0.00     0.207 C 
ENDBRANCH  14  15
ENDBRANCH  12  14
ENDBRANCH   1  12
BRANCH   4  22
HETATM   22  N3  UNL     1      -1.986  -0.603  -0.691  1.00  0.00    -0.336 N 
HETATM   23  C8  UNL     1      -2.844  -1.597  -0.099  1.00  0.00     0.095 A 
HETATM   24  C9  UNL     1      -3.290  -2.653  -0.796  1.00  0.00     0.033 A 
HETATM   25  C10 UNL     1      -2.926  -2.852  -2.207  1.00  0.00     0.240 A 
HETATM   26  F1  UNL     1      -2.344  -4.110  -2.413  1.00  0.00    -0.239 F 
HETATM   27  C11 UNL     1      -2.055  -1.818  -2.756  1.00  0.00     0.065 A 
HETATM   28 CL1  UNL     1      -1.503  -1.856  -4.409  1.00  0.00    -0.084 Cl
HETATM   29  C12 UNL     1      -1.647  -0.805  -2.031  1.00  0.00     0.118 A 
ENDBRANCH   4  22
TORSDOF 4
