REMARK  6 active torsions:
REMARK  status: ('A' for Active; 'I' for Inactive)
REMARK    1  A    between atoms: O1_2  and  C2_3 
REMARK    2  A    between atoms: C6_9  and  N3_10 
REMARK    3  A    between atoms: N3_10  and  C7_11 
REMARK    4  A    between atoms: C15_21  and  C16_22 
REMARK    5  A    between atoms: C16_22  and  N4_23 
REMARK    6  A    between atoms: C16_22  and  C17_24 
ROOT
HETATM    1  C2  UNL     1      -2.304  -1.486   0.283  1.00  0.00     0.079 A 
HETATM    2  C3  UNL     1      -1.556  -2.527  -0.219  1.00  0.00     0.070 A 
HETATM    3  C4  UNL     1      -0.197  -2.380  -0.385  1.00  0.00     0.074 A 
HETATM    4  N1  UNL     1       0.453  -3.438  -0.878  1.00  0.00    -0.241 NA
HETATM    5  C5  UNL     1       1.778  -3.359  -1.063  1.00  0.00     0.236 A 
HETATM    6  N2  UNL     1       2.431  -2.236  -0.758  1.00  0.00    -0.224 NA
HETATM    7  C6  UNL     1       1.851  -1.141  -0.263  1.00  0.00     0.142 A 
HETATM    8  C13 UNL     1       0.497  -1.231  -0.076  1.00  0.00     0.039 A 
HETATM    9  C14 UNL     1      -0.306  -0.230   0.420  1.00  0.00     0.030 A 
HETATM   10  C15 UNL     1      -1.668  -0.306   0.612  1.00  0.00     0.011 A 
ENDROOT
BRANCH  10  11
HETATM   11  C16 UNL     1      -2.520   0.758   1.141  1.00  0.00     0.278 C 
BRANCH  11  12
HETATM   12  N4  UNL     1      -3.491   0.177   2.038  1.00  0.00     0.089 N 
HETATM   13  H12 UNL     1      -3.152  -0.689   2.496  1.00  0.00     0.313 HD
HETATM   14  H13 UNL     1      -3.835   0.880   2.751  1.00  0.00     0.313 HD
ENDBRANCH  11  12
BRANCH  11  15
HETATM   15  C17 UNL     1      -3.140   1.657   0.120  1.00  0.00     0.148 C 
HETATM   16  C18 UNL     1      -2.133   2.389  -0.728  1.00  0.00     0.208 C 
HETATM   17  O2  UNL     1      -2.728   3.668  -0.968  1.00  0.00    -0.302 OA
HETATM   18  C19 UNL     1      -3.668   3.912   0.025  1.00  0.00     0.361 C 
HETATM   19  O3  UNL     1      -4.175   5.071   0.031  1.00  0.00    -0.239 OA
HETATM   20  N5  UNL     1      -3.831   2.728   0.831  1.00  0.00    -0.328 N 
HETATM   21  H17 UNL     1      -4.374   2.803   1.731  1.00  0.00     0.165 HD
ENDBRANCH  11  15
ENDBRANCH  10  11
BRANCH   1  22
HETATM   22  O1  UNL     1      -3.667  -1.664   0.438  1.00  0.00    -0.355 OA
HETATM   23  C1  UNL     1      -4.321  -2.872   0.102  1.00  0.00     0.210 C 
ENDBRANCH   1  22
BRANCH   7  24
HETATM   24  N3  UNL     1       2.511   0.047   0.065  1.00  0.00    -0.340 N 
HETATM   25  H6  UNL     1       2.008   0.865   0.459  1.00  0.00     0.167 HD
BRANCH  24  26
HETATM   26  C7  UNL     1       3.877   0.398  -0.046  1.00  0.00     0.035 A 
HETATM   27  C8  UNL     1       4.458   1.581   0.384  1.00  0.00     0.032 A 
HETATM   28  C9  UNL     1       5.791   1.878   0.252  1.00  0.00     0.046 A 
HETATM   29  C10 UNL     1       6.649   0.994  -0.331  1.00  0.00     0.138 A 
HETATM   30  F1  UNL     1       7.939   1.397  -0.406  1.00  0.00    -0.204 F 
HETATM   31  C11 UNL     1       6.132  -0.202  -0.780  1.00  0.00     0.074 A 
HETATM   32 CL1  UNL     1       7.272  -1.304  -1.521  1.00  0.00    -0.081 Cl
HETATM   33  C12 UNL     1       4.786  -0.458  -0.626  1.00  0.00     0.056 A 
ENDBRANCH  24  26
ENDBRANCH   7  24
TORSDOF 6
