REMARK  5 active torsions:
REMARK  status: ('A' for Active; 'I' for Inactive)
REMARK    1  A    between atoms: O1_2  and  C2_3 
REMARK    2  A    between atoms: C5_9  and  N3_10 
REMARK    3  A    between atoms: N3_10  and  C6_11 
REMARK    4  A    between atoms: C14_20  and  N4_21 
REMARK       I    between atoms: N4_21  and  C15_22 
REMARK    5  A    between atoms: C15_22  and  C16_24 
ROOT
HETATM    1  C2  UNL     1       1.428  -2.532  -0.495  1.00  0.00     0.201 A 
HETATM    2  P1  UNL     1      -0.113  -3.533  -0.846  1.00  0.00    -0.036 P 
HETATM    3  C3  UNL     1      -1.488  -2.340  -0.920  1.00  0.00     0.075 A 
HETATM    4  N1  UNL     1      -2.640  -2.989  -1.182  1.00  0.00    -0.241 NA
HETATM    5  C4  UNL     1      -3.779  -2.260  -1.269  1.00  0.00     0.236 A 
HETATM    6  N2  UNL     1      -3.703  -0.939  -1.093  1.00  0.00    -0.224 NA
HETATM    7  C5  UNL     1      -2.575  -0.268  -0.832  1.00  0.00     0.142 A 
HETATM    8  C12 UNL     1      -1.400  -0.982  -0.737  1.00  0.00     0.041 A 
HETATM    9  C13 UNL     1      -0.085  -0.426  -0.464  1.00  0.00     0.046 A 
HETATM   10  C14 UNL     1       1.016  -1.120  -0.381  1.00  0.00     0.046 A 
HETATM   11  H5  UNL     1      -0.331  -4.523   0.193  1.00  0.00     0.067 HD
ENDROOT
BRANCH  10  12
HETATM   12  N4  UNL     1       2.226  -0.401  -0.096  1.00  0.00    -0.326 N 
HETATM   13  C15 UNL     1       3.024  -0.598   1.039  1.00  0.00     0.247 C 
HETATM   14  O2  UNL     1       2.895  -1.388   2.010  1.00  0.00    -0.271 OA
HETATM   15  H13 UNL     1       2.526   0.327  -0.795  1.00  0.00     0.168 HD
BRANCH  13  16
HETATM   16  C16 UNL     1       4.272   0.158   1.312  1.00  0.00     0.203 C 
HETATM   17  C17 UNL     1       4.013   1.625   1.573  1.00  0.00     0.215 C 
HETATM   18  O3  UNL     1       5.091   1.970   2.421  1.00  0.00    -0.301 OA
HETATM   19  C18 UNL     1       5.427   0.888   3.231  1.00  0.00     0.361 C 
HETATM   20  O4  UNL     1       6.064   1.086   4.299  1.00  0.00    -0.238 OA
HETATM   21  N5  UNL     1       4.897  -0.238   2.543  1.00  0.00    -0.321 N 
HETATM   22  H17 UNL     1       5.013  -1.197   2.987  1.00  0.00     0.165 HD
ENDBRANCH  13  16
ENDBRANCH  10  12
BRANCH   1  23
HETATM   23  O1  UNL     1       2.291  -2.753  -1.566  1.00  0.00    -0.380 OA
HETATM   24  C1  UNL     1       3.415  -3.396  -1.119  1.00  0.00     0.202 C 
ENDBRANCH   1  23
BRANCH   7  25
HETATM   25  N3  UNL     1      -2.515   1.122  -0.649  1.00  0.00    -0.340 N 
HETATM   26  H7  UNL     1      -1.639   1.614  -0.472  1.00  0.00     0.167 HD
BRANCH  25  27
HETATM   27  C6  UNL     1      -3.559   2.081  -0.665  1.00  0.00     0.035 A 
HETATM   28  C7  UNL     1      -3.381   3.471  -0.623  1.00  0.00     0.029 A 
HETATM   29  C8  UNL     1      -4.403   4.376  -0.634  1.00  0.00     0.004 A 
HETATM   30  C9  UNL     1      -5.699   3.949  -0.688  1.00  0.00     0.019 A 
HETATM   31  C10 UNL     1      -5.952   2.597  -0.732  1.00  0.00     0.013 A 
HETATM   32 BR1  UNL     1      -7.781   2.083  -0.807  1.00  0.00    -0.051 Br
HETATM   33  C11 UNL     1      -4.891   1.736  -0.719  1.00  0.00     0.048 A 
ENDBRANCH  25  27
ENDBRANCH   7  25
TORSDOF 5
