REMARK  3 active torsions:
REMARK  status: ('A' for Active; 'I' for Inactive)
REMARK    1  A    between atoms: O1_2  and  C2_3 
REMARK    2  A    between atoms: C5_6  and  N1_7 
REMARK    3  A    between atoms: C11_15  and  N2_16 
ROOT
HETATM    1  C2  UNL     1      -2.062   1.260   0.863  1.00  0.00     0.070 C 
HETATM    2  C3  UNL     1      -0.710   1.200   1.127  1.00  0.00     0.009 C 
HETATM    3  C4  UNL     1      -0.032  -0.076   0.864  1.00  0.00     0.057 C 
HETATM    4  C5  UNL     1       0.784  -0.297  -0.325  1.00  0.00     0.130 C 
HETATM    5  C11 UNL     1       1.150  -1.758  -0.523  1.00  0.00     0.339 C 
HETATM    6  C12 UNL     1      -0.080  -2.654  -0.468  1.00  0.00     0.301 C 
HETATM    7  O2  UNL     1       0.033  -3.856  -0.725  1.00  0.00    -0.262 OA
HETATM    8  O3  UNL     1      -1.339  -2.392  -0.179  1.00  0.00    -0.242 OA
HETATM    9  C13 UNL     1      -2.532  -2.935  -0.081  1.00  0.00     0.294 C 
HETATM   10  O4  UNL     1      -2.253  -4.115  -0.418  1.00  0.00    -0.263 OA
HETATM   11  C14 UNL     1      -3.729  -2.105   0.335  1.00  0.00     0.381 C 
HETATM   12  N3  UNL     1      -3.331  -0.889   1.040  1.00  0.00     0.098 NA
HETATM   13  C15 UNL     1      -2.570  -0.008   0.270  1.00  0.00     0.334 C 
HETATM   14  H17 UNL     1      -2.973  -1.131   1.970  1.00  0.00     0.316 HD
ENDROOT
BRANCH   4  15
HETATM   15  N1  UNL     1       1.986   0.530  -0.392  1.00  0.00    -0.377 N 
HETATM   16  C6  UNL     1       2.722   0.295  -1.612  1.00  0.00     0.113 A 
HETATM   17  C7  UNL     1       3.862   0.892  -1.892  1.00  0.00     0.087 A 
HETATM   18 CL1  UNL     1       4.784   0.634  -3.358  1.00  0.00    -0.080 Cl
HETATM   19  C8  UNL     1       4.446   1.856  -0.963  1.00  0.00     0.137 A 
HETATM   20  F1  UNL     1       5.601   2.551  -1.097  1.00  0.00    -0.205 F 
HETATM   21  C9  UNL     1       3.723   2.045   0.133  1.00  0.00     0.037 A 
HETATM   22  C10 UNL     1       2.439   1.468   0.597  1.00  0.00     0.153 A 
ENDBRANCH   4  15
BRANCH   5  23
HETATM   23  N2  UNL     1       2.037  -2.299   0.463  1.00  0.00     0.094 N 
HETATM   24  H13 UNL     1       1.510  -2.691   1.276  1.00  0.00     0.314 HD
HETATM   25  H14 UNL     1       2.585  -3.089   0.057  1.00  0.00     0.314 HD
ENDBRANCH   5  23
BRANCH   1  26
HETATM   26  O1  UNL     1      -3.021   2.287   1.017  1.00  0.00    -0.359 OA
HETATM   27  C1  UNL     1      -2.859   3.549   0.432  1.00  0.00     0.209 C 
ENDBRANCH   1  26
TORSDOF 3
