REMARK  7 active torsions:
REMARK  status: ('A' for Active; 'I' for Inactive)
REMARK    1  A    between atoms: O1_2  and  C2_3 
REMARK    2  A    between atoms: C6_9  and  N3_10 
REMARK    3  A    between atoms: N3_10  and  C7_11 
REMARK    4  A    between atoms: C15_20  and  N4_21 
REMARK       I    between atoms: N4_21  and  C16_22 
REMARK    5  A    between atoms: C16_22  and  S1_24 
REMARK    6  A    between atoms: S1_24  and  C17_25 
REMARK    7  A    between atoms: C17_25  and  C18_26 
REMARK       I    between atoms: C18_26  and  N5_27 
ROOT
HETATM    1  C2  UNL     1       1.707  -1.722  -0.397  1.00  0.00     0.097 A 
HETATM    2  C3  UNL     1       0.693  -2.640  -0.561  1.00  0.00     0.071 A 
HETATM    3  C4  UNL     1      -0.623  -2.256  -0.424  1.00  0.00     0.075 A 
HETATM    4  N1  UNL     1      -1.517  -3.237  -0.606  1.00  0.00    -0.241 NA
HETATM    5  C5  UNL     1      -2.819  -2.934  -0.485  1.00  0.00     0.236 A 
HETATM    6  N2  UNL     1      -3.168  -1.678  -0.192  1.00  0.00    -0.224 NA
HETATM    7  C6  UNL     1      -2.339  -0.648   0.004  1.00  0.00     0.142 A 
HETATM    8  C13 UNL     1      -1.012  -0.976  -0.123  1.00  0.00     0.041 A 
HETATM    9  C14 UNL     1       0.031  -0.106   0.029  1.00  0.00     0.050 A 
HETATM   10  C15 UNL     1       1.366  -0.420  -0.094  1.00  0.00     0.070 A 
ENDROOT
BRANCH  10  11
HETATM   11  N4  UNL     1       2.433   0.479   0.064  1.00  0.00    -0.315 N 
HETATM   12  C16 UNL     1       2.935   1.200  -1.049  1.00  0.00     0.284 C 
HETATM   13  O2  UNL     1       2.639   1.245  -2.276  1.00  0.00    -0.260 OA
HETATM   14  H12 UNL     1       2.977   0.752   0.901  1.00  0.00     0.170 HD
BRANCH  12  15
HETATM   15  S1  UNL     1       4.234   2.388  -1.241  1.00  0.00    -0.060 SA
BRANCH  15  16
HETATM   16  C17 UNL     1       5.051   2.678   0.351  1.00  0.00     0.186 C 
BRANCH  16  17
HETATM   17  C18 UNL     1       5.785   1.479   0.837  1.00  0.00     0.225 C 
HETATM   18  N5  UNL     1       5.637   0.322   1.625  1.00  0.00    -0.369 N 
HETATM   19  H15 UNL     1       5.330  -0.633   1.340  1.00  0.00     0.159 HD
HETATM   20  H16 UNL     1       5.802   0.187   2.642  1.00  0.00     0.159 HD
HETATM   21  O3  UNL     1       6.983   1.183   0.580  1.00  0.00    -0.273 OA
ENDBRANCH  16  17
ENDBRANCH  15  16
ENDBRANCH  12  15
ENDBRANCH  10  11
BRANCH   1  22
HETATM   22  O1  UNL     1       3.030  -2.114  -0.537  1.00  0.00    -0.354 OA
HETATM   23  C1  UNL     1       3.385  -3.457  -0.850  1.00  0.00     0.210 C 
ENDBRANCH   1  22
BRANCH   7  24
HETATM   24  N3  UNL     1      -2.693   0.686   0.316  1.00  0.00    -0.340 N 
HETATM   25  H6  UNL     1      -1.993   1.415   0.438  1.00  0.00     0.167 HD
BRANCH  24  26
HETATM   26  C7  UNL     1      -3.983   1.241   0.509  1.00  0.00     0.035 A 
HETATM   27  C8  UNL     1      -4.245   2.578   0.761  1.00  0.00     0.029 A 
HETATM   28  C9  UNL     1      -5.503   3.088   0.946  1.00  0.00     0.004 A 
HETATM   29  C10 UNL     1      -6.610   2.269   0.891  1.00  0.00     0.019 A 
HETATM   30  C11 UNL     1      -6.392   0.934   0.643  1.00  0.00     0.013 A 
HETATM   31 BR1  UNL     1      -7.957  -0.154   0.576  1.00  0.00    -0.051 Br
HETATM   32  C12 UNL     1      -5.107   0.470   0.463  1.00  0.00     0.048 A 
ENDBRANCH  24  26
ENDBRANCH   7  24
TORSDOF 7
