REMARK  3 active torsions:
REMARK  status: ('A' for Active; 'I' for Inactive)
REMARK    1  A    between atoms: O1_2  and  C2_3 
REMARK    2  A    between atoms: C15_19  and  N4_20 
REMARK    3  A    between atoms: N4_20  and  C16_21 
ROOT
HETATM    1  C2  UNL     1      -0.615   1.302   0.125  1.00  0.00     0.093 C 
HETATM    2  C3  UNL     1       0.714   1.097   0.086  1.00  0.00     0.047 C 
HETATM    3  C4  UNL     1       1.686  -0.028  -0.086  1.00  0.00     0.073 A 
HETATM    4  C5  UNL     1       2.998   0.524   0.346  1.00  0.00     0.008 A 
HETATM    5  C6  UNL     1       4.113   0.678  -0.347  1.00  0.00    -0.002 A 
HETATM    6  C7  UNL     1       4.145   0.273  -1.747  1.00  0.00    -0.004 A 
HETATM    7  C8  UNL     1       3.008  -0.228  -2.200  1.00  0.00    -0.024 A 
HETATM    8  C9  UNL     1       1.712  -0.451  -1.541  1.00  0.00     0.067 A 
HETATM    9  N1  UNL     1       1.426  -1.144   0.807  1.00  0.00    -0.358 N 
HETATM   10  C10 UNL     1       0.303  -2.005   1.000  1.00  0.00     0.137 A 
HETATM   11  N2  UNL     1       0.810  -3.159   1.524  1.00  0.00    -0.224 NA
HETATM   12  C11 UNL     1      -0.004  -4.187   1.824  1.00  0.00     0.234 A 
HETATM   13  N3  UNL     1      -1.336  -4.104   1.615  1.00  0.00    -0.253 NA
HETATM   14  C12 UNL     1      -1.921  -3.005   1.103  1.00  0.00     0.133 A 
HETATM   15  C13 UNL     1      -1.061  -1.961   0.802  1.00  0.00     0.029 A 
HETATM   16  C14 UNL     1      -1.909  -0.898   0.269  1.00  0.00     0.048 C 
HETATM   17  C15 UNL     1      -1.745   0.393  -0.003  1.00  0.00     0.063 C 
HETATM   18  H11 UNL     1       2.204  -1.419   1.480  1.00  0.00     0.162 HD
ENDROOT
BRANCH   1  19
HETATM   19  O1  UNL     1      -1.033   2.631   0.324  1.00  0.00    -0.354 OA
HETATM   20  C1  UNL     1      -1.723   2.987   1.493  1.00  0.00     0.210 C 
ENDBRANCH   1  19
BRANCH  17  21
HETATM   21  N4  UNL     1      -2.909   1.059  -0.535  1.00  0.00    -0.375 N 
HETATM   22  H15 UNL     1      -3.706   0.790   0.104  1.00  0.00     0.160 HD
BRANCH  21  23
HETATM   23  C16 UNL     1      -3.121   1.926  -1.665  1.00  0.00     0.235 C 
HETATM   24 CL1  UNL     1      -4.830   2.387  -1.731  1.00  0.00    -0.109 Cl
ENDBRANCH  21  23
ENDBRANCH  17  21
TORSDOF 3
