REMARK  3 active torsions:
REMARK  status: ('A' for Active; 'I' for Inactive)
REMARK    1  A    between atoms: O1_2  and  C2_3 
REMARK    2  A    between atoms: C3_4  and  N1_5 
REMARK       I    between atoms: N1_5  and  C4_6 
REMARK    3  A    between atoms: C4_6  and  C5_8 
ROOT
HETATM    1  C2  UNL     1       0.389   1.019  -0.853  1.00  0.00     0.104 A 
HETATM    2  C3  UNL     1      -0.257   0.081  -0.016  1.00  0.00     0.069 A 
HETATM    3  C8  UNL     1       0.347  -1.178   0.147  1.00  0.00     0.041 A 
HETATM    4  C9  UNL     1       1.448  -1.196  -0.572  1.00  0.00    -0.003 A 
HETATM    5  C10 UNL     1       2.394  -2.146  -0.542  1.00  0.00     0.135 A 
HETATM    6  C11 UNL     1       2.308  -2.886   0.651  1.00  0.00     0.014 C 
HETATM    7  C12 UNL     1       2.704  -1.792   1.510  1.00  0.00    -0.001 C 
HETATM    8  C13 UNL     1       2.794  -0.387   1.340  1.00  0.00     0.001 C 
HETATM    9  C14 UNL     1       3.328   0.641   0.528  1.00  0.00     0.019 C 
HETATM   10  C15 UNL     1       3.344   1.321  -0.705  1.00  0.00     0.011 C 
HETATM   11 BR1  UNL     1       4.912   2.186  -1.331  1.00  0.00    -0.051 Br
HETATM   12  C16 UNL     1       2.346   1.529  -1.725  1.00  0.00     0.032 C 
HETATM   13  C17 UNL     1       1.517   0.438  -1.338  1.00  0.00     0.017 A 
HETATM   14  C18 UNL     1       2.324  -0.652  -1.398  1.00  0.00     0.146 A 
HETATM   15  N3  UNL     1       3.469  -0.794  -1.989  1.00  0.00    -0.259 NA
HETATM   16  C19 UNL     1       4.275  -1.852  -1.834  1.00  0.00     0.224 A 
HETATM   17  N4  UNL     1       3.581  -2.649  -0.934  1.00  0.00    -0.260 NA
ENDROOT
BRANCH   2  18
HETATM   18  N1  UNL     1      -1.451   0.339   0.645  1.00  0.00    -0.323 N 
HETATM   19  C4  UNL     1      -2.678   0.032  -0.006  1.00  0.00     0.247 C 
HETATM   20  O2  UNL     1      -2.474  -0.462  -1.165  1.00  0.00    -0.271 OA
HETATM   21  H4  UNL     1      -1.423   0.752   1.604  1.00  0.00     0.169 HD
BRANCH  19  22
HETATM   22  C5  UNL     1      -3.977   0.278   0.632  1.00  0.00     0.203 C 
HETATM   23  C6  UNL     1      -4.793  -0.972   0.876  1.00  0.00     0.215 C 
HETATM   24  O3  UNL     1      -5.762  -0.513   1.809  1.00  0.00    -0.301 OA
HETATM   25  C7  UNL     1      -5.244   0.619   2.470  1.00  0.00     0.361 C 
HETATM   26  O4  UNL     1      -5.966   1.207   3.345  1.00  0.00    -0.238 OA
HETATM   27  N2  UNL     1      -3.919   0.843   1.945  1.00  0.00    -0.321 N 
HETATM   28  H8  UNL     1      -3.236   1.333   2.575  1.00  0.00     0.165 HD
ENDBRANCH  19  22
ENDBRANCH   2  18
BRANCH   1  29
HETATM   29  O1  UNL     1      -0.103   2.295  -1.091  1.00  0.00    -0.353 OA
HETATM   30  C1  UNL     1      -0.982   2.643  -2.133  1.00  0.00     0.210 C 
ENDBRANCH   1  29
TORSDOF 3
