REMARK  1 active torsions:
REMARK  status: ('A' for Active; 'I' for Inactive)
REMARK    1  A    between atoms: N1_4  and  O2_5 
ROOT
HETATM    1  O1  UNL     1       0.194   1.230   1.135  1.00  0.00    -0.143 OA
HETATM    2  C1  UNL     1      -0.373   1.490   2.227  1.00  0.00     0.376 A 
HETATM    3  C2  UNL     1      -1.634   1.703   1.457  1.00  0.00     0.231 C 
HETATM    4  N1  UNL     1      -1.501   1.494   0.044  1.00  0.00    -0.273 N 
HETATM    5  C3  UNL     1      -1.296   0.766  -1.123  1.00  0.00     0.123 A 
HETATM    6  C4  UNL     1      -0.275   0.769  -2.024  1.00  0.00     0.051 A 
HETATM    7  C5  UNL     1      -0.373  -0.661  -1.646  1.00  0.00     0.064 A 
HETATM    8  C6  UNL     1       0.204  -1.367  -0.705  1.00  0.00     0.118 C 
HETATM    9  N2  UNL     1      -0.294  -2.731  -0.795  1.00  0.00    -0.228 NA
HETATM   10  C7  UNL     1      -1.445  -2.808  -0.099  1.00  0.00     0.236 C 
HETATM   11  N3  UNL     1      -2.475  -2.271   0.703  1.00  0.00    -0.230 NA
HETATM   12  C8  UNL     1      -3.296  -1.328   0.472  1.00  0.00     0.259 C 
HETATM   13  O3  UNL     1      -3.643  -0.360  -0.576  1.00  0.00    -0.306 OA
HETATM   14  C9  UNL     1      -2.470  -0.114  -1.344  1.00  0.00     0.082 C 
HETATM   15  C10 UNL     1      -2.709  -0.937  -2.347  1.00  0.00     0.010 C 
HETATM   16  C11 UNL     1      -1.308  -1.283  -2.667  1.00  0.00     0.051 C 
HETATM   17  N4  UNL     1       1.160  -1.169   0.304  1.00  0.00    -0.342 N 
HETATM   18  C12 UNL     1       2.112  -0.227   0.756  1.00  0.00     0.072 A 
HETATM   19  C13 UNL     1       3.313  -0.485   0.086  1.00  0.00     0.051 A 
HETATM   20  C14 UNL     1       4.482   0.269   0.276  1.00  0.00     0.013 A 
HETATM   21 BR1  UNL     1       6.119  -0.079  -0.636  1.00  0.00    -0.051 Br
HETATM   22  C15 UNL     1       4.453   1.317   1.167  1.00  0.00     0.021 A 
HETATM   23  C16 UNL     1       3.269   1.560   1.819  1.00  0.00     0.044 A 
HETATM   24  C17 UNL     1       2.131   0.822   1.630  1.00  0.00     0.197 A 
HETATM   25  N5  UNL     1       0.994   1.184   2.390  1.00  0.00     0.122 N 
HETATM   26  H10 UNL     1       1.349  -1.887   1.019  1.00  0.00     0.167 HD
HETATM   27  H14 UNL     1       1.194   1.262   3.433  1.00  0.00     0.329 HD
ENDROOT
BRANCH   4  28
HETATM   28  O2  UNL     1      -1.667   2.617  -0.699  1.00  0.00    -0.291 OA
HETATM   29  H3  UNL     1      -2.631   2.886  -0.607  1.00  0.00     0.244 HD
ENDBRANCH   4  28
TORSDOF 1
