REMARK  5 active torsions:
REMARK  status: ('A' for Active; 'I' for Inactive)
REMARK    1  A    between atoms: O1_2  and  C2_3 
REMARK    2  A    between atoms: C6_9  and  N3_10 
REMARK    3  A    between atoms: N3_10  and  C7_11 
REMARK    4  A    between atoms: C14_19  and  N4_20 
REMARK       I    between atoms: N4_20  and  C15_21 
REMARK    5  A    between atoms: C15_21  and  C16_23 
ROOT
HETATM    1  C2  UNL     1      -1.407   0.177   2.591  1.00  0.00     0.075 A 
HETATM    2  C3  UNL     1      -0.958   1.304   3.118  1.00  0.00     0.067 A 
HETATM    3  C4  UNL     1       0.235   1.735   2.406  1.00  0.00     0.073 A 
HETATM    4  N1  UNL     1       1.029   2.806   2.579  1.00  0.00    -0.241 NA
HETATM    5  C5  UNL     1       2.088   2.996   1.789  1.00  0.00     0.235 A 
HETATM    6  N2  UNL     1       2.330   2.097   0.832  1.00  0.00    -0.224 NA
HETATM    7  C6  UNL     1       1.604   1.001   0.579  1.00  0.00     0.140 A 
HETATM    8  C13 UNL     1       0.525   0.834   1.406  1.00  0.00     0.046 A 
HETATM    9  C14 UNL     1      -0.518  -0.220   1.469  1.00  0.00     0.181 A 
ENDROOT
BRANCH   9  10
HETATM   10  N4  UNL     1      -1.342  -0.296   0.295  1.00  0.00    -0.344 N 
HETATM   11  C15 UNL     1      -1.644  -1.383  -0.568  1.00  0.00     0.243 C 
HETATM   12  O2  UNL     1      -1.094  -2.464  -0.248  1.00  0.00    -0.271 OA
HETATM   13  H12 UNL     1      -1.747   0.666   0.127  1.00  0.00     0.163 HD
BRANCH  11  14
HETATM   14  C16 UNL     1      -2.534  -1.211  -1.731  1.00  0.00     0.203 C 
HETATM   15  C17 UNL     1      -3.837  -1.963  -1.613  1.00  0.00     0.215 C 
HETATM   16  O3  UNL     1      -4.779  -1.064  -1.086  1.00  0.00    -0.301 OA
HETATM   17  C18 UNL     1      -4.206   0.204  -1.033  1.00  0.00     0.361 C 
HETATM   18  O4  UNL     1      -4.642   1.250  -0.443  1.00  0.00    -0.238 OA
HETATM   19  N5  UNL     1      -2.977   0.163  -1.783  1.00  0.00    -0.322 N 
HETATM   20  H16 UNL     1      -2.531   0.968  -2.250  1.00  0.00     0.165 HD
ENDBRANCH  11  14
ENDBRANCH   9  10
BRANCH   1  21
HETATM   21  O1  UNL     1      -2.516  -0.587   2.953  1.00  0.00    -0.358 OA
HETATM   22  C1  UNL     1      -2.787  -0.988   4.282  1.00  0.00     0.209 C 
ENDBRANCH   1  21
BRANCH   7  23
HETATM   23  N3  UNL     1       1.854   0.042  -0.435  1.00  0.00    -0.340 N 
HETATM   24  H6  UNL     1       1.190  -0.771  -0.510  1.00  0.00     0.167 HD
BRANCH  23  25
HETATM   25  C7  UNL     1       2.900   0.016  -1.390  1.00  0.00     0.035 A 
HETATM   26  C8  UNL     1       3.011  -1.011  -2.334  1.00  0.00     0.029 A 
HETATM   27  C9  UNL     1       4.018  -1.051  -3.267  1.00  0.00     0.004 A 
HETATM   28  C10 UNL     1       4.975  -0.078  -3.322  1.00  0.00     0.019 A 
HETATM   29  C11 UNL     1       4.919   0.961  -2.417  1.00  0.00     0.013 A 
HETATM   30 BR1  UNL     1       6.248   2.327  -2.482  1.00  0.00    -0.051 Br
HETATM   31  C12 UNL     1       3.892   0.961  -1.500  1.00  0.00     0.048 A 
ENDBRANCH  23  25
ENDBRANCH   7  23
TORSDOF 5
