REMARK  2 active torsions:
REMARK  status: ('A' for Active; 'I' for Inactive)
REMARK    1  A    between atoms: N1_1  and  C1_2 
REMARK    2  A    between atoms: C10_15  and  C11_16 
ROOT
HETATM    1  C1  UNL     1       3.233   0.933   0.262  1.00  0.00     0.385 C 
HETATM    2  C2  UNL     1       4.212  -0.141   0.123  1.00  0.00     0.051 C 
HETATM    3  C3  UNL     1       4.038  -1.439  -0.148  1.00  0.00    -0.006 C 
HETATM    4 BR1  UNL     1       5.735  -2.405  -0.207  1.00  0.00    -0.056 Br
HETATM    5  C4  UNL     1       2.559  -1.587  -0.306  1.00  0.00     0.041 C 
HETATM    6  C5  UNL     1       1.601  -2.503  -0.565  1.00  0.00     0.019 C 
HETATM    7  C6  UNL     1       0.192  -2.075  -0.611  1.00  0.00     0.126 C 
HETATM    8  N2  UNL     1      -0.092  -0.698  -0.395  1.00  0.00    -0.384 N 
HETATM    9  C7  UNL     1      -0.076   0.302   0.580  1.00  0.00     0.111 A 
HETATM   10  C8  UNL     1       0.964   0.862   1.279  1.00  0.00     0.197 A 
HETATM   11  N3  UNL     1       0.715   1.811   2.196  1.00  0.00    -0.216 NA
HETATM   12  C9  UNL     1      -0.504   2.283   2.505  1.00  0.00     0.236 A 
HETATM   13  N4  UNL     1      -1.567   1.777   1.854  1.00  0.00    -0.239 NA
HETATM   14  C10 UNL     1      -1.344   0.804   0.910  1.00  0.00     0.099 A 
HETATM   15  O1  UNL     1       2.338   0.734   1.330  1.00  0.00    -0.292 OA
HETATM   16  H9  UNL     1      -0.446  -0.170  -1.236  1.00  0.00     0.159 HD
ENDROOT
BRANCH  14  17
HETATM   17  C11 UNL     1      -2.547   0.354   0.224  1.00  0.00    -0.004 A 
HETATM   18  C12 UNL     1      -3.332   1.418  -0.261  1.00  0.00     0.014 A 
HETATM   19  C13 UNL     1      -4.530   1.272  -0.940  1.00  0.00     0.002 A 
HETATM   20  C14 UNL     1      -4.986   0.001  -1.156  1.00  0.00     0.019 A 
HETATM   21  C15 UNL     1      -4.260  -1.073  -0.704  1.00  0.00     0.011 A 
HETATM   22 BR2  UNL     1      -4.807  -2.879  -0.954  1.00  0.00    -0.051 Br
HETATM   23  C16 UNL     1      -3.089  -0.857  -0.043  1.00  0.00     0.033 A 
ENDBRANCH  14  17
BRANCH   1  24
HETATM   24  N1  UNL     1       3.937   2.205   0.384  1.00  0.00     0.111 N 
HETATM   25  H1  UNL     1       4.525   2.258  -0.502  1.00  0.00     0.316 HD
HETATM   26  H2  UNL     1       3.194   2.938   0.226  1.00  0.00     0.316 HD
ENDBRANCH   1  24
TORSDOF 2
