REMARK  4 active torsions:
REMARK  status: ('A' for Active; 'I' for Inactive)
REMARK    1  A    between atoms: C2_4  and  O2_5 
REMARK    2  A    between atoms: O2_5  and  C3_6 
REMARK    3  A    between atoms: C3_6  and  N2_7 
REMARK    4  A    between atoms: N2_7  and  C4_8 
ROOT
HETATM    1  C4  UNL     1       0.919  -0.285  -1.033  1.00  0.00     0.005 C 
HETATM    2  C5  UNL     1       0.517   0.992  -0.735  1.00  0.00     0.005 C 
HETATM    3  C6  UNL     1      -0.379   2.068  -0.182  1.00  0.00     0.094 C 
HETATM    4  C7  UNL     1      -1.572   1.990   0.464  1.00  0.00     0.071 C 
HETATM    5  N3  UNL     1      -2.756   1.368   1.073  1.00  0.00    -0.387 N 
HETATM    6  C8  UNL     1      -3.633   0.429   0.454  1.00  0.00     0.061 A 
HETATM    7  C9  UNL     1      -4.923   0.610   0.940  1.00  0.00     0.032 A 
HETATM    8  C10 UNL     1      -6.011  -0.154   0.542  1.00  0.00     0.002 A 
HETATM    9  C11 UNL     1      -5.790  -1.145  -0.387  1.00  0.00     0.003 A 
HETATM   10  C12 UNL     1      -4.500  -1.302  -0.853  1.00  0.00     0.039 A 
HETATM   11  C13 UNL     1      -3.402  -0.557  -0.474  1.00  0.00     0.095 A 
HETATM   12  O3  UNL     1      -2.134  -0.767  -0.985  1.00  0.00    -0.348 OA
HETATM   13  C14 UNL     1      -1.194  -1.402  -0.167  1.00  0.00     0.181 C 
HETATM   14  C15 UNL     1       0.170  -1.563  -0.744  1.00  0.00     0.083 C 
HETATM   15  H9  UNL     1      -2.879   1.700   2.050  1.00  0.00     0.159 HD
ENDROOT
BRANCH   1  16
HETATM   16  N2  UNL     1       2.138  -0.566  -1.707  1.00  0.00    -0.372 N 
HETATM   17  H5  UNL     1       2.196  -0.045  -2.628  1.00  0.00     0.161 HD
BRANCH  16  18
HETATM   18  C3  UNL     1       3.039  -1.472  -1.043  1.00  0.00     0.293 C 
BRANCH  18  19
HETATM   19  O2  UNL     1       3.402  -0.932   0.169  1.00  0.00    -0.346 OA
BRANCH  19  20
HETATM   20  C2  UNL     1       4.038   0.281  -0.060  1.00  0.00     0.251 C 
HETATM   21  N1  UNL     1       5.410   0.171   0.412  1.00  0.00    -0.308 N 
HETATM   22  C1  UNL     1       5.692   1.051   1.466  1.00  0.00     0.362 C 
HETATM   23  H1  UNL     1       6.037  -0.516  -0.048  1.00  0.00     0.167 HD
HETATM   24  O1  UNL     1       6.784   1.221   2.052  1.00  0.00    -0.238 OA
HETATM   25  O4  UNL     1       4.520   1.703   1.739  1.00  0.00    -0.300 OA
HETATM   26  C16 UNL     1       3.535   1.428   0.745  1.00  0.00     0.234 C 
ENDBRANCH  19  20
ENDBRANCH  18  19
ENDBRANCH  16  18
ENDBRANCH   1  16
TORSDOF 4
