REMARK  2 active torsions:
REMARK  status: ('A' for Active; 'I' for Inactive)
REMARK    1  A    between atoms: C5_6  and  N1_7 
REMARK    2  A    between atoms: N1_7  and  C6_8 
ROOT
HETATM    1  C6  UNL     1      -2.346  -0.945   1.459  1.00  0.00     0.142 A 
HETATM    2  N2  UNL     1      -2.942  -0.711   2.647  1.00  0.00    -0.224 NA
HETATM    3  C7  UNL     1      -2.205  -0.282   3.717  1.00  0.00     0.236 A 
HETATM    4  N3  UNL     1      -0.860  -0.088   3.590  1.00  0.00    -0.241 NA
HETATM    5  C8  UNL     1      -0.305  -0.328   2.406  1.00  0.00     0.075 A 
HETATM    6  C9  UNL     1       1.052  -0.134   2.280  1.00  0.00     0.071 A 
HETATM    7  C10 UNL     1       1.734  -0.345   1.130  1.00  0.00     0.099 A 
HETATM    8  C11 UNL     1       1.086  -0.787  -0.037  1.00  0.00     0.088 A 
HETATM    9  C12 UNL     1      -0.289  -0.970   0.138  1.00  0.00     0.052 A 
HETATM   10  C13 UNL     1      -0.992  -0.760   1.295  1.00  0.00     0.041 A 
HETATM   11  N4  UNL     1       1.596  -1.082  -1.357  1.00  0.00    -0.264 N 
HETATM   12  O1  UNL     1       2.942  -0.815  -1.294  1.00  0.00    -0.278 OA
HETATM   13  C14 UNL     1       3.190   0.336  -2.032  1.00  0.00     0.227 C 
HETATM   14  C15 UNL     1       3.887   1.389  -1.219  1.00  0.00     0.196 C 
HETATM   15  O2  UNL     1       5.076   1.018  -0.742  1.00  0.00    -0.387 OA
HETATM   16  C16 UNL     1       5.239  -0.093  -0.000  1.00  0.00     0.194 C 
HETATM   17  C17 UNL     1       4.269  -0.215   1.178  1.00  0.00     0.201 C 
HETATM   18  O3  UNL     1       2.978  -0.246   0.739  1.00  0.00    -0.347 OA
HETATM   19  H8  UNL     1       0.926  -1.416  -2.071  1.00  0.00     0.194 HD
ENDROOT
BRANCH   1  20
HETATM   20  N1  UNL     1      -3.079  -1.402   0.305  1.00  0.00    -0.340 N 
HETATM   21  H4  UNL     1      -3.090  -2.409   0.115  1.00  0.00     0.167 HD
BRANCH  20  22
HETATM   22  C5  UNL     1      -3.747  -0.426  -0.504  1.00  0.00     0.035 A 
HETATM   23  C4  UNL     1      -4.340  -0.729  -1.700  1.00  0.00     0.029 A 
HETATM   24  C3  UNL     1      -5.002   0.185  -2.496  1.00  0.00     0.004 A 
HETATM   25  C2  UNL     1      -5.057   1.501  -2.026  1.00  0.00     0.019 A 
HETATM   26  C1  UNL     1      -4.467   1.859  -0.810  1.00  0.00     0.013 A 
HETATM   27 BR1  UNL     1      -4.562   3.678  -0.190  1.00  0.00    -0.051 Br
HETATM   28  C18 UNL     1      -3.825   0.884  -0.078  1.00  0.00     0.048 A 
ENDBRANCH  20  22
ENDBRANCH   1  20
TORSDOF 2
