REMARK  8 active torsions:
REMARK  status: ('A' for Active; 'I' for Inactive)
REMARK    1  A    between atoms: C2_2  and  O1_3 
REMARK    2  A    between atoms: O1_3  and  C3_4 
REMARK    3  A    between atoms: C7_10  and  N3_11 
REMARK    4  A    between atoms: N3_11  and  C8_12 
REMARK    5  A    between atoms: C8_12  and  C10_14 
REMARK    6  A    between atoms: C18_22  and  N4_23 
REMARK    7  A    between atoms: N4_23  and  C19_24 
REMARK    8  A    between atoms: C19_24  and  C20_25 
ROOT
HETATM    1  C3  UNL     1      -2.571  -1.865  -0.629  1.00  0.00     0.097 A 
HETATM    2  C4  UNL     1      -1.941  -2.505  -1.650  1.00  0.00     0.071 A 
HETATM    3  C5  UNL     1      -0.620  -2.248  -1.911  1.00  0.00     0.075 A 
HETATM    4  N1  UNL     1      -0.012  -2.890  -2.924  1.00  0.00    -0.241 NA
HETATM    5  C6  UNL     1       1.295  -2.650  -3.199  1.00  0.00     0.235 A 
HETATM    6  N2  UNL     1       1.943  -1.760  -2.430  1.00  0.00    -0.224 NA
HETATM    7  C7  UNL     1       1.394  -1.088  -1.406  1.00  0.00     0.138 A 
HETATM    8  C16 UNL     1       0.072  -1.341  -1.141  1.00  0.00     0.041 A 
HETATM    9  C17 UNL     1      -0.607  -0.728  -0.130  1.00  0.00     0.049 A 
HETATM   10  C18 UNL     1      -1.931  -0.930   0.196  1.00  0.00     0.062 A 
ENDROOT
BRANCH   7  11
HETATM   11  N3  UNL     1       2.160  -0.176  -0.661  1.00  0.00    -0.366 N 
HETATM   12  H8  UNL     1       1.850   0.398   0.145  1.00  0.00     0.161 HD
BRANCH  11  13
HETATM   13  C8  UNL     1       3.549   0.025  -1.017  1.00  0.00     0.112 C 
HETATM   14  C9  UNL     1       4.341  -1.268  -0.910  1.00  0.00     0.037 C 
BRANCH  13  15
HETATM   15  C10 UNL     1       4.206   1.060  -0.218  1.00  0.00    -0.036 A 
HETATM   16  C11 UNL     1       3.954   0.997   1.156  1.00  0.00     0.009 A 
HETATM   17  C12 UNL     1       4.523   1.923   1.999  1.00  0.00     0.001 A 
HETATM   18  C13 UNL     1       5.348   2.937   1.570  1.00  0.00     0.000 A 
HETATM   19  C14 UNL     1       5.581   2.975   0.210  1.00  0.00     0.001 A 
HETATM   20  C15 UNL     1       5.028   2.061  -0.684  1.00  0.00     0.009 A 
ENDBRANCH  13  15
ENDBRANCH  11  13
ENDBRANCH   7  11
BRANCH  10  21
HETATM   21  N4  UNL     1      -2.645  -0.311   1.253  1.00  0.00    -0.386 N 
HETATM   22  H19 UNL     1      -3.659  -0.618   1.363  1.00  0.00     0.159 HD
BRANCH  21  23
HETATM   23  C19 UNL     1      -2.179   0.682   2.198  1.00  0.00     0.147 C 
BRANCH  23  24
HETATM   24  C20 UNL     1      -1.956   1.967   1.478  1.00  0.00     0.128 C 
HETATM   25  C21 UNL     1      -1.458   3.073   2.386  1.00  0.00     0.207 C 
HETATM   26  O2  UNL     1      -2.038   4.249   1.868  1.00  0.00    -0.302 OA
HETATM   27  C22 UNL     1      -3.315   3.975   1.364  1.00  0.00     0.361 C 
HETATM   28  O3  UNL     1      -4.442   4.498   1.102  1.00  0.00    -0.239 OA
HETATM   29  N5  UNL     1      -3.234   2.578   1.056  1.00  0.00    -0.329 N 
HETATM   30  H25 UNL     1      -3.886   1.884   0.592  1.00  0.00     0.165 HD
ENDBRANCH  23  24
ENDBRANCH  21  23
ENDBRANCH  10  21
BRANCH   1  31
HETATM   31  O1  UNL     1      -3.923  -2.166  -0.407  1.00  0.00    -0.349 OA
BRANCH  31  32
HETATM   32  C2  UNL     1      -4.649  -3.086  -1.178  1.00  0.00     0.171 C 
HETATM   33  C1  UNL     1      -6.097  -3.203  -0.698  1.00  0.00     0.034 C 
ENDBRANCH  31  32
ENDBRANCH   1  31
TORSDOF 8
