REMARK  7 active torsions:
REMARK  status: ('A' for Active; 'I' for Inactive)
REMARK    1  A    between atoms: C2_2  and  O1_3 
REMARK    2  A    between atoms: O1_3  and  C3_4 
REMARK    3  A    between atoms: C7_10  and  N3_11 
REMARK    4  A    between atoms: N3_11  and  C8_12 
REMARK    5  A    between atoms: C8_12  and  C10_14 
REMARK    6  A    between atoms: C18_22  and  N4_23 
REMARK       I    between atoms: N4_23  and  C19_24 
REMARK    7  A    between atoms: C19_24  and  C20_26 
ROOT
HETATM    1  C3  UNL     1      -2.575   1.864   0.038  1.00  0.00     0.097 A 
HETATM    2  C4  UNL     1      -1.829   3.013  -0.100  1.00  0.00     0.071 A 
HETATM    3  C5  UNL     1      -0.469   2.994  -0.165  1.00  0.00     0.075 A 
HETATM    4  N1  UNL     1       0.242   4.129  -0.301  1.00  0.00    -0.241 NA
HETATM    5  C6  UNL     1       1.592   4.058  -0.361  1.00  0.00     0.235 A 
HETATM    6  N2  UNL     1       2.189   2.856  -0.284  1.00  0.00    -0.224 NA
HETATM    7  C7  UNL     1       1.532   1.693  -0.149  1.00  0.00     0.138 A 
HETATM    8  C16 UNL     1       0.158   1.769  -0.088  1.00  0.00     0.041 A 
HETATM    9  C17 UNL     1      -0.605   0.631   0.050  1.00  0.00     0.050 A 
HETATM   10  C18 UNL     1      -1.978   0.625   0.119  1.00  0.00     0.069 A 
ENDROOT
BRANCH  10  11
HETATM   11  N4  UNL     1      -2.837  -0.478   0.258  1.00  0.00    -0.323 N 
HETATM   12  C19 UNL     1      -2.527  -1.857   0.365  1.00  0.00     0.247 C 
HETATM   13  O2  UNL     1      -1.325  -2.216   0.338  1.00  0.00    -0.271 OA
HETATM   14  H19 UNL     1      -3.873  -0.361   0.299  1.00  0.00     0.169 HD
BRANCH  12  15
HETATM   15  C20 UNL     1      -3.479  -2.963   0.510  1.00  0.00     0.203 C 
HETATM   16  C21 UNL     1      -4.331  -3.190  -0.699  1.00  0.00     0.215 C 
HETATM   17  O3  UNL     1      -3.548  -4.063  -1.484  1.00  0.00    -0.301 OA
HETATM   18  C22 UNL     1      -3.009  -5.001  -0.586  1.00  0.00     0.361 C 
HETATM   19  O4  UNL     1      -2.779  -6.249  -0.670  1.00  0.00    -0.238 OA
HETATM   20  N5  UNL     1      -2.733  -4.204   0.583  1.00  0.00    -0.321 N 
HETATM   21  H23 UNL     1      -2.070  -4.551   1.335  1.00  0.00     0.165 HD
ENDBRANCH  12  15
ENDBRANCH  10  11
BRANCH   1  22
HETATM   22  O1  UNL     1      -3.941   1.992   0.094  1.00  0.00    -0.349 OA
BRANCH  22  23
HETATM   23  C2  UNL     1      -4.681   3.173   0.028  1.00  0.00     0.171 C 
HETATM   24  C1  UNL     1      -4.399   4.170   1.105  1.00  0.00     0.034 C 
ENDBRANCH  22  23
ENDBRANCH   1  22
BRANCH   7  25
HETATM   25  N3  UNL     1       2.257   0.476  -0.076  1.00  0.00    -0.366 N 
HETATM   26  H8  UNL     1       1.876  -0.483   0.028  1.00  0.00     0.161 HD
BRANCH  25  27
HETATM   27  C8  UNL     1       3.707   0.513  -0.151  1.00  0.00     0.112 C 
HETATM   28  C9  UNL     1       4.088   1.110  -1.465  1.00  0.00     0.037 C 
BRANCH  27  29
HETATM   29  C10 UNL     1       4.341  -0.798   0.098  1.00  0.00    -0.036 A 
HETATM   30  C11 UNL     1       3.890  -1.965  -0.466  1.00  0.00     0.009 A 
HETATM   31  C12 UNL     1       4.553  -3.160  -0.172  1.00  0.00     0.001 A 
HETATM   32  C13 UNL     1       5.663  -3.216   0.677  1.00  0.00     0.000 A 
HETATM   33  C14 UNL     1       6.136  -2.051   1.257  1.00  0.00     0.001 A 
HETATM   34  C15 UNL     1       5.452  -0.910   0.938  1.00  0.00     0.009 A 
ENDBRANCH  27  29
ENDBRANCH  25  27
ENDBRANCH   7  25
TORSDOF 7
