REMARK  4 active torsions:
REMARK  status: ('A' for Active; 'I' for Inactive)
REMARK    1  A    between atoms: C2_2  and  O1_3 
REMARK    2  A    between atoms: O1_3  and  C3_4 
REMARK    3  A    between atoms: C9_12  and  N3_13 
REMARK       I    between atoms: N3_13  and  C10_14 
REMARK    4  A    between atoms: C10_14  and  C11_16 
ROOT
HETATM    1  C3  UNL     1      -0.467   1.990  -0.507  1.00  0.00     0.222 C 
HETATM    2  C4  UNL     1       0.106   2.032  -1.899  1.00  0.00     0.188 C 
HETATM    3  N1  UNL     1       1.183   2.587  -1.855  1.00  0.00    -0.434 NA
HETATM    4  C5  UNL     1       2.283   3.185  -1.639  1.00  0.00     0.445 C 
HETATM    5  N2  UNL     1       3.032   2.309  -1.071  1.00  0.00    -0.262 NA
HETATM    6  C6  UNL     1       2.545   1.003  -0.826  1.00  0.00     0.057 C 
HETATM    7  C7  UNL     1       1.256   0.723  -0.579  1.00  0.00     0.092 C 
HETATM    8  C8  UNL     1       0.142  -0.231  -0.274  1.00  0.00    -0.039 C 
HETATM    9  C9  UNL     1      -0.919   0.605  -0.236  1.00  0.00     0.050 C 
HETATM   10  C14 UNL     1       0.208  -1.720  -0.028  1.00  0.00     0.064 C 
HETATM   11  C15 UNL     1       0.695  -2.485  -1.224  1.00  0.00    -0.026 C 
HETATM   12  C16 UNL     1       1.821  -3.248  -1.405  1.00  0.00    -0.025 C 
HETATM   13  C17 UNL     1       2.835  -3.449  -0.353  1.00  0.00     0.077 C 
HETATM   14  C18 UNL     1       4.200  -3.063  -0.637  1.00  0.00     0.013 C 
HETATM   15 CL1  UNL     1       5.421  -4.149  -1.276  1.00  0.00    -0.089 Cl
HETATM   16  C19 UNL     1       4.854  -1.875  -0.507  1.00  0.00     0.012 C 
HETATM   17  C20 UNL     1       3.914  -0.839   0.023  1.00  0.00     0.149 C 
HETATM   18  N5  UNL     1       3.735   0.208  -0.977  1.00  0.00    -0.381 N 
HETATM   19  H24 UNL     1       4.463   0.292  -1.713  1.00  0.00     0.160 HD
ENDROOT
BRANCH   9  20
HETATM   20  N3  UNL     1      -2.156  -0.028   0.021  1.00  0.00    -0.326 N 
HETATM   21  C10 UNL     1      -3.475   0.553   0.129  1.00  0.00     0.247 C 
HETATM   22  O2  UNL     1      -3.581   1.789  -0.030  1.00  0.00    -0.271 OA
HETATM   23  H10 UNL     1      -2.291  -1.041   0.171  1.00  0.00     0.168 HD
BRANCH  21  24
HETATM   24  C11 UNL     1      -4.713  -0.216   0.415  1.00  0.00     0.203 C 
HETATM   25  C12 UNL     1      -5.297   0.114   1.760  1.00  0.00     0.215 C 
HETATM   26  O3  UNL     1      -5.800  -1.135   2.192  1.00  0.00    -0.301 OA
HETATM   27  C13 UNL     1      -4.819  -2.064   1.867  1.00  0.00     0.361 C 
HETATM   28  O4  UNL     1      -4.283  -3.086   2.413  1.00  0.00    -0.238 OA
HETATM   29  N4  UNL     1      -4.400  -1.636   0.569  1.00  0.00    -0.321 N 
HETATM   30  H14 UNL     1      -3.941  -2.224  -0.166  1.00  0.00     0.165 HD
ENDBRANCH  21  24
ENDBRANCH   9  20
BRANCH   1  31
HETATM   31  O1  UNL     1      -1.389   2.975  -0.274  1.00  0.00    -0.374 OA
BRANCH  31  32
HETATM   32  C2  UNL     1      -0.956   3.852   0.742  1.00  0.00     0.165 C 
HETATM   33  C1  UNL     1      -0.735   3.091   2.041  1.00  0.00     0.033 C 
ENDBRANCH  31  32
ENDBRANCH   1  31
TORSDOF 4
