REMARK  8 active torsions:
REMARK  status: ('A' for Active; 'I' for Inactive)
REMARK    1  A    between atoms: C2_2  and  O1_3 
REMARK    2  A    between atoms: O1_3  and  C3_4 
REMARK    3  A    between atoms: C8_12  and  C9_13 
REMARK    4  A    between atoms: C9_13  and  C10_14 
REMARK    5  A    between atoms: C16_20  and  N4_21 
REMARK       I    between atoms: N4_21  and  C17_22 
REMARK    6  A    between atoms: C17_22  and  C18_24 
REMARK    7  A    between atoms: C18_24  and  N5_25 
REMARK       I    between atoms: N5_25  and  C19_26 
REMARK    8  A    between atoms: C19_26  and  O4_28 
ROOT
HETATM    1  C3  UNL     1       0.906  -1.855  -0.908  1.00  0.00     0.081 C 
HETATM    2  C4  UNL     1      -0.210  -2.410  -0.396  1.00  0.00     0.122 C 
HETATM    3  C5  UNL     1      -0.604  -3.826  -0.628  1.00  0.00     0.205 C 
HETATM    4  N1  UNL     1      -1.660  -4.521  -0.207  1.00  0.00    -0.304 NA
HETATM    5  C6  UNL     1      -2.532  -3.729   0.595  1.00  0.00     0.163 C 
HETATM    6  N2  UNL     1      -3.273  -2.817   1.215  1.00  0.00    -0.272 NA
HETATM    7  C7  UNL     1      -2.990  -1.490   0.547  1.00  0.00     0.270 C 
HETATM    8  N3  UNL     1      -1.635  -1.210   0.903  1.00  0.00    -0.373 N 
HETATM    9  C8  UNL     1      -0.564  -0.368   0.534  1.00  0.00     0.040 C 
HETATM   10  C16 UNL     1       0.485  -0.619  -0.203  1.00  0.00     0.087 C 
HETATM   11  H11 UNL     1      -1.107  -1.688   1.695  1.00  0.00     0.161 HD
ENDROOT
BRANCH  10  12
HETATM   12  N4  UNL     1       1.628   0.175  -0.314  1.00  0.00    -0.322 N 
HETATM   13  C17 UNL     1       2.240   1.310   0.125  1.00  0.00     0.240 C 
HETATM   14  O2  UNL     1       1.919   2.163   0.941  1.00  0.00    -0.271 OA
HETATM   15  H19 UNL     1       2.487   0.046  -0.931  1.00  0.00     0.169 HD
BRANCH  13  16
HETATM   16  C18 UNL     1       3.362   2.256   0.111  1.00  0.00     0.228 C 
BRANCH  16  17
HETATM   17  N5  UNL     1       3.160   3.356   1.042  1.00  0.00    -0.329 N 
HETATM   18  C19 UNL     1       4.295   4.231   0.967  1.00  0.00     0.250 C 
HETATM   19  O3  UNL     1       5.254   3.973   0.174  1.00  0.00    -0.632 OA
HETATM   20  H22 UNL     1       2.491   3.751   1.752  1.00  0.00     0.165 HD
BRANCH  18  21
HETATM   21  O4  UNL     1       4.469   5.376   1.694  1.00  0.00    -0.760 OA
HETATM   22  H23 UNL     1       5.372   5.871   1.746  1.00  0.00     0.169 HD
ENDBRANCH  18  21
ENDBRANCH  16  17
ENDBRANCH  13  16
ENDBRANCH  10  12
BRANCH   1  23
HETATM   23  O1  UNL     1       2.063  -2.037  -1.700  1.00  0.00    -0.353 OA
BRANCH  23  24
HETATM   24  C2  UNL     1       2.040  -2.640  -2.969  1.00  0.00     0.171 C 
HETATM   25  C1  UNL     1       3.495  -2.723  -3.390  1.00  0.00     0.034 C 
ENDBRANCH  23  24
ENDBRANCH   1  23
BRANCH   9  26
HETATM   26  C9  UNL     1      -0.830   1.007   0.990  1.00  0.00     0.097 C 
BRANCH  26  27
HETATM   27  C10 UNL     1      -2.291   1.389   0.956  1.00  0.00    -0.052 A 
HETATM   28  C11 UNL     1      -2.847   1.450   2.240  1.00  0.00     0.007 A 
HETATM   29  C12 UNL     1      -4.195   1.795   2.300  1.00  0.00     0.001 A 
HETATM   30  C13 UNL     1      -4.882   2.050   1.110  1.00  0.00     0.000 A 
HETATM   31  C14 UNL     1      -4.252   1.966  -0.124  1.00  0.00     0.001 A 
HETATM   32  C15 UNL     1      -2.915   1.628  -0.242  1.00  0.00     0.007 A 
ENDBRANCH  26  27
ENDBRANCH   9  26
TORSDOF 8
