REMARK  2 active torsions:
REMARK  status: ('A' for Active; 'I' for Inactive)
REMARK    1  A    between atoms: C2_3  and  N1_4 
REMARK    2  A    between atoms: N1_4  and  C3_5 
ROOT
HETATM    1  C3  UNL     1       1.129  -0.744   1.125  1.00  0.00     0.160 A 
HETATM    2  N2  UNL     1       1.569  -0.549   2.383  1.00  0.00    -0.222 NA
HETATM    3  C4  UNL     1       0.865   0.218   3.246  1.00  0.00     0.238 A 
HETATM    4  N3  UNL     1      -0.295   0.796   2.832  1.00  0.00    -0.215 NA
HETATM    5  C5  UNL     1      -0.747   0.607   1.568  1.00  0.00     0.202 A 
HETATM    6  C6  UNL     1      -0.038  -0.179   0.666  1.00  0.00     0.129 A 
HETATM    7  N4  UNL     1      -0.274  -0.541  -0.678  1.00  0.00    -0.379 N 
HETATM    8  C7  UNL     1      -1.536  -0.636  -1.350  1.00  0.00     0.161 C 
HETATM    9  C8  UNL     1      -2.657   0.043  -0.734  1.00  0.00    -0.005 A 
HETATM   10  C9  UNL     1      -3.762  -0.244  -1.524  1.00  0.00     0.030 A 
HETATM   11  C10 UNL     1      -5.016   0.258  -1.211  1.00  0.00     0.011 A 
HETATM   12 BR2  UNL     1      -6.606  -0.063  -2.210  1.00  0.00    -0.051 Br
HETATM   13  C11 UNL     1      -5.197   1.055  -0.108  1.00  0.00     0.022 A 
HETATM   14  C12 UNL     1      -4.130   1.380   0.726  1.00  0.00     0.039 A 
HETATM   15  C13 UNL     1      -2.903   0.845   0.356  1.00  0.00     0.086 A 
HETATM   16  O1  UNL     1      -1.940   1.249   1.271  1.00  0.00    -0.289 OA
HETATM   17  H3  UNL     1       0.621  -0.746  -1.159  1.00  0.00     0.160 HD
ENDROOT
BRANCH   1  18
HETATM   18  N1  UNL     1       1.978  -1.578   0.349  1.00  0.00    -0.338 N 
HETATM   19  H1  UNL     1       1.933  -2.590   0.100  1.00  0.00     0.167 HD
BRANCH  18  20
HETATM   20  C2  UNL     1       3.088  -0.810  -0.162  1.00  0.00     0.047 A 
HETATM   21  C1  UNL     1       3.533  -0.584  -1.381  1.00  0.00     0.019 A 
HETATM   22 BR1  UNL     1       3.073  -1.063  -3.166  1.00  0.00    -0.053 Br
HETATM   23  C16 UNL     1       4.720   0.277  -1.371  1.00  0.00     0.076 A 
HETATM   24  C15 UNL     1       4.960   0.565   0.055  1.00  0.00    -0.019 A 
HETATM   25  C14 UNL     1       4.010  -0.071   0.720  1.00  0.00     0.027 A 
ENDBRANCH  18  20
ENDBRANCH   1  18
TORSDOF 2
