REMARK  7 active torsions:
REMARK  status: ('A' for Active; 'I' for Inactive)
REMARK    1  A    between atoms: C2_2  and  O1_3 
REMARK    2  A    between atoms: O1_3  and  C3_4 
REMARK    3  A    between atoms: C8_9  and  N1_10 
REMARK       I    between atoms: N1_10  and  C9_11 
REMARK    4  A    between atoms: C9_11  and  C10_13 
REMARK    5  A    between atoms: C10_13  and  N2_14 
REMARK       I    between atoms: N2_14  and  C11_15 
REMARK    6  A    between atoms: C11_15  and  O4_17 
REMARK    7  A    between atoms: C14_21  and  C15_22 
ROOT
HETATM    1  C3  UNL     1       1.283  -1.115  -1.082  1.00  0.00     0.097 A 
HETATM    2  C4  UNL     1       0.128  -1.621  -1.638  1.00  0.00     0.071 A 
HETATM    3  C5  UNL     1      -1.099  -1.528  -1.018  1.00  0.00     0.068 A 
HETATM    4  C6  UNL     1      -1.188  -0.913   0.198  1.00  0.00     0.010 A 
HETATM    5  C7  UNL     1      -0.024  -0.413   0.738  1.00  0.00     0.047 A 
HETATM    6  C8  UNL     1       1.209  -0.492   0.141  1.00  0.00     0.069 A 
HETATM    7  C13 UNL     1      -2.210  -0.750   0.983  1.00  0.00     0.097 C 
HETATM    8  N3  UNL     1      -3.570  -1.018   1.108  1.00  0.00    -0.388 N 
HETATM    9  C14 UNL     1      -4.930  -1.002   0.665  1.00  0.00     0.133 C 
HETATM   10  C21 UNL     1      -5.253  -2.156  -0.204  1.00  0.00     0.175 C 
HETATM   11  N4  UNL     1      -4.537  -2.237  -1.432  1.00  0.00    -0.296 NA
HETATM   12  C22 UNL     1      -3.275  -2.147  -1.494  1.00  0.00     0.269 C 
HETATM   13  N5  UNL     1      -1.926  -2.081  -1.829  1.00  0.00    -0.258 NA
HETATM   14  H16 UNL     1      -3.703  -1.584   2.021  1.00  0.00     0.159 HD
ENDROOT
BRANCH   6  15
HETATM   15  N1  UNL     1       2.401   0.048   0.753  1.00  0.00    -0.323 N 
HETATM   16  C9  UNL     1       2.825   1.387   0.530  1.00  0.00     0.240 C 
HETATM   17  O2  UNL     1       2.270   2.281  -0.196  1.00  0.00    -0.271 OA
HETATM   18  H8  UNL     1       3.002  -0.496   1.378  1.00  0.00     0.169 HD
BRANCH  16  19
HETATM   19  C10 UNL     1       4.016   2.014   1.107  1.00  0.00     0.227 C 
BRANCH  19  20
HETATM   20  N2  UNL     1       4.782   1.123   1.975  1.00  0.00    -0.328 N 
HETATM   21  C11 UNL     1       5.930   1.777   2.513  1.00  0.00     0.360 C 
HETATM   22  O3  UNL     1       6.318   2.971   2.321  1.00  0.00    -0.239 OA
HETATM   23  H11 UNL     1       4.709   0.135   2.306  1.00  0.00     0.165 HD
BRANCH  21  24
HETATM   24  O4  UNL     1       6.832   1.188   3.360  1.00  0.00    -0.309 OA
HETATM   25  C12 UNL     1       7.976   1.821   3.903  1.00  0.00     0.215 C 
ENDBRANCH  21  24
ENDBRANCH  19  20
ENDBRANCH  16  19
ENDBRANCH   6  15
BRANCH   1  26
HETATM   26  O1  UNL     1       2.551  -1.178  -1.658  1.00  0.00    -0.349 OA
BRANCH  26  27
HETATM   27  C2  UNL     1       2.660  -1.812  -2.919  1.00  0.00     0.171 C 
HETATM   28  C1  UNL     1       4.066  -1.819  -3.449  1.00  0.00     0.034 C 
ENDBRANCH  26  27
ENDBRANCH   1  26
BRANCH   9  29
HETATM   29  C15 UNL     1      -5.224   0.295  -0.066  1.00  0.00    -0.034 A 
HETATM   30  C16 UNL     1      -5.913   0.354  -1.264  1.00  0.00     0.009 A 
HETATM   31  C17 UNL     1      -6.122   1.602  -1.834  1.00  0.00     0.001 A 
HETATM   32  C18 UNL     1      -5.662   2.760  -1.234  1.00  0.00     0.000 A 
HETATM   33  C19 UNL     1      -4.977   2.641  -0.033  1.00  0.00     0.001 A 
HETATM   34  C20 UNL     1      -4.739   1.428   0.581  1.00  0.00     0.009 A 
ENDBRANCH   9  29
TORSDOF 7
