REMARK  7 active torsions:
REMARK  status: ('A' for Active; 'I' for Inactive)
REMARK    1  A    between atoms: C2_2  and  O1_3 
REMARK    2  A    between atoms: O1_3  and  C3_4 
REMARK    3  A    between atoms: C7_10  and  N3_11 
REMARK    4  A    between atoms: N3_11  and  C8_12 
REMARK    5  A    between atoms: C10_14  and  O2_15 
REMARK    6  A    between atoms: O2_15  and  C11_16 
REMARK    7  A    between atoms: C11_16  and  C12_17 
ROOT
HETATM    1  C3  UNL     1      -3.503   0.159   1.279  1.00  0.00     0.151 C 
HETATM    2  C4  UNL     1      -2.344  -0.291   1.734  1.00  0.00     0.089 C 
HETATM    3  C5  UNL     1      -1.116  -0.632   0.976  1.00  0.00     0.076 A 
HETATM    4  N1  UNL     1      -0.287  -1.313   1.785  1.00  0.00    -0.241 NA
HETATM    5  C6  UNL     1       0.895  -1.734   1.319  1.00  0.00     0.236 A 
HETATM    6  N2  UNL     1       1.274  -1.495   0.059  1.00  0.00    -0.224 NA
HETATM    7  C7  UNL     1       0.524  -0.827  -0.827  1.00  0.00     0.139 A 
HETATM    8  C17 UNL     1      -0.669  -0.410  -0.328  1.00  0.00     0.038 A 
HETATM    9  C18 UNL     1      -1.300   0.303  -1.432  1.00  0.00     0.018 C 
HETATM   10  C19 UNL     1      -2.561   0.500  -1.823  1.00  0.00     0.028 C 
HETATM   11  C20 UNL     1      -3.904   0.098  -1.332  1.00  0.00     0.257 C 
HETATM   12  O3  UNL     1      -4.882   0.619  -2.164  1.00  0.00    -0.362 OA
HETATM   13  C21 UNL     1      -5.094   1.967  -1.977  1.00  0.00     0.180 C 
HETATM   14  C22 UNL     1      -5.803   2.256  -0.666  1.00  0.00     0.129 C 
HETATM   15  C23 UNL     1      -5.104   1.478   0.386  1.00  0.00     0.230 C 
HETATM   16  O4  UNL     1      -5.376   1.657   1.613  1.00  0.00    -0.273 OA
HETATM   17  N5  UNL     1      -4.099   0.502   0.035  1.00  0.00    -0.267 N 
ENDROOT
BRANCH   7  18
HETATM   18  N3  UNL     1       0.974  -0.637  -2.158  1.00  0.00    -0.351 N 
HETATM   19  H8  UNL     1       0.624  -0.226  -3.037  1.00  0.00     0.163 HD
BRANCH  18  20
HETATM   20  C8  UNL     1       2.292  -1.156  -2.469  1.00  0.00     0.212 A 
HETATM   21  C9  UNL     1       3.393  -0.580  -1.645  1.00  0.00     0.113 A 
HETATM   22  C10 UNL     1       4.201  -1.583  -0.902  1.00  0.00     0.051 A 
HETATM   23  C15 UNL     1       4.073  -2.901  -0.861  1.00  0.00     0.051 A 
HETATM   24  C16 UNL     1       2.963  -3.353  -1.688  1.00  0.00     0.115 A 
HETATM   25  N4  UNL     1       2.197  -2.610  -2.378  1.00  0.00    -0.276 NA
BRANCH  22  26
HETATM   26  O2  UNL     1       5.240  -1.003  -0.147  1.00  0.00    -0.355 OA
BRANCH  26  27
HETATM   27  C11 UNL     1       5.860   0.214  -0.496  1.00  0.00     0.181 C 
BRANCH  27  28
HETATM   28  C12 UNL     1       6.908   0.498   0.531  1.00  0.00     0.030 A 
HETATM   29  C13 UNL     1       7.755   1.708   0.465  1.00  0.00     0.029 A 
HETATM   30  C14 UNL     1       6.634   1.693   1.436  1.00  0.00     0.089 A 
HETATM   31 CL1  UNL     1       5.219   2.718   1.040  1.00  0.00    -0.125 Cl
ENDBRANCH  27  28
ENDBRANCH  26  27
ENDBRANCH  22  26
ENDBRANCH  18  20
ENDBRANCH   7  18
BRANCH   1  32
HETATM   32  O1  UNL     1      -4.366   0.339   2.353  1.00  0.00    -0.336 OA
BRANCH  32  33
HETATM   33  C2  UNL     1      -5.050  -0.739   2.965  1.00  0.00     0.173 C 
HETATM   34  C1  UNL     1      -5.921  -0.345   4.111  1.00  0.00     0.034 C 
ENDBRANCH  32  33
ENDBRANCH   1  32
TORSDOF 7
