REMARK  6 active torsions:
REMARK  status: ('A' for Active; 'I' for Inactive)
REMARK    1  A    between atoms: C2_2  and  O1_3 
REMARK    2  A    between atoms: O1_3  and  C3_4 
REMARK    3  A    between atoms: N3_11  and  C8_12 
REMARK    4  A    between atoms: C11_15  and  O2_16 
REMARK    5  A    between atoms: O2_16  and  C12_17 
REMARK    6  A    between atoms: C12_17  and  C13_18 
ROOT
HETATM    1  C3  UNL     1      -4.225   0.254   0.263  1.00  0.00     0.049 C 
HETATM    2  C4  UNL     1      -5.022  -0.618   0.905  1.00  0.00     0.051 C 
HETATM    3  C5  UNL     1      -4.707  -2.032   1.180  1.00  0.00     0.120 C 
HETATM    4  N1  UNL     1      -4.268  -3.241   1.339  1.00  0.00    -0.254 NA
HETATM    5  C6  UNL     1      -2.969  -3.691   0.894  1.00  0.00     0.228 C 
HETATM    6  N2  UNL     1      -2.237  -2.699   1.031  1.00  0.00    -0.263 NA
HETATM    7  C7  UNL     1      -0.898  -2.359   0.819  1.00  0.00     0.274 C 
HETATM    8  N3  UNL     1      -0.683  -0.922   0.621  1.00  0.00    -0.362 N 
HETATM    9  C18 UNL     1      -1.905  -0.167   0.845  1.00  0.00     0.131 C 
HETATM   10  C19 UNL     1      -2.946  -0.412  -0.175  1.00  0.00     0.084 C 
ENDROOT
BRANCH   8  11
HETATM   11  C8  UNL     1       0.596  -0.408   0.273  1.00  0.00     0.031 A 
HETATM   12  C9  UNL     1       0.877   0.921   0.049  1.00  0.00     0.032 A 
HETATM   13  C10 UNL     1       2.153   1.339  -0.291  1.00  0.00     0.039 A 
HETATM   14  C11 UNL     1       3.201   0.460  -0.421  1.00  0.00     0.068 A 
HETATM   15  C16 UNL     1       2.895  -0.875  -0.190  1.00  0.00     0.039 A 
HETATM   16  C17 UNL     1       1.631  -1.308   0.149  1.00  0.00     0.032 A 
BRANCH  14  17
HETATM   17  O2  UNL     1       4.468   0.912  -0.762  1.00  0.00    -0.351 OA
BRANCH  17  18
HETATM   18  C12 UNL     1       5.480  -0.081  -0.870  1.00  0.00     0.180 C 
BRANCH  18  19
HETATM   19  C13 UNL     1       6.760   0.635  -1.253  1.00  0.00     0.010 A 
HETATM   20  C14 UNL     1       7.282   1.699  -0.294  1.00  0.00     0.007 A 
HETATM   21  C15 UNL     1       7.924   0.352  -0.352  1.00  0.00     0.007 A 
ENDBRANCH  18  19
ENDBRANCH  17  18
ENDBRANCH  14  17
ENDBRANCH   8  11
BRANCH   1  22
HETATM   22  O1  UNL     1      -4.836   1.479   0.202  1.00  0.00    -0.356 OA
BRANCH  22  23
HETATM   23  C2  UNL     1      -5.288   2.131  -0.950  1.00  0.00     0.170 C 
HETATM   24  C1  UNL     1      -5.933   3.457  -0.523  1.00  0.00     0.034 C 
ENDBRANCH  22  23
ENDBRANCH   1  22
TORSDOF 6
