REMARK  2 active torsions:
REMARK  status: ('A' for Active; 'I' for Inactive)
REMARK    1  A    between atoms: C3_3  and  N1_5 
REMARK    2  A    between atoms: N1_5  and  C5_7 
ROOT
HETATM    1  C5  UNL     1       1.814  -0.679  -0.851  1.00  0.00     0.145 A 
HETATM    2  N2  UNL     1       2.356  -1.888  -1.088  1.00  0.00    -0.223 NA
HETATM    3  C6  UNL     1       1.527  -2.971  -1.085  1.00  0.00     0.236 A 
HETATM    4  N3  UNL     1       0.208  -2.899  -0.860  1.00  0.00    -0.241 NA
HETATM    5  C7  UNL     1      -0.332  -1.695  -0.624  1.00  0.00     0.072 A 
HETATM    6  C8  UNL     1       0.464  -0.572  -0.616  1.00  0.00     0.040 A 
HETATM    7  C9  UNL     1       0.125   0.824  -0.381  1.00  0.00     0.039 C 
HETATM    8  C10 UNL     1      -1.035   1.195   0.135  1.00  0.00     0.050 C 
HETATM    9 CL1  UNL     1      -1.174   2.928   0.307  1.00  0.00    -0.086 Cl
HETATM   10  C11 UNL     1      -2.277   0.591   0.624  1.00  0.00     0.294 C 
HETATM   11  N4  UNL     1      -3.438   1.365   0.236  1.00  0.00     0.102 N 
HETATM   12  C12 UNL     1      -4.474   0.420  -0.154  1.00  0.00     0.221 C 
HETATM   13  C13 UNL     1      -5.802   0.755   0.481  1.00  0.00     0.043 C 
HETATM   14  C14 UNL     1      -3.970  -0.948   0.296  1.00  0.00     0.072 C 
HETATM   15  C15 UNL     1      -2.505  -0.781   0.113  1.00  0.00    -0.038 C 
HETATM   16  C16 UNL     1      -1.765  -1.739  -0.397  1.00  0.00     0.038 C 
HETATM   17  H11 UNL     1      -3.805   1.814   1.124  1.00  0.00     0.317 HD
ENDROOT
BRANCH   1  18
HETATM   18  N1  UNL     1       2.757   0.380  -0.891  1.00  0.00    -0.312 N 
HETATM   19  C4  UNL     1       3.096   1.583  -1.623  1.00  0.00     0.160 C 
BRANCH  18  20
HETATM   20  C3  UNL     1       3.723   0.230   0.146  1.00  0.00     0.187 C 
HETATM   21  C2  UNL     1       5.043   0.242  -0.010  1.00  0.00     0.030 C 
HETATM   22  C1  UNL     1       5.836   0.066   1.225  1.00  0.00     0.041 C 
HETATM   23  F1  UNL     1       3.314   0.056   1.426  1.00  0.00    -0.186 F 
ENDBRANCH  18  20
ENDBRANCH   1  18
TORSDOF 2
