REMARK  8 active torsions:
REMARK  status: ('A' for Active; 'I' for Inactive)
REMARK    1  A    between atoms: C4_6  and  C5_7 
REMARK    2  A    between atoms: C5_7  and  C6_8 
REMARK    3  A    between atoms: C6_8  and  C7_9 
REMARK    4  A    between atoms: C7_9  and  O2_10 
REMARK    5  A    between atoms: O2_10  and  C8_11 
REMARK    6  A    between atoms: C8_11  and  C9_12 
REMARK    7  A    between atoms: C12_15  and  N2_16 
REMARK       I    between atoms: N3_17  and  C13_18 
REMARK    8  A    between atoms: C13_18  and  C14_20 
ROOT
HETATM    1  C9  UNL     1      -1.540  -0.726  -0.595  1.00  0.00     0.044 A 
HETATM    2  C10 UNL     1      -0.970  -0.592  -1.863  1.00  0.00     0.031 A 
HETATM    3  C11 UNL     1      -1.787   0.149  -2.687  1.00  0.00     0.044 A 
HETATM    4  C12 UNL     1      -2.874   0.469  -1.901  1.00  0.00     0.087 A 
HETATM    5  N3  UNL     1      -2.701  -0.058  -0.679  1.00  0.00    -0.273 N 
HETATM    6  C13 UNL     1      -3.545   0.008   0.441  1.00  0.00     0.254 C 
HETATM    7  O3  UNL     1      -3.363  -0.486   1.581  1.00  0.00    -0.270 OA
ENDROOT
BRANCH   1   8
HETATM    8  C8  UNL     1      -0.821  -1.488   0.443  1.00  0.00     0.225 C 
BRANCH   8   9
HETATM    9  O2  UNL     1       0.033  -0.739   1.215  1.00  0.00    -0.385 OA
BRANCH   9  10
HETATM   10  C7  UNL     1       1.037  -0.114   0.479  1.00  0.00     0.168 C 
BRANCH  10  11
HETATM   11  C6  UNL     1       1.956   0.701   1.360  1.00  0.00     0.030 C 
BRANCH  11  12
HETATM   12  C5  UNL     1       3.002   1.342   0.481  1.00  0.00     0.066 C 
BRANCH  12  13
HETATM   13  C4  UNL     1       3.840   0.366  -0.273  1.00  0.00     0.358 C 
HETATM   14  N1  UNL     1       4.569  -0.541   0.587  1.00  0.00     0.115 N 
HETATM   15  C1  UNL     1       5.419   0.209   1.489  1.00  0.00     0.313 C 
HETATM   16  C2  UNL     1       5.460  -1.161  -0.379  1.00  0.00     0.301 C 
HETATM   17  C3  UNL     1       5.752   0.031  -1.285  1.00  0.00     0.201 C 
HETATM   18  O1  UNL     1       4.899   1.040  -0.881  1.00  0.00    -0.355 OA
ENDBRANCH  12  13
ENDBRANCH  11  12
ENDBRANCH  10  11
ENDBRANCH   9  10
ENDBRANCH   8   9
ENDBRANCH   1   8
BRANCH   4  19
HETATM   19  N2  UNL     1      -3.976   1.239  -2.359  1.00  0.00    -0.288 NA
HETATM   20  H19 UNL     1      -4.866   1.038  -2.862  1.00  0.00     0.125 HD
HETATM   21  H20 UNL     1      -4.767   0.775  -2.851  1.00  0.00     0.125 HD
ENDBRANCH   4  19
BRANCH   6  22
HETATM   22  C14 UNL     1      -4.855   0.637   0.663  1.00  0.00     0.204 C 
HETATM   23  C15 UNL     1      -5.973  -0.167  -0.015  1.00  0.00     0.215 C 
HETATM   24  O4  UNL     1      -6.076  -1.272   0.877  1.00  0.00    -0.301 OA
HETATM   25  C16 UNL     1      -6.112  -0.726   2.152  1.00  0.00     0.361 C 
HETATM   26  O5  UNL     1      -6.737  -1.064   3.203  1.00  0.00    -0.238 OA
HETATM   27  N4  UNL     1      -5.235   0.392   2.066  1.00  0.00    -0.321 N 
HETATM   28  H24 UNL     1      -4.898   0.974   2.890  1.00  0.00     0.165 HD
ENDBRANCH   6  22
TORSDOF 8
