REMARK  5 active torsions:
REMARK  status: ('A' for Active; 'I' for Inactive)
REMARK    1  A    between atoms: N1_1  and  C1_2 
REMARK    2  A    between atoms: C1_2  and  C2_3 
REMARK    3  A    between atoms: C2_3  and  N2_4 
REMARK    4  A    between atoms: N2_4  and  C3_5 
REMARK    5  A    between atoms: C7_10  and  N3_11 
ROOT
HETATM    1  C2  UNL     1       0.645  -1.247   0.968  1.00  0.00     0.051 C 
HETATM    2  C9  UNL     1      -0.403  -0.638   0.421  1.00  0.00     0.026 A 
HETATM    3  C10 UNL     1      -1.427  -0.010  -0.402  1.00  0.00     0.007 A 
HETATM    4  C11 UNL     1      -1.668  -0.027   0.883  1.00  0.00     0.050 A 
HETATM    5  N4  UNL     1      -2.797   0.482   1.624  1.00  0.00    -0.389 N 
HETATM    6  C12 UNL     1      -4.171   0.770   1.471  1.00  0.00     0.122 C 
HETATM    7  C13 UNL     1      -4.780   0.452   0.154  1.00  0.00     0.046 C 
HETATM    8  C14 UNL     1      -4.128   1.130  -1.009  1.00  0.00     0.169 C 
HETATM    9  O1  UNL     1      -3.416   0.151  -1.701  1.00  0.00    -0.386 OA
HETATM   10  C15 UNL     1      -2.080   0.467  -1.623  1.00  0.00     0.209 C 
HETATM   11  H11 UNL     1      -2.532   0.730   2.623  1.00  0.00     0.159 HD
ENDROOT
BRANCH   1  12
HETATM   12  C1  UNL     1       0.923  -1.554   2.394  1.00  0.00     0.324 C 
BRANCH  12  13
HETATM   13  N1  UNL     1       1.058  -2.979   2.538  1.00  0.00     0.083 N 
HETATM   14  H1  UNL     1       1.373  -3.275   3.487  1.00  0.00     0.313 HD
HETATM   15  H2  UNL     1       0.224  -3.530   2.302  1.00  0.00     0.313 HD
ENDBRANCH  12  13
ENDBRANCH   1  12
BRANCH   1  16
HETATM   16  N2  UNL     1       1.549  -1.601  -0.065  1.00  0.00    -0.357 N 
HETATM   17  H5  UNL     1       1.662  -2.507  -0.586  1.00  0.00     0.166 HD
BRANCH  16  18
HETATM   18  C3  UNL     1       2.458  -0.558  -0.467  1.00  0.00     0.034 A 
HETATM   19  C4  UNL     1       2.426   0.690   0.137  1.00  0.00     0.032 A 
HETATM   20  C5  UNL     1       3.247   1.739  -0.179  1.00  0.00     0.047 A 
HETATM   21  C6  UNL     1       4.181   1.550  -1.172  1.00  0.00     0.142 A 
HETATM   22  F1  UNL     1       4.995   2.603  -1.479  1.00  0.00    -0.204 F 
HETATM   23  C7  UNL     1       4.246   0.314  -1.803  1.00  0.00     0.067 A 
HETATM   24  C8  UNL     1       3.411  -0.727  -1.470  1.00  0.00     0.061 A 
BRANCH  23  25
HETATM   25  N3  UNL     1       5.230   0.184  -2.819  1.00  0.00    -0.397 N 
HETATM   26  H8  UNL     1       5.155   0.928  -3.557  1.00  0.00     0.156 HD
HETATM   27  H9  UNL     1       6.035  -0.358  -3.165  1.00  0.00     0.156 HD
ENDBRANCH  23  25
ENDBRANCH  16  18
ENDBRANCH   1  16
TORSDOF 5
