REMARK  5 active torsions:
REMARK  status: ('A' for Active; 'I' for Inactive)
REMARK    1  A    between atoms: C1_2  and  N1_3 
REMARK    2  A    between atoms: N1_3  and  C2_4 
REMARK    3  A    between atoms: C2_4  and  C3_5 
REMARK    4  A    between atoms: C11_18  and  N5_19 
REMARK    5  A    between atoms: N5_19  and  C12_20 
ROOT
HETATM    1  C3  UNL     1      -0.470  -1.605   0.162  1.00  0.00     0.194 C 
HETATM    2  O2  UNL     1       0.260  -2.058  -0.886  1.00  0.00    -0.379 OA
HETATM    3  C4  UNL     1       1.556  -2.348  -0.855  1.00  0.00     0.170 C 
HETATM    4  C5  UNL     1       2.544  -1.243  -0.652  1.00  0.00     0.056 C 
HETATM    5  C6  UNL     1       2.563  -0.463   0.577  1.00  0.00     0.275 C 
HETATM    6  N2  UNL     1       3.496   0.656   0.630  1.00  0.00     0.098 N 
HETATM    7  C7  UNL     1       4.563   0.614  -0.323  1.00  0.00     0.299 C 
HETATM    8  C8  UNL     1       4.923   2.036  -0.805  1.00  0.00     0.207 C 
HETATM    9  O3  UNL     1       3.787   2.695  -1.353  1.00  0.00    -0.335 OA
HETATM   10  C9  UNL     1       2.556   2.162  -0.920  1.00  0.00     0.171 C 
HETATM   11  N3  UNL     1       1.523   1.954  -1.658  1.00  0.00    -0.209 NA
HETATM   12  C10 UNL     1       0.290   1.420  -1.236  1.00  0.00     0.297 C 
HETATM   13  N4  UNL     1      -0.486   0.631  -0.824  1.00  0.00    -0.413 NA
HETATM   14  C11 UNL     1      -1.248  -0.370  -0.347  1.00  0.00     0.294 C 
HETATM   15  C18 UNL     1       2.752   1.914   0.544  1.00  0.00     0.358 C 
ENDROOT
BRANCH  14  16
HETATM   16  N5  UNL     1      -2.216   0.035   0.688  1.00  0.00    -0.356 N 
HETATM   17  H18 UNL     1      -2.355  -0.297   1.675  1.00  0.00     0.163 HD
BRANCH  16  18
HETATM   18  C12 UNL     1      -3.155   1.065   0.361  1.00  0.00     0.032 A 
HETATM   19  C13 UNL     1      -3.208   1.673  -0.877  1.00  0.00     0.032 A 
HETATM   20  C14 UNL     1      -4.097   2.671  -1.214  1.00  0.00     0.046 A 
HETATM   21  C15 UNL     1      -5.006   3.112  -0.275  1.00  0.00     0.138 A 
HETATM   22  F1  UNL     1      -5.886   4.089  -0.586  1.00  0.00    -0.204 F 
HETATM   23  C16 UNL     1      -5.003   2.545   0.979  1.00  0.00     0.074 A 
HETATM   24 CL1  UNL     1      -6.145   3.092   2.176  1.00  0.00    -0.081 Cl
HETATM   25  C17 UNL     1      -4.096   1.567   1.236  1.00  0.00     0.056 A 
ENDBRANCH  16  18
ENDBRANCH  14  16
BRANCH   1  26
HETATM   26  C2  UNL     1      -1.635  -2.608   0.441  1.00  0.00     0.158 C 
BRANCH  26  27
HETATM   27  N1  UNL     1      -1.101  -3.927   0.743  1.00  0.00    -0.366 N 
HETATM   28  H2  UNL     1      -0.127  -4.304   0.803  1.00  0.00     0.161 HD
BRANCH  27  29
HETATM   29  C1  UNL     1      -2.114  -4.900   1.010  1.00  0.00     0.348 C 
HETATM   30  O1  UNL     1      -3.345  -4.649   0.988  1.00  0.00    -0.284 OA
ENDBRANCH  27  29
ENDBRANCH  26  27
ENDBRANCH   1  26
TORSDOF 5
