REMARK  5 active torsions:
REMARK  status: ('A' for Active; 'I' for Inactive)
REMARK    1  A    between atoms: C2_4  and  C3_5 
REMARK       I    between atoms: C3_5  and  N2_7 
REMARK    2  A    between atoms: N2_7  and  C4_8 
REMARK    3  A    between atoms: C9_13  and  C10_14 
REMARK    4  A    between atoms: C10_14  and  N3_16 
REMARK    5  A    between atoms: N3_16  and  C11_17 
ROOT
HETATM    1  C4  UNL     1       1.655  -0.095  -0.767  1.00  0.00     0.017 A 
HETATM    2  C5  UNL     1       0.259  -0.046  -0.786  1.00  0.00     0.058 A 
HETATM    3  C6  UNL     1       0.923  -1.240  -1.295  1.00  0.00     0.037 A 
HETATM    4  C7  UNL     1       0.045  -2.137  -1.717  1.00  0.00     0.012 A 
HETATM    5  C8  UNL     1      -1.352  -1.658  -1.546  1.00  0.00     0.045 A 
HETATM    6  C9  UNL     1      -1.146  -0.315  -0.945  1.00  0.00    -0.024 A 
ENDROOT
BRANCH   1   7
HETATM    7  N2  UNL     1       2.855   0.592  -0.429  1.00  0.00    -0.331 N 
HETATM    8  C3  UNL     1       4.088  -0.057  -0.680  1.00  0.00     0.246 C 
HETATM    9  O2  UNL     1       4.070  -1.210  -1.191  1.00  0.00    -0.271 OA
HETATM   10  H3  UNL     1       2.802   1.545  -0.008  1.00  0.00     0.168 HD
BRANCH   8  11
HETATM   11  C2  UNL     1       5.317   0.680  -0.318  1.00  0.00     0.203 C 
HETATM   12  N1  UNL     1       6.478  -0.109  -0.634  1.00  0.00    -0.321 N 
HETATM   13  C1  UNL     1       7.487   0.350   0.272  1.00  0.00     0.361 C 
HETATM   14  H1  UNL     1       6.627  -0.868  -1.352  1.00  0.00     0.165 HD
HETATM   15  O1  UNL     1       8.711   0.132   0.255  1.00  0.00    -0.238 OA
HETATM   16  O3  UNL     1       6.870   1.134   1.251  1.00  0.00    -0.301 OA
HETATM   17  C17 UNL     1       5.477   0.890   1.171  1.00  0.00     0.215 C 
ENDBRANCH   8  11
ENDBRANCH   1   7
BRANCH   6  18
HETATM   18  C10 UNL     1      -2.108   0.533  -0.598  1.00  0.00     0.107 C 
HETATM   19 CL1  UNL     1      -1.686   2.084   0.100  1.00  0.00    -0.064 Cl
BRANCH  18  20
HETATM   20  N3  UNL     1      -3.457   0.199  -0.785  1.00  0.00    -0.347 N 
HETATM   21  H7  UNL     1      -3.806  -0.032  -1.739  1.00  0.00     0.167 HD
BRANCH  20  22
HETATM   22  C11 UNL     1      -4.471   0.131   0.231  1.00  0.00     0.033 A 
HETATM   23  C12 UNL     1      -5.107   1.344   0.392  1.00  0.00     0.032 A 
HETATM   24  C13 UNL     1      -6.124   1.511   1.322  1.00  0.00     0.044 A 
HETATM   25  C14 UNL     1      -6.472   0.397   2.085  1.00  0.00     0.116 A 
HETATM   26  F1  UNL     1      -7.462   0.466   3.027  1.00  0.00    -0.206 F 
HETATM   27  C15 UNL     1      -5.835  -0.811   1.922  1.00  0.00     0.044 A 
HETATM   28  C16 UNL     1      -4.830  -0.949   0.992  1.00  0.00     0.032 A 
ENDBRANCH  20  22
ENDBRANCH  18  20
ENDBRANCH   6  18
TORSDOF 5
