REMARK  2 active torsions:
REMARK  status: ('A' for Active; 'I' for Inactive)
REMARK    1  A    between atoms: C7_8  and  N1_9 
REMARK    2  A    between atoms: N1_9  and  C8_10 
ROOT
HETATM    1  C8  UNL     1       0.735   0.729   0.207  1.00  0.00     0.160 A 
HETATM    2  N2  UNL     1       1.439   1.417   1.121  1.00  0.00    -0.222 NA
HETATM    3  C9  UNL     1       0.846   1.690   2.317  1.00  0.00     0.238 A 
HETATM    4  N3  UNL     1      -0.413   1.258   2.524  1.00  0.00    -0.215 NA
HETATM    5  C10 UNL     1      -1.117   0.567   1.602  1.00  0.00     0.202 A 
HETATM    6  C11 UNL     1      -0.533   0.288   0.400  1.00  0.00     0.129 A 
HETATM    7  N4  UNL     1      -1.041  -0.404  -0.712  1.00  0.00    -0.379 N 
HETATM    8  C12 UNL     1      -2.361  -0.753  -1.092  1.00  0.00     0.161 C 
HETATM    9  C13 UNL     1      -3.402  -0.511  -0.113  1.00  0.00    -0.005 A 
HETATM   10  C14 UNL     1      -4.606  -0.789  -0.773  1.00  0.00     0.030 A 
HETATM   11  C15 UNL     1      -5.846  -0.665  -0.134  1.00  0.00     0.011 A 
HETATM   12 BR2  UNL     1      -7.476  -1.044  -1.036  1.00  0.00    -0.051 Br
HETATM   13  C16 UNL     1      -5.870  -0.256   1.183  1.00  0.00     0.022 A 
HETATM   14  C17 UNL     1      -4.701   0.026   1.865  1.00  0.00     0.039 A 
HETATM   15  C18 UNL     1      -3.481  -0.110   1.193  1.00  0.00     0.086 A 
HETATM   16  O1  UNL     1      -2.403   0.206   1.999  1.00  0.00    -0.289 OA
HETATM   17  H7  UNL     1      -0.298  -0.715  -1.375  1.00  0.00     0.160 HD
ENDROOT
BRANCH   1  18
HETATM   18  N1  UNL     1       1.457   0.509  -0.993  1.00  0.00    -0.348 N 
HETATM   19  H5  UNL     1       1.473   0.103  -1.946  1.00  0.00     0.167 HD
BRANCH  18  20
HETATM   20  C7  UNL     1       2.787   0.978  -1.180  1.00  0.00     0.102 C 
HETATM   21  C6  UNL     1       3.860   0.263  -0.888  1.00  0.00    -0.003 C 
HETATM   22  C1  UNL     1       5.261   0.629  -1.033  1.00  0.00     0.022 C 
HETATM   23  C5  UNL     1       3.620  -1.089  -0.340  1.00  0.00     0.026 C 
HETATM   24 BR1  UNL     1       5.578   2.379  -1.743  1.00  0.00    -0.050 Br
HETATM   25  C2  UNL     1       6.216  -0.217  -0.688  1.00  0.00     0.021 C 
HETATM   26  C3  UNL     1       5.866  -1.525  -0.158  1.00  0.00     0.013 C 
HETATM   27  C4  UNL     1       4.625  -1.705   0.211  1.00  0.00    -0.025 C 
ENDBRANCH  18  20
ENDBRANCH   1  18
TORSDOF 2
