REMARK  5 active torsions:
REMARK  status: ('A' for Active; 'I' for Inactive)
REMARK    1  A    between atoms: O1_2  and  C2_3 
REMARK    2  A    between atoms: C6_7  and  N1_8 
REMARK    3  A    between atoms: C8_11  and  N3_12 
REMARK    4  A    between atoms: N3_12  and  C9_13 
REMARK    5  A    between atoms: C9_13  and  C10_14 
ROOT
HETATM    1  C2  UNL     1      -1.774  -1.053   0.064  1.00  0.00     0.117 C 
HETATM    2  C3  UNL     1      -2.849  -0.455  -0.446  1.00  0.00     0.051 C 
HETATM    3  C4  UNL     1      -2.618   0.392  -1.756  1.00  0.00     0.102 C 
HETATM    4  C5  UNL     1      -2.542   1.340  -0.496  1.00  0.00    -0.007 C 
HETATM    5  C6  UNL     1      -3.887   1.509  -0.235  1.00  0.00     0.105 C 
HETATM    6  N2  UNL     1      -4.246  -0.009  -0.183  1.00  0.00    -0.343 N 
HETATM    7  C7  UNL     1      -1.185   1.494   0.052  1.00  0.00     0.043 C 
HETATM    8  C8  UNL     1      -0.836   0.157   0.322  1.00  0.00     0.064 C 
HETATM    9  H8  UNL     1      -4.990  -0.673  -0.013  1.00  0.00     0.167 HD
ENDROOT
BRANCH   8  10
HETATM   10  N3  UNL     1       0.426  -0.148   0.865  1.00  0.00    -0.386 N 
HETATM   11  H10 UNL     1       0.836  -0.220   1.822  1.00  0.00     0.159 HD
BRANCH  10  12
HETATM   12  C9  UNL     1       1.328  -0.416  -0.235  1.00  0.00     0.147 C 
BRANCH  12  13
HETATM   13  C10 UNL     1       2.725  -0.759   0.198  1.00  0.00     0.133 C 
HETATM   14  N4  UNL     1       3.598  -1.021  -0.949  1.00  0.00    -0.328 N 
HETATM   15  C11 UNL     1       4.904  -0.698  -0.480  1.00  0.00     0.361 C 
HETATM   16  H14 UNL     1       3.371  -1.364  -1.906  1.00  0.00     0.165 HD
HETATM   17  O2  UNL     1       6.032  -0.863  -1.056  1.00  0.00    -0.238 OA
HETATM   18  O3  UNL     1       4.804  -0.133   0.787  1.00  0.00    -0.297 OA
HETATM   19  C12 UNL     1       3.455   0.356   0.883  1.00  0.00     0.154 C 
HETATM   20  C13 UNL     1       3.434   1.637   0.089  1.00  0.00     0.042 C 
ENDBRANCH  12  13
ENDBRANCH  10  12
ENDBRANCH   8  10
BRANCH   1  21
HETATM   21  O1  UNL     1      -2.006  -2.356   0.120  1.00  0.00    -0.352 OA
HETATM   22  C1  UNL     1      -1.793  -3.153   1.260  1.00  0.00     0.210 C 
ENDBRANCH   1  21
BRANCH   5  23
HETATM   23  N1  UNL     1      -4.356   2.802  -0.048  1.00  0.00    -0.385 N 
HETATM   24  H6  UNL     1      -4.013   3.165   0.866  1.00  0.00     0.157 HD
HETATM   25  H7  UNL     1      -4.945   3.376  -0.641  1.00  0.00     0.157 HD
ENDBRANCH   5  23
TORSDOF 5
