REMARK  8 active torsions:
REMARK  status: ('A' for Active; 'I' for Inactive)
REMARK    1  A    between atoms: O1_2  and  C2_3 
REMARK    2  A    between atoms: C6_9  and  N3_10 
REMARK    3  A    between atoms: N3_10  and  C7_11 
REMARK    4  A    between atoms: C7_11  and  C8_12 
REMARK    5  A    between atoms: C9_13  and  C10_14 
REMARK    6  A    between atoms: C11_15  and  C12_16 
REMARK    7  A    between atoms: C15_20  and  N4_21 
REMARK    8  A    between atoms: N4_21  and  C16_22 
ROOT
HETATM    1  C2  UNL     1      -2.956  -1.121   0.147  1.00  0.00     0.096 A 
HETATM    2  C3  UNL     1      -2.663  -2.437  -0.181  1.00  0.00     0.071 A 
HETATM    3  C4  UNL     1      -1.362  -2.856  -0.363  1.00  0.00     0.075 A 
HETATM    4  N1  UNL     1      -1.120  -4.145  -0.681  1.00  0.00    -0.241 NA
HETATM    5  C5  UNL     1       0.160  -4.544  -0.857  1.00  0.00     0.235 A 
HETATM    6  N2  UNL     1       1.143  -3.647  -0.709  1.00  0.00    -0.224 NA
HETATM    7  C6  UNL     1       0.962  -2.353  -0.393  1.00  0.00     0.137 A 
HETATM    8  C13 UNL     1      -0.341  -1.943  -0.214  1.00  0.00     0.041 A 
HETATM    9  C14 UNL     1      -0.649  -0.662   0.107  1.00  0.00     0.049 A 
HETATM   10  C15 UNL     1      -1.930  -0.187   0.300  1.00  0.00     0.063 A 
ENDROOT
BRANCH   7  11
HETATM   11  N3  UNL     1       2.073  -1.477  -0.259  1.00  0.00    -0.371 N 
HETATM   12  H6  UNL     1       2.054  -0.488  -0.025  1.00  0.00     0.161 HD
BRANCH  11  13
HETATM   13  C7  UNL     1       3.398  -2.005  -0.468  1.00  0.00     0.148 C 
BRANCH  13  14
HETATM   14  C8  UNL     1       4.482  -1.034  -0.309  1.00  0.00    -0.007 C 
HETATM   15  C9  UNL     1       4.533   0.246  -0.014  1.00  0.00    -0.003 C 
BRANCH  15  16
HETATM   16  C10 UNL     1       5.812   0.958   0.072  1.00  0.00    -0.002 C 
HETATM   17  C11 UNL     1       5.826   2.231   0.368  1.00  0.00     0.004 C 
BRANCH  17  18
HETATM   18  C12 UNL     1       7.121   2.947   0.454  1.00  0.00     0.249 C 
HETATM   19  F1  UNL     1       7.173   3.998  -0.470  1.00  0.00    -0.251 F 
ENDBRANCH  17  18
ENDBRANCH  15  16
ENDBRANCH  13  14
ENDBRANCH  11  13
ENDBRANCH   7  11
BRANCH  10  20
HETATM   20  N4  UNL     1      -2.150   1.156   0.619  1.00  0.00    -0.374 N 
HETATM   21  H16 UNL     1      -1.329   1.787   0.742  1.00  0.00     0.160 HD
BRANCH  20  22
HETATM   22  C16 UNL     1      -3.405   1.830   0.811  1.00  0.00     0.183 C 
HETATM   23  C17 UNL     1      -4.267   1.944  -0.394  1.00  0.00     0.062 C 
HETATM   24  C18 UNL     1      -4.181   3.410  -0.757  1.00  0.00     0.181 C 
HETATM   25  O2  UNL     1      -3.260   3.951   0.170  1.00  0.00    -0.320 OA
HETATM   26  C19 UNL     1      -3.299   3.182   1.346  1.00  0.00     0.281 C 
HETATM   27  O3  UNL     1      -3.258   3.523   2.564  1.00  0.00    -0.263 OA
ENDBRANCH  20  22
ENDBRANCH  10  20
BRANCH   1  28
HETATM   28  O1  UNL     1      -4.276  -0.737   0.324  1.00  0.00    -0.354 OA
HETATM   29  C1  UNL     1      -5.305  -1.686   0.167  1.00  0.00     0.210 C 
ENDBRANCH   1  28
TORSDOF 8
