REMARK  6 active torsions:
REMARK  status: ('A' for Active; 'I' for Inactive)
REMARK    1  A    between atoms: C2_2  and  C3_3 
REMARK    2  A    between atoms: C2_2  and  N2_9 
REMARK    3  A    between atoms: C10_16  and  N5_17 
REMARK    4  A    between atoms: N5_17  and  C11_18 
REMARK    5  A    between atoms: C18_27  and  O3_28 
REMARK    6  A    between atoms: O3_28  and  C19_29 
ROOT
HETATM    1  N2  UNL     1      -1.642  -0.885   0.263  1.00  0.00    -0.351 N 
HETATM    2  C6  UNL     1      -0.324  -0.334   0.022  1.00  0.00     0.170 C 
HETATM    3  C7  UNL     1       0.738  -1.356  -0.164  1.00  0.00     0.035 A 
HETATM    4  C8  UNL     1       0.526  -2.710  -0.287  1.00  0.00     0.074 A 
HETATM    5  N3  UNL     1       1.543  -3.583  -0.499  1.00  0.00    -0.241 NA
HETATM    6  C9  UNL     1       2.778  -3.088  -0.585  1.00  0.00     0.235 A 
HETATM    7  N4  UNL     1       2.984  -1.789  -0.466  1.00  0.00    -0.224 NA
HETATM    8  C10 UNL     1       2.028  -0.872  -0.258  1.00  0.00     0.139 A 
HETATM    9  C17 UNL     1      -0.853  -3.151  -0.135  1.00  0.00     0.088 C 
HETATM   10  C18 UNL     1      -1.851  -2.286   0.119  1.00  0.00     0.151 C 
ENDROOT
BRANCH   8  11
HETATM   11  N5  UNL     1       2.415   0.486  -0.161  1.00  0.00    -0.340 N 
HETATM   12  H12 UNL     1       1.575   1.094  -0.024  1.00  0.00     0.167 HD
BRANCH  11  13
HETATM   13  C11 UNL     1       3.676   1.126  -0.218  1.00  0.00     0.035 A 
HETATM   14  C12 UNL     1       4.894   0.504  -0.370  1.00  0.00     0.032 A 
HETATM   15  C13 UNL     1       6.112   1.148  -0.425  1.00  0.00     0.046 A 
HETATM   16  C14 UNL     1       6.066   2.499  -0.316  1.00  0.00     0.138 A 
HETATM   17  F1  UNL     1       7.208   3.213  -0.359  1.00  0.00    -0.204 F 
HETATM   18  C15 UNL     1       4.893   3.199  -0.162  1.00  0.00     0.074 A 
HETATM   19 CL1  UNL     1       4.906   4.931  -0.029  1.00  0.00    -0.081 Cl
HETATM   20  C16 UNL     1       3.714   2.498  -0.115  1.00  0.00     0.056 A 
ENDBRANCH  11  13
ENDBRANCH   8  11
BRANCH   1  21
HETATM   21  C2  UNL     1      -2.743  -0.086   0.662  1.00  0.00     0.107 C 
HETATM   22  C1  UNL     1      -4.016  -0.867   0.936  1.00  0.00     0.034 C 
BRANCH  21  23
HETATM   23  C3  UNL     1      -3.157   1.056  -0.178  1.00  0.00     0.133 C 
HETATM   24  C4  UNL     1      -4.181   1.852   0.645  1.00  0.00     0.208 C 
HETATM   25  O1  UNL     1      -3.864   3.228   0.452  1.00  0.00    -0.302 OA
HETATM   26  C5  UNL     1      -2.500   3.264   0.081  1.00  0.00     0.361 C 
HETATM   27  O2  UNL     1      -1.959   4.374   0.442  1.00  0.00    -0.239 OA
HETATM   28  N1  UNL     1      -2.199   2.012  -0.588  1.00  0.00    -0.328 N 
HETATM   29  H8  UNL     1      -1.342   2.306  -1.156  1.00  0.00     0.165 HD
ENDBRANCH  21  23
ENDBRANCH   1  21
BRANCH  10  30
HETATM   30  O3  UNL     1      -3.053  -2.999   0.204  1.00  0.00    -0.269 OA
BRANCH  30  31
HETATM   31  C19 UNL     1      -3.497  -3.754  -0.902  1.00  0.00     0.405 C 
HETATM   32  O4  UNL     1      -2.801  -3.782  -1.972  1.00  0.00    -0.276 OA
ENDBRANCH  30  31
ENDBRANCH  10  30
TORSDOF 6
