REMARK  4 active torsions:
REMARK  status: ('A' for Active; 'I' for Inactive)
REMARK    1  A    between atoms: C2_2  and  C3_4 
REMARK    2  A    between atoms: C4_5  and  C5_6 
REMARK    3  A    between atoms: C14_17  and  C15_18 
REMARK    4  A    between atoms: C15_18  and  C16_20 
ROOT
HETATM    1  C5  UNL     1       1.211   0.362   0.228  1.00  0.00     0.052 C 
HETATM    2  C6  UNL     1       1.258   0.243   1.709  1.00  0.00     0.195 C 
HETATM    3  O1  UNL     1       0.623  -0.809   2.334  1.00  0.00    -0.362 OA
HETATM    4  C7  UNL     1       0.974  -2.156   2.615  1.00  0.00     0.134 C 
HETATM    5  C8  UNL     1       1.514  -3.062   1.763  1.00  0.00     0.026 C 
HETATM    6  C9  UNL     1       1.738  -3.033   0.290  1.00  0.00     0.028 C 
HETATM    7  C10 UNL     1       1.804  -1.938  -0.508  1.00  0.00     0.029 C 
HETATM    8  N1  UNL     1       1.183  -2.709  -1.585  1.00  0.00    -0.368 N 
HETATM    9  C11 UNL     1       0.313  -2.195  -2.642  1.00  0.00     0.088 C 
HETATM   10  C12 UNL     1      -0.339  -0.998  -2.681  1.00  0.00     0.018 C 
HETATM   11  C13 UNL     1      -0.541   0.028  -1.623  1.00  0.00     0.013 C 
HETATM   12  C14 UNL     1      -0.101   0.333  -0.385  1.00  0.00     0.006 C 
HETATM   13  C20 UNL     1       2.245  -0.519  -0.431  1.00  0.00     0.151 C 
HETATM   14 CL1  UNL     1       3.760  -0.342   0.475  1.00  0.00    -0.117 Cl
HETATM   15  H10 UNL     1       1.429  -3.710  -1.502  1.00  0.00     0.165 HD
ENDROOT
BRANCH  12  16
HETATM   16  C15 UNL     1      -1.289   0.681   0.430  1.00  0.00     0.182 C 
HETATM   17  O2  UNL     1      -1.136   1.022   1.631  1.00  0.00    -0.290 OA
BRANCH  16  18
HETATM   18  C16 UNL     1      -2.721   0.764   0.276  1.00  0.00     0.190 C 
HETATM   19  N2  UNL     1      -3.283   0.351  -0.991  1.00  0.00    -0.323 N 
HETATM   20  C17 UNL     1      -3.310  -1.085  -0.848  1.00  0.00     0.361 C 
HETATM   21  H15 UNL     1      -3.670   0.636  -1.942  1.00  0.00     0.165 HD
HETATM   22  O3  UNL     1      -3.251  -2.109  -1.612  1.00  0.00    -0.238 OA
HETATM   23  O4  UNL     1      -3.436  -1.433   0.510  1.00  0.00    -0.296 OA
HETATM   24  C18 UNL     1      -3.404  -0.198   1.229  1.00  0.00     0.160 C 
HETATM   25  C19 UNL     1      -4.794   0.223   1.598  1.00  0.00     0.042 C 
ENDBRANCH  16  18
ENDBRANCH  12  16
BRANCH   1  26
HETATM   26  C4  UNL     1       1.791   1.746  -0.009  1.00  0.00    -0.005 C 
HETATM   27  C3  UNL     1       2.707   2.584  -0.527  1.00  0.00     0.035 C 
BRANCH  27  28
HETATM   28  C2  UNL     1       2.955   4.039  -0.535  1.00  0.00     0.094 C 
HETATM   29  C1  UNL     1       4.057   4.143  -1.256  1.00  0.00     0.077 C 
HETATM   30  F1  UNL     1       1.914   4.538   0.210  1.00  0.00    -0.211 F 
ENDBRANCH  27  28
ENDBRANCH   1  26
TORSDOF 4
