REMARK  7 active torsions:
REMARK  status: ('A' for Active; 'I' for Inactive)
REMARK    1  A    between atoms: C2_2  and  O1_3 
REMARK    2  A    between atoms: O1_3  and  C3_4 
REMARK    3  A    between atoms: N1_9  and  C7_10 
REMARK    4  A    between atoms: C10_13  and  O2_14 
REMARK    5  A    between atoms: O2_14  and  C11_15 
REMARK    6  A    between atoms: C11_15  and  C12_16 
REMARK    7  A    between atoms: C20_29  and  C21_30 
ROOT
HETATM    1  C7  UNL     1       0.403  -0.399  -0.664  1.00  0.00     0.141 A 
HETATM    2  C8  UNL     1       1.117   0.726  -1.203  1.00  0.00     0.040 A 
HETATM    3  C9  UNL     1       2.373   0.227  -1.120  1.00  0.00     0.041 A 
HETATM    4  C10 UNL     1       3.309  -0.523  -0.898  1.00  0.00     0.090 A 
HETATM    5  C17 UNL     1       2.517  -1.678  -0.330  1.00  0.00     0.069 A 
HETATM    6 CL1  UNL     1       3.036  -3.250   0.286  1.00  0.00    -0.081 Cl
HETATM    7  C18 UNL     1       1.094  -1.540  -0.248  1.00  0.00     0.064 A 
ENDROOT
BRANCH   1   8
HETATM    8  N1  UNL     1      -1.003  -0.468  -0.614  1.00  0.00     0.014 N 
HETATM    9  C6  UNL     1      -1.776  -0.720   0.611  1.00  0.00     0.358 A 
HETATM   10  C5  UNL     1      -2.578  -0.470  -0.358  1.00  0.00     0.210 A 
HETATM   11  N2  UNL     1      -2.576  -0.863   1.575  1.00  0.00    -0.394 NA
HETATM   12  B1  UNL     1      -3.709  -0.317  -0.902  1.00  0.00     0.318 B 
HETATM   13  C20 UNL     1      -4.158  -0.497   0.224  1.00  0.00     0.077 A 
HETATM   14  C4  UNL     1      -5.577  -0.097  -1.752  1.00  0.00    -0.087 A 
HETATM   15  C21 UNL     1      -5.698  -0.318  -0.467  1.00  0.00     0.043 A 
HETATM   16  C3  UNL     1      -6.289  -0.021  -2.063  1.00  0.00     0.107 A 
HETATM   17  N3  UNL     1      -4.425  -0.773   1.675  1.00  0.00    -0.269 NA
HETATM   18  C19 UNL     1      -3.381  -0.980   2.423  1.00  0.00     0.289 A 
HETATM   19  H6  UNL     1      -1.074  -0.305  -1.667  1.00  0.00     0.291 HD
BRANCH  16  20
HETATM   20  O1  UNL     1      -7.299  -0.131  -1.355  1.00  0.00    -0.374 OA
BRANCH  20  21
HETATM   21  C2  UNL     1      -8.450  -0.220  -0.732  1.00  0.00     0.165 C 
HETATM   22  C1  UNL     1      -9.237  -1.367  -1.418  1.00  0.00     0.033 C 
ENDBRANCH  20  21
ENDBRANCH  16  20
ENDBRANCH   1   8
BRANCH   4  23
HETATM   23  O2  UNL     1       4.536  -1.043  -0.806  1.00  0.00    -0.345 OA
BRANCH  23  24
HETATM   24  C11 UNL     1       5.773  -0.532  -1.125  1.00  0.00     0.215 C 
BRANCH  24  25
HETATM   25  C12 UNL     1       6.175   0.604  -0.259  1.00  0.00    -0.029 A 
HETATM   26  C13 UNL     1       7.310   0.266   0.354  1.00  0.00     0.010 A 
HETATM   27  C14 UNL     1       8.021   1.123   1.294  1.00  0.00    -0.000 A 
HETATM   28  C15 UNL     1       7.548   2.318   1.613  1.00  0.00     0.015 A 
HETATM   29  C16 UNL     1       6.384   3.127   1.265  1.00  0.00     0.221 A 
HETATM   30  F1  UNL     1       5.536   3.417   2.335  1.00  0.00    -0.240 F 
HETATM   31  P1  UNL     1       5.393   2.227   0.008  1.00  0.00    -0.057 P 
HETATM   32  H15 UNL     1       3.986   2.118   0.403  1.00  0.00     0.065 HD
ENDBRANCH  24  25
ENDBRANCH  23  24
ENDBRANCH   4  23
TORSDOF 7
