REMARK  8 active torsions:
REMARK  status: ('A' for Active; 'I' for Inactive)
REMARK    1  A    between atoms: C2_2  and  O1_3 
REMARK    2  A    between atoms: O1_3  and  C3_4 
REMARK    3  A    between atoms: C7_10  and  N3_11 
REMARK    4  A    between atoms: N3_11  and  C8_12 
REMARK    5  A    between atoms: C8_12  and  C9_13 
REMARK    6  A    between atoms: C11_16  and  C12_17 
REMARK    7  A    between atoms: C15_21  and  N4_22 
REMARK       I    between atoms: N4_22  and  C16_23 
REMARK    8  A    between atoms: C16_23  and  C17_25 
ROOT
HETATM    1  C9  UNL     1       4.056  -0.938   0.654  1.00  0.00     0.041 C 
HETATM    2  C10 UNL     1       4.518  -0.114   1.544  1.00  0.00     0.220 C 
HETATM    3 CL1  UNL     1       5.164   0.847   2.846  1.00  0.00    -0.230 Cl
ENDROOT
BRANCH   1   4
HETATM    4  C8  UNL     1       3.482  -1.476  -0.600  1.00  0.00     0.033 C 
HETATM    5  C11 UNL     1       3.389  -2.742  -0.432  1.00  0.00     0.033 C 
BRANCH   4   6
HETATM    6  N3  UNL     1       3.343  -0.298  -1.345  1.00  0.00    -0.340 N 
HETATM    7  H8  UNL     1       3.369  -0.178  -2.384  1.00  0.00     0.167 HD
BRANCH   6   8
HETATM    8  C7  UNL     1       3.135   1.057  -1.025  1.00  0.00     0.142 A 
HETATM    9  N2  UNL     1       4.115   2.002  -1.004  1.00  0.00    -0.224 NA
HETATM   10  C6  UNL     1       3.846   3.279  -0.683  1.00  0.00     0.236 A 
HETATM   11  N1  UNL     1       2.589   3.664  -0.368  1.00  0.00    -0.241 NA
HETATM   12  C5  UNL     1       1.582   2.765  -0.374  1.00  0.00     0.075 A 
HETATM   13  C4  UNL     1       0.302   3.164  -0.045  1.00  0.00     0.071 A 
HETATM   14  C13 UNL     1       1.842   1.450  -0.702  1.00  0.00     0.041 A 
HETATM   15  C3  UNL     1      -0.706   2.240  -0.048  1.00  0.00     0.097 A 
HETATM   16  C15 UNL     1      -0.469   0.902  -0.377  1.00  0.00     0.069 A 
HETATM   17  C14 UNL     1       0.814   0.510  -0.705  1.00  0.00     0.050 A 
BRANCH  15  18
HETATM   18  O1  UNL     1      -2.028   2.574   0.277  1.00  0.00    -0.349 OA
BRANCH  18  19
HETATM   19  C2  UNL     1      -2.397   3.896   0.629  1.00  0.00     0.171 C 
HETATM   20  C1  UNL     1      -3.860   4.040   0.948  1.00  0.00     0.034 C 
ENDBRANCH  18  19
ENDBRANCH  15  18
BRANCH  16  21
HETATM   21  N4  UNL     1      -1.545  -0.043  -0.362  1.00  0.00    -0.323 N 
HETATM   22  C16 UNL     1      -1.924  -0.750   0.815  1.00  0.00     0.247 C 
HETATM   23  O2  UNL     1      -1.277  -0.519   1.869  1.00  0.00    -0.271 OA
HETATM   24  H15 UNL     1      -1.924  -0.064  -1.333  1.00  0.00     0.169 HD
BRANCH  22  25
HETATM   25  C17 UNL     1      -3.073  -1.657   0.505  1.00  0.00     0.208 C 
HETATM   26  N5  UNL     1      -3.439  -2.302   1.755  1.00  0.00    -0.321 N 
HETATM   27  C18 UNL     1      -3.738  -3.679   1.427  1.00  0.00     0.361 C 
HETATM   28  H17 UNL     1      -3.500  -1.938   2.730  1.00  0.00     0.165 HD
HETATM   29  O3  UNL     1      -4.334  -4.489   2.177  1.00  0.00    -0.238 OA
HETATM   30  O4  UNL     1      -3.252  -3.925   0.148  1.00  0.00    -0.296 OA
HETATM   31  C19 UNL     1      -2.623  -2.793  -0.398  1.00  0.00     0.161 C 
HETATM   32  C20 UNL     1      -3.139  -2.635  -1.817  1.00  0.00     0.043 C 
ENDBRANCH  22  25
ENDBRANCH  16  21
ENDBRANCH   6   8
ENDBRANCH   4   6
BRANCH   5  33
HETATM   33  C12 UNL     1       2.856  -3.518  -1.566  1.00  0.00     0.252 C 
HETATM   34  F1  UNL     1       3.779  -4.470  -2.001  1.00  0.00    -0.251 F 
ENDBRANCH   5  33
ENDBRANCH   1   4
TORSDOF 8
