REMARK  2 active torsions:
REMARK  status: ('A' for Active; 'I' for Inactive)
REMARK    1  A    between atoms: C4_5  and  N1_6 
REMARK    2  A    between atoms: N1_6  and  C5_7 
ROOT
HETATM    1  C5  UNL     1       0.166  -0.331  -0.364  1.00  0.00     0.012 C 
HETATM    2  C6  UNL     1      -0.143  -1.516  -0.906  1.00  0.00     0.026 C 
HETATM    3  C7  UNL     1      -1.257  -2.420  -1.133  1.00  0.00     0.021 C 
HETATM    4  C8  UNL     1      -2.573  -2.526  -0.881  1.00  0.00     0.118 C 
HETATM    5  N2  UNL     1      -2.865  -1.346  -0.170  1.00  0.00    -0.256 NA
HETATM    6  C9  UNL     1      -4.012  -1.274   0.471  1.00  0.00     0.210 C 
HETATM    7  N3  UNL     1      -3.474   0.028   0.805  1.00  0.00    -0.329 N 
HETATM    8  C10 UNL     1      -4.251   1.117   0.247  1.00  0.00     0.299 C 
HETATM    9  O1  UNL     1      -3.513   1.824  -0.701  1.00  0.00    -0.367 OA
HETATM   10  C11 UNL     1      -2.270   2.174  -0.279  1.00  0.00     0.206 C 
HETATM   11  C12 UNL     1      -1.595   1.169   0.600  1.00  0.00    -0.035 C 
HETATM   12  C13 UNL     1      -2.377   0.631   1.532  1.00  0.00     0.099 C 
HETATM   13  C14 UNL     1      -0.145   0.922   0.321  1.00  0.00     0.094 C 
ENDROOT
BRANCH   1  14
HETATM   14  N1  UNL     1       1.597  -0.110  -0.551  1.00  0.00    -0.373 N 
HETATM   15  H3  UNL     1       1.958  -0.140  -1.555  1.00  0.00     0.164 HD
BRANCH  14  16
HETATM   16  C4  UNL     1       2.813   0.161   0.067  1.00  0.00    -0.036 C 
HETATM   17  C3  UNL     1       3.597  -0.763   0.720  1.00  0.00     0.015 C 
HETATM   18  C2  UNL     1       4.944  -0.827   0.863  1.00  0.00     0.043 C 
HETATM   19  C1  UNL     1       5.794   0.118   0.319  1.00  0.00     0.122 C 
HETATM   20  F1  UNL     1       7.142   0.022   0.480  1.00  0.00    -0.206 F 
HETATM   21  C15 UNL     1       5.505   1.261  -0.439  1.00  0.00     0.006 C 
HETATM   22  B1  UNL     1       3.648   1.734   0.136  1.00  0.00     0.267 B 
HETATM   23 CL1  UNL     1       6.585   1.972  -1.572  1.00  0.00    -0.099 Cl
ENDBRANCH  14  16
ENDBRANCH   1  14
TORSDOF 2
