REMARK  6 active torsions:
REMARK  status: ('A' for Active; 'I' for Inactive)
REMARK    1  A    between atoms: C5_7  and  C6_8 
REMARK    2  A    between atoms: C8_10  and  O1_11 
REMARK    3  A    between atoms: C10_13  and  N3_14 
REMARK       I    between atoms: N3_14  and  C11_15 
REMARK    4  A    between atoms: C11_15  and  C12_17 
REMARK    5  A    between atoms: C12_17  and  N4_18 
REMARK       I    between atoms: N4_18  and  C13_19 
REMARK    6  A    between atoms: C13_19  and  O4_21 
ROOT
HETATM    1  C6  UNL     1      -2.380  -0.894  -0.037  1.00  0.00     0.067 A 
HETATM    2  C7  UNL     1      -1.169  -1.423   0.691  1.00  0.00     0.026 A 
HETATM    3  C8  UNL     1       0.133  -1.644   0.497  1.00  0.00     0.092 A 
HETATM    4  C10 UNL     1       0.690  -1.311  -0.815  1.00  0.00     0.068 A 
HETATM    5  C15 UNL     1      -0.021  -0.809  -1.800  1.00  0.00     0.037 A 
HETATM    6  P1  UNL     1      -1.802  -0.428  -1.763  1.00  0.00    -0.092 P 
HETATM    7  H19 UNL     1      -2.481  -1.221  -2.776  1.00  0.00     0.062 HD
ENDROOT
BRANCH   4   8
HETATM    8  N3  UNL     1       2.056  -1.471  -1.202  1.00  0.00    -0.323 N 
HETATM    9  C11 UNL     1       3.111  -0.825  -0.504  1.00  0.00     0.240 C 
HETATM   10  O2  UNL     1       3.293  -0.048   0.473  1.00  0.00    -0.271 OA
HETATM   11  H11 UNL     1       2.387  -2.048  -1.998  1.00  0.00     0.169 HD
BRANCH   9  12
HETATM   12  C12 UNL     1       4.541  -0.988  -0.890  1.00  0.00     0.227 C 
BRANCH  12  13
HETATM   13  N4  UNL     1       5.427  -0.239  -0.039  1.00  0.00    -0.328 N 
HETATM   14  C13 UNL     1       5.450   1.171   0.130  1.00  0.00     0.360 C 
HETATM   15  O3  UNL     1       4.642   1.930  -0.496  1.00  0.00    -0.239 OA
HETATM   16  H14 UNL     1       6.135  -0.824   0.506  1.00  0.00     0.165 HD
BRANCH  14  17
HETATM   17  O4  UNL     1       6.378   1.674   0.987  1.00  0.00    -0.309 OA
HETATM   18  C14 UNL     1       6.603   3.026   1.314  1.00  0.00     0.215 C 
ENDBRANCH  14  17
ENDBRANCH  12  13
ENDBRANCH   9  12
ENDBRANCH   4   8
BRANCH   3  19
HETATM   19  O1  UNL     1       1.125  -2.160   1.335  1.00  0.00    -0.354 OA
HETATM   20  C9  UNL     1       1.149  -3.507   1.727  1.00  0.00     0.210 C 
ENDBRANCH   3  19
BRANCH   1  21
HETATM   21  C5  UNL     1      -2.882   0.301   0.614  1.00  0.00     0.037 C 
HETATM   22  C4  UNL     1      -3.699   1.286   0.856  1.00  0.00     0.127 A 
HETATM   23  N2  UNL     1      -4.464   2.318   1.175  1.00  0.00    -0.227 NA
HETATM   24  N5  UNL     1      -4.589   0.707  -0.209  1.00  0.00    -0.328 N 
HETATM   25  C3  UNL     1      -5.500   2.891   0.943  1.00  0.00     0.211 A 
HETATM   26  N1  UNL     1      -6.383   2.402  -0.043  1.00  0.00    -0.338 N 
HETATM   27  C2  UNL     1      -5.893   1.203  -0.682  1.00  0.00     0.097 A 
HETATM   28  H3  UNL     1      -7.253   2.938  -0.194  1.00  0.00     0.168 HD
HETATM   29  C1  UNL     1      -6.726   0.703  -1.631  1.00  0.00     0.063 C 
HETATM   30  H20 UNL     1      -4.562  -0.156  -0.882  1.00  0.00     0.169 HD
ENDBRANCH   1  21
TORSDOF 6
