REMARK  7 active torsions:
REMARK  status: ('A' for Active; 'I' for Inactive)
REMARK    1  A    between atoms: C5_6  and  N1_7 
REMARK    2  A    between atoms: N1_7  and  C6_8 
REMARK    3  A    between atoms: C9_11  and  O1_12 
REMARK    4  A    between atoms: O1_12  and  C10_13 
REMARK    5  A    between atoms: C10_13  and  C11_14 
REMARK    6  A    between atoms: C11_14  and  C12_15 
REMARK    7  A    between atoms: C12_15  and  N2_16 
ROOT
HETATM    1  C6  UNL     1      -3.393  -0.477   0.275  1.00  0.00     0.123 C 
HETATM    2  C7  UNL     1      -2.223  -0.955   0.602  1.00  0.00     0.095 A 
HETATM    3  C8  UNL     1      -1.475  -0.770   1.939  1.00  0.00     0.012 A 
HETATM    4  C9  UNL     1      -0.625  -1.066   1.030  1.00  0.00     0.130 A 
HETATM    5  C17 UNL     1      -1.453  -2.334   1.119  1.00  0.00     0.109 A 
HETATM    6  C18 UNL     1      -0.740  -2.845   0.177  1.00  0.00    -0.009 A 
HETATM    7  C19 UNL     1      -1.724  -1.874  -0.534  1.00  0.00     0.089 A 
HETATM    8  O3  UNL     1      -2.445  -3.141   1.608  1.00  0.00    -0.328 OA
HETATM    9  C20 UNL     1      -3.178  -2.887   2.756  1.00  0.00     0.425 C 
HETATM   10  N3  UNL     1      -3.848  -1.868   3.188  1.00  0.00    -0.362 NA
HETATM   11  C21 UNL     1      -4.016  -0.619   2.523  1.00  0.00     0.200 C 
HETATM   12  N4  UNL     1      -3.928   0.166   1.449  1.00  0.00    -0.230 NA
ENDROOT
BRANCH   4  13
HETATM   13  O1  UNL     1       0.444  -0.509   0.364  1.00  0.00    -0.371 OA
BRANCH  13  14
HETATM   14  C10 UNL     1       1.772  -0.594   0.820  1.00  0.00     0.171 C 
BRANCH  14  15
HETATM   15  C11 UNL     1       2.778  -0.304  -0.268  1.00  0.00     0.056 C 
BRANCH  15  16
HETATM   16  C12 UNL     1       4.133  -0.438   0.392  1.00  0.00     0.274 C 
BRANCH  16  17
HETATM   17  N2  UNL     1       5.202  -0.204  -0.545  1.00  0.00     0.092 N 
HETATM   18  C13 UNL     1       6.492  -0.349   0.118  1.00  0.00     0.298 C 
HETATM   19  C14 UNL     1       7.057   1.016   0.397  1.00  0.00     0.198 C 
HETATM   20  O2  UNL     1       6.062   1.912   0.824  1.00  0.00    -0.388 OA
HETATM   21  C15 UNL     1       5.173   2.210  -0.211  1.00  0.00     0.198 C 
HETATM   22  C16 UNL     1       5.108   1.075  -1.204  1.00  0.00     0.298 C 
ENDBRANCH  16  17
ENDBRANCH  15  16
ENDBRANCH  14  15
ENDBRANCH  13  14
ENDBRANCH   4  13
BRANCH   1  23
HETATM   23  N1  UNL     1      -4.257  -0.492  -0.836  1.00  0.00    -0.343 N 
HETATM   24  H4  UNL     1      -4.467  -1.440  -1.178  1.00  0.00     0.167 HD
BRANCH  23  25
HETATM   25  C5  UNL     1      -4.780   0.692  -1.414  1.00  0.00     0.036 A 
HETATM   26  C4  UNL     1      -5.600   0.550  -2.501  1.00  0.00     0.029 A 
HETATM   27  C3  UNL     1      -6.179   1.605  -3.160  1.00  0.00     0.005 A 
HETATM   28  C2  UNL     1      -5.891   2.847  -2.664  1.00  0.00     0.042 A 
HETATM   29  C1  UNL     1      -5.071   3.010  -1.572  1.00  0.00     0.118 A 
HETATM   30  F1  UNL     1      -4.824   4.281  -1.127  1.00  0.00    -0.206 F 
HETATM   31  C22 UNL     1      -4.490   1.936  -0.914  1.00  0.00     0.071 A 
ENDBRANCH  23  25
ENDBRANCH   1  23
TORSDOF 7
