REMARK  7 active torsions:
REMARK  status: ('A' for Active; 'I' for Inactive)
REMARK    1  A    between atoms: C1_2  and  C2_3 
REMARK    2  A    between atoms: N3_8  and  C6_9 
REMARK    3  A    between atoms: C15_19  and  O1_20 
REMARK    4  A    between atoms: O1_20  and  C16_21 
REMARK    5  A    between atoms: C16_21  and  C17_22 
REMARK    6  A    between atoms: C17_22  and  C18_23 
REMARK    7  A    between atoms: C21_28  and  O3_29 
ROOT
HETATM    1  C2  UNL     1      -0.619  -2.597   0.389  1.00  0.00     0.011 C 
HETATM    2  C3  UNL     1      -1.849  -2.996   0.159  1.00  0.00     0.004 C 
HETATM    3  C4  UNL     1      -2.722  -2.022   0.807  1.00  0.00     0.086 A 
HETATM    4  C5  UNL     1      -4.140  -2.015   0.409  1.00  0.00     0.125 A 
HETATM    5  N2  UNL     1      -4.833  -0.970   0.182  1.00  0.00    -0.183 NA
HETATM    6  N3  UNL     1      -4.326   0.330   0.276  1.00  0.00    -0.245 N 
HETATM    7  C12 UNL     1      -2.958   0.454   0.642  1.00  0.00     0.127 A 
HETATM    8  C13 UNL     1      -2.220  -0.648   0.882  1.00  0.00    -0.025 A 
HETATM    9  C14 UNL     1      -0.834  -0.373   1.134  1.00  0.00     0.047 C 
HETATM   10  C15 UNL     1       0.023  -1.384   0.868  1.00  0.00     0.080 C 
ENDROOT
BRANCH  10  11
HETATM   11  O1  UNL     1       1.383  -1.212   1.057  1.00  0.00    -0.350 OA
BRANCH  11  12
HETATM   12  C16 UNL     1       2.307  -0.756   0.125  1.00  0.00     0.178 C 
BRANCH  12  13
HETATM   13  C17 UNL     1       3.673  -0.727   0.799  1.00  0.00     0.067 C 
BRANCH  13  14
HETATM   14  C18 UNL     1       4.653  -0.224  -0.256  1.00  0.00     0.277 C 
HETATM   15  N4  UNL     1       4.252   1.095  -0.687  1.00  0.00     0.095 N 
HETATM   16  C19 UNL     1       5.442   1.859  -1.008  1.00  0.00     0.296 C 
HETATM   17  H17 UNL     1       3.649   1.579   0.018  1.00  0.00     0.316 HD
HETATM   18  C20 UNL     1       6.157   2.091   0.313  1.00  0.00     0.201 C 
HETATM   19  O2  UNL     1       6.345   0.927   1.040  1.00  0.00    -0.358 OA
HETATM   20  C21 UNL     1       6.031  -0.234   0.356  1.00  0.00     0.289 C 
BRANCH  20  21
HETATM   21  O3  UNL     1       7.029  -0.551  -0.580  1.00  0.00    -0.369 OA
HETATM   22  H23 UNL     1       6.953  -1.513  -0.756  1.00  0.00     0.212 HD
ENDBRANCH  20  21
ENDBRANCH  13  14
ENDBRANCH  12  13
ENDBRANCH  11  12
ENDBRANCH  10  11
BRANCH   1  23
HETATM   23  C1  UNL     1       0.400  -3.510  -0.189  1.00  0.00     0.121 C 
HETATM   24  N1  UNL     1       0.576  -4.592  -0.861  1.00  0.00    -0.311 NA
HETATM   25  H1  UNL     1      -0.288  -5.109  -1.170  1.00  0.00     0.186 HD
ENDBRANCH   1  23
BRANCH   6  26
HETATM   26  C6  UNL     1      -5.192   1.419   0.006  1.00  0.00     0.058 A 
HETATM   27  C7  UNL     1      -6.497   1.149  -0.336  1.00  0.00     0.033 A 
HETATM   28  C8  UNL     1      -7.419   2.135  -0.617  1.00  0.00     0.026 A 
HETATM   29  C9  UNL     1      -7.013   3.454  -0.553  1.00  0.00     0.034 A 
HETATM   30 CL1  UNL     1      -8.166   4.715  -0.907  1.00  0.00    -0.084 Cl
HETATM   31  C10 UNL     1      -5.716   3.754  -0.215  1.00  0.00     0.026 A 
HETATM   32  C11 UNL     1      -4.829   2.732   0.059  1.00  0.00     0.033 A 
ENDBRANCH   6  26
TORSDOF 7
