REMARK  5 active torsions:
REMARK  status: ('A' for Active; 'I' for Inactive)
REMARK    1  A    between atoms: O1_2  and  C2_3 
REMARK    2  A    between atoms: C6_9  and  N3_10 
REMARK    3  A    between atoms: N3_10  and  C7_11 
REMARK    4  A    between atoms: C8_12  and  C9_13 
REMARK    5  A    between atoms: C10_14  and  C11_15 
ROOT
HETATM    1  C2  UNL     1      -1.456  -0.117  -0.988  1.00  0.00     0.073 C 
HETATM    2  C3  UNL     1      -0.213  -0.443  -1.035  1.00  0.00     0.066 C 
HETATM    3  C4  UNL     1       0.881  -1.225  -0.611  1.00  0.00     0.092 A 
HETATM    4  N1  UNL     1       1.337  -2.336  -1.071  1.00  0.00    -0.242 NA
HETATM    5  C5  UNL     1       2.460  -2.690  -0.270  1.00  0.00     0.230 A 
HETATM    6  N2  UNL     1       2.663  -1.786   0.658  1.00  0.00    -0.240 NA
HETATM    7  C6  UNL     1       1.663  -0.728   0.540  1.00  0.00     0.192 A 
HETATM    8  C12 UNL     1       0.942  -0.615   1.798  1.00  0.00     0.059 C 
HETATM    9  C13 UNL     1       0.333  -0.553   2.975  1.00  0.00     0.135 C 
HETATM   10  O2  UNL     1      -0.831   0.084   3.466  1.00  0.00    -0.362 OA
HETATM   11  C14 UNL     1      -2.018  -0.667   3.666  1.00  0.00     0.186 C 
HETATM   12  C15 UNL     1      -3.249   0.172   3.362  1.00  0.00     0.121 C 
HETATM   13  C16 UNL     1      -3.264   0.599   2.003  1.00  0.00    -0.088 C 
HETATM   14  S1  UNL     1      -3.273   0.959   0.790  1.00  0.00     0.024 SA
HETATM   15  N4  UNL     1      -3.305   1.369  -0.644  1.00  0.00    -0.331 N 
HETATM   16  C17 UNL     1      -4.641   1.470  -1.200  1.00  0.00     0.158 C 
HETATM   17  C18 UNL     1      -4.587   2.037  -2.582  1.00  0.00     0.188 C 
HETATM   18  O3  UNL     1      -3.806   1.259  -3.441  1.00  0.00    -0.387 OA
HETATM   19  C19 UNL     1      -3.190   0.211  -2.730  1.00  0.00     0.200 C 
HETATM   20  C20 UNL     1      -2.392   0.808  -1.592  1.00  0.00     0.172 C 
ENDROOT
BRANCH   7  21
HETATM   21  N3  UNL     1       2.422   0.473   0.181  1.00  0.00    -0.363 N 
HETATM   22  H6  UNL     1       2.277   0.827  -0.806  1.00  0.00     0.162 HD
BRANCH  21  23
HETATM   23  C7  UNL     1       3.354   1.346   0.844  1.00  0.00     0.086 C 
HETATM   24  C8  UNL     1       4.552   1.363   0.308  1.00  0.00     0.017 C 
BRANCH  24  25
HETATM   25  C9  UNL     1       4.812   0.540  -0.843  1.00  0.00    -0.000 C 
HETATM   26  C10 UNL     1       5.994   0.532  -1.401  1.00  0.00     0.004 C 
BRANCH  26  27
HETATM   27  C11 UNL     1       7.179   1.294  -0.995  1.00  0.00     0.249 C 
HETATM   28  F1  UNL     1       7.003   2.097   0.099  1.00  0.00    -0.251 F 
ENDBRANCH  26  27
ENDBRANCH  24  25
ENDBRANCH  21  23
ENDBRANCH   7  21
BRANCH   1  29
HETATM   29  O1  UNL     1      -2.056  -0.908  -0.071  1.00  0.00    -0.358 OA
HETATM   30  C1  UNL     1      -1.878  -2.285   0.102  1.00  0.00     0.209 C 
ENDBRANCH   1  29
TORSDOF 5
