REMARK  3 active torsions:
REMARK  status: ('A' for Active; 'I' for Inactive)
REMARK    1  A    between atoms: C2_2  and  C3_4 
REMARK    2  A    between atoms: C10_15  and  O2_16 
REMARK    3  A    between atoms: C18_25  and  N4_26 
ROOT
HETATM    1  C3  UNL     1       3.637   0.436   1.871  1.00  0.00     0.182 C 
HETATM    2  F1  UNL     1       3.975  -0.904   1.830  1.00  0.00    -0.200 F 
HETATM    3  C4  UNL     1       2.789   0.207   0.884  1.00  0.00     0.164 C 
HETATM    4  N1  UNL     1       2.173  -0.635  -0.040  1.00  0.00    -0.247 N 
HETATM    5  C5  UNL     1       2.003  -1.867   0.075  1.00  0.00     0.200 A 
HETATM    6  N2  UNL     1       1.502  -1.316  -1.126  1.00  0.00    -0.139 NA
HETATM    7  C6  UNL     1       0.234  -1.394  -1.521  1.00  0.00     0.219 C 
HETATM    8  O1  UNL     1       0.196  -0.724  -2.735  1.00  0.00    -0.356 OA
HETATM    9  C7  UNL     1       0.475   0.691  -2.988  1.00  0.00     0.184 C 
HETATM   10  C8  UNL     1      -0.311   1.417  -2.084  1.00  0.00     0.069 C 
HETATM   11  C9  UNL     1      -1.214   2.409  -1.684  1.00  0.00     0.022 C 
HETATM   12  C10 UNL     1      -2.240   1.642  -1.133  1.00  0.00     0.071 C 
HETATM   13  C12 UNL     1      -1.455   0.927  -0.060  1.00  0.00    -0.024 C 
HETATM   14  C13 UNL     1      -0.138   1.031   0.282  1.00  0.00     0.019 C 
HETATM   15  C14 UNL     1       0.662   1.459  -0.855  1.00  0.00    -0.032 C 
HETATM   16  C15 UNL     1       1.875   1.761  -0.410  1.00  0.00     0.097 C 
HETATM   17  N3  UNL     1       2.421   1.626   0.918  1.00  0.00    -0.348 N 
HETATM   18  C16 UNL     1      -1.974  -0.249   0.685  1.00  0.00     0.044 C 
HETATM   19  C17 UNL     1      -1.081  -1.430   0.641  1.00  0.00     0.045 C 
HETATM   20  C18 UNL     1      -0.622  -2.141  -0.554  1.00  0.00     0.276 C 
HETATM   21  H13 UNL     1       2.199   2.611   1.027  1.00  0.00     0.167 HD
ENDROOT
BRANCH   1  22
HETATM   22  C2  UNL     1       4.312   1.296   2.865  1.00  0.00     0.067 C 
HETATM   23  C1  UNL     1       5.191   0.669   3.627  1.00  0.00     0.040 C 
HETATM   24 CL1  UNL     1       3.854   3.006   2.888  1.00  0.00    -0.082 Cl
ENDBRANCH   1  22
BRANCH  20  25
HETATM   25  N4  UNL     1      -1.762  -2.756  -1.277  1.00  0.00     0.088 N 
HETATM   26  C19 UNL     1      -2.602  -3.488  -0.339  1.00  0.00     0.307 C 
HETATM   27  H19 UNL     1      -1.436  -3.467  -1.963  1.00  0.00     0.316 HD
ENDBRANCH  20  25
BRANCH  12  28
HETATM   28  O2  UNL     1      -3.550   1.295  -1.156  1.00  0.00    -0.356 OA
HETATM   29  C11 UNL     1      -4.602   2.105  -0.635  1.00  0.00     0.210 C 
ENDBRANCH  12  28
TORSDOF 3
