REMARK  9 active torsions:
REMARK  status: ('A' for Active; 'I' for Inactive)
REMARK    1  A    between atoms: O1_2  and  C2_3 
REMARK    2  A    between atoms: C6_9  and  N3_10 
REMARK    3  A    between atoms: N3_10  and  C7_11 
REMARK    4  A    between atoms: C15_21  and  O2_22 
REMARK    5  A    between atoms: O2_22  and  C16_23 
REMARK    6  A    between atoms: C16_23  and  C17_24 
REMARK    7  A    between atoms: C17_24  and  O3_25 
REMARK    8  A    between atoms: C17_24  and  C18_26 
REMARK    9  A    between atoms: C18_26  and  N4_27 
ROOT
HETATM    1  C2  UNL     1       0.493   3.392   0.511  1.00  0.00     0.103 A 
HETATM    2  C3  UNL     1       1.780   3.888   0.490  1.00  0.00     0.072 A 
HETATM    3  C4  UNL     1       2.848   3.034   0.325  1.00  0.00     0.075 A 
HETATM    4  N1  UNL     1       4.059   3.609   0.318  1.00  0.00    -0.241 NA
HETATM    5  C5  UNL     1       5.155   2.847   0.163  1.00  0.00     0.236 A 
HETATM    6  N2  UNL     1       4.995   1.529   0.020  1.00  0.00    -0.224 NA
HETATM    7  C6  UNL     1       3.835   0.874   0.015  1.00  0.00     0.142 A 
HETATM    8  C13 UNL     1       2.731   1.672   0.175  1.00  0.00     0.042 A 
HETATM    9  C14 UNL     1       1.427   1.228   0.203  1.00  0.00     0.057 A 
HETATM   10  C15 UNL     1       0.332   2.050   0.365  1.00  0.00     0.103 A 
ENDROOT
BRANCH  10  11
HETATM   11  O2  UNL     1      -0.949   1.546   0.384  1.00  0.00    -0.346 OA
BRANCH  11  12
HETATM   12  C16 UNL     1      -1.331   0.213   0.253  1.00  0.00     0.209 C 
BRANCH  12  13
HETATM   13  C17 UNL     1      -2.862   0.193   0.344  1.00  0.00     0.170 C 
BRANCH  13  14
HETATM   14  O3  UNL     1      -3.232   0.719   1.599  1.00  0.00    -0.392 OA
HETATM   15  H14 UNL     1      -2.517   0.407   2.238  1.00  0.00     0.210 HD
ENDBRANCH  13  14
BRANCH  13  16
HETATM   16  C18 UNL     1      -3.276  -1.246   0.330  1.00  0.00     0.306 C 
BRANCH  16  17
HETATM   17  N4  UNL     1      -4.705  -1.408   0.516  1.00  0.00     0.095 N 
HETATM   18  C19 UNL     1      -5.072  -2.796   0.499  1.00  0.00     0.298 C 
HETATM   19  C20 UNL     1      -5.733  -3.146  -0.808  1.00  0.00     0.198 C 
HETATM   20  O4  UNL     1      -6.878  -2.428  -1.052  1.00  0.00    -0.388 OA
HETATM   21  C21 UNL     1      -6.846  -1.116  -0.602  1.00  0.00     0.198 C 
HETATM   22  C22 UNL     1      -5.388  -0.689  -0.546  1.00  0.00     0.298 C 
ENDBRANCH  16  17
ENDBRANCH  13  16
ENDBRANCH  12  13
ENDBRANCH  11  12
ENDBRANCH  10  11
BRANCH   1  23
HETATM   23  O1  UNL     1      -0.591   4.220   0.673  1.00  0.00    -0.353 OA
HETATM   24  C1  UNL     1      -0.493   5.616   0.828  1.00  0.00     0.210 C 
ENDBRANCH   1  23
BRANCH   7  25
HETATM   25  N3  UNL     1       3.662  -0.506  -0.135  1.00  0.00    -0.340 N 
HETATM   26  H6  UNL     1       2.723  -0.948  -0.128  1.00  0.00     0.167 HD
BRANCH  25  27
HETATM   27  C7  UNL     1       4.624  -1.530  -0.314  1.00  0.00     0.035 A 
HETATM   28  C8  UNL     1       4.355  -2.885  -0.448  1.00  0.00     0.032 A 
HETATM   29  C9  UNL     1       5.317  -3.848  -0.620  1.00  0.00     0.046 A 
HETATM   30  C10 UNL     1       6.649  -3.502  -0.670  1.00  0.00     0.138 A 
HETATM   31  F1  UNL     1       7.514  -4.528  -0.843  1.00  0.00    -0.204 F 
HETATM   32  C11 UNL     1       6.967  -2.167  -0.542  1.00  0.00     0.074 A 
HETATM   33 CL1  UNL     1       8.669  -1.798  -0.615  1.00  0.00    -0.081 Cl
HETATM   34  C12 UNL     1       5.966  -1.243  -0.371  1.00  0.00     0.056 A 
ENDBRANCH  25  27
ENDBRANCH   7  25
TORSDOF 9
