REMARK  0 active torsions:
REMARK  status: ('A' for Active; 'I' for Inactive)
ROOT
HETATM    1  F1  UNL     1      -1.432   5.006   1.178  1.00  0.00    -0.208 F 
HETATM    2  C1  UNL     1      -0.486   4.057   0.898  1.00  0.00     0.121 C 
HETATM    3  C2  UNL     1      -1.291   2.990   0.841  1.00  0.00     0.175 C 
HETATM    4  O1  UNL     1      -1.207   1.593   0.607  1.00  0.00    -0.333 OA
HETATM    5  C3  UNL     1      -1.271   1.206  -0.759  1.00  0.00     0.248 C 
HETATM    6  C4  UNL     1      -2.163   2.201  -1.520  1.00  0.00     0.221 C 
HETATM    7  O2  UNL     1      -2.040   1.892  -2.848  1.00  0.00    -0.385 OA
HETATM    8  C5  UNL     1      -2.610   0.682  -3.156  1.00  0.00     0.187 C 
HETATM    9  C6  UNL     1      -2.199  -0.440  -2.247  1.00  0.00     0.145 C 
HETATM   10  N1  UNL     1      -1.877  -0.059  -0.927  1.00  0.00    -0.383 N 
HETATM   11  C7  UNL     1      -2.791  -0.503   0.071  1.00  0.00     0.123 C 
HETATM   12  C8  UNL     1      -2.060  -1.535   1.006  1.00  0.00     0.047 C 
HETATM   13  C9  UNL     1      -3.154  -1.888   1.902  1.00  0.00    -0.013 C 
HETATM   14  C10 UNL     1      -3.171  -3.194   1.994  1.00  0.00    -0.030 C 
HETATM   15  C11 UNL     1      -2.214  -3.565   2.838  1.00  0.00     0.009 C 
HETATM   16  C12 UNL     1      -0.860  -3.324   2.226  1.00  0.00    -0.015 C 
HETATM   17  C13 UNL     1       0.363  -2.867   1.988  1.00  0.00     0.061 C 
HETATM   18  C14 UNL     1       1.668  -2.243   1.915  1.00  0.00     0.100 C 
HETATM   19  N2  UNL     1       1.920  -2.914   0.814  1.00  0.00    -0.258 NA
HETATM   20  C15 UNL     1       3.135  -2.781   0.126  1.00  0.00     0.228 C 
HETATM   21  N3  UNL     1       4.044  -2.408  -0.690  1.00  0.00    -0.253 NA
HETATM   22  C16 UNL     1       3.954  -1.435  -1.723  1.00  0.00     0.418 C 
HETATM   23  N4  UNL     1       3.133  -0.317  -1.390  1.00  0.00     0.104 N 
HETATM   24  C17 UNL     1       3.615   0.361  -0.182  1.00  0.00     0.296 C 
HETATM   25  C18 UNL     1       2.831   1.565   0.104  1.00  0.00     0.138 A 
HETATM   26  C19 UNL     1       2.828   2.856   0.280  1.00  0.00    -0.005 A 
HETATM   27 CL1  UNL     1       4.498   2.491  -0.028  1.00  0.00    -0.179 Cl
HETATM   28  C20 UNL     1       2.040   3.996   0.545  1.00  0.00     0.024 C 
HETATM   29  C21 UNL     1       0.826   3.419   0.628  1.00  0.00     0.100 C 
HETATM   30  H21 UNL     1       2.136  -0.600  -1.222  1.00  0.00     0.318 HD
ENDROOT
TORSDOF 0
