REMARK  6 active torsions:
REMARK  status: ('A' for Active; 'I' for Inactive)
REMARK    1  A    between atoms: C1_3  and  O2_4 
REMARK    2  A    between atoms: C2_5  and  C3_6 
REMARK    3  A    between atoms: C4_7  and  C5_8 
REMARK    4  A    between atoms: C6_9  and  O3_10 
REMARK    5  A    between atoms: C12_19  and  O6_20 
REMARK    6  A    between atoms: C14_22  and  O7_23 
ROOT
HETATM    1  O1  UNL     1      -2.975  -1.086  -2.785  1.00  0.00    -0.245 OA
HETATM    2  S1  UNL     1      -2.620  -1.468  -1.354  1.00  0.00     0.117 S 
HETATM    3  C1  UNL     1      -0.871  -1.278  -1.147  1.00  0.00     0.173 A 
HETATM    4  C2  UNL     1      -0.505  -0.372  -0.289  1.00  0.00     0.118 A 
HETATM    5  O5  UNL     1      -1.194   0.484   0.508  1.00  0.00    -0.306 OA
HETATM    6  C10 UNL     1      -2.546   0.574   0.574  1.00  0.00     0.101 A 
HETATM    7  C11 UNL     1      -3.148   1.474   1.414  1.00  0.00     0.075 A 
HETATM    8  C12 UNL     1      -4.526   1.465   1.386  1.00  0.00     0.071 A 
HETATM    9  C13 UNL     1      -5.299   0.628   0.588  1.00  0.00     0.074 A 
HETATM   10  C14 UNL     1      -4.610  -0.267  -0.245  1.00  0.00     0.090 A 
HETATM   11  C15 UNL     1      -3.286  -0.252  -0.214  1.00  0.00     0.105 A 
ENDROOT
BRANCH   4  12
HETATM   12  C3  UNL     1       0.910  -0.288  -0.188  1.00  0.00     0.039 C 
HETATM   13  C4  UNL     1       2.078  -0.679  -0.538  1.00  0.00     0.005 C 
BRANCH  13  14
HETATM   14  C5  UNL     1       3.632  -0.412  -0.263  1.00  0.00     0.088 A 
HETATM   15  C6  UNL     1       4.371  -1.515  -1.290  1.00  0.00     0.150 A 
HETATM   16  C7  UNL     1       4.875  -0.768  -0.581  1.00  0.00     0.009 A 
HETATM   17  S2  UNL     1       5.378   0.024   0.172  1.00  0.00    -0.164 SA
HETATM   18  C8  UNL     1       6.038   1.146   1.234  1.00  0.00     0.231 A 
HETATM   19  C9  UNL     1       3.622   0.744   0.834  1.00  0.00     0.229 A 
HETATM   20  O4  UNL     1       4.450   1.524   1.523  1.00  0.00    -0.374 OA
BRANCH  15  21
HETATM   21  O3  UNL     1       3.155  -1.952  -1.719  1.00  0.00    -0.379 OA
HETATM   22  H4  UNL     1       2.735  -2.850  -1.463  1.00  0.00     0.211 HD
ENDBRANCH  15  21
ENDBRANCH  13  14
ENDBRANCH   4  12
BRANCH   3  23
HETATM   23  O2  UNL     1      -0.360  -2.185  -1.992  1.00  0.00    -0.350 OA
HETATM   24  H1  UNL     1      -0.305  -2.098  -3.017  1.00  0.00     0.218 HD
ENDBRANCH   3  23
BRANCH  10  25
HETATM   25  O7  UNL     1      -5.484  -1.052  -0.996  1.00  0.00    -0.359 OA
HETATM   26  H12 UNL     1      -5.194  -1.853  -1.518  1.00  0.00     0.217 HD
ENDBRANCH  10  25
BRANCH   8  27
HETATM   27  O6  UNL     1      -5.175   2.380   2.239  1.00  0.00    -0.361 OA
HETATM   28  H10 UNL     1      -5.387   3.315   1.888  1.00  0.00     0.217 HD
ENDBRANCH   8  27
TORSDOF 6
