REMARK  3 active torsions:
REMARK  status: ('A' for Active; 'I' for Inactive)
REMARK    1  A    between atoms: C2_2  and  C3_3 
REMARK       I    between atoms: C3_3  and  N1_5 
REMARK    2  A    between atoms: N1_5  and  C4_6 
REMARK    3  A    between atoms: C9_13  and  N4_14 
ROOT
HETATM    1  C4  UNL     1       1.410  -0.275  -0.345  1.00  0.00     0.036 A 
HETATM    2  C5  UNL     1       1.820  -1.055  -1.400  1.00  0.00     0.032 A 
HETATM    3  C6  UNL     1       0.994  -1.683  -2.305  1.00  0.00     0.035 A 
HETATM    4  C7  UNL     1      -0.367  -1.527  -2.154  1.00  0.00     0.072 A 
HETATM    5  N2  UNL     1      -1.214  -2.118  -3.018  1.00  0.00    -0.241 NA
HETATM    6  C8  UNL     1      -2.542  -1.926  -2.826  1.00  0.00     0.236 A 
HETATM    7  N3  UNL     1      -3.026  -1.168  -1.804  1.00  0.00    -0.223 NA
HETATM    8  C9  UNL     1      -2.167  -0.580  -0.943  1.00  0.00     0.147 A 
HETATM    9  C15 UNL     1      -0.826  -0.754  -1.110  1.00  0.00     0.041 A 
HETATM   10  C16 UNL     1       0.050  -0.152  -0.239  1.00  0.00     0.047 A 
ENDROOT
BRANCH   8  11
HETATM   11  N4  UNL     1      -2.720   0.193   0.093  1.00  0.00    -0.315 N 
HETATM   12  C10 UNL     1      -3.535  -0.634   0.959  1.00  0.00     0.110 C 
HETATM   13  C11 UNL     1      -3.945  -0.186   2.132  1.00  0.00    -0.007 C 
HETATM   14  C12 UNL     1      -4.064   1.118   2.303  1.00  0.00     0.034 C 
HETATM   15  C13 UNL     1      -3.253   2.041   1.478  1.00  0.00     0.027 C 
HETATM   16 BR1  UNL     1      -3.036   3.893   1.822  1.00  0.00    -0.050 Br
HETATM   17  C14 UNL     1      -2.613   1.582   0.418  1.00  0.00     0.117 C 
ENDBRANCH   8  11
BRANCH   1  18
HETATM   18  N1  UNL     1       2.212   0.382   0.598  1.00  0.00    -0.324 N 
HETATM   19  C3  UNL     1       3.620   0.394   0.710  1.00  0.00     0.241 C 
HETATM   20  O1  UNL     1       4.320  -0.246  -0.108  1.00  0.00    -0.269 OA
HETATM   21  H4  UNL     1       1.789   0.959   1.351  1.00  0.00     0.169 HD
BRANCH  19  22
HETATM   22  C2  UNL     1       4.435   1.083   1.694  1.00  0.00     0.048 C 
HETATM   23  C1  UNL     1       5.581   0.632   1.165  1.00  0.00     0.037 C 
ENDBRANCH  19  22
ENDBRANCH   1  18
TORSDOF 3
