REMARK  12 active torsions:
REMARK  status: ('A' for Active; 'I' for Inactive)
REMARK    1  A    between atoms: C1_2  and  O2_3 
REMARK    2  A    between atoms: C1_2  and  C2_4 
REMARK    3  A    between atoms: C3_6  and  C4_7 
REMARK    4  A    between atoms: C5_8  and  C6_9 
REMARK    5  A    between atoms: C6_9  and  C7_10 
REMARK    6  A    between atoms: C7_10  and  C8_11 
REMARK    7  A    between atoms: C9_12  and  C10_13 
REMARK    8  A    between atoms: C10_13  and  C11_14 
REMARK    9  A    between atoms: C11_14  and  C12_15 
REMARK   10  A    between atoms: C12_15  and  C13_16 
REMARK   11  A    between atoms: C14_17  and  C15_18 
REMARK   12  A    between atoms: C22_25  and  O4_26 
ROOT
HETATM    1  C6  UNL     1      -2.949   0.820  -1.291  1.00  0.00    -0.017 C 
ENDROOT
BRANCH   1   2
HETATM    2  C5  UNL     1      -2.821   0.191   0.021  1.00  0.00    -0.005 C 
HETATM    3  C4  UNL     1      -3.608   0.057   1.033  1.00  0.00     0.004 C 
BRANCH   3   4
HETATM    4  C3  UNL     1      -4.969   0.654   0.899  1.00  0.00     0.148 C 
HETATM    5  O3  UNL     1      -5.668  -0.013  -0.095  1.00  0.00    -0.364 OA
HETATM    6  C2  UNL     1      -6.789  -0.616   0.421  1.00  0.00     0.250 C 
HETATM    7  C22 UNL     1      -6.490  -0.816   1.906  1.00  0.00     0.159 C 
HETATM    8  C21 UNL     1      -5.803   0.544   2.143  1.00  0.00     0.071 C 
BRANCH   6   9
HETATM    9  C1  UNL     1      -7.910   0.335   0.242  1.00  0.00     0.288 C 
HETATM   10  O1  UNL     1      -6.962   0.892  -0.427  1.00  0.00    -0.262 OA
BRANCH   9  11
HETATM   11  O2  UNL     1      -8.427   1.491  -0.283  1.00  0.00    -0.330 OA
HETATM   12  H1  UNL     1      -9.415   1.749  -0.232  1.00  0.00     0.220 HD
ENDBRANCH   9  11
ENDBRANCH   6   9
BRANCH   7  13
HETATM   13  O4  UNL     1      -7.659  -0.835   2.632  1.00  0.00    -0.392 OA
HETATM   14  H26 UNL     1      -8.160  -1.700   2.421  1.00  0.00     0.210 HD
ENDBRANCH   7  13
ENDBRANCH   3   4
ENDBRANCH   1   2
BRANCH   1  15
HETATM   15  C7  UNL     1      -1.969   0.822  -2.106  1.00  0.00     0.041 C 
BRANCH  15  16
HETATM   16  C8  UNL     1      -1.072   0.981  -3.207  1.00  0.00    -0.021 C 
HETATM   17  C9  UNL     1       0.168   0.503  -3.142  1.00  0.00    -0.026 C 
BRANCH  17  18
HETATM   18  C10 UNL     1       0.569  -0.197  -1.910  1.00  0.00     0.053 C 
BRANCH  18  19
HETATM   19  C11 UNL     1       1.656   0.409  -1.157  1.00  0.00    -0.027 C 
BRANCH  19  20
HETATM   20  C12 UNL     1       2.901   0.266  -0.692  1.00  0.00    -0.024 C 
BRANCH  20  21
HETATM   21  C13 UNL     1       4.233   0.265  -0.119  1.00  0.00     0.053 C 
HETATM   22  C14 UNL     1       4.981  -0.867  -0.379  1.00  0.00     0.013 C 
BRANCH  22  23
HETATM   23  C15 UNL     1       6.269  -0.638   0.310  1.00  0.00    -0.061 A 
HETATM   24  C16 UNL     1       7.254  -1.521   0.289  1.00  0.00    -0.019 A 
HETATM   25  C17 UNL     1       8.633  -1.599   0.864  1.00  0.00     0.031 A 
HETATM   26  C18 UNL     1       8.973  -0.375   1.658  1.00  0.00     0.031 A 
HETATM   27  C19 UNL     1       7.865   0.597   1.665  1.00  0.00    -0.026 A 
HETATM   28  C20 UNL     1       6.677   0.534   1.101  1.00  0.00     0.003 A 
ENDBRANCH  22  23
ENDBRANCH  20  21
ENDBRANCH  19  20
ENDBRANCH  18  19
ENDBRANCH  17  18
ENDBRANCH  15  16
ENDBRANCH   1  15
TORSDOF 12
