REMARK  7 active torsions:
REMARK  status: ('A' for Active; 'I' for Inactive)
REMARK    1  A    between atoms: C2_2  and  S1_3 
REMARK    2  A    between atoms: S1_3  and  N1_6 
REMARK    3  A    between atoms: N1_6  and  C3_7 
REMARK    4  A    between atoms: C3_7  and  C4_8 
REMARK    5  A    between atoms: C4_8  and  C5_9 
REMARK    6  A    between atoms: C10_17  and  N4_18 
REMARK    7  A    between atoms: N4_18  and  C11_19 
ROOT
HETATM    1  C5  UNL     1      -1.258  -1.431  -1.288  1.00  0.00     0.002 C 
HETATM    2  C6  UNL     1      -0.434  -0.529  -1.783  1.00  0.00     0.030 C 
HETATM    3  C7  UNL     1      -0.810   0.296  -2.944  1.00  0.00     0.234 C 
HETATM    4  O3  UNL     1      -0.001   1.473  -3.026  1.00  0.00    -0.327 OA
HETATM    5  C8  UNL     1       1.212   1.582  -2.405  1.00  0.00     0.197 A 
HETATM    6  N2  UNL     1       1.957   2.663  -2.780  1.00  0.00    -0.216 NA
HETATM    7  C9  UNL     1       3.183   2.852  -2.210  1.00  0.00     0.238 A 
HETATM    8  N3  UNL     1       3.622   1.977  -1.303  1.00  0.00    -0.222 NA
HETATM    9  C10 UNL     1       2.951   0.899  -0.887  1.00  0.00     0.160 A 
HETATM   10  C17 UNL     1       1.713   0.710  -1.464  1.00  0.00     0.132 A 
HETATM   11  N5  UNL     1       0.835  -0.368  -1.168  1.00  0.00    -0.351 N 
HETATM   12  H20 UNL     1       1.117  -1.069  -0.481  1.00  0.00     0.166 HD
ENDROOT
BRANCH   1  13
HETATM   13  C4  UNL     1      -2.610  -1.766  -1.760  1.00  0.00     0.044 C 
BRANCH  13  14
HETATM   14  C3  UNL     1      -3.582  -1.503  -0.615  1.00  0.00     0.108 C 
BRANCH  14  15
HETATM   15  N1  UNL     1      -3.512  -0.111  -0.240  1.00  0.00    -0.220 NA
HETATM   16  H6  UNL     1      -2.573   0.136   0.138  1.00  0.00     0.139 HD
BRANCH  15  17
HETATM   17  S1  UNL     1      -4.611   0.234   1.069  1.00  0.00     0.209 S 
HETATM   18  O1  UNL     1      -4.503   1.673   1.482  1.00  0.00    -0.211 OA
HETATM   19  O2  UNL     1      -4.276  -0.594   2.277  1.00  0.00    -0.211 OA
BRANCH  17  20
HETATM   20  C2  UNL     1      -6.293  -0.072   0.623  1.00  0.00     0.153 C 
HETATM   21  C1  UNL     1      -7.207   0.249   1.812  1.00  0.00     0.022 C 
ENDBRANCH  17  20
ENDBRANCH  15  17
ENDBRANCH  14  15
ENDBRANCH  13  14
ENDBRANCH   1  13
BRANCH   9  22
HETATM   22  N4  UNL     1       3.401  -0.031   0.068  1.00  0.00    -0.339 N 
HETATM   23  H15 UNL     1       2.840  -0.841   0.329  1.00  0.00     0.167 HD
BRANCH  22  24
HETATM   24  C11 UNL     1       4.616  -0.028   0.794  1.00  0.00     0.035 A 
HETATM   25  C12 UNL     1       5.530   0.997   0.726  1.00  0.00     0.029 A 
HETATM   26  C13 UNL     1       6.725   1.039   1.409  1.00  0.00     0.004 A 
HETATM   27  C14 UNL     1       7.071  -0.006   2.236  1.00  0.00     0.019 A 
HETATM   28  C15 UNL     1       6.195  -1.061   2.344  1.00  0.00     0.013 A 
HETATM   29 BR1  UNL     1       6.607  -2.531   3.462  1.00  0.00    -0.051 Br
HETATM   30  C16 UNL     1       5.021  -1.034   1.632  1.00  0.00     0.048 A 
ENDBRANCH  22  24
ENDBRANCH   9  22
TORSDOF 7
