REMARK  5 active torsions:
REMARK  status: ('A' for Active; 'I' for Inactive)
REMARK    1  A    between atoms: C5_5  and  O1_6 
REMARK    2  A    between atoms: C6_7  and  O2_8 
REMARK    3  A    between atoms: O2_8  and  C7_9 
REMARK    4  A    between atoms: C9_11  and  O3_12 
REMARK    5  A    between atoms: C13_17  and  O5_18 
ROOT
HETATM    1  C7  UNL     1      -0.034  -0.400  -0.208  1.00  0.00     0.148 C 
HETATM    2  C8  UNL     1       0.210  -1.757  -0.414  1.00  0.00     0.234 C 
HETATM    3  C9  UNL     1       1.526  -2.376  -0.046  1.00  0.00     0.052 C 
HETATM    4  C10 UNL     1       2.791  -2.302   0.491  1.00  0.00     0.031 C 
HETATM    5  C11 UNL     1       2.885  -0.933   0.931  1.00  0.00     0.197 C 
HETATM    6  O4  UNL     1       3.820  -0.039   0.462  1.00  0.00    -0.385 OA
HETATM    7  C12 UNL     1       3.507   1.247   0.955  1.00  0.00     0.201 C 
HETATM    8  C13 UNL     1       2.629   2.083   0.077  1.00  0.00     0.165 C 
HETATM    9  C14 UNL     1       1.490   1.405  -0.593  1.00  0.00     0.204 C 
HETATM   10  O6  UNL     1       0.474   0.947   0.264  1.00  0.00    -0.357 OA
ENDROOT
BRANCH   1  11
HETATM   11  O2  UNL     1      -1.255   0.168  -0.540  1.00  0.00    -0.344 OA
BRANCH  11  12
HETATM   12  C6  UNL     1      -2.483  -0.514  -0.476  1.00  0.00     0.209 A 
HETATM   13  C2  UNL     1      -3.558   0.413  -0.905  1.00  0.00    -0.049 A 
HETATM   14  C1  UNL     1      -3.831   0.978  -2.247  1.00  0.00     0.046 C 
HETATM   15  C3  UNL     1      -4.314   0.707   0.141  1.00  0.00     0.008 A 
HETATM   16  C4  UNL     1      -3.858   0.040   1.345  1.00  0.00     0.035 A 
HETATM   17  C5  UNL     1      -2.798  -0.662   0.972  1.00  0.00     0.076 A 
BRANCH  17  18
HETATM   18  O1  UNL     1      -2.039  -1.469   1.840  1.00  0.00    -0.362 OA
HETATM   19  H6  UNL     1      -1.941  -1.225   2.823  1.00  0.00     0.217 HD
ENDBRANCH  17  18
ENDBRANCH  11  12
ENDBRANCH   1  11
BRANCH   3  20
HETATM   20  O3  UNL     1       0.995  -3.573  -0.588  1.00  0.00    -0.365 OA
HETATM   21  H9  UNL     1       0.682  -4.339  -0.030  1.00  0.00     0.217 HD
ENDBRANCH   3  20
BRANCH   8  22
HETATM   22  O5  UNL     1       3.506   2.466  -1.061  1.00  0.00    -0.391 OA
HETATM   23  H16 UNL     1       2.955   3.003  -1.670  1.00  0.00     0.210 HD
ENDBRANCH   8  22
TORSDOF 5
