REMARK  6 active torsions:
REMARK  status: ('A' for Active; 'I' for Inactive)
REMARK    1  A    between atoms: C1_3  and  O2_4 
REMARK    2  A    between atoms: C2_5  and  C3_6 
REMARK    3  A    between atoms: C6_9  and  O3_10 
REMARK    4  A    between atoms: C7_11  and  O4_12 
REMARK    5  A    between atoms: C11_17  and  O6_18 
REMARK    6  A    between atoms: C13_20  and  O7_21 
ROOT
HETATM    1  O1  UNL     1      -1.869  -2.604  -1.879  1.00  0.00    -0.245 OA
HETATM    2  S1  UNL     1      -1.475  -2.182  -0.487  1.00  0.00     0.117 S 
HETATM    3  C1  UNL     1       0.164  -1.514  -0.409  1.00  0.00     0.174 A 
HETATM    4  C2  UNL     1       0.348  -0.272  -0.008  1.00  0.00     0.129 A 
HETATM    5  O5  UNL     1      -0.633   0.602   0.373  1.00  0.00    -0.305 OA
HETATM    6  C9  UNL     1      -1.968   0.333   0.400  1.00  0.00     0.101 A 
HETATM    7  C10 UNL     1      -2.804   1.343   0.813  1.00  0.00     0.075 A 
HETATM    8  C11 UNL     1      -4.177   1.146   0.868  1.00  0.00     0.071 A 
HETATM    9  C12 UNL     1      -4.715  -0.074   0.505  1.00  0.00     0.074 A 
HETATM   10  C13 UNL     1      -3.874  -1.093   0.089  1.00  0.00     0.090 A 
HETATM   11  C14 UNL     1      -2.537  -0.867   0.047  1.00  0.00     0.105 A 
ENDROOT
BRANCH   4  12
HETATM   12  C3  UNL     1       1.743   0.138   0.007  1.00  0.00     0.004 A 
HETATM   13  C4  UNL     1       1.979   1.456  -0.385  1.00  0.00     0.017 A 
HETATM   14  C5  UNL     1       3.239   2.043  -0.435  1.00  0.00     0.040 A 
HETATM   15  C6  UNL     1       4.309   1.242  -0.067  1.00  0.00     0.098 A 
HETATM   16  C7  UNL     1       4.078  -0.047   0.317  1.00  0.00     0.099 A 
HETATM   17  C8  UNL     1       2.834  -0.625   0.366  1.00  0.00     0.053 A 
BRANCH  15  18
HETATM   18  O3  UNL     1       5.558   1.850  -0.125  1.00  0.00    -0.358 OA
HETATM   19  H4  UNL     1       6.162   1.693   0.687  1.00  0.00     0.217 HD
ENDBRANCH  15  18
BRANCH  16  20
HETATM   20  O4  UNL     1       5.177  -0.822   0.680  1.00  0.00    -0.358 OA
HETATM   21  H5  UNL     1       5.705  -1.340  -0.017  1.00  0.00     0.217 HD
ENDBRANCH  16  20
ENDBRANCH   4  12
BRANCH   3  22
HETATM   22  O2  UNL     1       1.036  -2.470  -0.809  1.00  0.00    -0.350 OA
HETATM   23  H1  UNL     1       1.178  -3.309  -0.245  1.00  0.00     0.218 HD
ENDBRANCH   3  22
BRANCH  10  24
HETATM   24  O7  UNL     1      -4.405  -2.313  -0.273  1.00  0.00    -0.359 OA
HETATM   25  H10 UNL     1      -3.990  -3.187   0.036  1.00  0.00     0.217 HD
ENDBRANCH  10  24
BRANCH   8  26
HETATM   26  O6  UNL     1      -4.966   2.223   1.300  1.00  0.00    -0.361 OA
HETATM   27  H8  UNL     1      -5.038   2.985   0.635  1.00  0.00     0.217 HD
ENDBRANCH   8  26
TORSDOF 6
