REMARK  3 active torsions:
REMARK  status: ('A' for Active; 'I' for Inactive)
REMARK    1  A    between atoms: C2_3  and  N1_4 
REMARK    2  A    between atoms: N1_4  and  C3_5 
REMARK    3  A    between atoms: C9_13  and  C10_14 
ROOT
HETATM    1  O1  UNL     1       4.135   0.878   0.697  1.00  0.00    -0.428 OA
HETATM    2  C1  UNL     1       3.617  -0.083   0.169  1.00  0.00     0.410 C 
HETATM    3  C2  UNL     1       2.919  -1.156  -0.546  1.00  0.00     0.156 C 
ENDROOT
BRANCH   3   4
HETATM    4  N1  UNL     1       1.997  -0.651  -1.520  1.00  0.00    -0.393 N 
HETATM    5  H4  UNL     1       2.175  -0.828  -2.528  1.00  0.00     0.159 HD
BRANCH   4   6
HETATM    6  C3  UNL     1       0.947   0.044  -0.964  1.00  0.00    -0.001 A 
HETATM    7  C4  UNL     1       0.759   0.499   0.279  1.00  0.00     0.063 A 
HETATM    8  C5  UNL     1      -0.392   1.108  -0.136  1.00  0.00     0.056 A 
HETATM    9  C10 UNL     1      -0.199   0.700  -1.198  1.00  0.00     0.021 A 
HETATM   10  C6  UNL     1      -0.891   1.244   1.197  1.00  0.00     0.163 A 
HETATM   11  C8  UNL     1      -1.475   1.840   0.063  1.00  0.00     0.120 A 
HETATM   12  C9  UNL     1      -1.337   1.395  -1.277  1.00  0.00     0.053 A 
HETATM   13  N2  UNL     1      -1.683   1.643   2.243  1.00  0.00    -0.248 NA
HETATM   14  N4  UNL     1      -0.397   0.075   1.964  1.00  0.00    -0.389 N 
HETATM   15  C7  UNL     1      -2.743   2.463   1.904  1.00  0.00     0.225 A 
HETATM   16  N3  UNL     1      -2.503   2.496   0.554  1.00  0.00    -0.266 NA
HETATM   17  C14 UNL     1      -1.060  -1.186   1.577  1.00  0.00     0.145 C 
HETATM   18  H13 UNL     1       0.342   0.052   2.723  1.00  0.00     0.156 HD
HETATM   19  C13 UNL     1      -1.144  -1.430   0.122  1.00  0.00     0.007 C 
HETATM   20  C12 UNL     1      -1.149  -1.505  -1.256  1.00  0.00    -0.013 C 
HETATM   21  C11 UNL     1      -0.594  -0.390  -2.176  1.00  0.00     0.063 C 
HETATM   22 BR1  UNL     1      -1.783  -2.899  -2.382  1.00  0.00    -0.056 Br
ENDBRANCH   4   6
ENDBRANCH   3   4
TORSDOF 3
