REMARK  5 active torsions:
REMARK  status: ('A' for Active; 'I' for Inactive)
REMARK    1  A    between atoms: B1_1  and  C1_2 
REMARK    2  A    between atoms: C5_6  and  O1_7 
REMARK    3  A    between atoms: O1_7  and  C6_8 
REMARK    4  A    between atoms: C6_8  and  O2_9 
REMARK    5  A    between atoms: C10_13  and  O3_14 
ROOT
HETATM    1  C6  UNL     1       0.291  -0.816  -1.138  1.00  0.00     0.255 A 
HETATM    2  C7  UNL     1      -0.490  -0.629   0.099  1.00  0.00     0.064 A 
HETATM    3  C8  UNL     1      -1.738  -0.191   0.142  1.00  0.00     0.002 A 
HETATM    4  C9  UNL     1      -2.371  -0.063   1.475  1.00  0.00     0.046 C 
HETATM    5  C10 UNL     1      -3.640   0.064   1.820  1.00  0.00     0.046 C 
HETATM    6  C11 UNL     1      -4.778   0.108   0.903  1.00  0.00     0.091 C 
HETATM    7  C12 UNL     1      -4.639   1.093  -0.212  1.00  0.00     0.182 C 
HETATM    8  O4  UNL     1      -3.791   0.636  -1.269  1.00  0.00    -0.350 OA
HETATM    9  C13 UNL     1      -2.486   0.162  -1.085  1.00  0.00     0.082 A 
HETATM   10  C14 UNL     1      -1.947   0.058  -2.282  1.00  0.00     0.094 A 
HETATM   11  C15 UNL     1      -0.574  -0.424  -2.318  1.00  0.00     0.218 A 
HETATM   12  O5  UNL     1       0.010  -0.548  -3.442  1.00  0.00    -0.287 OA
ENDROOT
BRANCH   1  13
HETATM   13  O1  UNL     1       1.428  -0.024  -1.242  1.00  0.00    -0.303 OA
BRANCH  13  14
HETATM   14  C5  UNL     1       2.499  -0.145  -0.410  1.00  0.00     0.072 A 
HETATM   15  C4  UNL     1       2.799  -0.968   0.642  1.00  0.00     0.037 A 
HETATM   16  C3  UNL     1       3.979  -0.884   1.336  1.00  0.00     0.002 A 
HETATM   17  C2  UNL     1       4.948   0.065   0.992  1.00  0.00    -0.006 A 
HETATM   18  C1  UNL     1       4.676   0.909  -0.064  1.00  0.00    -0.106 A 
HETATM   19  C16 UNL     1       3.478   0.798  -0.741  1.00  0.00     0.031 A 
BRANCH  18  20
HETATM   20  B1  UNL     1       5.794   1.921  -0.374  1.00  0.00     0.174 B 
HETATM   21  H1  UNL     1       6.279   2.603   0.463  1.00  0.00    -0.026 HD
HETATM   22  H2  UNL     1       6.312   1.894  -1.432  1.00  0.00    -0.026 HD
ENDBRANCH  18  20
ENDBRANCH  13  14
ENDBRANCH   1  13
BRANCH   1  23
HETATM   23  O2  UNL     1       0.566  -2.198  -1.264  1.00  0.00    -0.356 OA
HETATM   24  H6  UNL     1       0.881  -2.409  -2.181  1.00  0.00     0.214 HD
ENDBRANCH   1  23
BRANCH   5  25
HETATM   25  O3  UNL     1      -3.767   0.152   3.215  1.00  0.00    -0.365 OA
HETATM   26  H9  UNL     1      -4.279  -0.594   3.667  1.00  0.00     0.217 HD
ENDBRANCH   5  25
TORSDOF 5
