REMARK  3 active torsions:
REMARK  status: ('A' for Active; 'I' for Inactive)
REMARK    1  A    between atoms: C2_2  and  C3_3 
REMARK       I    between atoms: C3_3  and  N1_5 
REMARK    2  A    between atoms: C9_12  and  N3_13 
REMARK    3  A    between atoms: N3_13  and  C10_14 
ROOT
HETATM    1  C3  UNL     1       3.594  -0.880  -0.567  1.00  0.00     0.250 C 
HETATM    2  O1  UNL     1       3.234  -2.085  -0.528  1.00  0.00    -0.268 OA
HETATM    3  N1  UNL     1       2.734   0.226  -0.312  1.00  0.00    -0.299 N 
HETATM    4  C4  UNL     1       3.249   1.550  -0.384  1.00  0.00     0.100 A 
HETATM    5  C5  UNL     1       2.493   2.623  -0.156  1.00  0.00     0.031 A 
HETATM    6  C6  UNL     1       1.098   2.394   0.175  1.00  0.00    -0.007 A 
HETATM    7  C7  UNL     1       0.307   3.385   0.408  1.00  0.00     0.005 A 
HETATM    8  C8  UNL     1      -0.961   3.164   0.705  1.00  0.00     0.132 A 
HETATM    9  N2  UNL     1      -1.513   1.857   0.790  1.00  0.00    -0.241 NA
HETATM   10  C9  UNL     1      -0.764   0.828   0.565  1.00  0.00     0.140 A 
HETATM   11  C16 UNL     1       0.641   1.027   0.231  1.00  0.00     0.037 A 
HETATM   12  C17 UNL     1       1.364  -0.053   0.010  1.00  0.00     0.115 A 
ENDROOT
BRANCH  10  13
HETATM   13  N3  UNL     1      -1.373  -0.442   0.665  1.00  0.00    -0.340 N 
HETATM   14  H7  UNL     1      -0.762  -1.218   1.009  1.00  0.00     0.167 HD
BRANCH  13  15
HETATM   15  C10 UNL     1      -2.715  -0.737   0.339  1.00  0.00     0.035 A 
HETATM   16  C11 UNL     1      -3.199  -2.035   0.532  1.00  0.00     0.029 A 
HETATM   17  C12 UNL     1      -4.485  -2.426   0.243  1.00  0.00     0.004 A 
HETATM   18  C13 UNL     1      -5.382  -1.521  -0.268  1.00  0.00     0.019 A 
HETATM   19  C14 UNL     1      -4.954  -0.230  -0.476  1.00  0.00     0.013 A 
HETATM   20 BR1  UNL     1      -6.167   1.074  -1.188  1.00  0.00    -0.051 Br
HETATM   21  C15 UNL     1      -3.659   0.118  -0.173  1.00  0.00     0.048 A 
ENDBRANCH  13  15
ENDBRANCH  10  13
BRANCH   1  22
HETATM   22  C2  UNL     1       4.994  -0.714  -0.901  1.00  0.00     0.065 C 
HETATM   23  C1  UNL     1       5.428  -1.957  -1.057  1.00  0.00     0.017 C 
ENDBRANCH   1  22
TORSDOF 3
