REMARK  5 active torsions:
REMARK  status: ('A' for Active; 'I' for Inactive)
REMARK    1  A    between atoms: C3_3  and  N1_4 
REMARK       I    between atoms: N1_4  and  C4_5 
REMARK    2  A    between atoms: C4_5  and  C5_7 
REMARK    3  A    between atoms: C5_7  and  C6_8 
REMARK    4  A    between atoms: C10_14  and  N4_15 
REMARK    5  A    between atoms: N4_15  and  C11_16 
ROOT
HETATM    1  C6  UNL     1       0.727  -0.578  -0.898  1.00  0.00    -0.005 C 
HETATM    2  C7  UNL     1      -0.288  -1.354  -1.207  1.00  0.00     0.004 A 
HETATM    3  C8  UNL     1      -0.209  -2.384  -2.298  1.00  0.00     0.192 A 
HETATM    4  N2  UNL     1      -1.408  -3.087  -2.493  1.00  0.00    -0.278 NA
HETATM    5  C9  UNL     1      -2.522  -2.987  -1.876  1.00  0.00     0.229 A 
HETATM    6  N3  UNL     1      -2.633  -2.040  -0.826  1.00  0.00    -0.224 NA
HETATM    7  C10 UNL     1      -1.599  -1.318  -0.548  1.00  0.00     0.137 A 
ENDROOT
BRANCH   1   8
HETATM    8  C5  UNL     1       1.428   0.475  -0.158  1.00  0.00     0.131 C 
BRANCH   8   9
HETATM    9  C4  UNL     1       2.601  -0.158   0.546  1.00  0.00     0.224 C 
HETATM   10  N1  UNL     1       3.481   0.598   1.366  1.00  0.00    -0.337 N 
HETATM   11  H6  UNL     1       3.211   1.603   1.408  1.00  0.00     0.168 HD
HETATM   12  O1  UNL     1       2.757  -1.408   0.365  1.00  0.00    -0.273 OA
BRANCH  10  13
HETATM   13  C3  UNL     1       4.497  -0.193   1.918  1.00  0.00     0.086 C 
HETATM   14  C2  UNL     1       5.599   0.355   1.458  1.00  0.00    -0.014 C 
HETATM   15  C1  UNL     1       5.380   1.527   0.584  1.00  0.00     0.037 C 
ENDBRANCH  10  13
ENDBRANCH   8   9
ENDBRANCH   1   8
BRANCH   7  16
HETATM   16  N4  UNL     1      -1.776  -0.415   0.531  1.00  0.00    -0.340 N 
HETATM   17  H13 UNL     1      -0.934  -0.340   1.177  1.00  0.00     0.167 HD
BRANCH  16  18
HETATM   18  C11 UNL     1      -2.941   0.351   0.786  1.00  0.00     0.035 A 
HETATM   19  C12 UNL     1      -4.088   0.380   0.030  1.00  0.00     0.029 A 
HETATM   20  C13 UNL     1      -5.179   1.156   0.357  1.00  0.00     0.004 A 
HETATM   21  C14 UNL     1      -5.180   1.958   1.475  1.00  0.00     0.019 A 
HETATM   22  C15 UNL     1      -4.039   1.949   2.254  1.00  0.00     0.013 A 
HETATM   23 BR1  UNL     1      -3.946   3.035   3.834  1.00  0.00    -0.051 Br
HETATM   24  C16 UNL     1      -2.963   1.162   1.902  1.00  0.00     0.048 A 
ENDBRANCH  16  18
ENDBRANCH   7  16
TORSDOF 5
