REMARK  2 active torsions:
REMARK  status: ('A' for Active; 'I' for Inactive)
REMARK    1  A    between atoms: C9_11  and  N2_12 
REMARK    2  A    between atoms: N2_12  and  C10_13 
ROOT
HETATM    1 BR1  UNL     1       6.336   2.946   0.679  1.00  0.00    -0.051 Br
HETATM    2  C1  UNL     1       5.252   1.502   0.110  1.00  0.00     0.011 A 
HETATM    3  C2  UNL     1       5.670   0.453  -0.688  1.00  0.00     0.022 A 
HETATM    4  C3  UNL     1       4.772  -0.558  -1.042  1.00  0.00     0.039 A 
HETATM    5  C4  UNL     1       3.462  -0.558  -0.624  1.00  0.00     0.079 A 
HETATM    6  C5  UNL     1       3.021   0.515   0.197  1.00  0.00    -0.006 A 
HETATM    7  C6  UNL     1       3.935   1.459   0.503  1.00  0.00     0.030 A 
HETATM    8  C7  UNL     1       1.635   0.342   0.525  1.00  0.00     0.160 C 
HETATM    9  N1  UNL     1       0.874   1.236   1.316  1.00  0.00    -0.391 N 
HETATM   10  C8  UNL     1      -0.469   0.647   1.409  1.00  0.00     0.134 C 
HETATM   11  C9  UNL     1      -1.136  -0.441   0.950  1.00  0.00     0.139 C 
HETATM   12  N3  UNL     1      -0.571  -1.396   0.143  1.00  0.00    -0.249 N 
HETATM   13  C16 UNL     1      -0.711  -2.590  -0.165  1.00  0.00     0.199 A 
HETATM   14  N4  UNL     1       0.362  -2.066  -0.865  1.00  0.00    -0.148 NA
HETATM   15  C17 UNL     1       1.627  -2.145  -0.673  1.00  0.00     0.274 C 
HETATM   16  O1  UNL     1       2.867  -1.738  -1.181  1.00  0.00    -0.324 OA
HETATM   17  H6  UNL     1       0.903   2.114   1.833  1.00  0.00     0.159 HD
ENDROOT
BRANCH  11  18
HETATM   18  N2  UNL     1      -2.475  -0.887   1.133  1.00  0.00    -0.340 N 
HETATM   19  H8  UNL     1      -2.663  -1.684   1.778  1.00  0.00     0.167 HD
BRANCH  18  20
HETATM   20  C10 UNL     1      -3.504  -0.197   0.406  1.00  0.00     0.033 A 
HETATM   21  C11 UNL     1      -3.123   0.835  -0.420  1.00  0.00     0.029 A 
HETATM   22  C12 UNL     1      -4.049   1.560  -1.162  1.00  0.00     0.002 A 
HETATM   23  C13 UNL     1      -5.378   1.211  -1.046  1.00  0.00     0.000 A 
HETATM   24  C14 UNL     1      -5.780   0.178  -0.222  1.00  0.00     0.002 A 
HETATM   25  C15 UNL     1      -4.829  -0.534   0.512  1.00  0.00     0.029 A 
ENDBRANCH  18  20
ENDBRANCH  11  18
TORSDOF 2
