REMARK  4 active torsions:
REMARK  status: ('A' for Active; 'I' for Inactive)
REMARK    1  A    between atoms: N1_2  and  C2_3 
REMARK    2  A    between atoms: C3_4  and  C4_5 
REMARK    3  A    between atoms: C9_12  and  C10_13 
REMARK    4  A    between atoms: C10_13  and  C11_14 
ROOT
HETATM    1  C4  UNL     1      -2.705  -0.233   0.270  1.00  0.00     0.029 C 
HETATM    2  C5  UNL     1      -2.294  -0.555   1.463  1.00  0.00     0.031 C 
HETATM    3  C6  UNL     1      -1.017  -0.876   2.039  1.00  0.00     0.035 C 
HETATM    4  C7  UNL     1       0.217  -0.902   1.570  1.00  0.00     0.070 A 
HETATM    5  N2  UNL     1       0.920  -1.289   2.645  1.00  0.00    -0.241 NA
HETATM    6  C8  UNL     1       2.249  -1.411   2.480  1.00  0.00     0.234 A 
HETATM    7  N3  UNL     1       2.863  -1.170   1.335  1.00  0.00    -0.245 NA
HETATM    8  C9  UNL     1       2.255  -0.771   0.176  1.00  0.00     0.051 A 
HETATM    9  C14 UNL     1       0.899  -0.663   0.398  1.00  0.00     0.015 A 
HETATM   10  C15 UNL     1       0.388  -0.293  -0.764  1.00  0.00     0.008 C 
HETATM   11  C16 UNL     1      -0.766   0.058  -1.587  1.00  0.00     0.148 C 
HETATM   12  N4  UNL     1      -2.040  -0.066  -0.971  1.00  0.00    -0.386 N 
HETATM   13  H18 UNL     1      -2.791  -0.013  -1.726  1.00  0.00     0.160 HD
ENDROOT
BRANCH   1  14
HETATM   14  C3  UNL     1      -4.127   0.007   0.170  1.00  0.00     0.048 C 
HETATM   15  C2  UNL     1      -4.878  -0.111   1.243  1.00  0.00     0.112 C 
BRANCH  15  16
HETATM   16  N1  UNL     1      -6.300   0.098   1.285  1.00  0.00    -0.300 NA
HETATM   17  C1  UNL     1      -6.804   1.208   0.836  1.00  0.00     0.170 C 
ENDBRANCH  15  16
ENDBRANCH   1  14
BRANCH   8  18
HETATM   18  C10 UNL     1       2.949  -0.476  -1.065  1.00  0.00     0.087 C 
BRANCH  18  19
HETATM   19  C11 UNL     1       3.228   0.953  -1.366  1.00  0.00    -0.025 C 
HETATM   20  C12 UNL     1       4.479   1.447  -1.553  1.00  0.00    -0.035 C 
HETATM   21  C13 UNL     1       5.618   0.485  -1.445  1.00  0.00     0.036 C 
ENDBRANCH  18  19
ENDBRANCH   8  18
TORSDOF 4
