REMARK  3 active torsions:
REMARK  status: ('A' for Active; 'I' for Inactive)
REMARK    1  A    between atoms: C2_2  and  C3_3 
REMARK       I    between atoms: C3_3  and  N1_5 
REMARK    2  A    between atoms: N1_5  and  C4_6 
REMARK    3  A    between atoms: C8_11  and  C9_12 
ROOT
HETATM    1  C4  UNL     1       2.148  -0.504  -0.607  1.00  0.00     0.061 A 
HETATM    2  C5  UNL     1       2.044  -0.888  -1.848  1.00  0.00     0.036 A 
HETATM    3  C6  UNL     1       0.796  -1.232  -1.695  1.00  0.00     0.082 A 
HETATM    4  N2  UNL     1      -0.440  -1.753  -2.180  1.00  0.00    -0.262 NA
HETATM    5  C7  UNL     1      -1.480  -1.854  -1.398  1.00  0.00     0.103 A 
HETATM    6  C8  UNL     1      -1.612  -1.482   0.055  1.00  0.00     0.083 A 
HETATM    7  C15 UNL     1      -0.305  -0.955   0.483  1.00  0.00     0.004 A 
HETATM    8  C16 UNL     1       0.763  -0.844  -0.292  1.00  0.00     0.019 A 
ENDROOT
BRANCH   6   9
HETATM    9  C9  UNL     1      -2.683  -0.443   0.111  1.00  0.00    -0.044 A 
HETATM   10  C10 UNL     1      -3.858  -0.659   0.822  1.00  0.00     0.008 A 
HETATM   11  C11 UNL     1      -4.822   0.330   0.847  1.00  0.00     0.002 A 
HETATM   12  C12 UNL     1      -4.608   1.528   0.162  1.00  0.00     0.019 A 
HETATM   13  C13 UNL     1      -3.433   1.733  -0.543  1.00  0.00     0.011 A 
HETATM   14 BR1  UNL     1      -3.151   3.376  -1.475  1.00  0.00    -0.051 Br
HETATM   15  C14 UNL     1      -2.458   0.751  -0.577  1.00  0.00     0.027 A 
ENDBRANCH   6   9
BRANCH   1  16
HETATM   16  N1  UNL     1       3.226   0.044   0.143  1.00  0.00    -0.322 N 
HETATM   17  C3  UNL     1       4.486   0.257  -0.482  1.00  0.00     0.244 C 
HETATM   18  O1  UNL     1       4.715  -0.015  -1.692  1.00  0.00    -0.268 OA
HETATM   19  H4  UNL     1       3.105   0.293   1.154  1.00  0.00     0.169 HD
BRANCH  17  20
HETATM   20  C2  UNL     1       5.555   0.821   0.335  1.00  0.00     0.064 C 
HETATM   21  C1  UNL     1       5.404   1.136   1.612  1.00  0.00     0.017 C 
ENDBRANCH  17  20
ENDBRANCH   1  16
TORSDOF 3
