REMARK  4 active torsions:
REMARK  status: ('A' for Active; 'I' for Inactive)
REMARK    1  A    between atoms: C2_2  and  C3_3 
REMARK       I    between atoms: C3_3  and  N1_5 
REMARK    2  A    between atoms: N1_5  and  C4_6 
REMARK    3  A    between atoms: C9_13  and  N4_14 
REMARK    4  A    between atoms: N4_14  and  C10_15 
ROOT
HETATM    1  C4  UNL     1      -2.126  -0.036  -0.813  1.00  0.00     0.036 A 
HETATM    2  C5  UNL     1      -2.440  -0.306  -2.124  1.00  0.00     0.032 A 
HETATM    3  C6  UNL     1      -1.643  -1.042  -2.964  1.00  0.00     0.035 A 
HETATM    4  C7  UNL     1      -0.467  -1.528  -2.440  1.00  0.00     0.072 A 
HETATM    5  N2  UNL     1       0.413  -2.266  -3.143  1.00  0.00    -0.241 NA
HETATM    6  C8  UNL     1       1.553  -2.723  -2.586  1.00  0.00     0.236 A 
HETATM    7  N3  UNL     1       1.899  -2.480  -1.299  1.00  0.00    -0.224 NA
HETATM    8  C9  UNL     1       1.034  -1.735  -0.554  1.00  0.00     0.142 A 
HETATM    9  C16 UNL     1      -0.114  -1.283  -1.137  1.00  0.00     0.041 A 
HETATM   10  C17 UNL     1      -0.960  -0.531  -0.333  1.00  0.00     0.047 A 
ENDROOT
BRANCH   8  11
HETATM   11  N4  UNL     1       1.512  -1.559   0.753  1.00  0.00    -0.340 N 
HETATM   12  H8  UNL     1       1.221  -2.048   1.628  1.00  0.00     0.167 HD
BRANCH  11  13
HETATM   13  C10 UNL     1       2.535  -0.561   0.861  1.00  0.00     0.035 A 
HETATM   14  C11 UNL     1       2.894   0.280  -0.157  1.00  0.00     0.029 A 
HETATM   15  C12 UNL     1       3.905   1.206  -0.001  1.00  0.00     0.004 A 
HETATM   16  C13 UNL     1       4.598   1.322   1.198  1.00  0.00     0.019 A 
HETATM   17  C14 UNL     1       4.278   0.499   2.259  1.00  0.00     0.013 A 
HETATM   18 BR1  UNL     1       5.174   0.575   3.947  1.00  0.00    -0.051 Br
HETATM   19  C15 UNL     1       3.252  -0.418   2.054  1.00  0.00     0.048 A 
ENDBRANCH  11  13
ENDBRANCH   8  11
BRANCH   1  20
HETATM   20  N1  UNL     1      -3.065   0.744  -0.120  1.00  0.00    -0.324 N 
HETATM   21  C3  UNL     1      -3.150   1.095   1.249  1.00  0.00     0.241 C 
HETATM   22  O1  UNL     1      -2.245   0.635   2.000  1.00  0.00    -0.269 OA
HETATM   23  H4  UNL     1      -3.885   1.191  -0.630  1.00  0.00     0.169 HD
BRANCH  21  24
HETATM   24  C2  UNL     1      -4.189   1.932   1.831  1.00  0.00     0.048 C 
HETATM   25  C1  UNL     1      -5.182   2.491   1.160  1.00  0.00     0.037 C 
ENDBRANCH  21  24
ENDBRANCH   1  20
TORSDOF 4
