REMARK  7 active torsions:
REMARK  status: ('A' for Active; 'I' for Inactive)
REMARK    1  A    between atoms: C2_2  and  O1_3 
REMARK    2  A    between atoms: O1_3  and  C3_4 
REMARK    3  A    between atoms: C5_6  and  C6_7 
REMARK    4  A    between atoms: C10_12  and  C11_13 
REMARK    5  A    between atoms: C11_13  and  S1_14 
REMARK    6  A    between atoms: S1_14  and  C12_15 
REMARK    7  A    between atoms: C18_21  and  O2_22 
ROOT
HETATM    1  C6  UNL     1      -3.005   2.403  -0.967  1.00  0.00     0.022 C 
HETATM    2  C7  UNL     1      -2.965   3.713  -1.049  1.00  0.00     0.094 C 
HETATM    3  C8  UNL     1      -2.023   4.676  -0.558  1.00  0.00     0.087 C 
HETATM    4  N1  UNL     1      -1.247   5.441  -0.157  1.00  0.00    -0.192 NA
ENDROOT
BRANCH   1   5
HETATM    5  C5  UNL     1      -2.141   1.411  -0.364  1.00  0.00    -0.032 A 
HETATM    6  C4  UNL     1      -2.448   0.049  -0.452  1.00  0.00     0.051 A 
HETATM    7  C3  UNL     1      -1.619  -0.872   0.128  1.00  0.00     0.103 A 
HETATM    8  C18 UNL     1      -0.487  -0.484   0.796  1.00  0.00     0.106 A 
HETATM    9  C10 UNL     1      -0.071   0.804   0.955  1.00  0.00    -0.012 A 
HETATM   10  C9  UNL     1      -0.975   1.693   0.333  1.00  0.00     0.022 A 
BRANCH   7  11
HETATM   11  O1  UNL     1      -1.830  -2.231   0.101  1.00  0.00    -0.349 OA
BRANCH  11  12
HETATM   12  C2  UNL     1      -2.918  -2.850  -0.517  1.00  0.00     0.171 C 
HETATM   13  C1  UNL     1      -4.237  -2.417   0.065  1.00  0.00     0.034 C 
ENDBRANCH  11  12
ENDBRANCH   7  11
BRANCH   8  14
HETATM   14  O2  UNL     1       0.360  -1.397   1.390  1.00  0.00    -0.357 OA
HETATM   15  H17 UNL     1       0.063  -2.185   1.943  1.00  0.00     0.217 HD
ENDBRANCH   8  14
BRANCH   9  16
HETATM   16  C11 UNL     1       1.080   1.506   1.562  1.00  0.00     0.121 C 
BRANCH  16  17
HETATM   17  S1  UNL     1       2.504   1.613   0.532  1.00  0.00    -0.125 SA
BRANCH  17  18
HETATM   18  C12 UNL     1       3.486   0.212   0.257  1.00  0.00     0.000 A 
HETATM   19  C13 UNL     1       4.390   0.547  -0.758  1.00  0.00     0.018 A 
HETATM   20  C14 UNL     1       5.356  -0.361  -1.216  1.00  0.00     0.001 A 
HETATM   21  C15 UNL     1       5.427  -1.631  -0.652  1.00  0.00     0.000 A 
HETATM   22  C16 UNL     1       4.553  -1.994   0.351  1.00  0.00     0.001 A 
HETATM   23  C17 UNL     1       3.632  -1.060   0.753  1.00  0.00     0.018 A 
ENDBRANCH  17  18
ENDBRANCH  16  17
ENDBRANCH   9  16
ENDBRANCH   1   5
TORSDOF 7
