REMARK  10 active torsions:
REMARK  status: ('A' for Active; 'I' for Inactive)
REMARK    1  A    between atoms: C2_2  and  C3_3 
REMARK    2  A    between atoms: C3_3  and  C4_4 
REMARK    3  A    between atoms: C6_6  and  C7_7 
REMARK    4  A    between atoms: C7_7  and  S1_8 
REMARK    5  A    between atoms: S1_8  and  C8_9 
REMARK    6  A    between atoms: C14_15  and  O1_16 
REMARK    7  A    between atoms: C15_17  and  O2_18 
REMARK    8  A    between atoms: O2_18  and  C16_19 
REMARK    9  A    between atoms: C16_19  and  C17_20 
REMARK   10  A    between atoms: C17_20  and  C19_23 
REMARK       I    between atoms: C19_23  and  N2_24 
ROOT
HETATM    1  C17 UNL     1       4.853   0.808  -1.263  1.00  0.00     0.208 C 
HETATM    2  C18 UNL     1       5.362  -0.615  -1.094  1.00  0.00     0.075 C 
HETATM    3  N1  UNL     1       5.747  -1.664  -0.982  1.00  0.00    -0.196 NA
ENDROOT
BRANCH   1   4
HETATM    4  C16 UNL     1       3.485   0.646  -0.768  1.00  0.00     0.204 C 
BRANCH   4   5
HETATM    5  O2  UNL     1       2.365   0.509  -0.367  1.00  0.00    -0.346 OA
BRANCH   5   6
HETATM    6  C15 UNL     1       1.247  -0.115   0.274  1.00  0.00     0.103 A 
HETATM    7  C14 UNL     1       0.252   0.699  -0.346  1.00  0.00     0.106 A 
HETATM    8  C6  UNL     1      -0.840  -0.101   0.010  1.00  0.00    -0.012 A 
HETATM    9  C5  UNL     1      -1.049  -1.206   0.680  1.00  0.00     0.022 A 
HETATM   10  C4  UNL     1       0.188  -1.715   1.193  1.00  0.00    -0.032 A 
HETATM   11  C20 UNL     1       1.433  -1.232   1.045  1.00  0.00     0.051 A 
BRANCH   7  12
HETATM   12  O1  UNL     1       0.442   1.836  -1.068  1.00  0.00    -0.357 OA
HETATM   13  H12 UNL     1       0.039   2.778  -0.829  1.00  0.00     0.217 HD
ENDBRANCH   7  12
BRANCH   8  14
HETATM   14  C7  UNL     1      -1.759   0.307  -1.192  1.00  0.00     0.121 C 
BRANCH  14  15
HETATM   15  S1  UNL     1      -3.188  -0.830  -1.073  1.00  0.00    -0.125 SA
BRANCH  15  16
HETATM   16  C8  UNL     1      -4.509   0.231  -0.404  1.00  0.00     0.000 A 
HETATM   17  C9  UNL     1      -5.261   0.544  -1.477  1.00  0.00     0.018 A 
HETATM   18  C10 UNL     1      -6.368   1.340  -1.310  1.00  0.00     0.001 A 
HETATM   19  C11 UNL     1      -6.537   1.793   0.033  1.00  0.00     0.000 A 
HETATM   20  C12 UNL     1      -5.741   1.457   1.011  1.00  0.00     0.001 A 
HETATM   21  C13 UNL     1      -4.618   0.614   0.974  1.00  0.00     0.018 A 
ENDBRANCH  15  16
ENDBRANCH  14  15
ENDBRANCH   8  14
BRANCH  10  22
HETATM   22  C3  UNL     1      -0.076  -2.941   1.943  1.00  0.00     0.022 C 
BRANCH  22  23
HETATM   23  C2  UNL     1       0.887  -3.805   2.296  1.00  0.00    -0.035 C 
HETATM   24  C1  UNL     1       1.945  -4.555   2.122  1.00  0.00     0.024 C 
ENDBRANCH  22  23
ENDBRANCH  10  22
ENDBRANCH   5   6
ENDBRANCH   4   5
ENDBRANCH   1   4
BRANCH   1  25
HETATM   25  C19 UNL     1       5.655   1.843  -0.692  1.00  0.00     0.235 C 
HETATM   26  N2  UNL     1       5.727   1.804   0.696  1.00  0.00    -0.369 N 
HETATM   27  H16 UNL     1       6.499   2.465   1.048  1.00  0.00     0.159 HD
HETATM   28  H17 UNL     1       5.067   1.224   1.324  1.00  0.00     0.159 HD
HETATM   29  O3  UNL     1       6.168   2.655  -1.498  1.00  0.00    -0.272 OA
ENDBRANCH   1  25
TORSDOF 10
