REMARK  8 active torsions:
REMARK  status: ('A' for Active; 'I' for Inactive)
REMARK    1  A    between atoms: C2_2  and  O1_3 
REMARK    2  A    between atoms: O1_3  and  C3_4 
REMARK    3  A    between atoms: C5_6  and  C6_7 
REMARK    4  A    between atoms: C7_8  and  C9_11 
REMARK       I    between atoms: C9_11  and  N2_12 
REMARK    5  A    between atoms: C10_14  and  C11_15 
REMARK    6  A    between atoms: C11_15  and  S1_16 
REMARK    7  A    between atoms: S1_16  and  C12_17 
REMARK    8  A    between atoms: C14_19  and  O3_20 
ROOT
HETATM    1  C6  UNL     1      -0.974  -2.062  -0.119  1.00  0.00     0.014 C 
HETATM    2  C7  UNL     1      -2.183  -2.413   0.245  1.00  0.00     0.109 C 
HETATM    3  C8  UNL     1      -3.328  -1.559   0.120  1.00  0.00     0.105 C 
HETATM    4  N1  UNL     1      -4.273  -0.859   0.037  1.00  0.00    -0.191 NA
ENDROOT
BRANCH   2   5
HETATM    5  C9  UNL     1      -2.355  -3.747   0.806  1.00  0.00     0.259 C 
HETATM    6  N2  UNL     1      -3.634  -4.188   1.218  1.00  0.00    -0.365 N 
HETATM    7  H9  UNL     1      -3.812  -3.974   2.228  1.00  0.00     0.159 HD
HETATM    8  H10 UNL     1      -4.149  -4.646   0.420  1.00  0.00     0.159 HD
HETATM    9  O2  UNL     1      -1.403  -4.554   0.948  1.00  0.00    -0.267 OA
ENDBRANCH   2   5
BRANCH   1  10
HETATM   10  C5  UNL     1      -0.275  -0.928  -0.698  1.00  0.00     0.068 A 
HETATM   11  C4  UNL     1      -1.213   0.218  -0.815  1.00  0.00     0.026 A 
HETATM   12  C3  UNL     1      -0.743   1.254  -0.133  1.00  0.00     0.099 A 
HETATM   13  C14 UNL     1       0.533   0.897   0.492  1.00  0.00     0.102 A 
HETATM   14  C10 UNL     1       0.793  -0.368   0.158  1.00  0.00    -0.023 A 
BRANCH  12  15
HETATM   15  O1  UNL     1      -1.339   2.495  -0.008  1.00  0.00    -0.349 OA
BRANCH  15  16
HETATM   16  C2  UNL     1      -1.464   3.202   1.216  1.00  0.00     0.171 C 
HETATM   17  C1  UNL     1      -2.162   4.526   1.020  1.00  0.00     0.034 C 
ENDBRANCH  15  16
ENDBRANCH  12  15
BRANCH  13  18
HETATM   18  O3  UNL     1       1.340   1.717   1.293  1.00  0.00    -0.358 OA
HETATM   19  H18 UNL     1       1.910   2.398   0.847  1.00  0.00     0.217 HD
ENDBRANCH  13  18
BRANCH  14  20
HETATM   20  C11 UNL     1       1.976  -1.137   0.566  1.00  0.00     0.111 C 
BRANCH  20  21
HETATM   21  S1  UNL     1       2.972  -1.714  -0.811  1.00  0.00    -0.165 SA
BRANCH  21  22
HETATM   22  C12 UNL     1       3.752  -0.357  -1.724  1.00  0.00     0.069 C 
HETATM   23  C13 UNL     1       4.753   0.302  -0.816  1.00  0.00     0.016 C 
ENDBRANCH  21  22
ENDBRANCH  20  21
ENDBRANCH  14  20
ENDBRANCH   1  10
TORSDOF 8
