REMARK  3 active torsions:
REMARK  status: ('A' for Active; 'I' for Inactive)
REMARK    1  A    between atoms: N1_3  and  C2_4 
REMARK    2  A    between atoms: C7_11  and  N4_12 
REMARK    3  A    between atoms: N4_12  and  C8_13 
ROOT
HETATM    1  S1  UNL     1       5.988   2.902   0.422  1.00  0.00    -0.055 SA
HETATM    2  C1  UNL     1       4.730   2.125   1.101  1.00  0.00     0.163 C 
HETATM    3  N1  UNL     1       3.868   1.415   1.708  1.00  0.00    -0.234 NA
ENDROOT
BRANCH   3   4
HETATM    4  C2  UNL     1       3.177   0.431   0.946  1.00  0.00     0.059 A 
HETATM    5  C3  UNL     1       3.903  -0.581   0.353  1.00  0.00     0.034 A 
HETATM    6  C4  UNL     1       3.278  -1.561  -0.396  1.00  0.00     0.035 A 
HETATM    7  C5  UNL     1       1.919  -1.497  -0.533  1.00  0.00     0.072 A 
HETATM    8  N2  UNL     1       1.309  -2.434  -1.252  1.00  0.00    -0.241 NA
HETATM    9  C13 UNL     1       1.202  -0.466   0.074  1.00  0.00     0.041 A 
HETATM   10  C6  UNL     1      -0.044  -2.439  -1.435  1.00  0.00     0.236 A 
HETATM   11  N3  UNL     1      -0.750  -1.433  -0.843  1.00  0.00    -0.224 NA
HETATM   12  C7  UNL     1      -0.161  -0.486  -0.120  1.00  0.00     0.141 A 
HETATM   13  C14 UNL     1       1.798   0.513   0.819  1.00  0.00     0.049 A 
BRANCH  12  14
HETATM   14  N4  UNL     1      -1.020   0.500   0.437  1.00  0.00    -0.342 N 
HETATM   15  H4  UNL     1      -0.809   1.330   1.030  1.00  0.00     0.167 HD
BRANCH  14  16
HETATM   16  C8  UNL     1      -2.422   0.426   0.201  1.00  0.00     0.029 A 
HETATM   17  C9  UNL     1      -3.314  -0.505   0.554  1.00  0.00     0.026 A 
HETATM   18  C10 UNL     1      -4.655  -0.140   0.081  1.00  0.00    -0.001 A 
HETATM   19  C11 UNL     1      -4.576   1.018  -0.562  1.00  0.00    -0.005 A 
HETATM   20  C12 UNL     1      -3.162   1.476  -0.542  1.00  0.00     0.130 A 
HETATM   21 BR1  UNL     1      -3.047   3.211   0.290  1.00  0.00    -0.080 Br
ENDBRANCH  14  16
ENDBRANCH  12  14
ENDBRANCH   3   4
TORSDOF 3
