REMARK  6 active torsions:
REMARK  status: ('A' for Active; 'I' for Inactive)
REMARK    1  A    between atoms: O1_2  and  C2_3 
REMARK    2  A    between atoms: C4_5  and  C5_6 
REMARK    3  A    between atoms: C5_6  and  C7_9 
REMARK       I    between atoms: C7_9  and  N2_10 
REMARK    4  A    between atoms: C9_13  and  S1_14 
REMARK    5  A    between atoms: S1_14  and  C10_15 
REMARK    6  A    between atoms: C17_22  and  O3_23 
ROOT
HETATM    1  C5  UNL     1       3.610  -1.044   0.861  1.00  0.00     0.217 C 
HETATM    2  C6  UNL     1       4.189  -1.740  -0.314  1.00  0.00     0.078 C 
HETATM    3  N1  UNL     1       4.646  -2.302  -1.228  1.00  0.00    -0.196 NA
ENDROOT
BRANCH   1   4
HETATM    4  C4  UNL     1       2.339  -0.389   0.447  1.00  0.00    -0.027 A 
HETATM    5  C3  UNL     1       2.215   0.985   0.486  1.00  0.00     0.048 A 
HETATM    6  C2  UNL     1       1.003   1.500   0.085  1.00  0.00     0.103 A 
HETATM    7  C17 UNL     1      -0.053   0.707  -0.340  1.00  0.00     0.116 A 
HETATM    8  C9  UNL     1       0.133  -0.673  -0.357  1.00  0.00     0.042 A 
HETATM    9  C8  UNL     1       1.343  -1.241   0.041  1.00  0.00     0.031 A 
BRANCH   6  10
HETATM   10  O1  UNL     1       0.721   2.859   0.067  1.00  0.00    -0.353 OA
HETATM   11  C1  UNL     1       1.624   3.858   0.449  1.00  0.00     0.210 C 
ENDBRANCH   6  10
BRANCH   7  12
HETATM   12  O3  UNL     1      -1.268   1.198  -0.743  1.00  0.00    -0.357 OA
HETATM   13  H16 UNL     1      -1.538   2.124  -0.398  1.00  0.00     0.218 HD
ENDBRANCH   7  12
BRANCH   8  14
HETATM   14  S1  UNL     1      -1.228  -1.723  -0.906  1.00  0.00    -0.087 SA
BRANCH  14  15
HETATM   15  C10 UNL     1      -2.642  -0.727  -1.350  1.00  0.00     0.011 A 
HETATM   16  C11 UNL     1      -2.900  -0.216  -2.605  1.00  0.00     0.019 A 
HETATM   17  C12 UNL     1      -4.025   0.547  -2.853  1.00  0.00     0.001 A 
HETATM   18  C13 UNL     1      -4.945   0.830  -1.839  1.00  0.00     0.001 A 
HETATM   19  C14 UNL     1      -4.652   0.305  -0.609  1.00  0.00     0.008 A 
HETATM   20  C15 UNL     1      -3.540  -0.461  -0.325  1.00  0.00    -0.045 A 
HETATM   21  C16 UNL     1      -3.334  -0.976   1.060  1.00  0.00     0.049 C 
ENDBRANCH  14  15
ENDBRANCH   8  14
ENDBRANCH   1   4
BRANCH   1  22
HETATM   22  C7  UNL     1       3.407  -2.076   1.884  1.00  0.00     0.237 C 
HETATM   23  N2  UNL     1       4.647  -2.675   2.248  1.00  0.00    -0.369 N 
HETATM   24  H6  UNL     1       4.890  -3.624   2.600  1.00  0.00     0.159 HD
HETATM   25  H7  UNL     1       5.678  -2.838   2.438  1.00  0.00     0.159 HD
HETATM   26  O2  UNL     1       2.469  -2.587   2.532  1.00  0.00    -0.272 OA
ENDBRANCH   1  22
TORSDOF 6
