REMARK  5 active torsions:
REMARK  status: ('A' for Active; 'I' for Inactive)
REMARK    1  A    between atoms: B1_1  and  C1_2 
REMARK    2  A    between atoms: C4_5  and  B2_6 
REMARK    3  A    between atoms: B2_6  and  C5_7 
REMARK    4  A    between atoms: C10_13  and  C11_14 
REMARK    5  A    between atoms: C12_15  and  O1_16 
ROOT
HETATM    1  C1  UNL     1      -0.406   3.856  -0.744  1.00  0.00     0.023 A 
HETATM    2  C2  UNL     1       0.899   3.201  -0.806  1.00  0.00    -0.023 A 
HETATM    3  C3  UNL     1       1.257   1.945  -0.726  1.00  0.00    -0.007 A 
HETATM    4  C4  UNL     1       0.186   1.036  -0.544  1.00  0.00    -0.081 A 
HETATM    5  C10 UNL     1      -1.095   1.046  -0.425  1.00  0.00     0.008 A 
HETATM    6  S1  UNL     1      -1.716   2.698  -0.445  1.00  0.00    -0.132 SA
ENDROOT
BRANCH   5   7
HETATM    7  C11 UNL     1      -2.195   0.163  -0.242  1.00  0.00     0.009 C 
HETATM    8  C12 UNL     1      -2.211  -1.138  -0.103  1.00  0.00     0.055 C 
HETATM    9  C13 UNL     1      -3.066  -2.342   0.093  1.00  0.00     0.069 C 
HETATM   10  C14 UNL     1      -3.410  -3.024  -1.198  1.00  0.00     0.035 C 
HETATM   11  C15 UNL     1      -4.799  -2.544  -1.569  1.00  0.00    -0.011 C 
HETATM   12  P1  UNL     1      -5.527  -1.031  -1.378  1.00  0.00    -0.038 P 
HETATM   13  C16 UNL     1      -4.802   0.513  -0.637  1.00  0.00     0.016 C 
HETATM   14  C17 UNL     1      -3.528   0.830  -0.256  1.00  0.00     0.017 C 
BRANCH   8  15
HETATM   15  O1  UNL     1      -1.023  -1.790  -0.127  1.00  0.00    -0.364 OA
HETATM   16  H15 UNL     1      -0.708  -2.413   0.630  1.00  0.00     0.217 HD
ENDBRANCH   8  15
ENDBRANCH   5   7
BRANCH   4  17
HETATM   17  B2  UNL     1       0.819  -0.382  -0.510  1.00  0.00     0.220 B 
HETATM   18  H6  UNL     1       1.076  -0.837  -1.588  1.00  0.00    -0.016 HD
BRANCH  17  19
HETATM   19  C5  UNL     1       1.811  -0.729   0.668  1.00  0.00    -0.072 C 
HETATM   20  C6  UNL     1       3.086  -0.604   0.983  1.00  0.00    -0.065 C 
HETATM   21  C7  UNL     1       3.822  -1.039   2.229  1.00  0.00     0.064 C 
HETATM   22  C9  UNL     1       4.284  -0.018   0.285  1.00  0.00     0.302 C 
HETATM   23  C8  UNL     1       4.948  -1.839   1.556  1.00  0.00     0.274 C 
HETATM   24  N1  UNL     1       5.312  -1.044   0.400  1.00  0.00     0.087 N 
HETATM   25  H12 UNL     1       5.289  -1.612  -0.473  1.00  0.00     0.316 HD
ENDBRANCH  17  19
ENDBRANCH   4  17
BRANCH   1  26
HETATM   26  B1  UNL     1      -0.438   5.003   0.370  1.00  0.00     0.157 B 
HETATM   27  H1  UNL     1      -0.360   4.592   1.494  1.00  0.00    -0.030 HD
HETATM   28  H2  UNL     1      -1.245   5.868   0.178  1.00  0.00    -0.030 HD
ENDBRANCH   1  26
TORSDOF 5
