REMARK  6 active torsions:
REMARK  status: ('A' for Active; 'I' for Inactive)
REMARK    1  A    between atoms: C2_2  and  C3_3 
REMARK    2  A    between atoms: C3_3  and  C4_4 
REMARK    3  A    between atoms: C7_7  and  C8_8 
REMARK    4  A    between atoms: C9_9  and  C10_10 
REMARK       I    between atoms: C10_10  and  N1_12 
REMARK    5  A    between atoms: N1_12  and  C11_13 
REMARK    6  A    between atoms: C16_19  and  O3_20 
ROOT
HETATM    1  C4  UNL     1      -3.260  -0.254   1.004  1.00  0.00    -0.013 C 
HETATM    2  C5  UNL     1      -1.947  -0.898   1.268  1.00  0.00     0.012 C 
HETATM    3  C6  UNL     1      -0.708  -0.500   0.909  1.00  0.00    -0.003 C 
HETATM    4  C7  UNL     1      -0.088   0.625   0.167  1.00  0.00     0.042 C 
HETATM    5  C13 UNL     1       0.576  -0.015  -1.021  1.00  0.00    -0.006 C 
HETATM    6  C14 UNL     1       1.278   0.524  -2.003  1.00  0.00    -0.003 C 
HETATM    7  C15 UNL     1       1.557   1.955  -2.121  1.00  0.00     0.205 C 
HETATM    8  O2  UNL     1       0.275   2.588  -2.283  1.00  0.00    -0.327 OA
HETATM    9  C16 UNL     1      -0.808   2.404  -1.398  1.00  0.00     0.183 C 
HETATM   10  C17 UNL     1      -1.072   1.616  -0.339  1.00  0.00     0.007 C 
HETATM   11  C18 UNL     1      -2.442   2.220  -0.156  1.00  0.00     0.120 C 
HETATM   12  S1  UNL     1      -3.301   1.543   1.284  1.00  0.00    -0.129 SA
ENDROOT
BRANCH   4  13
HETATM   13  C8  UNL     1       0.979   1.252   0.984  1.00  0.00     0.001 C 
HETATM   14  C9  UNL     1       2.213   0.961   1.332  1.00  0.00     0.072 C 
BRANCH  14  15
HETATM   15  C10 UNL     1       3.004  -0.209   0.978  1.00  0.00     0.244 C 
HETATM   16  O1  UNL     1       2.773  -1.226   0.287  1.00  0.00    -0.268 OA
HETATM   17  N1  UNL     1       4.324  -0.346   1.448  1.00  0.00    -0.337 N 
HETATM   18  H9  UNL     1       4.792   0.370   2.061  1.00  0.00     0.168 HD
BRANCH  17  19
HETATM   19  C11 UNL     1       5.143  -1.446   1.145  1.00  0.00     0.064 C 
HETATM   20  C12 UNL     1       5.333  -2.604   0.547  1.00  0.00     0.049 C 
ENDBRANCH  17  19
ENDBRANCH  14  15
ENDBRANCH   4  13
BRANCH   9  21
HETATM   21  O3  UNL     1      -1.770   3.329  -1.846  1.00  0.00    -0.341 OA
HETATM   22  H17 UNL     1      -2.367   2.975  -2.611  1.00  0.00     0.220 HD
ENDBRANCH   9  21
BRANCH   1  23
HETATM   23  C3  UNL     1      -4.047  -1.224   0.624  1.00  0.00     0.059 C 
BRANCH  23  24
HETATM   24  C2  UNL     1      -5.100  -2.038   0.194  1.00  0.00    -0.026 C 
HETATM   25  C1  UNL     1      -4.539  -3.242   0.156  1.00  0.00     0.007 C 
ENDBRANCH  23  24
ENDBRANCH   1  23
TORSDOF 6
