REMARK  7 active torsions:
REMARK  status: ('A' for Active; 'I' for Inactive)
REMARK    1  A    between atoms: C2_2  and  O1_3 
REMARK    2  A    between atoms: O1_3  and  C3_4 
REMARK    3  A    between atoms: C4_5  and  C5_6 
REMARK    4  A    between atoms: C5_6  and  C7_9 
REMARK    5  A    between atoms: C7_9  and  O3_11 
REMARK    6  A    between atoms: S1_15  and  C11_16 
REMARK    7  A    between atoms: C16_21  and  O4_22 
ROOT
HETATM    1  C5  UNL     1       2.773  -1.110  -0.423  1.00  0.00     0.222 C 
HETATM    2  C6  UNL     1       2.229  -0.960  -1.796  1.00  0.00     0.079 C 
HETATM    3  N1  UNL     1       1.797  -0.833  -2.878  1.00  0.00    -0.196 NA
ENDROOT
BRANCH   1   4
HETATM    4  C4  UNL     1       1.702  -0.796   0.541  1.00  0.00    -0.021 C 
HETATM    5  C3  UNL     1       1.263   0.618   0.364  1.00  0.00     0.214 C 
HETATM    6  C16 UNL     1      -0.044   0.707  -0.350  1.00  0.00     0.107 C 
HETATM    7  S1  UNL     1      -1.247  -0.230   0.242  1.00  0.00    -0.152 SA
HETATM    8  C10 UNL     1      -1.241  -1.381   1.657  1.00  0.00     0.075 C 
HETATM    9  C9  UNL     1       0.058  -1.152   2.387  1.00  0.00     0.037 C 
HETATM   10  C8  UNL     1       1.142  -1.556   1.454  1.00  0.00    -0.018 C 
BRANCH   5  11
HETATM   11  O1  UNL     1       2.174   1.387  -0.352  1.00  0.00    -0.375 OA
BRANCH  11  12
HETATM   12  C2  UNL     1       2.680   2.451   0.353  1.00  0.00     0.164 C 
HETATM   13  C1  UNL     1       1.664   3.448   0.825  1.00  0.00     0.033 C 
ENDBRANCH  11  12
ENDBRANCH   5  11
BRANCH   6  14
HETATM   14  O4  UNL     1      -0.496   1.424  -1.439  1.00  0.00    -0.351 OA
HETATM   15  C17 UNL     1      -1.214   2.616  -1.417  1.00  0.00     0.210 C 
ENDBRANCH   6  14
BRANCH   7  16
HETATM   16  C11 UNL     1      -2.867  -0.252  -0.652  1.00  0.00     0.089 A 
HETATM   17  C12 UNL     1      -3.124  -1.642  -1.164  1.00  0.00    -0.008 A 
HETATM   18  C13 UNL     1      -4.264  -2.107  -0.636  1.00  0.00    -0.003 A 
HETATM   19  C14 UNL     1      -4.830  -1.086   0.240  1.00  0.00    -0.003 A 
HETATM   20  C15 UNL     1      -4.030  -0.024   0.232  1.00  0.00    -0.008 A 
ENDBRANCH   7  16
ENDBRANCH   1   4
BRANCH   1  21
HETATM   21  C7  UNL     1       3.304  -2.492  -0.357  1.00  0.00     0.162 C 
HETATM   22  O2  UNL     1       3.207  -3.608   0.263  1.00  0.00    -0.649 OA
BRANCH  21  23
HETATM   23  O3  UNL     1       4.284  -2.609  -1.362  1.00  0.00    -0.775 OA
HETATM   24  H8  UNL     1       4.808  -3.459  -1.508  1.00  0.00     0.167 HD
ENDBRANCH  21  23
ENDBRANCH   1  21
TORSDOF 7
