REMARK  6 active torsions:
REMARK  status: ('A' for Active; 'I' for Inactive)
REMARK    1  A    between atoms: C2_2  and  O1_3 
REMARK    2  A    between atoms: O1_3  and  C3_4 
REMARK    3  A    between atoms: C3_4  and  C19_22 
REMARK    4  A    between atoms: C4_5  and  C5_6 
REMARK    5  A    between atoms: C5_6  and  C6_7 
REMARK    6  A    between atoms: C19_22  and  O3_23 
ROOT
HETATM    1  C5  UNL     1       0.058   0.777  -0.197  1.00  0.00    -0.017 C 
HETATM    2  C11 UNL     1       1.235   0.171  -0.197  1.00  0.00    -0.056 C 
HETATM    3  C12 UNL     1       2.704   0.260  -0.564  1.00  0.00     0.063 C 
HETATM    4  C13 UNL     1       3.467  -0.042   0.626  1.00  0.00    -0.022 C 
HETATM    5  C14 UNL     1       4.221  -0.907   1.283  1.00  0.00    -0.004 C 
HETATM    6  C15 UNL     1       4.760  -2.248   1.127  1.00  0.00    -0.004 C 
HETATM    7  C16 UNL     1       4.582  -3.024   0.094  1.00  0.00    -0.017 C 
HETATM    8  C17 UNL     1       3.785  -2.311  -0.909  1.00  0.00     0.101 C 
HETATM    9  S1  UNL     1       2.029  -2.347  -0.870  1.00  0.00    -0.161 SA
HETATM   10  C18 UNL     1       1.252  -1.249   0.340  1.00  0.00     0.109 C 
ENDROOT
BRANCH   1  11
HETATM   11  C4  UNL     1      -1.145   0.094   0.371  1.00  0.00     0.047 C 
HETATM   12  C3  UNL     1      -2.049  -0.876   0.323  1.00  0.00     0.070 C 
BRANCH  12  13
HETATM   13  O1  UNL     1      -3.054  -1.020   1.247  1.00  0.00    -0.354 OA
BRANCH  13  14
HETATM   14  C2  UNL     1      -4.363  -0.563   1.173  1.00  0.00     0.171 C 
HETATM   15  C1  UNL     1      -5.053  -0.840   2.518  1.00  0.00     0.034 C 
ENDBRANCH  13  14
ENDBRANCH  12  13
BRANCH  12  16
HETATM   16  C19 UNL     1      -2.284  -2.008  -0.614  1.00  0.00     0.228 C 
BRANCH  16  17
HETATM   17  O3  UNL     1      -3.535  -1.954  -1.219  1.00  0.00    -0.394 OA
HETATM   18  H24 UNL     1      -3.692  -1.062  -1.625  1.00  0.00     0.209 HD
ENDBRANCH  16  17
ENDBRANCH  12  16
ENDBRANCH   1  11
BRANCH   1  19
HETATM   19  C6  UNL     1      -0.269   2.089  -0.809  1.00  0.00     0.017 C 
HETATM   20  C7  UNL     1      -1.495   2.665  -0.749  1.00  0.00    -0.010 C 
HETATM   21  C8  UNL     1      -1.526   3.980  -1.446  1.00  0.00     0.036 C 
HETATM   22  C9  UNL     1      -0.033   4.360  -1.244  1.00  0.00     0.087 C 
HETATM   23  C10 UNL     1       0.522   3.013  -1.655  1.00  0.00     0.160 C 
HETATM   24  O2  UNL     1       1.390   2.613  -2.461  1.00  0.00    -0.292 OA
ENDBRANCH   1  19
TORSDOF 6
