REMARK  8 active torsions:
REMARK  status: ('A' for Active; 'I' for Inactive)
REMARK    1  A    between atoms: C2_2  and  C3_3 
REMARK    2  A    between atoms: C3_3  and  O1_4 
REMARK    3  A    between atoms: O1_4  and  C4_5 
REMARK    4  A    between atoms: C5_6  and  C6_7 
REMARK    5  A    between atoms: C6_7  and  C8_10 
REMARK       I    between atoms: C8_10  and  N2_11 
REMARK    6  A    between atoms: C10_14  and  S1_15 
REMARK    7  A    between atoms: S1_15  and  C11_16 
REMARK    8  A    between atoms: C17_22  and  O3_23 
ROOT
HETATM    1  C6  UNL     1      -2.107   2.563   0.330  1.00  0.00     0.216 C 
HETATM    2  C7  UNL     1      -2.698   2.476   1.669  1.00  0.00     0.078 C 
HETATM    3  N1  UNL     1      -3.176   2.409   2.721  1.00  0.00    -0.196 NA
ENDROOT
BRANCH   1   4
HETATM    4  C5  UNL     1      -0.772   1.886   0.298  1.00  0.00    -0.017 A 
HETATM    5  C4  UNL     1      -0.549   0.440   0.554  1.00  0.00     0.210 A 
HETATM    6  C17 UNL     1       0.948   0.374   0.383  1.00  0.00     0.093 A 
HETATM    7  C10 UNL     1       1.460   1.558   0.087  1.00  0.00     0.038 A 
HETATM    8  C9  UNL     1       0.375   2.505   0.035  1.00  0.00     0.029 A 
BRANCH   5   9
HETATM    9  O1  UNL     1      -1.202  -0.299  -0.399  1.00  0.00    -0.375 OA
BRANCH   9  10
HETATM   10  C3  UNL     1      -2.093  -1.224   0.164  1.00  0.00     0.168 C 
BRANCH  10  11
HETATM   11  C2  UNL     1      -2.743  -1.970  -0.974  1.00  0.00     0.022 C 
HETATM   12  C1  UNL     1      -3.733  -3.003  -0.490  1.00  0.00     0.007 C 
ENDBRANCH  10  11
ENDBRANCH   9  10
ENDBRANCH   5   9
BRANCH   6  13
HETATM   13  O3  UNL     1       1.702  -0.781   0.516  1.00  0.00    -0.361 OA
HETATM   14  H18 UNL     1       1.299  -1.636   0.150  1.00  0.00     0.217 HD
ENDBRANCH   6  13
BRANCH   7  15
HETATM   15  S1  UNL     1       3.194   1.895  -0.193  1.00  0.00    -0.088 SA
BRANCH  15  16
HETATM   16  C11 UNL     1       4.167   0.393  -0.018  1.00  0.00     0.005 A 
HETATM   17  C12 UNL     1       4.726  -0.037   1.176  1.00  0.00     0.019 A 
HETATM   18  C13 UNL     1       5.460  -1.206   1.220  1.00  0.00     0.001 A 
HETATM   19  C14 UNL     1       5.647  -1.962   0.072  1.00  0.00     0.000 A 
HETATM   20  C15 UNL     1       5.086  -1.531  -1.128  1.00  0.00     0.001 A 
HETATM   21  C16 UNL     1       4.350  -0.361  -1.177  1.00  0.00     0.019 A 
ENDBRANCH  15  16
ENDBRANCH   7  15
ENDBRANCH   1   4
BRANCH   1  22
HETATM   22  C8  UNL     1      -3.054   1.992  -0.664  1.00  0.00     0.237 C 
HETATM   23  N2  UNL     1      -4.304   2.706  -0.554  1.00  0.00    -0.369 N 
HETATM   24  H10 UNL     1      -5.012   3.468  -0.777  1.00  0.00     0.159 HD
HETATM   25  H11 UNL     1      -5.264   2.964  -0.241  1.00  0.00     0.159 HD
HETATM   26  O2  UNL     1      -3.703   1.386  -1.555  1.00  0.00    -0.272 OA
ENDBRANCH   1  22
TORSDOF 8
