REMARK  4 active torsions:
REMARK  status: ('A' for Active; 'I' for Inactive)
REMARK    1  A    between atoms: S1_2  and  N1_5 
REMARK    2  A    between atoms: N1_5  and  C2_6 
REMARK    3  A    between atoms: C10_15  and  N3_16 
REMARK    4  A    between atoms: N3_16  and  C11_17 
ROOT
HETATM    1  C2  UNL     1      -3.853  -0.242  -0.721  1.00  0.00     0.043 A 
HETATM    2  C3  UNL     1      -3.957   0.971  -0.074  1.00  0.00     0.033 A 
HETATM    3  C4  UNL     1      -2.928   1.545   0.648  1.00  0.00     0.040 A 
HETATM    4  C5  UNL     1      -1.728   0.845   0.715  1.00  0.00     0.086 A 
HETATM    5  C6  UNL     1      -1.535  -0.375   0.100  1.00  0.00    -0.004 A 
HETATM    6  C7  UNL     1      -2.620  -0.893  -0.612  1.00  0.00     0.041 A 
HETATM    7  C8  UNL     1      -0.458  -1.356  -0.040  1.00  0.00     0.161 C 
HETATM    8  N2  UNL     1       0.831  -0.908   0.396  1.00  0.00    -0.379 N 
HETATM    9  C9  UNL     1       1.307   0.369   0.767  1.00  0.00     0.129 A 
HETATM   10  C10 UNL     1       2.671   0.393   0.577  1.00  0.00     0.160 A 
HETATM   11  N4  UNL     1       3.314   1.530   0.878  1.00  0.00    -0.222 NA
HETATM   12  C16 UNL     1       2.656   2.605   1.347  1.00  0.00     0.238 A 
HETATM   13  N5  UNL     1       1.324   2.549   1.521  1.00  0.00    -0.215 NA
HETATM   14  C17 UNL     1       0.606   1.455   1.246  1.00  0.00     0.202 A 
HETATM   15  O3  UNL     1      -0.764   1.508   1.464  1.00  0.00    -0.289 OA
HETATM   16  H10 UNL     1       1.534  -1.675   0.444  1.00  0.00     0.160 HD
ENDROOT
BRANCH  10  17
HETATM   17  N3  UNL     1       3.475  -0.669   0.088  1.00  0.00    -0.339 N 
HETATM   18  H11 UNL     1       3.388  -1.647  -0.244  1.00  0.00     0.167 HD
BRANCH  17  19
HETATM   19  C11 UNL     1       4.903  -0.532  -0.071  1.00  0.00     0.031 A 
HETATM   20  C12 UNL     1       5.693  -0.257  -1.090  1.00  0.00     0.008 A 
HETATM   21  C13 UNL     1       7.134  -0.239  -0.689  1.00  0.00     0.075 A 
HETATM   22  C14 UNL     1       7.079  -0.552   0.760  1.00  0.00    -0.006 A 
HETATM   23 BR1  UNL     1       8.588  -0.686   1.901  1.00  0.00    -0.055 Br
HETATM   24  C15 UNL     1       5.791  -0.717   1.096  1.00  0.00     0.044 A 
ENDBRANCH  17  19
ENDBRANCH  10  17
BRANCH   1  25
HETATM   25  N1  UNL     1      -4.926  -0.792  -1.447  1.00  0.00    -0.285 N 
HETATM   26  H4  UNL     1      -4.587  -1.169  -2.381  1.00  0.00     0.178 HD
BRANCH  25  27
HETATM   27  S1  UNL     1      -6.571  -0.884  -0.971  1.00  0.00     0.227 S 
HETATM   28  C1  UNL     1      -7.306   0.710  -0.713  1.00  0.00     0.186 C 
HETATM   29  O1  UNL     1      -6.731  -1.730   0.268  1.00  0.00    -0.206 OA
HETATM   30  O2  UNL     1      -7.340  -1.567  -2.066  1.00  0.00    -0.206 OA
ENDBRANCH  25  27
ENDBRANCH   1  25
TORSDOF 4
