REMARK  7 active torsions:
REMARK  status: ('A' for Active; 'I' for Inactive)
REMARK    1  A    between atoms: N1_2  and  C1_3 
REMARK    2  A    between atoms: C1_3  and  C2_4 
REMARK    3  A    between atoms: C3_5  and  C4_6 
REMARK    4  A    between atoms: C6_8  and  C7_9 
REMARK    5  A    between atoms: C7_9  and  S1_10 
REMARK    6  A    between atoms: S1_10  and  C8_11 
REMARK    7  A    between atoms: C14_17  and  O2_18 
ROOT
HETATM    1  C4  UNL     1       2.065  -0.262  -0.743  1.00  0.00    -0.056 C 
HETATM    2  C5  UNL     1       0.812  -0.148  -0.284  1.00  0.00     0.017 C 
HETATM    3  C6  UNL     1      -0.086  -1.177   0.230  1.00  0.00    -0.017 C 
HETATM    4  C14 UNL     1      -0.078  -2.521   0.249  1.00  0.00     0.074 C 
HETATM    5  C15 UNL     1       0.876  -3.565  -0.262  1.00  0.00     0.232 C 
HETATM    6  O3  UNL     1       1.573  -2.985  -1.330  1.00  0.00    -0.384 OA
HETATM    7  C16 UNL     1       2.836  -2.644  -0.941  1.00  0.00     0.172 C 
HETATM    8  C17 UNL     1       3.156  -1.191  -1.004  1.00  0.00     0.064 C 
ENDROOT
BRANCH   3   9
HETATM    9  C7  UNL     1      -1.255  -0.575   0.868  1.00  0.00     0.120 C 
BRANCH   9  10
HETATM   10  S1  UNL     1      -2.239   0.455  -0.233  1.00  0.00    -0.125 SA
BRANCH  10  11
HETATM   11  C8  UNL     1      -3.622   1.107   0.706  1.00  0.00     0.000 A 
HETATM   12  C9  UNL     1      -3.566   2.302   1.393  1.00  0.00     0.018 A 
HETATM   13  C10 UNL     1      -4.703   2.707   2.087  1.00  0.00     0.001 A 
HETATM   14  C11 UNL     1      -5.853   1.932   2.085  1.00  0.00     0.000 A 
HETATM   15  C12 UNL     1      -5.872   0.730   1.378  1.00  0.00     0.001 A 
HETATM   16  C13 UNL     1      -4.741   0.300   0.672  1.00  0.00     0.018 A 
ENDBRANCH  10  11
ENDBRANCH   9  10
ENDBRANCH   3   9
BRANCH   4  17
HETATM   17  O2  UNL     1      -1.200  -3.033   0.879  1.00  0.00    -0.362 OA
HETATM   18  H13 UNL     1      -1.169  -3.887   1.428  1.00  0.00     0.217 HD
ENDBRANCH   4  17
BRANCH   1  19
HETATM   19  C3  UNL     1       2.503   1.100  -1.138  1.00  0.00     0.005 C 
HETATM   20  C2  UNL     1       3.695   1.449  -1.651  1.00  0.00    -0.003 C 
BRANCH  20  21
HETATM   21  C1  UNL     1       4.188   2.766  -2.059  1.00  0.00     0.209 C 
BRANCH  21  22
HETATM   22  N1  UNL     1       5.350   3.108  -1.297  1.00  0.00    -0.137 NA
HETATM   23  O1  UNL     1       5.267   3.587  -0.210  1.00  0.00    -0.067 OA
ENDBRANCH  21  22
ENDBRANCH  20  21
ENDBRANCH   1  19
TORSDOF 7
