REMARK  8 active torsions:
REMARK  status: ('A' for Active; 'I' for Inactive)
REMARK    1  A    between atoms: C2_2  and  O1_3 
REMARK    2  A    between atoms: O1_3  and  C3_4 
REMARK    3  A    between atoms: C6_7  and  C7_8 
REMARK    4  A    between atoms: C7_8  and  C8_9 
REMARK    5  A    between atoms: C10_12  and  C11_13 
REMARK    6  A    between atoms: C11_13  and  S1_14 
REMARK    7  A    between atoms: S1_14  and  C12_15 
REMARK    8  A    between atoms: C18_21  and  O3_22 
ROOT
HETATM    1  C3  UNL     1      -1.282   0.859   0.316  1.00  0.00     0.102 A 
HETATM    2  C4  UNL     1      -1.862  -0.310   0.015  1.00  0.00     0.046 A 
HETATM    3  C5  UNL     1      -1.346  -1.126  -1.076  1.00  0.00    -0.055 A 
HETATM    4  C6  UNL     1      -1.925  -2.273  -1.375  1.00  0.00    -0.013 C 
HETATM    5  C9  UNL     1      -0.177  -0.727  -1.892  1.00  0.00     0.076 A 
HETATM    6  C10 UNL     1       0.322   0.580  -1.418  1.00  0.00    -0.030 A 
HETATM    7  C18 UNL     1      -0.137   1.316  -0.444  1.00  0.00     0.102 A 
ENDROOT
BRANCH   6   8
HETATM    8  C11 UNL     1       1.487   0.985  -2.246  1.00  0.00     0.116 C 
BRANCH   8   9
HETATM    9  S1  UNL     1       2.868  -0.151  -2.179  1.00  0.00    -0.126 SA
BRANCH   9  10
HETATM   10  C12 UNL     1       3.588  -0.154  -0.523  1.00  0.00     0.000 A 
HETATM   11  C13 UNL     1       3.263  -0.951   0.545  1.00  0.00     0.018 A 
HETATM   12  C14 UNL     1       3.941  -0.790   1.734  1.00  0.00     0.001 A 
HETATM   13  C15 UNL     1       4.940   0.175   1.828  1.00  0.00     0.000 A 
HETATM   14  C16 UNL     1       5.286   0.989   0.768  1.00  0.00     0.001 A 
HETATM   15  C17 UNL     1       4.589   0.809  -0.421  1.00  0.00     0.018 A 
ENDBRANCH   9  10
ENDBRANCH   8   9
ENDBRANCH   6   8
BRANCH   7  16
HETATM   16  O3  UNL     1       0.492   2.526  -0.164  1.00  0.00    -0.358 OA
HETATM   17  H20 UNL     1       1.365   2.461   0.352  1.00  0.00     0.217 HD
ENDBRANCH   7  16
BRANCH   1  18
HETATM   18  O1  UNL     1      -1.724   1.675   1.335  1.00  0.00    -0.349 OA
BRANCH  18  19
HETATM   19  C2  UNL     1      -2.979   1.568   1.960  1.00  0.00     0.171 C 
HETATM   20  C1  UNL     1      -3.076   2.632   3.044  1.00  0.00     0.034 C 
ENDBRANCH  18  19
ENDBRANCH   1  18
BRANCH   4  21
HETATM   21  C7  UNL     1      -3.095  -2.949  -0.768  1.00  0.00     0.097 C 
BRANCH  21  22
HETATM   22  C8  UNL     1      -4.189  -3.155  -1.787  1.00  0.00     0.234 C 
HETATM   23  O2  UNL     1      -5.301  -3.543  -2.156  1.00  0.00    -0.307 OA
ENDBRANCH  21  22
ENDBRANCH   4  21
TORSDOF 8
