REMARK  4 active torsions:
REMARK  status: ('A' for Active; 'I' for Inactive)
REMARK    1  A    between atoms: C2_2  and  C3_3 
REMARK    2  A    between atoms: C3_3  and  C4_4 
REMARK    3  A    between atoms: C5_5  and  C6_6 
REMARK    4  A    between atoms: C15_17  and  O2_18 
ROOT
HETATM    1  C6  UNL     1       1.602  -0.795  -0.391  1.00  0.00     0.044 A 
HETATM    2  C7  UNL     1       2.852  -0.592  -0.083  1.00  0.00     0.007 A 
HETATM    3  C8  UNL     1       3.546   0.371   0.769  1.00  0.00     0.027 C 
HETATM    4  C9  UNL     1       4.812   0.147   1.011  1.00  0.00    -0.025 C 
HETATM    5  C10 UNL     1       5.500  -0.609   0.214  1.00  0.00     0.014 C 
HETATM    6  C11 UNL     1       4.917  -1.627  -0.669  1.00  0.00     0.031 C 
HETATM    7  C12 UNL     1       3.580  -1.613  -0.814  1.00  0.00     0.046 A 
HETATM    8  N1  UNL     1       2.702  -2.431  -1.570  1.00  0.00    -0.322 N 
HETATM    9  C13 UNL     1       1.402  -1.911  -1.307  1.00  0.00     0.257 A 
HETATM   10  O1  UNL     1       0.382  -2.411  -1.826  1.00  0.00    -0.267 OA
HETATM   11  H11 UNL     1       3.061  -3.220  -2.159  1.00  0.00     0.169 HD
ENDROOT
BRANCH   1  12
HETATM   12  C5  UNL     1       0.514   0.021   0.135  1.00  0.00     0.015 C 
HETATM   13  C4  UNL     1      -0.786  -0.069  -0.090  1.00  0.00    -0.012 C 
BRANCH  13  14
HETATM   14  C3  UNL     1      -1.944   0.692   0.382  1.00  0.00    -0.003 C 
HETATM   15  C14 UNL     1      -2.648   0.017   1.519  1.00  0.00     0.019 C 
HETATM   16  C15 UNL     1      -3.605  -0.730   0.998  1.00  0.00     0.040 C 
HETATM   17  C16 UNL     1      -3.642  -0.638  -0.486  1.00  0.00     0.065 C 
HETATM   18  C17 UNL     1      -3.001   0.736  -0.666  1.00  0.00     0.024 C 
BRANCH  14  19
HETATM   19  C2  UNL     1      -1.529   2.048   0.887  1.00  0.00     0.013 C 
HETATM   20  C1  UNL     1      -0.862   2.892  -0.136  1.00  0.00     0.006 C 
ENDBRANCH  14  19
BRANCH  16  21
HETATM   21  O2  UNL     1      -4.443  -1.486   1.786  1.00  0.00    -0.365 OA
HETATM   22  H13 UNL     1      -5.433  -1.363   1.859  1.00  0.00     0.217 HD
ENDBRANCH  16  21
ENDBRANCH  13  14
ENDBRANCH   1  12
TORSDOF 4
