REMARK  3 active torsions:
REMARK  status: ('A' for Active; 'I' for Inactive)
REMARK    1  A    between atoms: C2_2  and  O1_3 
REMARK    2  A    between atoms: O1_3  and  C3_4 
REMARK    3  A    between atoms: S1_17  and  C14_18 
ROOT
HETATM    1  C3  UNL     1      -1.784  -0.140  -0.790  1.00  0.00     0.081 C 
HETATM    2  C4  UNL     1      -2.804  -0.340   0.029  1.00  0.00     0.045 C 
HETATM    3  C5  UNL     1      -3.157  -0.489   1.460  1.00  0.00    -0.043 C 
HETATM    4  C6  UNL     1      -4.495  -1.001   1.759  1.00  0.00     0.049 C 
HETATM    5  C7  UNL     1      -2.350  -0.193   2.465  1.00  0.00     0.045 C 
HETATM    6  C8  UNL     1      -2.929  -0.427   3.778  1.00  0.00     0.253 C 
HETATM    7  O2  UNL     1      -4.051  -0.856   4.068  1.00  0.00    -0.268 OA
HETATM    8  N1  UNL     1      -1.985  -0.079   4.788  1.00  0.00    -0.353 N 
HETATM    9  C9  UNL     1      -0.890   0.671   4.188  1.00  0.00     0.162 C 
HETATM   10  C10 UNL     1      -1.011   0.313   2.749  1.00  0.00    -0.024 C 
HETATM   11  C11 UNL     1       0.054   0.492   1.967  1.00  0.00     0.018 C 
HETATM   12  C12 UNL     1       0.363   0.283   0.558  1.00  0.00    -0.034 A 
HETATM   13  C13 UNL     1       1.838   0.385   0.362  1.00  0.00     0.119 A 
HETATM   14  S1  UNL     1       2.334   0.142  -1.349  1.00  0.00    -0.125 SA
HETATM   15  C20 UNL     1      -0.371   0.038  -0.500  1.00  0.00     0.018 A 
HETATM   16  O3  UNL     1       0.443  -0.076  -1.619  1.00  0.00     0.000 OA
HETATM   17  H10 UNL     1      -1.954  -0.259   5.803  1.00  0.00     0.163 HD
HETATM   18  H21 UNL     1       0.017  -0.041  -2.538  1.00  0.00     0.000 HD
ENDROOT
BRANCH  14  19
HETATM   19  C14 UNL     1       4.115   0.283  -1.485  1.00  0.00     0.000 A 
HETATM   20  C15 UNL     1       4.820   1.445  -1.731  1.00  0.00     0.018 A 
HETATM   21  C16 UNL     1       6.201   1.395  -1.809  1.00  0.00     0.001 A 
HETATM   22  C17 UNL     1       6.908   0.203  -1.645  1.00  0.00     0.000 A 
HETATM   23  C18 UNL     1       6.162  -0.938  -1.400  1.00  0.00     0.001 A 
HETATM   24  C19 UNL     1       4.793  -0.898  -1.321  1.00  0.00     0.018 A 
ENDBRANCH  14  19
BRANCH   1  25
HETATM   25  O1  UNL     1      -2.056  -0.084  -2.133  1.00  0.00    -0.351 OA
BRANCH  25  26
HETATM   26  C2  UNL     1      -3.355  -0.175  -2.674  1.00  0.00     0.171 C 
HETATM   27  C1  UNL     1      -3.251  -0.073  -4.199  1.00  0.00     0.034 C 
ENDBRANCH  25  26
ENDBRANCH   1  25
TORSDOF 3
