REMARK  4 active torsions:
REMARK  status: ('A' for Active; 'I' for Inactive)
REMARK    1  A    between atoms: C2_2  and  C4_4 
REMARK    2  A    between atoms: C6_6  and  C7_7 
REMARK    3  A    between atoms: C17_19  and  C18_20 
REMARK    4  A    between atoms: C21_23  and  O2_24 
ROOT
HETATM    1  C4  UNL     1      -1.832  -0.467  -0.326  1.00  0.00    -0.020 A 
HETATM    2  C5  UNL     1      -0.686  -0.261   0.412  1.00  0.00     0.021 A 
HETATM    3  C6  UNL     1       0.009   0.952   0.493  1.00  0.00    -0.034 A 
HETATM    4  C16 UNL     1      -0.469   2.029  -0.207  1.00  0.00     0.021 A 
HETATM    5  C17 UNL     1      -1.603   1.909  -0.965  1.00  0.00    -0.020 A 
HETATM    6  C21 UNL     1      -2.244   0.681  -1.002  1.00  0.00     0.079 A 
ENDROOT
BRANCH   3   7
HETATM    7  C7  UNL     1       1.171   0.994   1.323  1.00  0.00     0.021 C 
HETATM    8  C8  UNL     1       2.154   0.218   1.523  1.00  0.00    -0.013 A 
HETATM    9  C9  UNL     1       3.368   0.317   2.440  1.00  0.00     0.007 A 
HETATM   10  C15 UNL     1       2.093  -1.008   0.627  1.00  0.00     0.277 A 
HETATM   11  C10 UNL     1       4.336  -0.663   2.456  1.00  0.00    -0.013 A 
HETATM   12  C11 UNL     1       5.188  -1.899   2.218  1.00  0.00     0.066 A 
HETATM   13  C12 UNL     1       5.483  -3.135   1.588  1.00  0.00    -0.003 A 
HETATM   14  C13 UNL     1       4.357  -2.852   0.979  1.00  0.00    -0.010 A 
HETATM   15  C14 UNL     1       3.382  -2.585   0.456  1.00  0.00     0.212 A 
HETATM   16  N1  UNL     1       2.211  -2.244  -0.156  1.00  0.00     0.142 N 
HETATM   17  O1  UNL     1       3.049  -1.592   0.881  1.00  0.00     0.000 OA
HETATM   18  H14 UNL     1       1.652  -2.660  -0.860  1.00  0.00     0.325 HD
ENDBRANCH   3   7
BRANCH   1  19
HETATM   19  C2  UNL     1      -2.591  -1.723  -0.460  1.00  0.00     0.013 C 
HETATM   20  C1  UNL     1      -3.803  -1.825   0.399  1.00  0.00     0.015 C 
HETATM   21  C3  UNL     1      -1.707  -2.935  -0.257  1.00  0.00     0.015 C 
ENDBRANCH   1  19
BRANCH   5  22
HETATM   22  C18 UNL     1      -2.188   3.044  -1.743  1.00  0.00     0.013 C 
HETATM   23  C19 UNL     1      -1.581   2.925  -3.132  1.00  0.00     0.015 C 
HETATM   24  C20 UNL     1      -1.832   4.344  -1.067  1.00  0.00     0.015 C 
ENDBRANCH   5  22
BRANCH   6  25
HETATM   25  O2  UNL     1      -3.393   0.661  -1.802  1.00  0.00    -0.360 OA
HETATM   26  H23 UNL     1      -3.554  -0.107  -2.398  1.00  0.00     0.217 HD
ENDBRANCH   6  25
TORSDOF 4
