REMARK  4 active torsions:
REMARK  status: ('A' for Active; 'I' for Inactive)
REMARK    1  A    between atoms: S1_2  and  N1_5 
REMARK    2  A    between atoms: N1_5  and  C2_6 
REMARK    3  A    between atoms: C12_19  and  S2_20 
REMARK    4  A    between atoms: S2_20  and  C13_21 
ROOT
HETATM    1  C2  UNL     1      -4.054  -0.062   0.477  1.00  0.00     0.043 A 
HETATM    2  C3  UNL     1      -4.043   1.217  -0.040  1.00  0.00     0.033 A 
HETATM    3  C4  UNL     1      -2.953   1.677  -0.750  1.00  0.00     0.040 A 
HETATM    4  C5  UNL     1      -1.855   0.868  -0.957  1.00  0.00     0.086 A 
HETATM    5  C6  UNL     1      -1.816  -0.419  -0.461  1.00  0.00    -0.004 A 
HETATM    6  C7  UNL     1      -2.923  -0.844   0.244  1.00  0.00     0.041 A 
HETATM    7  C8  UNL     1      -0.748  -1.440  -0.568  1.00  0.00     0.161 C 
HETATM    8  N2  UNL     1       0.563  -0.882  -0.236  1.00  0.00    -0.380 N 
HETATM    9  C9  UNL     1       1.192   0.295  -0.778  1.00  0.00     0.118 A 
HETATM   10  C10 UNL     1       0.557   1.355  -1.436  1.00  0.00     0.201 A 
HETATM   11  N3  UNL     1       1.280   2.415  -1.902  1.00  0.00    -0.215 NA
HETATM   12  C11 UNL     1       2.631   2.416  -1.710  1.00  0.00     0.237 A 
HETATM   13  N4  UNL     1       3.262   1.408  -1.079  1.00  0.00    -0.232 NA
HETATM   14  C12 UNL     1       2.561   0.339  -0.606  1.00  0.00     0.130 A 
HETATM   15  O3  UNL     1      -0.823   1.471  -1.696  1.00  0.00    -0.289 OA
HETATM   16  H10 UNL     1       1.185  -1.332   0.473  1.00  0.00     0.160 HD
ENDROOT
BRANCH  14  17
HETATM   17  S2  UNL     1       3.287  -1.056   0.245  1.00  0.00    -0.068 SA
BRANCH  17  18
HETATM   18  C13 UNL     1       5.049  -0.782   0.350  1.00  0.00     0.008 A 
HETATM   19  C14 UNL     1       5.889  -1.230  -0.644  1.00  0.00     0.019 A 
HETATM   20  C15 UNL     1       7.242  -0.998  -0.523  1.00  0.00     0.003 A 
HETATM   21  C16 UNL     1       7.682  -0.317   0.609  1.00  0.00     0.019 A 
HETATM   22  C17 UNL     1       6.869   0.137   1.609  1.00  0.00     0.012 A 
HETATM   23 BR1  UNL     1       7.645   1.047   3.081  1.00  0.00    -0.051 Br
HETATM   24  C18 UNL     1       5.508  -0.107   1.468  1.00  0.00     0.038 A 
ENDBRANCH  17  18
ENDBRANCH  14  17
BRANCH   1  25
HETATM   25  N1  UNL     1      -5.079  -0.698   1.226  1.00  0.00    -0.285 N 
HETATM   26  H4  UNL     1      -4.778  -1.238   2.090  1.00  0.00     0.178 HD
BRANCH  25  27
HETATM   27  S1  UNL     1      -6.756  -0.639   0.815  1.00  0.00     0.227 S 
HETATM   28  C1  UNL     1      -7.383   1.003   0.833  1.00  0.00     0.186 C 
HETATM   29  O1  UNL     1      -7.529  -1.545   1.711  1.00  0.00    -0.206 OA
HETATM   30  O2  UNL     1      -6.887  -1.131  -0.620  1.00  0.00    -0.206 OA
ENDBRANCH  25  27
ENDBRANCH   1  25
TORSDOF 4
