REMARK  3 active torsions:
REMARK  status: ('A' for Active; 'I' for Inactive)
REMARK    1  A    between atoms: C3_3  and  C4_4 
REMARK    2  A    between atoms: C7_7  and  C8_8 
REMARK    3  A    between atoms: C9_9  and  C10_10 
ROOT
HETATM    1  C1  UNL     1      -3.585   2.814  -2.829  1.00  0.00     0.011 C 
HETATM    2  C2  UNL     1      -2.622   2.362  -2.090  1.00  0.00    -0.010 C 
HETATM    3  C3  UNL     1      -1.505   1.892  -1.368  1.00  0.00     0.010 C 
ENDROOT
BRANCH   3   4
HETATM    4  C4  UNL     1      -1.135   1.364  -0.219  1.00  0.00    -0.008 A 
HETATM    5  C5  UNL     1       0.310   1.215  -0.380  1.00  0.00     0.114 A 
HETATM    6  C6  UNL     1       1.601   0.785  -0.382  1.00  0.00     0.024 C 
HETATM    7  N1  UNL     1       0.366   0.653   1.081  1.00  0.00    -0.337 N 
HETATM    8  C7  UNL     1       2.439  -0.383   0.020  1.00  0.00    -0.037 C 
HETATM    9  C12 UNL     1       1.940  -1.490   0.665  1.00  0.00     0.011 C 
HETATM   10  C13 UNL     1       0.985  -2.395   1.293  1.00  0.00    -0.003 C 
HETATM   11  C14 UNL     1      -0.322  -2.608   1.582  1.00  0.00    -0.027 C 
HETATM   12  C15 UNL     1      -1.761  -2.756   1.850  1.00  0.00     0.027 C 
HETATM   13  C16 UNL     1      -2.716  -1.920   1.146  1.00  0.00     0.004 C 
HETATM   14  C17 UNL     1      -3.999  -1.420   1.781  1.00  0.00     0.004 C 
HETATM   15  C18 UNL     1      -3.761   0.091   2.317  1.00  0.00     0.028 C 
HETATM   16  C19 UNL     1      -2.969   0.608   1.130  1.00  0.00    -0.009 C 
HETATM   17  C20 UNL     1      -1.676   0.949   1.002  1.00  0.00     0.037 A 
HETATM   18  C21 UNL     1      -0.807   0.463   1.992  1.00  0.00     0.253 A 
HETATM   19  O1  UNL     1      -1.196   0.099   3.102  1.00  0.00    -0.268 OA
HETATM   20  H25 UNL     1       1.084   0.337   1.912  1.00  0.00     0.164 HD
BRANCH   8  21
HETATM   21  C8  UNL     1       3.762  -0.323  -0.409  1.00  0.00     0.007 C 
HETATM   22  C9  UNL     1       4.087   0.785  -1.016  1.00  0.00    -0.026 C 
BRANCH  22  23
HETATM   23  C10 UNL     1       5.460   0.943  -1.513  1.00  0.00     0.022 C 
HETATM   24  C11 UNL     1       5.421   1.110  -3.036  1.00  0.00     0.009 C 
ENDBRANCH  22  23
ENDBRANCH   8  21
ENDBRANCH   3   4
TORSDOF 3
