REMARK  4 active torsions:
REMARK  status: ('A' for Active; 'I' for Inactive)
REMARK    1  A    between atoms: C3_4  and  C4_5 
REMARK    2  A    between atoms: C4_5  and  C10_11 
REMARK    3  A    between atoms: C5_6  and  C6_7 
REMARK    4  A    between atoms: C6_7  and  C7_8 
ROOT
HETATM    1  C10 UNL     1      -1.045   0.045   1.008  1.00  0.00     0.146 A 
HETATM    2  C11 UNL     1      -0.608  -1.132   1.730  1.00  0.00     0.235 A 
HETATM    3  O1  UNL     1       0.391  -0.919   2.499  1.00  0.00    -0.272 OA
HETATM    4  N1  UNL     1      -1.423  -2.234   1.387  1.00  0.00    -0.326 N 
HETATM    5  C12 UNL     1      -2.366  -1.750   0.460  1.00  0.00     0.042 A 
HETATM    6  C13 UNL     1      -3.336  -2.550  -0.108  1.00  0.00     0.030 A 
HETATM    7  C14 UNL     1      -4.227  -2.017  -1.015  1.00  0.00     0.002 A 
HETATM    8  C15 UNL     1      -4.121  -0.681  -1.332  1.00  0.00     0.001 A 
HETATM    9  C16 UNL     1      -3.130   0.054  -0.727  1.00  0.00     0.011 A 
HETATM   10  C17 UNL     1      -2.200  -0.386   0.184  1.00  0.00    -0.014 A 
HETATM   11  H16 UNL     1      -1.232  -3.155   1.823  1.00  0.00     0.169 HD
ENDROOT
BRANCH   1  12
HETATM   12  C4  UNL     1      -0.003   0.727   0.231  1.00  0.00    -0.043 C 
HETATM   13  C5  UNL     1       1.149   0.213  -0.193  1.00  0.00    -0.018 C 
BRANCH  12  14
HETATM   14  C3  UNL     1      -0.294   2.120  -0.185  1.00  0.00     0.027 C 
HETATM   15  C2  UNL     1      -1.227   2.972   0.104  1.00  0.00     0.008 C 
HETATM   16  C1  UNL     1      -1.347   4.367  -0.440  1.00  0.00     0.062 C 
HETATM   17 CL1  UNL     1      -2.635   2.938   1.189  1.00  0.00    -0.089 Cl
ENDBRANCH  12  14
BRANCH  13  18
HETATM   18  C6  UNL     1       2.039  -0.927  -0.215  1.00  0.00     0.031 C 
BRANCH  18  19
HETATM   19  C7  UNL     1       3.417  -0.688   0.369  1.00  0.00    -0.019 C 
HETATM   20  C8  UNL     1       4.166   0.387  -0.348  1.00  0.00     0.010 C 
HETATM   21  C9  UNL     1       4.176  -1.995   0.284  1.00  0.00     0.010 C 
ENDBRANCH  18  19
ENDBRANCH  13  18
ENDBRANCH   1  12
TORSDOF 4
