REMARK  6 active torsions:
REMARK  status: ('A' for Active; 'I' for Inactive)
REMARK    1  A    between atoms: C2_2  and  C4_4 
REMARK    2  A    between atoms: C6_6  and  C7_7 
REMARK    3  A    between atoms: C8_8  and  C9_9 
REMARK    4  A    between atoms: N1_14  and  C14_15 
REMARK    5  A    between atoms: C16_18  and  C17_19 
REMARK    6  A    between atoms: C20_22  and  O2_23 
ROOT
HETATM    1  C4  UNL     1      -2.160  -1.607  -0.235  1.00  0.00    -0.020 A 
HETATM    2  C5  UNL     1      -0.787  -1.779  -0.270  1.00  0.00     0.021 A 
HETATM    3  C6  UNL     1       0.078  -0.706  -0.188  1.00  0.00    -0.035 A 
HETATM    4  C15 UNL     1      -0.384   0.588  -0.067  1.00  0.00     0.021 A 
HETATM    5  C16 UNL     1      -1.748   0.784  -0.031  1.00  0.00    -0.020 A 
HETATM    6  C20 UNL     1      -2.617  -0.290  -0.113  1.00  0.00     0.079 A 
ENDROOT
BRANCH   3   7
HETATM    7  C7  UNL     1       1.516  -0.946  -0.229  1.00  0.00     0.010 C 
HETATM    8  C8  UNL     1       2.417   0.001  -0.158  1.00  0.00     0.003 C 
BRANCH   8   9
HETATM    9  C9  UNL     1       3.893  -0.220  -0.199  1.00  0.00     0.137 A 
HETATM   10  C10 UNL     1       4.384   0.477  -1.418  1.00  0.00     0.003 A 
HETATM   11  C11 UNL     1       5.329   1.398  -1.420  1.00  0.00    -0.000 A 
HETATM   12  C12 UNL     1       5.947   1.772  -0.146  1.00  0.00     0.017 A 
HETATM   13  C13 UNL     1       5.603   1.233   0.990  1.00  0.00     0.094 A 
HETATM   14  N1  UNL     1       4.577   0.237   0.972  1.00  0.00    -0.323 N 
BRANCH  14  15
HETATM   15  C14 UNL     1       4.104  -0.431   2.133  1.00  0.00     0.356 C 
HETATM   16  O1  UNL     1       3.228  -1.312   2.289  1.00  0.00    -0.283 OA
ENDBRANCH  14  15
ENDBRANCH   8   9
ENDBRANCH   3   7
BRANCH   1  17
HETATM   17  C2  UNL     1      -3.079  -2.762  -0.324  1.00  0.00     0.013 C 
HETATM   18  C1  UNL     1      -3.403  -3.320   1.055  1.00  0.00     0.015 C 
HETATM   19  C3  UNL     1      -4.325  -2.465  -1.098  1.00  0.00     0.015 C 
ENDBRANCH   1  17
BRANCH   5  20
HETATM   20  C17 UNL     1      -2.402   2.090   0.093  1.00  0.00     0.013 C 
HETATM   21  C18 UNL     1      -2.667   2.703  -1.256  1.00  0.00     0.015 C 
HETATM   22  C19 UNL     1      -1.558   3.054   0.929  1.00  0.00     0.015 C 
ENDBRANCH   5  20
BRANCH   6  23
HETATM   23  O2  UNL     1      -4.005  -0.148  -0.081  1.00  0.00    -0.360 OA
HETATM   24  H25 UNL     1      -4.479  -0.071   0.811  1.00  0.00     0.217 HD
ENDBRANCH   6  23
TORSDOF 6
