REMARK  0 active torsions:
REMARK  status: ('A' for Active; 'I' for Inactive)
ROOT
HETATM    1  C1  UNL     1       0.092  -4.377   0.226  1.00  0.00     0.030 C 
HETATM    2  C2  UNL     1       0.144  -2.925   0.719  1.00  0.00     0.037 A 
HETATM    3  C3  UNL     1      -0.777  -2.136   1.429  1.00  0.00     0.103 A 
HETATM    4  C4  UNL     1      -1.892  -1.441   2.191  1.00  0.00     0.016 C 
HETATM    5  C5  UNL     1      -1.732  -0.105   2.450  1.00  0.00    -0.019 C 
HETATM    6  C6  UNL     1      -1.068   1.180   2.404  1.00  0.00     0.077 C 
HETATM    7  S1  UNL     1       0.295   1.528   1.281  1.00  0.00    -0.242 SA
HETATM    8  C7  UNL     1       1.110   2.903   1.433  1.00  0.00    -0.007 C 
HETATM    9  C8  UNL     1       1.458   3.359   0.267  1.00  0.00     0.061 C 
HETATM   10  C9  UNL     1       1.355   3.348  -1.056  1.00  0.00     0.022 C 
HETATM   11  C10 UNL     1       1.397   3.527  -2.332  1.00  0.00    -0.020 C 
HETATM   12  C11 UNL     1       0.719   2.748  -3.337  1.00  0.00     0.008 C 
HETATM   13  C12 UNL     1      -0.067   1.765  -2.786  1.00  0.00     0.057 C 
HETATM   14  N1  UNL     1      -0.070   1.722  -1.362  1.00  0.00    -0.295 NA
HETATM   15  C13 UNL     1      -0.440   1.979   0.003  1.00  0.00     0.141 C 
HETATM   16  C14 UNL     1       1.003   0.007   0.619  1.00  0.00    -0.040 C 
HETATM   17  C15 UNL     1       1.730  -0.901  -0.001  1.00  0.00    -0.012 C 
HETATM   18  C16 UNL     1       1.380  -2.406   0.093  1.00  0.00     0.051 C 
HETATM   19  C17 UNL     1       0.543  -1.090   1.505  1.00  0.00     0.137 A 
HETATM   20  S2  UNL     1      -0.772  -1.175   0.304  1.00  0.00    -0.180 SA
HETATM   21  C18 UNL     1      -1.973  -2.334  -0.134  1.00  0.00     0.229 A 
HETATM   22  O1  UNL     1      -1.732  -3.204   1.209  1.00  0.00    -0.360 OA
HETATM   23  H8  UNL     1       1.222   1.295   2.252  1.00  0.00     0.079 HD
HETATM   24  H14 UNL     1      -0.842   2.364  -1.790  1.00  0.00     0.127 HD
ENDROOT
TORSDOF 0
