REMARK  3 active torsions:
REMARK  status: ('A' for Active; 'I' for Inactive)
REMARK    1  A    between atoms: C4_4  and  C5_5 
REMARK    2  A    between atoms: C5_5  and  C6_6 
REMARK    3  A    between atoms: C18_19  and  O1_20 
ROOT
HETATM    1  C5  UNL     1       0.393  -0.654  -0.613  1.00  0.00     0.021 C 
ENDROOT
BRANCH   1   2
HETATM    2  C4  UNL     1      -0.992  -0.619  -0.327  1.00  0.00    -0.035 C 
HETATM    3  C3  UNL     1      -1.328   0.349   0.744  1.00  0.00     0.014 C 
HETATM    4  C2  UNL     1      -2.440   1.066   0.983  1.00  0.00    -0.077 C 
HETATM    5  C1  UNL     1      -2.511   1.990   2.164  1.00  0.00     0.044 C 
HETATM    6  C19 UNL     1      -3.685   1.052   0.166  1.00  0.00     0.098 C 
HETATM    7  C18 UNL     1      -4.020  -0.314  -0.297  1.00  0.00     0.053 C 
HETATM    8  C16 UNL     1      -3.391  -1.371  -0.764  1.00  0.00    -0.032 C 
HETATM    9  C15 UNL     1      -1.954  -1.313  -0.915  1.00  0.00     0.020 C 
HETATM   10  C17 UNL     1      -4.051  -2.639  -1.159  1.00  0.00     0.050 C 
BRANCH   7  11
HETATM   11  O1  UNL     1      -5.369  -0.640  -0.255  1.00  0.00    -0.364 OA
HETATM   12  H19 UNL     1      -5.868  -0.582  -1.143  1.00  0.00     0.217 HD
ENDBRANCH   7  11
ENDBRANCH   1   2
BRANCH   1  13
HETATM   13  C6  UNL     1       1.677  -0.535  -0.710  1.00  0.00    -0.023 C 
HETATM   14  C7  UNL     1       2.451   0.378   0.165  1.00  0.00    -0.001 A 
HETATM   15  C8  UNL     1       2.370   0.853   1.473  1.00  0.00     0.014 A 
HETATM   16  C12 UNL     1       3.536   0.872  -0.572  1.00  0.00     0.039 A 
HETATM   17  C9  UNL     1       3.219   1.728   2.083  1.00  0.00     0.001 A 
HETATM   18  C10 UNL     1       4.280   2.196   1.319  1.00  0.00     0.002 A 
HETATM   19  C11 UNL     1       4.435   1.774   0.014  1.00  0.00     0.030 A 
HETATM   20  N1  UNL     1       3.439   0.248  -1.872  1.00  0.00    -0.381 N 
HETATM   21  C13 UNL     1       2.838  -1.059  -1.540  1.00  0.00     0.112 C 
HETATM   22  H10 UNL     1       3.771   0.759  -2.743  1.00  0.00     0.160 HD
HETATM   23  C14 UNL     1       3.825  -1.779  -0.675  1.00  0.00     0.037 C 
ENDBRANCH   1  13
TORSDOF 3
