REMARK  5 active torsions:
REMARK  status: ('A' for Active; 'I' for Inactive)
REMARK    1  A    between atoms: C6_6  and  C7_7 
REMARK    2  A    between atoms: C7_7  and  C9_9 
REMARK    3  A    between atoms: C9_9  and  C10_10 
REMARK    4  A    between atoms: C10_10  and  C11_11 
REMARK    5  A    between atoms: C18_20  and  O1_21 
ROOT
HETATM    1  C7  UNL     1      -0.468  -0.169  -1.236  1.00  0.00     0.022 C 
HETATM    2  C8  UNL     1       0.023  -1.536  -0.804  1.00  0.00     0.015 C 
ENDROOT
BRANCH   1   3
HETATM    3  C6  UNL     1      -1.555   0.303  -0.344  1.00  0.00    -0.009 C 
HETATM    4  C5  UNL     1      -1.905   1.285   0.471  1.00  0.00    -0.004 C 
HETATM    5  C4  UNL     1      -2.938   2.003   0.223  1.00  0.00    -0.017 C 
HETATM    6  C3  UNL     1      -4.157   1.493   0.297  1.00  0.00    -0.006 C 
HETATM    7  C2  UNL     1      -4.576   0.161   0.817  1.00  0.00     0.030 C 
HETATM    8  C1  UNL     1      -6.074   0.070   0.599  1.00  0.00     0.018 C 
HETATM    9  C19 UNL     1      -3.867  -0.874  -0.024  1.00  0.00     0.018 C 
HETATM   10  C18 UNL     1      -2.599  -0.751  -0.477  1.00  0.00     0.070 C 
BRANCH  10  11
HETATM   11  O1  UNL     1      -2.393  -1.929  -1.190  1.00  0.00    -0.360 OA
HETATM   12  H17 UNL     1      -2.876  -2.144  -2.059  1.00  0.00     0.217 HD
ENDBRANCH  10  11
ENDBRANCH   1   3
BRANCH   1  13
HETATM   13  C9  UNL     1       0.671   0.823  -1.281  1.00  0.00     0.036 C 
BRANCH  13  14
HETATM   14  C10 UNL     1       1.266   0.998   0.049  1.00  0.00    -0.028 C 
BRANCH  14  15
HETATM   15  C11 UNL     1       2.370   0.886   0.788  1.00  0.00    -0.068 A 
HETATM   16  B1  UNL     1       2.370   1.332   2.550  1.00  0.00     0.345 B 
HETATM   17  N1  UNL     1       4.398   0.855   2.844  1.00  0.00    -0.355 NA
HETATM   18  C12 UNL     1       4.562   0.467   1.492  1.00  0.00     0.043 A 
HETATM   19  C13 UNL     1       5.893   0.057   1.309  1.00  0.00     0.030 A 
HETATM   20  C17 UNL     1       3.689   0.444   0.461  1.00  0.00    -0.013 A 
HETATM   21  C14 UNL     1       6.354  -0.386   0.062  1.00  0.00     0.002 A 
HETATM   22  C15 UNL     1       5.469  -0.418  -1.016  1.00  0.00     0.001 A 
HETATM   23  C16 UNL     1       4.190   0.002  -0.739  1.00  0.00     0.013 A 
ENDBRANCH  14  15
ENDBRANCH  13  14
ENDBRANCH   1  13
TORSDOF 5
