REMARK  6 active torsions:
REMARK  status: ('A' for Active; 'I' for Inactive)
REMARK    1  A    between atoms: S1_2  and  C2_3 
REMARK    2  A    between atoms: C2_3  and  C3_4 
REMARK    3  A    between atoms: C5_6  and  C6_7 
REMARK    4  A    between atoms: C15_19  and  C16_20 
REMARK    5  A    between atoms: C16_20  and  S3_21 
REMARK    6  A    between atoms: C18_23  and  O2_24 
ROOT
HETATM    1  C3  UNL     1      -2.020   0.027  -0.791  1.00  0.00    -0.014 A 
HETATM    2  C4  UNL     1      -0.706  -0.407  -0.724  1.00  0.00     0.022 A 
HETATM    3  C5  UNL     1       0.287   0.405  -0.167  1.00  0.00    -0.034 A 
HETATM    4  C14 UNL     1      -0.062   1.671   0.326  1.00  0.00     0.022 A 
HETATM    5  C15 UNL     1      -1.394   2.089   0.247  1.00  0.00    -0.014 A 
HETATM    6  C18 UNL     1      -2.368   1.273  -0.307  1.00  0.00     0.079 A 
ENDROOT
BRANCH   3   7
HETATM    7  C6  UNL     1       1.644  -0.120  -0.067  1.00  0.00     0.035 C 
HETATM    8  C7  UNL     1       2.010  -1.267   0.444  1.00  0.00     0.069 A 
HETATM    9  C8  UNL     1       1.369  -2.393   1.063  1.00  0.00     0.263 A 
HETATM   10  S2  UNL     1       3.747  -1.762   0.471  1.00  0.00    -0.106 SA
HETATM   11  O1  UNL     1       0.120  -2.450   1.242  1.00  0.00    -0.267 OA
HETATM   12  N1  UNL     1       2.175  -3.479   1.487  1.00  0.00    -0.317 N 
HETATM   13  C9  UNL     1       3.579  -3.381   1.270  1.00  0.00     0.071 A 
HETATM   14  H8  UNL     1       1.848  -4.359   1.951  1.00  0.00     0.169 HD
HETATM   15  C10 UNL     1       4.771  -3.999   1.429  1.00  0.00     0.037 A 
HETATM   16  C11 UNL     1       6.010  -3.380   0.978  1.00  0.00     0.003 A 
HETATM   17  C12 UNL     1       6.316  -2.246   0.390  1.00  0.00     0.007 A 
HETATM   18  C13 UNL     1       5.237  -1.271   0.049  1.00  0.00     0.046 A 
ENDBRANCH   3   7
BRANCH   1  19
HETATM   19  C2  UNL     1      -3.066  -0.872  -1.397  1.00  0.00     0.114 C 
BRANCH  19  20
HETATM   20  S1  UNL     1      -3.508  -0.295  -3.047  1.00  0.00    -0.169 SA
HETATM   21  C1  UNL     1      -4.719  -1.396  -3.775  1.00  0.00     0.090 C 
ENDBRANCH  19  20
ENDBRANCH   1  19
BRANCH   5  22
HETATM   22  C16 UNL     1      -1.821   3.404   0.766  1.00  0.00     0.114 C 
BRANCH  22  23
HETATM   23  S3  UNL     1      -2.149   4.614  -0.557  1.00  0.00    -0.169 SA
HETATM   24  C17 UNL     1      -2.661   6.160   0.283  1.00  0.00     0.090 C 
ENDBRANCH  22  23
ENDBRANCH   5  22
BRANCH   6  25
HETATM   25  O2  UNL     1      -3.703   1.659  -0.400  1.00  0.00    -0.360 OA
HETATM   26  H19 UNL     1      -4.109   2.373   0.191  1.00  0.00     0.217 HD
ENDBRANCH   6  25
TORSDOF 6
