REMARK  4 active torsions:
REMARK  status: ('A' for Active; 'I' for Inactive)
REMARK    1  A    between atoms: S1_2  and  C2_3 
REMARK    2  A    between atoms: C2_3  and  C3_4 
REMARK    3  A    between atoms: C7_8  and  C8_9 
REMARK    4  A    between atoms: C8_9  and  S2_10 
ROOT
HETATM    1  C3  UNL     1       1.779  -0.545   0.790  1.00  0.00    -0.040 C 
HETATM    2  C4  UNL     1       0.572  -1.170   0.704  1.00  0.00    -0.003 C 
HETATM    3  C5  UNL     1      -0.429  -1.307  -0.320  1.00  0.00     0.017 C 
HETATM    4  C6  UNL     1      -0.241  -0.670  -1.664  1.00  0.00    -0.003 C 
HETATM    5  C7  UNL     1       0.949   0.106  -1.953  1.00  0.00    -0.040 C 
HETATM    6  C10 UNL     1       1.404  -0.178  -0.638  1.00  0.00    -0.011 C 
HETATM    7  O1  UNL     1       0.240  -0.463  -0.296  1.00  0.00     0.000 OA
HETATM    8  C11 UNL     1      -0.660   0.675   0.228  1.00  0.00     0.420 C 
HETATM    9  O2  UNL     1      -0.472   1.851   0.386  1.00  0.00    -0.254 OA
HETATM   10  N1  UNL     1      -1.985   0.329   0.623  1.00  0.00     0.034 N 
HETATM   11  C12 UNL     1      -3.293   0.004   1.016  1.00  0.00     0.138 A 
HETATM   12  C13 UNL     1      -4.413   0.862   0.919  1.00  0.00     0.034 A 
HETATM   13  C14 UNL     1      -5.626   0.585   1.380  1.00  0.00     0.002 A 
HETATM   14  C15 UNL     1      -5.594  -0.627   1.951  1.00  0.00    -0.003 A 
HETATM   15  C16 UNL     1      -4.497  -1.388   2.006  1.00  0.00    -0.007 A 
HETATM   16  C17 UNL     1      -3.223  -1.446   1.680  1.00  0.00     0.077 A 
HETATM   17  C18 UNL     1      -1.872  -1.260   1.176  1.00  0.00     0.229 A 
HETATM   18  C19 UNL     1      -1.798  -1.659  -0.141  1.00  0.00     0.044 C 
HETATM   19  H13 UNL     1      -2.107   1.235   1.222  1.00  0.00     0.298 HD
ENDROOT
BRANCH   1  20
HETATM   20  C2  UNL     1       3.070   0.170   0.698  1.00  0.00     0.112 C 
BRANCH  20  21
HETATM   21  S1  UNL     1       4.381  -1.115   0.888  1.00  0.00    -0.169 SA
HETATM   22  C1  UNL     1       4.544  -2.241  -0.442  1.00  0.00     0.090 C 
ENDBRANCH  20  21
ENDBRANCH   1  20
BRANCH   5  23
HETATM   23  C8  UNL     1       1.951   0.943  -2.597  1.00  0.00     0.112 C 
BRANCH  23  24
HETATM   24  S2  UNL     1       1.992   2.624  -1.816  1.00  0.00    -0.169 SA
HETATM   25  C9  UNL     1       3.461   3.444  -2.525  1.00  0.00     0.090 C 
ENDBRANCH  23  24
ENDBRANCH   5  23
TORSDOF 4
