REMARK  6 active torsions:
REMARK  status: ('A' for Active; 'I' for Inactive)
REMARK    1  A    between atoms: S1_2  and  C2_3 
REMARK    2  A    between atoms: C2_3  and  C3_4 
REMARK    3  A    between atoms: C7_9  and  O1_10 
REMARK    4  A    between atoms: C7_9  and  C8_11 
REMARK    5  A    between atoms: C8_11  and  C10_13 
REMARK    6  A    between atoms: C10_13  and  C11_14 
ROOT
HETATM    1  C8  UNL     1       0.420  -1.397  -0.012  1.00  0.00     0.042 C 
HETATM    2  C9  UNL     1       1.266  -2.591   0.432  1.00  0.00     0.017 C 
ENDROOT
BRANCH   1   3
HETATM    3  C7  UNL     1       1.178  -0.331  -0.667  1.00  0.00     0.055 C 
HETATM    4  C6  UNL     1       2.272   0.336  -1.058  1.00  0.00    -0.012 C 
HETATM    5  C3  UNL     1       3.685   0.030  -0.818  1.00  0.00    -0.033 C 
HETATM    6  C5  UNL     1       2.243   1.612  -1.893  1.00  0.00     0.120 C 
HETATM    7  C4  UNL     1       4.562   0.327  -1.750  1.00  0.00     0.053 C 
HETATM    8  S2  UNL     1       3.556   1.064  -3.082  1.00  0.00    -0.136 SA
BRANCH   5   9
HETATM    9  C2  UNL     1       4.238  -0.593   0.410  1.00  0.00     0.113 C 
BRANCH   9  10
HETATM   10  S1  UNL     1       6.073  -0.719   0.282  1.00  0.00    -0.169 SA
HETATM   11  C1  UNL     1       6.789   0.959   0.273  1.00  0.00     0.090 C 
ENDBRANCH   9  10
ENDBRANCH   5   9
BRANCH   3  12
HETATM   12  O1  UNL     1       0.048   0.384  -1.157  1.00  0.00    -0.364 OA
HETATM   13  H9  UNL     1      -0.396   0.175  -2.021  1.00  0.00     0.217 HD
ENDBRANCH   3  12
ENDBRANCH   1   3
BRANCH   1  14
HETATM   14  C10 UNL     1      -0.508  -0.998   1.083  1.00  0.00     0.039 C 
BRANCH  14  15
HETATM   15  C11 UNL     1      -1.561  -0.083   0.714  1.00  0.00    -0.008 C 
HETATM   16  C12 UNL     1      -2.874  -0.339   0.727  1.00  0.00     0.041 A 
HETATM   17  C13 UNL     1      -3.545  -1.581   1.109  1.00  0.00     0.256 A 
HETATM   18  C19 UNL     1      -4.011   0.518   0.372  1.00  0.00     0.006 A 
HETATM   19  O2  UNL     1      -3.080  -2.668   1.503  1.00  0.00    -0.267 OA
HETATM   20  N1  UNL     1      -4.952  -1.468   0.991  1.00  0.00    -0.322 N 
HETATM   21  C14 UNL     1      -5.206  -0.148   0.530  1.00  0.00     0.046 A 
HETATM   22  H17 UNL     1      -5.724  -2.135   1.173  1.00  0.00     0.169 HD
HETATM   23  C15 UNL     1      -6.372   0.535   0.232  1.00  0.00     0.030 A 
HETATM   24  C16 UNL     1      -6.376   1.841  -0.210  1.00  0.00     0.002 A 
HETATM   25  C17 UNL     1      -5.184   2.537  -0.378  1.00  0.00     0.001 A 
HETATM   26  C18 UNL     1      -4.025   1.837  -0.075  1.00  0.00     0.014 A 
ENDBRANCH  14  15
ENDBRANCH   1  14
TORSDOF 6
