REMARK  4 active torsions:
REMARK  status: ('A' for Active; 'I' for Inactive)
REMARK    1  A    between atoms: C6_7  and  C7_8 
REMARK       I    between atoms: C7_8  and  N1_10 
REMARK    2  A    between atoms: N1_10  and  C8_11 
REMARK    3  A    between atoms: C14_17  and  C15_18 
REMARK    4  A    between atoms: C15_18  and  S1_19 
ROOT
HETATM    1  B1  UNL     1      -7.164  -2.783   0.702  1.00  0.00     0.196 B 
HETATM    2  C1  UNL     1      -5.081  -2.125   1.007  1.00  0.00    -0.229 C 
HETATM    3  C2  UNL     1      -3.747  -1.678   1.210  1.00  0.00    -0.033 C 
HETATM    4  C3  UNL     1      -3.139  -2.787   0.891  1.00  0.00    -0.009 C 
HETATM    5  C4  UNL     1      -1.692  -2.985   0.898  1.00  0.00     0.056 C 
HETATM    6  C5  UNL     1      -0.851  -1.831   0.656  1.00  0.00    -0.006 C 
HETATM    7  C6  UNL     1      -0.669  -0.542   0.478  1.00  0.00     0.035 C 
HETATM    8  C14 UNL     1      -1.674   0.515   0.477  1.00  0.00    -0.037 C 
HETATM    9  C17 UNL     1      -2.928   0.613   0.927  1.00  0.00    -0.013 C 
HETATM   10  C18 UNL     1      -3.894  -0.296   1.636  1.00  0.00     0.073 C 
ENDROOT
BRANCH   8  11
HETATM   11  C15 UNL     1      -1.269   1.789  -0.172  1.00  0.00     0.112 C 
BRANCH  11  12
HETATM   12  S1  UNL     1      -0.768   1.546  -1.900  1.00  0.00    -0.169 SA
HETATM   13  C16 UNL     1      -0.305   3.152  -2.564  1.00  0.00     0.090 C 
ENDBRANCH  11  12
ENDBRANCH   8  11
BRANCH   7  14
HETATM   14  C7  UNL     1       0.658  -0.005   0.249  1.00  0.00     0.256 C 
HETATM   15  O1  UNL     1       1.256   1.083   0.042  1.00  0.00    -0.267 OA
HETATM   16  N1  UNL     1       1.823  -0.820   0.206  1.00  0.00    -0.323 N 
HETATM   17  H5  UNL     1       1.866  -1.856   0.329  1.00  0.00     0.169 HD
BRANCH  16  18
HETATM   18  C8  UNL     1       3.084  -0.192  -0.027  1.00  0.00     0.035 A 
HETATM   19  C9  UNL     1       3.943   0.303   0.930  1.00  0.00     0.029 A 
HETATM   20  C10 UNL     1       5.130   0.884   0.540  1.00  0.00     0.002 A 
HETATM   21  C11 UNL     1       5.484   0.984  -0.786  1.00  0.00     0.000 A 
HETATM   22  C12 UNL     1       4.631   0.491  -1.758  1.00  0.00     0.002 A 
HETATM   23  C13 UNL     1       3.450  -0.087  -1.368  1.00  0.00     0.029 A 
ENDBRANCH  16  18
ENDBRANCH   7  14
TORSDOF 4
