REMARK  4 active torsions:
REMARK  status: ('A' for Active; 'I' for Inactive)
REMARK       I    between atoms: N2_3  and  C2_4 
REMARK    1  A    between atoms: C2_4  and  C3_6 
REMARK    2  A    between atoms: C3_6  and  C4_7 
REMARK    3  A    between atoms: C6_9  and  C7_10 
REMARK    4  A    between atoms: C12_15  and  O2_16 
ROOT
HETATM    1  N1  UNL     1       5.095  -4.605  -2.495  1.00  0.00    -0.172 NA
HETATM    2  C1  UNL     1       4.736  -3.928  -1.601  1.00  0.00     0.184 C 
HETATM    3  N2  UNL     1       4.296  -3.096  -0.535  1.00  0.00    -0.264 N 
HETATM    4  C2  UNL     1       3.259  -2.145  -0.741  1.00  0.00     0.234 C 
HETATM    5  O1  UNL     1       2.695  -2.009  -1.866  1.00  0.00    -0.272 OA
HETATM    6  H1  UNL     1       4.814  -3.290   0.347  1.00  0.00     0.181 HD
ENDROOT
BRANCH   4   7
HETATM    7  C3  UNL     1       2.976  -1.399   0.501  1.00  0.00     0.142 C 
BRANCH   7   8
HETATM    8  C4  UNL     1       1.864  -0.446   0.338  1.00  0.00    -0.052 A 
HETATM    9  C5  UNL     1       0.653  -0.277   0.912  1.00  0.00    -0.009 A 
HETATM   10  C6  UNL     1      -0.627   0.465   1.029  1.00  0.00     0.053 A 
HETATM   11  C13 UNL     1      -0.539   1.606   0.210  1.00  0.00     0.037 A 
HETATM   12  C14 UNL     1       0.757   1.423  -0.454  1.00  0.00    -0.045 A 
HETATM   13  C20 UNL     1      -1.609   2.007  -0.815  1.00  0.00    -0.025 A 
HETATM   14  C21 UNL     1      -0.627   2.270  -1.046  1.00  0.00     0.067 A 
HETATM   15  C15 UNL     1       1.970   0.696  -0.626  1.00  0.00     0.015 A 
HETATM   16  C16 UNL     1       0.746   2.574  -1.322  1.00  0.00    -0.046 A 
HETATM   17  C17 UNL     1       1.033   3.646  -2.124  1.00  0.00     0.004 A 
HETATM   18  C18 UNL     1      -0.280   4.158  -2.431  1.00  0.00    -0.020 A 
HETATM   19  C19 UNL     1      -1.185   3.245  -1.726  1.00  0.00     0.023 A 
BRANCH  10  20
HETATM   20  C7  UNL     1      -1.788  -0.460   0.758  1.00  0.00    -0.017 A 
HETATM   21  C8  UNL     1      -1.661  -1.469  -0.197  1.00  0.00     0.011 A 
HETATM   22  C9  UNL     1      -2.658  -2.361  -0.532  1.00  0.00     0.001 A 
HETATM   23  C10 UNL     1      -3.860  -2.192   0.171  1.00  0.00     0.003 A 
HETATM   24  C11 UNL     1      -4.060  -1.218   1.128  1.00  0.00     0.037 A 
HETATM   25  C12 UNL     1      -3.004  -0.373   1.393  1.00  0.00     0.072 A 
BRANCH  25  26
HETATM   26  O2  UNL     1      -3.021   0.677   2.334  1.00  0.00    -0.360 OA
HETATM   27  H10 UNL     1      -3.906   1.106   2.570  1.00  0.00     0.217 HD
ENDBRANCH  25  26
ENDBRANCH  10  20
ENDBRANCH   7   8
ENDBRANCH   4   7
TORSDOF 4
