REMARK  7 active torsions:
REMARK  status: ('A' for Active; 'I' for Inactive)
REMARK    1  A    between atoms: S1_2  and  C2_3 
REMARK    2  A    between atoms: C2_3  and  C3_4 
REMARK    3  A    between atoms: C3_4  and  C4_5 
REMARK    4  A    between atoms: C4_5  and  O1_6 
REMARK    5  A    between atoms: C5_7  and  C6_8 
REMARK    6  A    between atoms: C5_7  and  C16_20 
REMARK    7  A    between atoms: C16_20  and  S2_21 
ROOT
HETATM    1  C6  UNL     1      -0.308  -0.478  -0.424  1.00  0.00     0.013 C 
HETATM    2  C7  UNL     1      -1.595  -0.244  -0.434  1.00  0.00    -0.071 C 
HETATM    3  C8  UNL     1      -2.389   0.923  -0.075  1.00  0.00     0.028 C 
HETATM    4  C9  UNL     1      -2.920   2.072   0.274  1.00  0.00     0.009 C 
HETATM    5  C10 UNL     1      -4.312   2.407   0.446  1.00  0.00     0.031 A 
HETATM    6  C11 UNL     1      -5.648   2.356   0.549  1.00  0.00     0.035 A 
HETATM    7  C12 UNL     1      -5.388   1.015   0.359  1.00  0.00    -0.030 A 
HETATM    8  C13 UNL     1      -5.163  -0.095   0.220  1.00  0.00     0.207 A 
HETATM    9  N1  UNL     1      -4.867  -1.438   0.063  1.00  0.00     0.137 N 
HETATM   10  C14 UNL     1      -3.570  -1.807  -0.531  1.00  0.00     0.245 A 
HETATM   11  O2  UNL     1      -3.871  -0.607  -0.362  1.00  0.00     0.000 OA
HETATM   12  C15 UNL     1      -2.313  -1.348  -1.095  1.00  0.00     0.082 C 
HETATM   13  H14 UNL     1      -5.515  -2.199   0.343  1.00  0.00     0.325 HD
ENDROOT
BRANCH   1  14
HETATM   14  C5  UNL     1       1.015   0.115  -0.118  1.00  0.00    -0.020 C 
HETATM   15  C4  UNL     1       2.152  -0.573  -0.272  1.00  0.00     0.051 C 
BRANCH  15  16
HETATM   16  C3  UNL     1       3.581  -0.714  -0.214  1.00  0.00     0.075 C 
BRANCH  16  17
HETATM   17  C2  UNL     1       4.234  -1.066  -1.534  1.00  0.00     0.080 C 
BRANCH  17  18
HETATM   18  S1  UNL     1       3.618  -2.635  -2.189  1.00  0.00    -0.173 SA
HETATM   19  C1  UNL     1       4.082  -4.034  -1.161  1.00  0.00     0.089 C 
ENDBRANCH  17  18
ENDBRANCH  16  17
ENDBRANCH  15  16
BRANCH  15  20
HETATM   20  O1  UNL     1       1.853  -1.879  -0.752  1.00  0.00    -0.364 OA
HETATM   21  H8  UNL     1       1.574  -2.564  -0.060  1.00  0.00     0.217 HD
ENDBRANCH  15  20
BRANCH  14  22
HETATM   22  C16 UNL     1       1.056   1.504   0.374  1.00  0.00     0.114 C 
BRANCH  22  23
HETATM   23  S2  UNL     1       2.733   2.108   0.727  1.00  0.00    -0.169 SA
HETATM   24  C17 UNL     1       2.545   3.834   1.317  1.00  0.00     0.090 C 
ENDBRANCH  22  23
ENDBRANCH  14  22
ENDBRANCH   1  14
TORSDOF 7
