REMARK  7 active torsions:
REMARK  status: ('A' for Active; 'I' for Inactive)
REMARK    1  A    between atoms: S1_2  and  C2_3 
REMARK    2  A    between atoms: C2_3  and  C3_4 
REMARK    3  A    between atoms: C5_6  and  C6_7 
REMARK    4  A    between atoms: C11_14  and  B1_15 
REMARK    5  A    between atoms: C15_19  and  C16_20 
REMARK    6  A    between atoms: C16_20  and  S2_21 
REMARK    7  A    between atoms: C18_23  and  O2_24 
ROOT
HETATM    1  C3  UNL     1      -1.245   1.485  -0.354  1.00  0.00    -0.014 A 
HETATM    2  C4  UNL     1       0.105   1.438   0.023  1.00  0.00     0.022 A 
HETATM    3  C5  UNL     1       0.632   0.268   0.470  1.00  0.00    -0.034 A 
HETATM    4  C14 UNL     1      -0.080  -0.904   0.582  1.00  0.00     0.022 A 
HETATM    5  C15 UNL     1      -1.404  -0.867   0.213  1.00  0.00    -0.014 A 
HETATM    6  C18 UNL     1      -1.960   0.326  -0.247  1.00  0.00     0.079 A 
ENDROOT
BRANCH   3   7
HETATM    7  C6  UNL     1       1.966   0.334   0.875  1.00  0.00     0.024 C 
HETATM    8  C7  UNL     1       2.967  -0.328   0.326  1.00  0.00     0.012 A 
HETATM    9  C8  UNL     1       2.572  -1.164  -0.791  1.00  0.00     0.248 A 
HETATM   10  C13 UNL     1       4.511  -0.220   0.891  1.00  0.00    -0.013 A 
HETATM   11  O1  UNL     1       1.600  -1.415  -1.370  1.00  0.00    -0.268 OA
HETATM   12  N1  UNL     1       3.873  -1.711  -1.079  1.00  0.00    -0.348 N 
HETATM   13  C9  UNL     1       5.126  -1.323  -0.258  1.00  0.00     0.037 A 
HETATM   14  H8  UNL     1       3.917  -2.372  -1.860  1.00  0.00     0.163 HD
HETATM   15  C10 UNL     1       6.520  -2.105  -0.808  1.00  0.00     0.041 A 
HETATM   16  C11 UNL     1       6.253  -1.496  -0.150  1.00  0.00    -0.041 A 
HETATM   17  C12 UNL     1       5.172   0.730   2.225  1.00  0.00    -0.049 A 
HETATM   18  B1  UNL     1       5.570  -0.051   1.397  1.00  0.00     0.205 B 
ENDBRANCH   3   7
BRANCH   1  19
HETATM   19  C2  UNL     1      -1.903   2.716  -0.853  1.00  0.00     0.114 C 
BRANCH  19  20
HETATM   20  S1  UNL     1      -2.931   3.373   0.506  1.00  0.00    -0.169 SA
HETATM   21  C1  UNL     1      -3.781   4.888  -0.007  1.00  0.00     0.090 C 
ENDBRANCH  19  20
ENDBRANCH   1  19
BRANCH   5  22
HETATM   22  C16 UNL     1      -2.181  -2.137   0.325  1.00  0.00     0.114 C 
BRANCH  22  23
HETATM   23  S2  UNL     1      -3.869  -1.953  -0.261  1.00  0.00    -0.169 SA
HETATM   24  C17 UNL     1      -4.735  -3.558  -0.093  1.00  0.00     0.090 C 
ENDBRANCH  22  23
ENDBRANCH   5  22
BRANCH   6  25
HETATM   25  O2  UNL     1      -3.276   0.322  -0.603  1.00  0.00    -0.360 OA
HETATM   26  H17 UNL     1      -3.699   0.340  -1.497  1.00  0.00     0.217 HD
ENDBRANCH   6  25
TORSDOF 7
