REMARK  8 active torsions:
REMARK  status: ('A' for Active; 'I' for Inactive)
REMARK    1  A    between atoms: C7_7  and  C8_8 
REMARK    2  A    between atoms: C8_8  and  C9_9 
REMARK    3  A    between atoms: C8_8  and  C10_11 
REMARK    4  A    between atoms: C9_9  and  O1_10 
REMARK    5  A    between atoms: C10_11  and  C19_20 
REMARK    6  A    between atoms: C11_12  and  C12_13 
REMARK    7  A    between atoms: C12_13  and  C13_14 
REMARK    8  A    between atoms: C19_20  and  C21_23 
REMARK       I    between atoms: C21_23  and  N2_24 
ROOT
HETATM    1  C19 UNL     1      -0.264   0.814   1.774  1.00  0.00     0.213 C 
HETATM    2  C20 UNL     1       0.793   0.682   2.767  1.00  0.00     0.078 C 
HETATM    3  N1  UNL     1       1.647   0.574   3.542  1.00  0.00    -0.196 NA
ENDROOT
BRANCH   1   4
HETATM    4  C10 UNL     1       0.057   0.009   0.535  1.00  0.00    -0.046 C 
HETATM    5  C11 UNL     1       1.247  -0.541   0.463  1.00  0.00    -0.017 C 
BRANCH   4   6
HETATM    6  C8  UNL     1      -1.100   0.017  -0.358  1.00  0.00     0.073 C 
BRANCH   6   7
HETATM    7  C7  UNL     1      -2.321  -0.566   0.225  1.00  0.00    -0.042 A 
HETATM    8  C2  UNL     1      -3.623  -0.126   0.298  1.00  0.00    -0.055 A 
HETATM    9  C1  UNL     1      -3.859   1.206  -0.303  1.00  0.00     0.049 C 
HETATM   10  C3  UNL     1      -4.598  -0.879   0.895  1.00  0.00     0.007 A 
HETATM   11  C4  UNL     1      -4.346  -2.109   1.456  1.00  0.00     0.001 A 
HETATM   12  C5  UNL     1      -3.046  -2.573   1.397  1.00  0.00     0.001 A 
HETATM   13  C6  UNL     1      -2.046  -1.813   0.790  1.00  0.00     0.008 A 
ENDBRANCH   6   7
BRANCH   6  14
HETATM   14  C9  UNL     1      -0.821  -0.553  -1.744  1.00  0.00     0.178 C 
BRANCH  14  15
HETATM   15  O1  UNL     1      -1.849  -0.308  -2.648  1.00  0.00    -0.400 OA
HETATM   16  H11 UNL     1      -1.750   0.560  -3.107  1.00  0.00     0.209 HD
ENDBRANCH  14  15
ENDBRANCH   6  14
ENDBRANCH   4   6
BRANCH   5  17
HETATM   17  C12 UNL     1       2.123  -1.380  -0.387  1.00  0.00     0.066 C 
BRANCH  17  18
HETATM   18  C13 UNL     1       3.404  -0.688  -0.751  1.00  0.00    -0.055 A 
HETATM   19  C14 UNL     1       3.522   0.091  -1.890  1.00  0.00     0.007 A 
HETATM   20  C15 UNL     1       4.746   0.685  -2.135  1.00  0.00     0.001 A 
HETATM   21  C16 UNL     1       5.834   0.535  -1.306  1.00  0.00     0.000 A 
HETATM   22  C17 UNL     1       5.722  -0.237  -0.175  1.00  0.00     0.001 A 
HETATM   23  C18 UNL     1       4.497  -0.840   0.085  1.00  0.00     0.007 A 
ENDBRANCH  17  18
ENDBRANCH   5  17
ENDBRANCH   1   4
BRANCH   1  24
HETATM   24  C21 UNL     1      -0.576   2.211   1.458  1.00  0.00     0.237 C 
HETATM   25  N2  UNL     1      -1.354   3.193   0.807  1.00  0.00    -0.369 N 
HETATM   26  H21 UNL     1      -2.214   3.638   1.238  1.00  0.00     0.159 HD
HETATM   27  H22 UNL     1      -1.140   3.560  -0.164  1.00  0.00     0.159 HD
HETATM   28  O2  UNL     1       0.182   3.090   1.990  1.00  0.00    -0.272 OA
ENDBRANCH   1  24
TORSDOF 8
