REMARK  2 active torsions:
REMARK  status: ('A' for Active; 'I' for Inactive)
REMARK    1  A    between atoms: S1_2  and  N1_5 
REMARK    2  A    between atoms: N1_5  and  C2_6 
ROOT
HETATM    1  C2  UNL     1       2.758   0.646   0.435  1.00  0.00     0.043 A 
HETATM    2  C3  UNL     1       2.868  -0.707   0.114  1.00  0.00     0.031 A 
HETATM    3  C4  UNL     1       1.778  -1.495  -0.240  1.00  0.00     0.017 A 
HETATM    4  C5  UNL     1       0.549  -0.828  -0.252  1.00  0.00     0.004 A 
HETATM    5  C6  UNL     1       0.430   0.552   0.069  1.00  0.00    -0.017 A 
HETATM    6  C7  UNL     1       1.509   1.278   0.409  1.00  0.00     0.040 A 
HETATM    7  C8  UNL     1      -0.943   0.943  -0.174  1.00  0.00     0.139 C 
HETATM    8  C9  UNL     1      -1.455   2.267  -0.031  1.00  0.00     0.003 C 
HETATM    9  C10 UNL     1      -2.753   2.473   0.202  1.00  0.00    -0.002 C 
HETATM   10  C11 UNL     1      -4.030   1.862   0.411  1.00  0.00    -0.003 C 
HETATM   11  C12 UNL     1      -4.708   0.717   0.553  1.00  0.00    -0.007 C 
HETATM   12  C13 UNL     1      -4.276  -0.691   0.578  1.00  0.00     0.148 C 
HETATM   13  N2  UNL     1      -4.430  -1.495  -0.567  1.00  0.00    -0.369 N 
HETATM   14  C14 UNL     1      -3.063  -1.973  -0.697  1.00  0.00     0.154 A 
HETATM   15  N3  UNL     1      -2.808  -3.187  -1.210  1.00  0.00    -0.222 NA
HETATM   16  C15 UNL     1      -1.555  -3.669  -1.348  1.00  0.00     0.236 A 
HETATM   17  N4  UNL     1      -0.435  -2.972  -0.987  1.00  0.00    -0.239 NA
HETATM   18  C16 UNL     1      -0.615  -1.733  -0.464  1.00  0.00     0.099 A 
HETATM   19  C17 UNL     1      -1.911  -1.293  -0.338  1.00  0.00     0.105 A 
HETATM   20  N5  UNL     1      -1.770  -0.055   0.418  1.00  0.00    -0.373 N 
HETATM   21  H15 UNL     1      -5.131  -1.807  -1.250  1.00  0.00     0.161 HD
HETATM   22  H17 UNL     1      -1.970   0.533   1.287  1.00  0.00     0.161 HD
ENDROOT
BRANCH   1  23
HETATM   23  N1  UNL     1       3.875   1.445   0.799  1.00  0.00    -0.285 N 
HETATM   24  H4  UNL     1       3.711   2.064   1.643  1.00  0.00     0.178 HD
BRANCH  23  25
HETATM   25  S1  UNL     1       5.391   1.450  -0.020  1.00  0.00     0.227 S 
HETATM   26  C1  UNL     1       6.204  -0.111   0.005  1.00  0.00     0.186 C 
HETATM   27  O1  UNL     1       5.156   1.869  -1.463  1.00  0.00    -0.206 OA
HETATM   28  O2  UNL     1       6.243   2.532   0.571  1.00  0.00    -0.206 OA
ENDBRANCH  23  25
ENDBRANCH   1  23
TORSDOF 2
