REMARK  6 active torsions:
REMARK  status: ('A' for Active; 'I' for Inactive)
REMARK       I    between atoms: N1_1  and  C1_2 
REMARK    1  A    between atoms: C1_2  and  C2_4 
REMARK    2  A    between atoms: C2_4  and  N2_5 
REMARK    3  A    between atoms: C3_6  and  C4_7 
REMARK    4  A    between atoms: C6_9  and  C7_10 
REMARK    5  A    between atoms: C13_16  and  O2_17 
REMARK    6  A    between atoms: C14_18  and  C15_19 
ROOT
HETATM    1  C4  UNL     1       0.488   1.270  -0.264  1.00  0.00    -0.032 A 
HETATM    2  C5  UNL     1      -0.837   0.929  -0.032  1.00  0.00     0.026 A 
HETATM    3  C6  UNL     1      -1.204  -0.373   0.229  1.00  0.00     0.009 A 
HETATM    4  C13 UNL     1      -0.212  -1.359   0.261  1.00  0.00     0.087 A 
HETATM    5  C14 UNL     1       1.097  -1.021   0.032  1.00  0.00     0.009 A 
HETATM    6  C21 UNL     1       1.452   0.284  -0.231  1.00  0.00     0.026 A 
ENDROOT
BRANCH   1   7
HETATM    7  C3  UNL     1       0.771   2.669  -0.505  1.00  0.00     0.046 C 
HETATM    8  C2  UNL     1       0.450   3.793   0.078  1.00  0.00     0.095 C 
BRANCH   8   9
HETATM    9  C1  UNL     1       0.895   5.085  -0.407  1.00  0.00     0.265 C 
HETATM   10  N1  UNL     1       0.611   6.326   0.156  1.00  0.00    -0.365 N 
HETATM   11  H1  UNL     1       1.462   6.663   0.618  1.00  0.00     0.159 HD
HETATM   12  H2  UNL     1      -0.145   7.048   0.288  1.00  0.00     0.159 HD
HETATM   13  O1  UNL     1       1.626   5.091  -1.460  1.00  0.00    -0.266 OA
ENDBRANCH   8   9
BRANCH   8  14
HETATM   14  N2  UNL     1      -0.367   3.858   1.266  1.00  0.00    -0.395 N 
HETATM   15  H3  UNL     1       0.392   3.660   1.947  1.00  0.00     0.156 HD
HETATM   16  H4  UNL     1      -1.406   4.052   1.366  1.00  0.00     0.156 HD
ENDBRANCH   8  14
ENDBRANCH   1   7
BRANCH   3  17
HETATM   17  C7  UNL     1      -2.568  -0.823   0.457  1.00  0.00    -0.023 A 
HETATM   18  C8  UNL     1      -3.363  -1.110   1.542  1.00  0.00     0.012 A 
HETATM   19  C9  UNL     1      -4.654  -1.567   1.390  1.00  0.00     0.001 A 
HETATM   20  C10 UNL     1      -5.165  -1.742   0.147  1.00  0.00     0.000 A 
HETATM   21  C11 UNL     1      -4.447  -1.484  -0.977  1.00  0.00     0.001 A 
HETATM   22  C12 UNL     1      -3.135  -1.019  -0.815  1.00  0.00     0.012 A 
ENDBRANCH   3  17
BRANCH   5  23
HETATM   23  C15 UNL     1       2.272  -1.882   0.031  1.00  0.00    -0.023 A 
HETATM   24  C16 UNL     1       2.326  -2.714   1.145  1.00  0.00     0.012 A 
HETATM   25  C17 UNL     1       3.400  -3.571   1.250  1.00  0.00     0.001 A 
HETATM   26  C18 UNL     1       4.405  -3.634   0.313  1.00  0.00     0.000 A 
HETATM   27  C19 UNL     1       4.345  -2.810  -0.783  1.00  0.00     0.001 A 
HETATM   28  C20 UNL     1       3.278  -1.949  -0.904  1.00  0.00     0.012 A 
ENDBRANCH   5  23
BRANCH   4  29
HETATM   29  O2  UNL     1      -0.401  -2.710   0.507  1.00  0.00    -0.359 OA
HETATM   30  H12 UNL     1      -0.412  -3.352  -0.295  1.00  0.00     0.217 HD
ENDBRANCH   4  29
TORSDOF 6
