REMARK  4 active torsions:
REMARK  status: ('A' for Active; 'I' for Inactive)
REMARK    1  A    between atoms: C1_2  and  C2_3 
REMARK    2  A    between atoms: C2_3  and  C3_4 
REMARK    3  A    between atoms: C9_10  and  C10_11 
REMARK    4  A    between atoms: C20_22  and  O2_23 
ROOT
HETATM    1  C3  UNL     1      -1.829   1.875   1.079  1.00  0.00     0.012 C 
HETATM    2  C4  UNL     1      -0.500   1.674   0.912  1.00  0.00     0.036 C 
HETATM    3  C5  UNL     1       0.239   0.513   0.503  1.00  0.00    -0.033 A 
HETATM    4  C6  UNL     1       0.118  -0.854   0.315  1.00  0.00     0.019 A 
HETATM    5  C7  UNL     1       0.673  -2.050  -0.051  1.00  0.00    -0.053 A 
HETATM    6  C8  UNL     1       1.950  -1.690  -0.376  1.00  0.00     0.021 A 
HETATM    7  C9  UNL     1       2.355  -0.377  -0.282  1.00  0.00    -0.006 A 
HETATM    8  C15 UNL     1       1.571   0.677   0.128  1.00  0.00     0.025 A 
HETATM    9  C16 UNL     1      -0.349  -3.200   0.053  1.00  0.00     0.065 C 
HETATM   10  C17 UNL     1      -1.255  -2.590   1.106  1.00  0.00    -0.022 C 
HETATM   11  C18 UNL     1      -2.084  -1.964   0.316  1.00  0.00    -0.001 C 
HETATM   12  C19 UNL     1      -2.779  -1.441  -0.826  1.00  0.00     0.033 C 
HETATM   13  C20 UNL     1      -3.735  -0.541  -0.815  1.00  0.00     0.060 C 
HETATM   14  C21 UNL     1      -3.992  -0.066   0.598  1.00  0.00     0.183 C 
HETATM   15  N2  UNL     1      -2.895   0.916   0.843  1.00  0.00    -0.387 N 
HETATM   16  H20 UNL     1      -2.446   0.532   1.741  1.00  0.00     0.159 HD
ENDROOT
BRANCH   7  17
HETATM   17  C10 UNL     1       3.764  -0.246  -0.673  1.00  0.00     0.066 A 
HETATM   18  C11 UNL     1       4.335   1.021  -0.677  1.00  0.00     0.032 A 
HETATM   19  C12 UNL     1       5.640   1.013  -1.081  1.00  0.00     0.004 A 
HETATM   20  C13 UNL     1       6.475   0.007  -1.477  1.00  0.00     0.019 A 
HETATM   21  C14 UNL     1       5.797  -1.222  -1.435  1.00  0.00     0.117 A 
HETATM   22  N1  UNL     1       4.508  -1.301  -1.048  1.00  0.00    -0.260 NA
ENDBRANCH   7  17
BRANCH   1  23
HETATM   23  C2  UNL     1      -2.484   3.122   1.507  1.00  0.00     0.126 C 
BRANCH  23  24
HETATM   24  C1  UNL     1      -3.477   3.598   0.472  1.00  0.00     0.237 C 
HETATM   25  O1  UNL     1      -4.047   3.500  -0.594  1.00  0.00    -0.306 OA
ENDBRANCH  23  24
ENDBRANCH   1  23
BRANCH  13  26
HETATM   26  O2  UNL     1      -4.079  -0.415  -2.136  1.00  0.00    -0.363 OA
HETATM   27  H17 UNL     1      -4.940  -0.715  -2.547  1.00  0.00     0.217 HD
ENDBRANCH  13  26
TORSDOF 4
