REMARK  4 active torsions:
REMARK  status: ('A' for Active; 'I' for Inactive)
REMARK    1  A    between atoms: S1_2  and  N1_4 
REMARK    2  A    between atoms: N1_4  and  C2_5 
REMARK    3  A    between atoms: C10_14  and  N3_15 
REMARK    4  A    between atoms: N3_15  and  C11_16 
ROOT
HETATM    1  C2  UNL     1       4.487  -0.756   0.130  1.00  0.00     0.041 A 
HETATM    2  C3  UNL     1       4.679  -1.597   1.218  1.00  0.00     0.033 A 
HETATM    3  C4  UNL     1       3.609  -1.911   2.035  1.00  0.00     0.043 A 
HETATM    4  C5  UNL     1       2.381  -1.366   1.727  1.00  0.00     0.115 A 
HETATM    5  C6  UNL     1       2.114  -0.527   0.668  1.00  0.00    -0.002 A 
HETATM    6  C7  UNL     1       3.227  -0.235  -0.134  1.00  0.00     0.041 A 
HETATM    7  C8  UNL     1       1.061   0.234  -0.002  1.00  0.00     0.161 C 
HETATM    8  N2  UNL     1      -0.265  -0.215   0.200  1.00  0.00    -0.379 N 
HETATM    9  C9  UNL     1      -1.111  -0.587   1.291  1.00  0.00     0.131 A 
HETATM   10  C10 UNL     1      -2.399  -0.233   0.956  1.00  0.00     0.160 A 
HETATM   11  N4  UNL     1      -3.374  -0.504   1.818  1.00  0.00    -0.222 NA
HETATM   12  C17 UNL     1      -3.110  -1.107   2.987  1.00  0.00     0.238 A 
HETATM   13  N5  UNL     1      -1.871  -1.467   3.353  1.00  0.00    -0.213 NA
HETATM   14  C18 UNL     1      -0.850  -1.214   2.513  1.00  0.00     0.232 A 
HETATM   15  O2  UNL     1       0.310  -1.694   3.153  1.00  0.00    -0.169 OA
HETATM   16  O3  UNL     1       1.587  -1.884   2.724  1.00  0.00    -0.190 OA
HETATM   17  H10 UNL     1      -0.866  -0.347  -0.673  1.00  0.00     0.160 HD
ENDROOT
BRANCH  10  18
HETATM   18  N3  UNL     1      -2.676   0.455  -0.254  1.00  0.00    -0.339 N 
HETATM   19  H11 UNL     1      -2.159   0.923  -1.022  1.00  0.00     0.167 HD
BRANCH  18  20
HETATM   20  C11 UNL     1      -4.029   0.671  -0.688  1.00  0.00     0.035 A 
HETATM   21  C12 UNL     1      -4.545   1.746  -1.424  1.00  0.00     0.029 A 
HETATM   22  C13 UNL     1      -5.864   1.832  -1.801  1.00  0.00     0.004 A 
HETATM   23  C14 UNL     1      -6.752   0.838  -1.460  1.00  0.00     0.019 A 
HETATM   24  C15 UNL     1      -6.256  -0.243  -0.726  1.00  0.00     0.013 A 
HETATM   25 BR1  UNL     1      -7.626  -1.538  -0.336  1.00  0.00    -0.051 Br
HETATM   26  C16 UNL     1      -4.947  -0.317  -0.359  1.00  0.00     0.048 A 
ENDBRANCH  18  20
ENDBRANCH  10  18
BRANCH   1  27
HETATM   27  N1  UNL     1       5.570  -0.403  -0.745  1.00  0.00    -0.306 N 
HETATM   28  H4  UNL     1       6.522  -0.814  -0.515  1.00  0.00     0.176 HD
BRANCH  27  29
HETATM   29  S1  UNL     1       5.453   0.628  -2.129  1.00  0.00     0.110 S 
HETATM   30  C1  UNL     1       5.710   2.352  -1.688  1.00  0.00     0.152 C 
HETATM   31  O1  UNL     1       6.464   0.171  -3.166  1.00  0.00    -0.236 OA
ENDBRANCH  27  29
ENDBRANCH   1  27
TORSDOF 4
