REMARK  11 active torsions:
REMARK  status: ('A' for Active; 'I' for Inactive)
REMARK    1  A    between atoms: C2_2  and  C3_3 
REMARK    2  A    between atoms: C3_3  and  C4_4 
REMARK    3  A    between atoms: C4_4  and  C5_5 
REMARK    4  A    between atoms: C4_4  and  C9_11 
REMARK    5  A    between atoms: C6_6  and  C7_7 
REMARK    6  A    between atoms: C7_7  and  C8_8 
REMARK       I    between atoms: C8_8  and  N1_9 
REMARK    7  A    between atoms: C9_11  and  O2_12 
REMARK    8  A    between atoms: C9_11  and  C12_16 
REMARK    9  A    between atoms: O2_12  and  C10_13 
REMARK   10  A    between atoms: C12_16  and  C14_18 
REMARK   11  A    between atoms: C14_18  and  C15_19 
ROOT
HETATM    1  C10 UNL     1       0.275  -0.323  -3.320  1.00  0.00     0.291 C 
HETATM    2  C11 UNL     1      -0.419   0.702  -4.030  1.00  0.00     0.085 C 
HETATM    3  N2  UNL     1      -0.980   1.540  -4.587  1.00  0.00    -0.195 NA
ENDROOT
BRANCH   1   4
HETATM    4  O2  UNL     1      -0.276  -0.793  -2.166  1.00  0.00    -0.371 OA
BRANCH   4   5
HETATM    5  C9  UNL     1      -0.498   0.163  -1.172  1.00  0.00     0.134 C 
BRANCH   5   6
HETATM    6  C4  UNL     1       0.630  -0.064  -0.189  1.00  0.00     0.037 C 
BRANCH   6   7
HETATM    7  C3  UNL     1       0.665  -1.411   0.437  1.00  0.00     0.010 C 
BRANCH   7   8
HETATM    8  C2  UNL     1       2.093  -1.665   0.945  1.00  0.00    -0.004 C 
HETATM    9  C1  UNL     1       2.200  -3.033   1.601  1.00  0.00     0.005 C 
ENDBRANCH   7   8
ENDBRANCH   6   7
BRANCH   6  10
HETATM   10  C5  UNL     1       0.975   1.032   0.699  1.00  0.00    -0.023 C 
HETATM   11  C6  UNL     1       2.185   1.616   0.749  1.00  0.00    -0.021 C 
BRANCH  11  12
HETATM   12  C7  UNL     1       3.471   1.411   0.028  1.00  0.00     0.129 C 
BRANCH  12  13
HETATM   13  C8  UNL     1       4.515   1.070   1.049  1.00  0.00     0.218 C 
HETATM   14  N1  UNL     1       5.865   0.804   0.770  1.00  0.00    -0.370 N 
HETATM   15  H13 UNL     1       6.487  -0.036   0.623  1.00  0.00     0.159 HD
HETATM   16  H14 UNL     1       6.666   1.477   0.627  1.00  0.00     0.159 HD
HETATM   17  O1  UNL     1       4.534   0.929   2.311  1.00  0.00    -0.274 OA
ENDBRANCH  12  13
ENDBRANCH  11  12
ENDBRANCH   6  10
ENDBRANCH   5   6
BRANCH   5  18
HETATM   18  C12 UNL     1      -1.880  -0.013  -0.679  1.00  0.00     0.011 C 
HETATM   19  C13 UNL     1      -2.800   0.244  -1.853  1.00  0.00     0.012 C 
BRANCH  18  20
HETATM   20  C14 UNL     1      -2.187   0.763   0.548  1.00  0.00     0.010 C 
BRANCH  20  21
HETATM   21  C15 UNL     1      -3.545   0.691   1.129  1.00  0.00    -0.022 C 
HETATM   22  C16 UNL     1      -4.703   1.152   0.327  1.00  0.00     0.009 C 
HETATM   23  C17 UNL     1      -3.779  -0.667   1.775  1.00  0.00     0.009 C 
ENDBRANCH  20  21
ENDBRANCH  18  20
ENDBRANCH   5  18
ENDBRANCH   4   5
ENDBRANCH   1   4
TORSDOF 11
