REMARK  6 active torsions:
REMARK  status: ('A' for Active; 'I' for Inactive)
REMARK    1  A    between atoms: C2_2  and  C4_4 
REMARK    2  A    between atoms: C4_4  and  C5_5 
REMARK    3  A    between atoms: C7_7  and  C8_8 
REMARK    4  A    between atoms: C8_8  and  C10_11 
REMARK       I    between atoms: C10_11  and  N2_12 
REMARK    5  A    between atoms: C12_15  and  C13_16 
REMARK    6  A    between atoms: C17_20  and  O2_21 
ROOT
HETATM    1  C8  UNL     1      -0.560   3.042  -0.835  1.00  0.00     0.217 C 
HETATM    2  C9  UNL     1      -1.264   3.239  -2.116  1.00  0.00     0.078 C 
HETATM    3  N1  UNL     1      -1.819   3.390  -3.117  1.00  0.00    -0.196 NA
ENDROOT
BRANCH   1   4
HETATM    4  C7  UNL     1      -0.186   1.613  -0.671  1.00  0.00    -0.030 A 
HETATM    5  C6  UNL     1       1.067   1.050  -0.710  1.00  0.00     0.019 A 
HETATM    6  C5  UNL     1       1.237  -0.300  -0.531  1.00  0.00    -0.024 A 
HETATM    7  C17 UNL     1       0.136  -1.094  -0.310  1.00  0.00     0.079 A 
HETATM    8  C12 UNL     1      -1.152  -0.578  -0.261  1.00  0.00    -0.016 A 
HETATM    9  C11 UNL     1      -1.305   0.800  -0.445  1.00  0.00     0.019 A 
BRANCH   6  10
HETATM   10  C4  UNL     1       2.626  -0.801  -0.592  1.00  0.00     0.045 C 
BRANCH  10  11
HETATM   11  C2  UNL     1       3.241  -1.120   0.728  1.00  0.00    -0.018 C 
HETATM   12  C1  UNL     1       4.664  -1.617   0.437  1.00  0.00     0.010 C 
HETATM   13  C3  UNL     1       3.411   0.096   1.609  1.00  0.00     0.010 C 
ENDBRANCH  10  11
ENDBRANCH   6  10
BRANCH   7  14
HETATM   14  O2  UNL     1       0.306  -2.446  -0.131  1.00  0.00    -0.360 OA
HETATM   15  H24 UNL     1       1.195  -2.898  -0.298  1.00  0.00     0.217 HD
ENDBRANCH   7  14
BRANCH   8  16
HETATM   16  C13 UNL     1      -2.306  -1.488  -0.020  1.00  0.00    -0.021 C 
HETATM   17  C14 UNL     1      -2.202  -2.217   1.302  1.00  0.00     0.019 C 
HETATM   18  C15 UNL     1      -2.503  -2.491  -1.128  1.00  0.00     0.019 C 
HETATM   19  C16 UNL     1      -3.571  -0.654   0.055  1.00  0.00     0.019 C 
ENDBRANCH   8  16
ENDBRANCH   1   4
BRANCH   1  20
HETATM   20  C10 UNL     1      -1.323   3.548   0.322  1.00  0.00     0.237 C 
HETATM   21  N2  UNL     1      -1.805   4.881   0.384  1.00  0.00    -0.369 N 
HETATM   22  H12 UNL     1      -1.610   5.686   1.008  1.00  0.00     0.159 HD
HETATM   23  H13 UNL     1      -2.510   5.108  -0.359  1.00  0.00     0.159 HD
HETATM   24  O1  UNL     1      -1.724   3.075   1.418  1.00  0.00    -0.272 OA
ENDBRANCH   1  20
TORSDOF 6
