REMARK  6 active torsions:
REMARK  status: ('A' for Active; 'I' for Inactive)
REMARK    1  A    between atoms: S1_2  and  P1_4 
REMARK    2  A    between atoms: S1_2  and  N1_5 
REMARK    3  A    between atoms: N1_5  and  C2_6 
REMARK    4  A    between atoms: C10_15  and  N3_16 
REMARK    5  A    between atoms: N3_16  and  C11_17 
REMARK    6  A    between atoms: C17_24  and  N4_25 
ROOT
HETATM    1  C2  UNL     1       3.646   0.315   0.596  1.00  0.00     0.040 A 
HETATM    2  C3  UNL     1       3.536   0.327  -0.774  1.00  0.00     0.033 A 
HETATM    3  C4  UNL     1       2.464  -0.182  -1.472  1.00  0.00     0.040 A 
HETATM    4  C5  UNL     1       1.410  -0.749  -0.786  1.00  0.00     0.080 A 
HETATM    5  C6  UNL     1       1.488  -0.780   0.596  1.00  0.00    -0.005 A 
HETATM    6  C7  UNL     1       2.581  -0.258   1.252  1.00  0.00     0.041 A 
HETATM    7  C8  UNL     1       0.550  -1.323   1.584  1.00  0.00     0.161 C 
HETATM    8  N2  UNL     1      -0.832  -1.109   1.226  1.00  0.00    -0.384 N 
HETATM    9  C9  UNL     1      -1.571  -1.183   0.015  1.00  0.00     0.080 C 
HETATM   10  C10 UNL     1      -2.875  -1.343   0.178  1.00  0.00     0.117 C 
HETATM   11  C17 UNL     1      -1.057  -1.107  -1.360  1.00  0.00     0.411 C 
HETATM   12  O2  UNL     1       0.338  -1.257  -1.493  1.00  0.00    -0.310 OA
HETATM   13  H11 UNL     1      -1.450  -0.828   2.049  1.00  0.00     0.159 HD
ENDROOT
BRANCH  10  14
HETATM   14  N3  UNL     1      -4.170  -1.490  -0.381  1.00  0.00    -0.364 N 
HETATM   15  H13 UNL     1      -4.366  -2.452  -0.743  1.00  0.00     0.165 HD
BRANCH  14  16
HETATM   16  C11 UNL     1      -4.986  -0.306  -0.358  1.00  0.00     0.033 A 
HETATM   17  C12 UNL     1      -5.476  -0.210   0.955  1.00  0.00     0.029 A 
HETATM   18  C13 UNL     1      -6.308   0.853   1.319  1.00  0.00     0.004 A 
HETATM   19  C14 UNL     1      -6.652   1.811   0.387  1.00  0.00     0.019 A 
HETATM   20  C15 UNL     1      -6.154   1.684  -0.887  1.00  0.00     0.013 A 
HETATM   21 BR1  UNL     1      -6.544   2.929  -2.290  1.00  0.00    -0.051 Br
HETATM   22  C16 UNL     1      -5.335   0.655  -1.283  1.00  0.00     0.048 A 
ENDBRANCH  14  16
ENDBRANCH  10  14
BRANCH  11  23
HETATM   23  N4  UNL     1      -1.723  -2.080  -2.214  1.00  0.00     0.113 N 
HETATM   24  H19 UNL     1      -1.326  -3.029  -2.177  1.00  0.00     0.316 HD
HETATM   25  H20 UNL     1      -1.773  -1.677  -3.163  1.00  0.00     0.316 HD
ENDBRANCH  11  23
BRANCH   1  26
HETATM   26  N1  UNL     1       4.739   0.852   1.326  1.00  0.00    -0.314 N 
HETATM   27  H5  UNL     1       4.693   0.734   2.376  1.00  0.00     0.176 HD
BRANCH  26  28
HETATM   28  S1  UNL     1       6.136   1.668   0.732  1.00  0.00     0.045 S 
HETATM   29  C1  UNL     1       7.393   0.515   0.252  1.00  0.00     0.141 C 
HETATM   30  O1  UNL     1       6.667   2.554   1.859  1.00  0.00    -0.245 OA
BRANCH  28  31
HETATM   31  P1  UNL     1       5.639   2.859  -0.685  1.00  0.00     0.016 P 
HETATM   32  H4  UNL     1       6.384   4.075  -0.896  1.00  0.00     0.077 HD
ENDBRANCH  28  31
ENDBRANCH  26  28
ENDBRANCH   1  26
TORSDOF 6
