REMARK  5 active torsions:
REMARK  status: ('A' for Active; 'I' for Inactive)
REMARK    1  A    between atoms: C2_2  and  C3_3 
REMARK    2  A    between atoms: C3_3  and  C6_6 
REMARK    3  A    between atoms: C7_7  and  O1_8 
REMARK    4  A    between atoms: C13_14  and  C14_15 
REMARK    5  A    between atoms: C14_15  and  C16_18 
REMARK       I    between atoms: C16_18  and  N2_19 
ROOT
HETATM    1  C14 UNL     1      -0.784   1.916   0.599  1.00  0.00     0.190 C 
HETATM    2  C15 UNL     1      -1.326   1.563   1.895  1.00  0.00     0.074 C 
HETATM    3  N1  UNL     1      -1.745   1.269   2.939  1.00  0.00    -0.196 NA
ENDROOT
BRANCH   1   4
HETATM    4  C13 UNL     1      -0.506   0.774  -0.316  1.00  0.00     0.066 C 
HETATM    5  C6  UNL     1       0.432  -0.248   0.132  1.00  0.00    -0.034 C 
HETATM    6  C7  UNL     1      -0.081  -1.383   0.659  1.00  0.00     0.047 C 
HETATM    7  C8  UNL     1      -1.460  -1.872   0.910  1.00  0.00     0.072 C 
HETATM    8  C9  UNL     1      -2.044  -2.166  -0.474  1.00  0.00     0.010 C 
HETATM    9  C10 UNL     1      -3.194  -3.112  -0.400  1.00  0.00     0.014 C 
HETATM   10  C11 UNL     1      -2.493  -0.844  -0.995  1.00  0.00    -0.025 C 
HETATM   11  C12 UNL     1      -1.789   0.275  -0.873  1.00  0.00    -0.019 C 
BRANCH   5  12
HETATM   12  C3  UNL     1       1.879  -0.008  -0.008  1.00  0.00    -0.021 C 
HETATM   13  C4  UNL     1       2.284   1.148   0.871  1.00  0.00     0.019 C 
HETATM   14  C5  UNL     1       2.719  -1.247   0.362  1.00  0.00     0.019 C 
BRANCH  12  15
HETATM   15  C2  UNL     1       2.287   0.307  -1.427  1.00  0.00     0.009 C 
HETATM   16  C1  UNL     1       3.787   0.496  -1.458  1.00  0.00     0.006 C 
ENDBRANCH  12  15
ENDBRANCH   5  12
BRANCH   6  17
HETATM   17  O1  UNL     1       0.751  -2.426   1.116  1.00  0.00    -0.365 OA
HETATM   18  H12 UNL     1       0.667  -3.327   0.683  1.00  0.00     0.217 HD
ENDBRANCH   6  17
ENDBRANCH   1   4
BRANCH   1  19
HETATM   19  C16 UNL     1      -1.917   2.687  -0.072  1.00  0.00     0.213 C 
HETATM   20  N2  UNL     1      -2.265   3.810   0.757  1.00  0.00    -0.271 NA
HETATM   21  H23 UNL     1      -2.014   4.726   1.220  1.00  0.00     0.127 HD
HETATM   22  H24 UNL     1      -1.991   4.732   1.214  1.00  0.00     0.127 HD
HETATM   23  O2  UNL     1      -2.863   3.265  -0.709  1.00  0.00    -0.279 OA
ENDBRANCH   1  19
TORSDOF 5
