REMARK  6 active torsions:
REMARK  status: ('A' for Active; 'I' for Inactive)
REMARK    1  A    between atoms: C2_2  and  C3_3 
REMARK    2  A    between atoms: C3_3  and  C5_5 
REMARK    3  A    between atoms: C5_5  and  C7_7 
REMARK    4  A    between atoms: C9_9  and  O1_10 
REMARK    5  A    between atoms: O1_10  and  C10_11 
REMARK       I    between atoms: C10_11  and  N1_12 
REMARK    6  A    between atoms: C14_17  and  C15_18 
ROOT
HETATM    1  C7  UNL     1       0.264  -0.123   0.489  1.00  0.00    -0.043 C 
HETATM    2  C8  UNL     1       1.253   0.971   0.168  1.00  0.00     0.104 C 
HETATM    3  C9  UNL     1       2.556   0.484  -0.317  1.00  0.00     0.059 C 
HETATM    4  C11 UNL     1       3.388  -0.545  -0.254  1.00  0.00     0.010 C 
HETATM    5  C12 UNL     1       2.964  -1.714   0.593  1.00  0.00     0.057 C 
HETATM    6  C13 UNL     1       1.595  -2.163   0.124  1.00  0.00    -0.015 C 
HETATM    7  C14 UNL     1       0.455  -1.488   0.080  1.00  0.00    -0.047 C 
ENDROOT
BRANCH   1   8
HETATM    8  C5  UNL     1      -0.810   0.272   1.135  1.00  0.00    -0.073 C 
HETATM    9  C6  UNL     1      -2.040  -0.217   1.782  1.00  0.00     0.044 C 
BRANCH   8  10
HETATM   10  C3  UNL     1      -0.861   1.754   1.421  1.00  0.00     0.010 C 
HETATM   11  C4  UNL     1      -0.900   2.000   2.901  1.00  0.00     0.015 C 
BRANCH  10  12
HETATM   12  C2  UNL     1      -2.176   2.358   0.889  1.00  0.00     0.004 C 
HETATM   13  C1  UNL     1      -2.304   2.192  -0.606  1.00  0.00     0.006 C 
ENDBRANCH  10  12
ENDBRANCH   8  10
ENDBRANCH   1   8
BRANCH   7  14
HETATM   14  C15 UNL     1      -0.750  -2.146  -0.435  1.00  0.00    -0.024 C 
HETATM   15  C16 UNL     1      -1.588  -1.354  -1.363  1.00  0.00     0.019 C 
HETATM   16  C17 UNL     1      -1.553  -2.985   0.492  1.00  0.00     0.019 C 
HETATM   17  C18 UNL     1      -0.149  -3.232  -1.406  1.00  0.00     0.019 C 
ENDBRANCH   7  14
BRANCH   3  18
HETATM   18  O1  UNL     1       3.167   1.447  -1.163  1.00  0.00    -0.266 OA
BRANCH  18  19
HETATM   19  C10 UNL     1       2.561   1.879  -2.327  1.00  0.00     0.363 C 
HETATM   20  N1  UNL     1       3.394   2.838  -2.968  1.00  0.00    -0.345 N 
HETATM   21  H15 UNL     1       3.947   3.585  -3.441  1.00  0.00     0.161 HD
HETATM   22  H16 UNL     1       4.404   2.865  -3.264  1.00  0.00     0.161 HD
HETATM   23  O2  UNL     1       1.548   1.767  -3.070  1.00  0.00    -0.238 OA
ENDBRANCH  18  19
ENDBRANCH   3  18
TORSDOF 6
