REMARK  7 active torsions:
REMARK  status: ('A' for Active; 'I' for Inactive)
REMARK    1  A    between atoms: C2_2  and  C3_3 
REMARK    2  A    between atoms: C3_3  and  C5_5 
REMARK    3  A    between atoms: C7_7  and  C8_8 
REMARK    4  A    between atoms: C9_9  and  C11_11 
REMARK    5  A    between atoms: C11_11  and  N1_12 
REMARK    6  A    between atoms: C13_15  and  C14_16 
REMARK    7  A    between atoms: C18_20  and  O2_21 
ROOT
HETATM    1  C5  UNL     1      -0.707   0.858   0.289  1.00  0.00    -0.020 A 
HETATM    2  C6  UNL     1       0.646   0.837  -0.018  1.00  0.00     0.021 A 
HETATM    3  C7  UNL     1       1.270  -0.316  -0.481  1.00  0.00    -0.035 A 
HETATM    4  C12 UNL     1       0.552  -1.478  -0.651  1.00  0.00     0.022 A 
HETATM    5  C13 UNL     1      -0.795  -1.485  -0.354  1.00  0.00    -0.016 A 
HETATM    6  C18 UNL     1      -1.392  -0.328   0.106  1.00  0.00     0.079 A 
ENDROOT
BRANCH   3   7
HETATM    7  C8  UNL     1       2.699  -0.260  -0.750  1.00  0.00     0.015 C 
HETATM    8  C9  UNL     1       3.778   0.224  -0.135  1.00  0.00    -0.061 C 
HETATM    9  C10 UNL     1       5.144   0.124  -0.682  1.00  0.00     0.045 C 
BRANCH   8  10
HETATM   10  C11 UNL     1       3.754   0.912   1.187  1.00  0.00     0.216 C 
BRANCH  10  11
HETATM   11  N1  UNL     1       4.601   0.141   2.063  1.00  0.00    -0.137 NA
HETATM   12  O1  UNL     1       4.591  -1.051   1.997  1.00  0.00    -0.067 OA
ENDBRANCH  10  11
ENDBRANCH   8  10
ENDBRANCH   3   7
BRANCH   1  13
HETATM   13  C3  UNL     1      -1.379   2.101   0.792  1.00  0.00     0.017 C 
HETATM   14  C4  UNL     1      -0.346   3.006   1.453  1.00  0.00     0.015 C 
BRANCH  13  15
HETATM   15  C2  UNL     1      -2.077   2.834  -0.329  1.00  0.00     0.004 C 
HETATM   16  C1  UNL     1      -2.764   4.046   0.238  1.00  0.00     0.006 C 
ENDBRANCH  13  15
ENDBRANCH   1  13
BRANCH   5  17
HETATM   17  C14 UNL     1      -1.549  -2.723  -0.540  1.00  0.00    -0.021 C 
HETATM   18  C15 UNL     1      -0.687  -3.854  -1.055  1.00  0.00     0.019 C 
HETATM   19  C16 UNL     1      -2.634  -2.485  -1.581  1.00  0.00     0.019 C 
HETATM   20  C17 UNL     1      -2.152  -3.096   0.797  1.00  0.00     0.019 C 
ENDBRANCH   5  17
BRANCH   6  21
HETATM   21  O2  UNL     1      -2.766  -0.291   0.425  1.00  0.00    -0.360 OA
HETATM   22  H27 UNL     1      -3.413  -0.169  -0.345  1.00  0.00     0.217 HD
ENDBRANCH   6  21
TORSDOF 7
