REMARK  4 active torsions:
REMARK  status: ('A' for Active; 'I' for Inactive)
REMARK    1  A    between atoms: C3_3  and  C4_4 
REMARK    2  A    between atoms: C11_11  and  N1_12 
REMARK    3  A    between atoms: N1_12  and  N2_13 
REMARK    4  A    between atoms: N1_12  and  O1_14 
ROOT
HETATM    1  C1  UNL     1      -1.611  -1.946  -1.302  1.00  0.00     0.044 C 
HETATM    2  C2  UNL     1      -0.923  -0.726  -0.775  1.00  0.00    -0.067 A 
HETATM    3  C3  UNL     1      -1.602   0.307  -0.248  1.00  0.00    -0.047 A 
HETATM    4  C8  UNL     1      -0.624   1.349   0.143  1.00  0.00     0.016 A 
HETATM    5  C9  UNL     1       0.603   0.888  -0.168  1.00  0.00    -0.044 A 
HETATM    6  C10 UNL     1       1.859   1.645   0.065  1.00  0.00     0.067 C 
HETATM    7  C11 UNL     1       3.115   1.161   0.161  1.00  0.00     0.182 C 
HETATM    8  O2  UNL     1       3.388  -0.222   0.042  1.00  0.00    -0.333 OA
HETATM    9  C12 UNL     1       2.578  -1.214   0.611  1.00  0.00     0.187 C 
HETATM   10  C13 UNL     1       1.302  -1.534  -0.038  1.00  0.00    -0.014 C 
HETATM   11  C14 UNL     1       1.523  -2.662  -1.035  1.00  0.00     0.018 C 
HETATM   12  C15 UNL     1       0.361  -2.117   1.031  1.00  0.00     0.018 C 
HETATM   13  C16 UNL     1       0.550  -0.456  -0.742  1.00  0.00     0.058 A 
ENDROOT
BRANCH   7  14
HETATM   14  N1  UNL     1       3.990   2.266   0.387  1.00  0.00    -0.165 N 
BRANCH  14  15
HETATM   15  N2  UNL     1       5.081   2.195  -0.509  1.00  0.00    -0.220 NA
HETATM   16  H15 UNL     1       5.828   1.641  -0.029  1.00  0.00     0.145 HD
HETATM   17  H16 UNL     1       5.445   3.146  -0.675  1.00  0.00     0.145 HD
ENDBRANCH  14  15
BRANCH  14  18
HETATM   18  O1  UNL     1       3.668   3.147   1.351  1.00  0.00    -0.270 OA
HETATM   19  H17 UNL     1       3.620   2.668   2.225  1.00  0.00     0.246 HD
ENDBRANCH  14  18
ENDBRANCH   7  14
BRANCH   3  20
HETATM   20  C4  UNL     1      -2.995   0.673   0.015  1.00  0.00    -0.024 C 
HETATM   21  C5  UNL     1      -3.293   1.914  -0.803  1.00  0.00     0.019 C 
HETATM   22  C6  UNL     1      -3.103   1.061   1.502  1.00  0.00     0.019 C 
HETATM   23  C7  UNL     1      -4.004  -0.403  -0.186  1.00  0.00     0.019 C 
ENDBRANCH   3  20
TORSDOF 4
