REMARK  4 active torsions:
REMARK  status: ('A' for Active; 'I' for Inactive)
REMARK    1  A    between atoms: C10_10  and  O1_11 
REMARK    2  A    between atoms: C10_10  and  C12_15 
REMARK    3  A    between atoms: O1_11  and  C11_12 
REMARK       I    between atoms: C11_12  and  N1_13 
REMARK    4  A    between atoms: C17_20  and  C18_21 
ROOT
HETATM    1  C18 UNL     1       3.585   1.067  -0.541  1.00  0.00     0.133 C 
HETATM    2  C19 UNL     1       3.874   1.281   0.856  1.00  0.00     0.059 C 
HETATM    3  N2  UNL     1       4.099   1.432   1.973  1.00  0.00    -0.197 NA
ENDROOT
BRANCH   1   4
HETATM    4  C17 UNL     1       3.084  -0.351  -0.718  1.00  0.00     0.035 C 
HETATM    5  C12 UNL     1       1.854  -0.515   0.099  1.00  0.00    -0.019 C 
HETATM    6  C13 UNL     1       1.891  -1.105   1.433  1.00  0.00     0.006 C 
HETATM    7  C14 UNL     1       2.704  -2.156   1.648  1.00  0.00    -0.026 C 
HETATM    8  C15 UNL     1       3.456  -2.548   0.428  1.00  0.00     0.028 C 
HETATM    9  C16 UNL     1       4.082  -1.368  -0.281  1.00  0.00     0.014 C 
BRANCH   5  10
HETATM   10  C10 UNL     1       0.673  -0.111  -0.397  1.00  0.00     0.090 C 
HETATM   11  C2  UNL     1      -0.561  -0.228   0.314  1.00  0.00    -0.043 A 
HETATM   12  C1  UNL     1      -1.770   0.158  -0.130  1.00  0.00     0.055 A 
HETATM   13  C3  UNL     1      -1.511  -0.556   1.408  1.00  0.00     0.055 A 
HETATM   14  C4  UNL     1      -2.905  -0.167   1.033  1.00  0.00     0.003 A 
HETATM   15  C5  UNL     1      -3.403   1.097   1.327  1.00  0.00    -0.012 A 
HETATM   16  C9  UNL     1      -3.756  -1.052   0.378  1.00  0.00    -0.012 A 
HETATM   17  C6  UNL     1      -4.689   1.448   0.978  1.00  0.00    -0.003 A 
HETATM   18  C7  UNL     1      -5.519   0.572   0.334  1.00  0.00    -0.001 A 
HETATM   19  C8  UNL     1      -5.055  -0.699   0.025  1.00  0.00    -0.003 A 
BRANCH  10  20
HETATM   20  O1  UNL     1       0.566   0.454  -1.651  1.00  0.00    -0.261 OA
BRANCH  20  21
HETATM   21  C11 UNL     1       0.062   1.743  -1.750  1.00  0.00     0.363 C 
HETATM   22  N1  UNL     1      -0.018   2.259  -3.078  1.00  0.00    -0.345 N 
HETATM   23  H10 UNL     1      -0.078   2.421  -4.105  1.00  0.00     0.161 HD
HETATM   24  H11 UNL     1      -0.055   3.134  -3.607  1.00  0.00     0.161 HD
HETATM   25  O2  UNL     1      -0.387   2.711  -1.076  1.00  0.00    -0.238 OA
ENDBRANCH  20  21
ENDBRANCH  10  20
ENDBRANCH   5  10
ENDBRANCH   1   4
TORSDOF 4
