REMARK  8 active torsions:
REMARK  status: ('A' for Active; 'I' for Inactive)
REMARK    1  A    between atoms: C2_3  and  C3_4 
REMARK    2  A    between atoms: C2_3  and  C4_7 
REMARK       I    between atoms: C3_4  and  N2_5 
REMARK    3  A    between atoms: C4_7  and  C14_18 
REMARK    4  A    between atoms: C5_8  and  C6_9 
REMARK    5  A    between atoms: C7_10  and  O2_11 
REMARK    6  A    between atoms: O2_11  and  C8_12 
REMARK    7  A    between atoms: C14_18  and  C15_19 
REMARK    8  A    between atoms: C15_19  and  C16_20 
ROOT
HETATM    1  N1  UNL     1       1.410   3.636  -1.985  1.00  0.00    -0.196 NA
HETATM    2  C1  UNL     1       0.903   3.029  -1.123  1.00  0.00     0.078 C 
HETATM    3  C2  UNL     1       0.254   2.284  -0.023  1.00  0.00     0.214 C 
ENDROOT
BRANCH   3   4
HETATM    4  C3  UNL     1       0.692   2.834   1.286  1.00  0.00     0.237 C 
HETATM    5  N2  UNL     1       0.323   4.203   1.358  1.00  0.00    -0.369 N 
HETATM    6  H2  UNL     1      -0.174   5.103   1.543  1.00  0.00     0.159 HD
HETATM    7  H3  UNL     1       1.039   4.821   0.912  1.00  0.00     0.159 HD
HETATM    8  O1  UNL     1       1.282   2.469   2.342  1.00  0.00    -0.272 OA
ENDBRANCH   3   4
BRANCH   3   9
HETATM    9  C4  UNL     1       0.610   0.847  -0.157  1.00  0.00    -0.045 C 
HETATM   10  C5  UNL     1      -0.314  -0.084  -0.341  1.00  0.00     0.071 C 
BRANCH  10  11
HETATM   11  C6  UNL     1      -1.687   0.334  -0.410  1.00  0.00    -0.048 C 
HETATM   12  C7  UNL     1      -2.851   0.667  -0.473  1.00  0.00     0.064 C 
BRANCH  12  13
HETATM   13  O2  UNL     1      -4.187   1.025  -0.554  1.00  0.00    -0.261 OA
BRANCH  13  14
HETATM   14  C8  UNL     1      -5.131  -0.002  -0.388  1.00  0.00     0.087 A 
HETATM   15  C9  UNL     1      -4.664  -1.275  -0.161  1.00  0.00     0.038 A 
HETATM   16  C10 UNL     1      -5.566  -2.313   0.007  1.00  0.00     0.003 A 
HETATM   17  C11 UNL     1      -6.927  -2.060  -0.055  1.00  0.00     0.000 A 
HETATM   18  C12 UNL     1      -7.352  -0.757  -0.287  1.00  0.00     0.003 A 
HETATM   19  C13 UNL     1      -6.475   0.298  -0.458  1.00  0.00     0.038 A 
ENDBRANCH  13  14
ENDBRANCH  12  13
ENDBRANCH  10  11
BRANCH   9  20
HETATM   20  C14 UNL     1       2.055   0.512  -0.073  1.00  0.00     0.041 C 
BRANCH  20  21
HETATM   21  C15 UNL     1       2.275  -0.990  -0.225  1.00  0.00     0.043 C 
BRANCH  21  22
HETATM   22  C16 UNL     1       3.722  -1.289  -0.137  1.00  0.00    -0.058 A 
HETATM   23  C17 UNL     1       4.506  -1.296  -1.278  1.00  0.00     0.007 A 
HETATM   24  C18 UNL     1       5.854  -1.576  -1.185  1.00  0.00     0.001 A 
HETATM   25  C19 UNL     1       6.409  -1.850   0.062  1.00  0.00     0.000 A 
HETATM   26  C20 UNL     1       5.649  -1.849   1.212  1.00  0.00     0.001 A 
HETATM   27  C21 UNL     1       4.301  -1.564   1.085  1.00  0.00     0.007 A 
ENDBRANCH  21  22
ENDBRANCH  20  21
ENDBRANCH   9  20
ENDBRANCH   3   9
TORSDOF 8
