REMARK  6 active torsions:
REMARK  status: ('A' for Active; 'I' for Inactive)
REMARK    1  A    between atoms: C2_3  and  C3_4 
REMARK    2  A    between atoms: C2_3  and  C4_7 
REMARK       I    between atoms: C3_4  and  N2_5 
REMARK    3  A    between atoms: C10_14  and  O3_15 
REMARK    4  A    between atoms: C11_16  and  C12_17 
REMARK    5  A    between atoms: C12_17  and  S1_18 
REMARK    6  A    between atoms: S1_18  and  C13_19 
ROOT
HETATM    1  N1  UNL     1      -0.093   2.478   2.082  1.00  0.00    -0.196 NA
HETATM    2  C1  UNL     1      -0.606   2.148   1.085  1.00  0.00     0.077 C 
HETATM    3  C2  UNL     1      -1.270   1.751  -0.173  1.00  0.00     0.209 C 
ENDROOT
BRANCH   3   4
HETATM    4  C3  UNL     1      -2.563   2.492  -0.202  1.00  0.00     0.216 C 
HETATM    5  N2  UNL     1      -2.221   3.895  -0.161  1.00  0.00    -0.271 NA
HETATM    6  H2  UNL     1      -1.922   4.882   0.094  1.00  0.00     0.127 HD
HETATM    7  H3  UNL     1      -1.904   4.842   0.198  1.00  0.00     0.127 HD
HETATM    8  O1  UNL     1      -3.704   3.056  -0.230  1.00  0.00    -0.278 OA
ENDBRANCH   3   4
BRANCH   3   9
HETATM    9  C4  UNL     1      -1.500   0.281  -0.095  1.00  0.00    -0.034 C 
HETATM   10  C5  UNL     1      -2.781   0.334  -0.064  1.00  0.00     0.009 A 
HETATM   11  C6  UNL     1      -4.157   0.151  -0.014  1.00  0.00     0.031 A 
HETATM   12  C19 UNL     1      -3.370  -0.718   0.814  1.00  0.00     0.053 A 
HETATM   13  C7  UNL     1      -4.115  -1.131  -0.326  1.00  0.00    -0.071 A 
HETATM   14  C8  UNL     1      -3.961  -2.618  -0.540  1.00  0.00     0.198 C 
HETATM   15  O2  UNL     1      -2.601  -2.925  -0.129  1.00  0.00    -0.381 OA
HETATM   16  C9  UNL     1      -1.866  -2.053  -0.873  1.00  0.00     0.232 C 
HETATM   17  C10 UNL     1      -0.467  -1.919  -0.709  1.00  0.00     0.074 C 
HETATM   18  C11 UNL     1      -0.399  -0.640  -0.321  1.00  0.00    -0.012 C 
BRANCH  17  19
HETATM   19  O3  UNL     1       0.561  -2.809  -0.883  1.00  0.00    -0.362 OA
HETATM   20  H9  UNL     1       0.847  -3.493  -0.191  1.00  0.00     0.217 HD
ENDBRANCH  17  19
BRANCH  18  21
HETATM   21  C12 UNL     1       0.954  -0.074  -0.088  1.00  0.00     0.121 C 
BRANCH  21  22
HETATM   22  S1  UNL     1       2.237  -1.288  -0.403  1.00  0.00    -0.125 SA
BRANCH  22  23
HETATM   23  C13 UNL     1       3.815  -0.513  -0.096  1.00  0.00     0.000 A 
HETATM   24  C14 UNL     1       3.943   0.813   0.317  1.00  0.00     0.018 A 
HETATM   25  C15 UNL     1       5.203   1.339   0.534  1.00  0.00     0.001 A 
HETATM   26  C16 UNL     1       6.341   0.577   0.350  1.00  0.00     0.000 A 
HETATM   27  C17 UNL     1       6.220  -0.742  -0.060  1.00  0.00     0.001 A 
HETATM   28  C18 UNL     1       4.961  -1.273  -0.279  1.00  0.00     0.018 A 
ENDBRANCH  22  23
ENDBRANCH  21  22
ENDBRANCH  18  21
ENDBRANCH   3   9
TORSDOF 6
