REMARK  8 active torsions:
REMARK  status: ('A' for Active; 'I' for Inactive)
REMARK    1  A    between atoms: C2_2  and  O1_3 
REMARK    2  A    between atoms: O1_3  and  C3_4 
REMARK    3  A    between atoms: C3_4  and  C4_5 
REMARK    4  A    between atoms: C5_6  and  C6_7 
REMARK    5  A    between atoms: C5_6  and  C9_13 
REMARK    6  A    between atoms: C6_7  and  C7_8 
REMARK    7  A    between atoms: C7_8  and  C8_10 
REMARK       I    between atoms: C8_10  and  N1_11 
REMARK    8  A    between atoms: C19_24  and  O3_25 
ROOT
HETATM    1  C9  UNL     1      -0.878   0.204   0.161  1.00  0.00    -0.009 C 
HETATM    2  C10 UNL     1      -1.324   1.076  -0.897  1.00  0.00     0.077 C 
HETATM    3  C11 UNL     1      -1.329   1.959  -1.881  1.00  0.00    -0.027 C 
HETATM    4  C12 UNL     1      -0.900   2.965  -2.908  1.00  0.00     0.015 C 
HETATM    5  C13 UNL     1      -2.718   1.755  -2.375  1.00  0.00    -0.024 C 
HETATM    6  C14 UNL     1      -3.604   0.900  -1.951  1.00  0.00    -0.020 C 
HETATM    7  C15 UNL     1      -4.879   0.135  -1.805  1.00  0.00     0.101 C 
HETATM    8  S1  UNL     1      -5.393   0.248  -0.099  1.00  0.00    -0.161 SA
HETATM    9  C16 UNL     1      -4.577  -0.872   0.968  1.00  0.00     0.110 C 
HETATM   10  C17 UNL     1      -3.141  -0.891   1.143  1.00  0.00    -0.041 C 
HETATM   11  C18 UNL     1      -3.093  -1.906   2.299  1.00  0.00     0.047 C 
HETATM   12  C19 UNL     1      -1.835  -0.572   0.929  1.00  0.00     0.076 C 
ENDROOT
BRANCH   1  13
HETATM   13  C5  UNL     1       0.416   0.095   0.495  1.00  0.00    -0.025 C 
HETATM   14  C4  UNL     1       1.228   0.941  -0.330  1.00  0.00     0.019 C 
BRANCH  14  15
HETATM   15  C3  UNL     1       2.496   1.151  -0.347  1.00  0.00     0.177 C 
BRANCH  15  16
HETATM   16  O1  UNL     1       3.843   1.146  -0.102  1.00  0.00    -0.380 OA
BRANCH  16  17
HETATM   17  C2  UNL     1       4.729   1.278  -1.219  1.00  0.00     0.164 C 
HETATM   18  C1  UNL     1       6.102   1.439  -0.653  1.00  0.00     0.033 C 
ENDBRANCH  16  17
ENDBRANCH  15  16
ENDBRANCH  14  15
BRANCH  13  19
HETATM   19  C6  UNL     1       1.346  -0.599   1.364  1.00  0.00     0.060 C 
BRANCH  19  20
HETATM   20  C7  UNL     1       1.774  -1.845   1.456  1.00  0.00     0.184 C 
HETATM   21  F1  UNL     1       1.424  -2.900   0.688  1.00  0.00    -0.200 F 
BRANCH  20  22
HETATM   22  C8  UNL     1       2.736  -2.174   2.493  1.00  0.00     0.277 C 
HETATM   23  N1  UNL     1       3.289  -3.456   2.717  1.00  0.00    -0.364 N 
HETATM   24  H9  UNL     1       4.045  -4.123   2.454  1.00  0.00     0.159 HD
HETATM   25  H10 UNL     1       3.130  -4.322   3.298  1.00  0.00     0.159 HD
HETATM   26  O2  UNL     1       3.415  -1.738   3.455  1.00  0.00    -0.265 OA
ENDBRANCH  20  22
ENDBRANCH  19  20
ENDBRANCH  13  19
ENDBRANCH   1  13
BRANCH  12  27
HETATM   27  O3  UNL     1      -0.907  -1.241   1.778  1.00  0.00    -0.360 OA
HETATM   28  H24 UNL     1      -0.972  -2.262   1.667  1.00  0.00     0.217 HD
ENDBRANCH  12  27
TORSDOF 8
