REMARK  12 active torsions:
REMARK  status: ('A' for Active; 'I' for Inactive)
REMARK    1  A    between atoms: N1_2  and  C2_3 
REMARK    2  A    between atoms: C2_3  and  C3_4 
REMARK    3  A    between atoms: C2_3  and  N2_28 
REMARK    4  A    between atoms: C5_6  and  B1_7 
REMARK    5  A    between atoms: C6_8  and  C7_9 
REMARK    6  A    between atoms: C7_9  and  O1_10 
REMARK    7  A    between atoms: O1_10  and  C8_11 
REMARK    8  A    between atoms: C8_11  and  C9_12 
REMARK    9  A    between atoms: C15_18  and  S1_19 
REMARK   10  A    between atoms: C15_18  and  C22_27 
REMARK   11  A    between atoms: S1_19  and  C16_20 
REMARK   12  A    between atoms: C21_25  and  O2_26 
ROOT
HETATM    1  B1  UNL     1      -0.178  -0.648  -0.370  1.00  0.00     0.221 B 
HETATM    2  C6  UNL     1       0.835  -0.429  -1.060  1.00  0.00    -0.032 A 
HETATM    3  C15 UNL     1      -0.812   0.231  -0.774  1.00  0.00    -0.007 A 
ENDROOT
BRANCH   2   4
HETATM    4  C7  UNL     1       0.763   0.736  -1.869  1.00  0.00     0.168 C 
BRANCH   4   5
HETATM    5  O1  UNL     1       2.011   0.722  -2.551  1.00  0.00    -0.387 OA
BRANCH   5   6
HETATM    6  C8  UNL     1       3.046   0.820  -1.682  1.00  0.00     0.206 C 
BRANCH   6   7
HETATM    7  C9  UNL     1       3.208  -0.165  -0.609  1.00  0.00    -0.035 A 
HETATM    8  C10 UNL     1       2.937  -0.004   0.757  1.00  0.00     0.009 A 
HETATM    9  C11 UNL     1       3.151  -1.081   1.637  1.00  0.00     0.001 A 
HETATM   10  C12 UNL     1       3.622  -2.266   1.119  1.00  0.00     0.000 A 
HETATM   11  C13 UNL     1       3.906  -2.487  -0.210  1.00  0.00     0.001 A 
HETATM   12  C14 UNL     1       3.682  -1.393  -1.055  1.00  0.00     0.009 A 
ENDBRANCH   6   7
ENDBRANCH   5   6
ENDBRANCH   4   5
ENDBRANCH   2   4
BRANCH   1  13
HETATM   13  C5  UNL     1      -2.001  -0.995   0.844  1.00  0.00    -0.038 A 
HETATM   14  C4  UNL     1      -2.797  -1.129   1.360  1.00  0.00    -0.016 A 
HETATM   15  C3  UNL     1      -1.904  -2.139   1.728  1.00  0.00     0.068 A 
HETATM   16  C22 UNL     1      -2.107  -0.192   0.232  1.00  0.00     0.006 A 
BRANCH  15  17
HETATM   17  C2  UNL     1      -2.915  -3.003   1.655  1.00  0.00     0.135 C 
BRANCH  17  18
HETATM   18  N1  UNL     1      -2.673  -4.415   1.951  1.00  0.00    -0.380 N 
HETATM   19  C1  UNL     1      -2.026  -5.162   0.863  1.00  0.00     0.147 C 
HETATM   20  H4  UNL     1      -2.826  -5.096   2.761  1.00  0.00     0.160 HD
ENDBRANCH  17  18
BRANCH  17  21
HETATM   21  N2  UNL     1      -4.274  -3.374   1.420  1.00  0.00    -0.084 NA
HETATM   22  O3  UNL     1      -5.187  -3.081   2.221  1.00  0.00    -0.060 OA
ENDBRANCH  17  21
ENDBRANCH  15  17
ENDBRANCH   1  13
BRANCH   3  23
HETATM   23  S1  UNL     1      -1.782   1.677  -1.716  1.00  0.00    -0.131 SA
BRANCH  23  24
HETATM   24  C16 UNL     1      -1.523   3.142  -0.665  1.00  0.00     0.020 C 
HETATM   25  C17 UNL     1      -2.106   3.564   0.672  1.00  0.00     0.063 C 
HETATM   26  C18 UNL     1      -1.433   4.627   0.519  1.00  0.00    -0.016 C 
HETATM   27  C19 UNL     1      -0.730   5.741   0.364  1.00  0.00    -0.001 C 
HETATM   28  C20 UNL     1      -0.227   5.254  -0.904  1.00  0.00     0.037 C 
HETATM   29  C21 UNL     1      -0.599   3.976  -1.439  1.00  0.00     0.079 C 
BRANCH  29  30
HETATM   30  O2  UNL     1       0.024   3.730  -2.699  1.00  0.00    -0.360 OA
HETATM   31  H19 UNL     1      -0.585   3.853  -3.503  1.00  0.00     0.217 HD
ENDBRANCH  29  30
ENDBRANCH  23  24
ENDBRANCH   3  23
TORSDOF 12
