REMARK  7 active torsions:
REMARK  status: ('A' for Active; 'I' for Inactive)
REMARK    1  A    between atoms: C2_2  and  C3_3 
REMARK    2  A    between atoms: C4_4  and  C5_5 
REMARK    3  A    between atoms: C4_4  and  C14_15 
REMARK    4  A    between atoms: C6_6  and  O1_7 
REMARK    5  A    between atoms: O1_7  and  C7_8 
REMARK    6  A    between atoms: C7_8  and  C8_9 
REMARK    7  A    between atoms: C14_15  and  C16_18 
REMARK       I    between atoms: C16_18  and  N2_19 
ROOT
HETATM    1  C14 UNL     1      -3.209  -0.181  -0.345  1.00  0.00     0.217 C 
HETATM    2  C15 UNL     1      -2.803  -0.963  -1.524  1.00  0.00     0.078 C 
HETATM    3  N1  UNL     1      -2.469  -1.585  -2.445  1.00  0.00    -0.196 NA
ENDROOT
BRANCH   1   4
HETATM    4  C4  UNL     1      -2.324  -0.464   0.805  1.00  0.00    -0.034 C 
HETATM    5  C3  UNL     1      -2.655  -0.937   1.994  1.00  0.00    -0.018 C 
BRANCH   5   6
HETATM    6  C2  UNL     1      -3.986  -1.273   2.451  1.00  0.00     0.023 C 
HETATM    7  C1  UNL     1      -4.309  -0.409   3.681  1.00  0.00     0.009 C 
ENDBRANCH   5   6
BRANCH   4   8
HETATM    8  C5  UNL     1      -0.898  -0.252   0.722  1.00  0.00     0.033 C 
HETATM    9  C6  UNL     1       0.153   0.118   0.063  1.00  0.00     0.135 C 
BRANCH   9  10
HETATM   10  O1  UNL     1       1.469   0.387  -0.218  1.00  0.00    -0.359 OA
BRANCH  10  11
HETATM   11  C7  UNL     1       2.342  -0.755  -0.313  1.00  0.00     0.213 C 
BRANCH  11  12
HETATM   12  C8  UNL     1       3.643  -0.213  -0.769  1.00  0.00    -0.034 A 
HETATM   13  C9  UNL     1       4.653   0.227   0.089  1.00  0.00     0.009 A 
HETATM   14  C10 UNL     1       5.836   0.721  -0.468  1.00  0.00     0.001 A 
HETATM   15  C11 UNL     1       6.066   0.799  -1.808  1.00  0.00     0.000 A 
HETATM   16  C12 UNL     1       5.087   0.371  -2.712  1.00  0.00     0.001 A 
HETATM   17  C13 UNL     1       3.941  -0.105  -2.107  1.00  0.00     0.009 A 
ENDBRANCH  11  12
ENDBRANCH  10  11
ENDBRANCH   9  10
ENDBRANCH   4   8
ENDBRANCH   1   4
BRANCH   1  18
HETATM   18  C16 UNL     1      -3.194   1.250  -0.740  1.00  0.00     0.237 C 
HETATM   19  N2  UNL     1      -2.151   2.087  -1.186  1.00  0.00    -0.369 N 
HETATM   20  H17 UNL     1      -2.009   3.077  -0.913  1.00  0.00     0.159 HD
HETATM   21  H18 UNL     1      -1.300   2.201  -1.760  1.00  0.00     0.159 HD
HETATM   22  O2  UNL     1      -4.278   1.923  -0.700  1.00  0.00    -0.272 OA
ENDBRANCH   1  18
TORSDOF 7
