REMARK  4 active torsions:
REMARK  status: ('A' for Active; 'I' for Inactive)
REMARK    1  A    between atoms: C3_3  and  S1_4 
REMARK    2  A    between atoms: S1_4  and  C4_5 
REMARK    3  A    between atoms: C12_13  and  C13_14 
REMARK    4  A    between atoms: C14_15  and  C16_18 
REMARK       I    between atoms: C16_18  and  N2_19 
ROOT
HETATM    1  C13 UNL     1       2.694  -2.039  -0.475  1.00  0.00     0.040 C 
HETATM    2  C14 UNL     1       3.767  -2.624   0.028  1.00  0.00     0.112 C 
HETATM    3  C15 UNL     1       4.526  -3.454  -0.906  1.00  0.00     0.105 C 
HETATM    4  N1  UNL     1       5.144  -4.117  -1.635  1.00  0.00    -0.191 NA
ENDROOT
BRANCH   2   5
HETATM    5  C16 UNL     1       4.286  -2.535   1.385  1.00  0.00     0.260 C 
HETATM    6  N2  UNL     1       5.476  -3.274   1.686  1.00  0.00    -0.365 N 
HETATM    7  H13 UNL     1       6.504  -3.245   1.417  1.00  0.00     0.159 HD
HETATM    8  H14 UNL     1       6.395  -3.736   1.835  1.00  0.00     0.159 HD
HETATM    9  O1  UNL     1       4.456  -2.254   2.582  1.00  0.00    -0.267 OA
ENDBRANCH   2   5
BRANCH   1  10
HETATM   10  C12 UNL     1       1.766  -1.164   0.241  1.00  0.00    -0.026 A 
HETATM   11  C2  UNL     1       0.554  -0.439  -0.050  1.00  0.00    -0.035 A 
HETATM   12  C1  UNL     1      -0.256  -0.293  -1.263  1.00  0.00     0.050 C 
HETATM   13  C3  UNL     1       0.462   0.031   1.205  1.00  0.00     0.013 A 
HETATM   14  C11 UNL     1       1.697  -0.714   1.483  1.00  0.00     0.031 A 
BRANCH  13  15
HETATM   15  S1  UNL     1      -0.658   1.083   2.144  1.00  0.00    -0.090 SA
BRANCH  15  16
HETATM   16  C4  UNL     1      -1.939   1.622   1.027  1.00  0.00     0.005 A 
HETATM   17  C5  UNL     1      -3.096   0.861   0.872  1.00  0.00     0.019 A 
HETATM   18  C6  UNL     1      -4.117   1.245   0.016  1.00  0.00     0.008 A 
HETATM   19  C7  UNL     1      -3.930   2.422  -0.679  1.00  0.00    -0.062 A 
HETATM   20  C8  UNL     1      -4.946   2.945  -1.630  1.00  0.00     0.048 C 
HETATM   21  C9  UNL     1      -2.802   3.209  -0.559  1.00  0.00     0.008 A 
HETATM   22  C10 UNL     1      -1.785   2.809   0.306  1.00  0.00     0.019 A 
ENDBRANCH  15  16
ENDBRANCH  13  15
ENDBRANCH   1  10
TORSDOF 4
