REMARK  10 active torsions:
REMARK  status: ('A' for Active; 'I' for Inactive)
REMARK    1  A    between atoms: C2_2  and  C3_3 
REMARK    2  A    between atoms: C3_3  and  O1_4 
REMARK    3  A    between atoms: O1_4  and  C4_5 
REMARK    4  A    between atoms: C5_6  and  C6_7 
REMARK    5  A    between atoms: C6_7  and  C8_10 
REMARK       I    between atoms: C8_10  and  N2_11 
REMARK    6  A    between atoms: C10_14  and  C11_15 
REMARK    7  A    between atoms: C11_15  and  C12_16 
REMARK    8  A    between atoms: C12_16  and  S1_17 
REMARK    9  A    between atoms: S1_17  and  C13_18 
REMARK   10  A    between atoms: C20_25  and  O3_26 
ROOT
HETATM    1  C6  UNL     1      -3.106   0.276  -1.897  1.00  0.00     0.216 C 
HETATM    2  C7  UNL     1      -3.443   1.685  -1.653  1.00  0.00     0.078 C 
HETATM    3  N1  UNL     1      -3.712   2.779  -1.480  1.00  0.00    -0.196 NA
ENDROOT
BRANCH   1   4
HETATM    4  C5  UNL     1      -2.066  -0.118  -0.929  1.00  0.00    -0.018 A 
HETATM    5  C4  UNL     1      -2.288  -0.061   0.542  1.00  0.00     0.209 A 
HETATM    6  C20 UNL     1      -0.941  -0.559   1.009  1.00  0.00     0.082 A 
HETATM    7  C10 UNL     1      -0.131  -0.836   0.000  1.00  0.00    -0.025 A 
HETATM    8  C9  UNL     1      -0.850  -0.554  -1.236  1.00  0.00     0.017 A 
BRANCH   5   9
HETATM    9  O1  UNL     1      -3.172  -1.040   0.918  1.00  0.00    -0.375 OA
BRANCH   9  10
HETATM   10  C3  UNL     1      -4.201  -0.658   1.733  1.00  0.00     0.168 C 
BRANCH  10  11
HETATM   11  C2  UNL     1      -5.081   0.396   1.118  1.00  0.00     0.022 C 
HETATM   12  C1  UNL     1      -6.205   0.759   2.097  1.00  0.00     0.007 C 
ENDBRANCH  10  11
ENDBRANCH   9  10
ENDBRANCH   5   9
BRANCH   6  13
HETATM   13  O3  UNL     1      -0.715  -0.663   2.354  1.00  0.00    -0.361 OA
HETATM   14  H24 UNL     1      -0.783   0.223   2.878  1.00  0.00     0.217 HD
ENDBRANCH   6  13
BRANCH   7  15
HETATM   15  C11 UNL     1       1.262  -1.343   0.085  1.00  0.00     0.051 C 
BRANCH  15  16
HETATM   16  C12 UNL     1       1.697  -1.518   1.524  1.00  0.00     0.084 C 
BRANCH  16  17
HETATM   17  S1  UNL     1       3.389  -2.136   1.631  1.00  0.00    -0.130 SA
BRANCH  17  18
HETATM   18  C13 UNL     1       4.449  -0.836   0.981  1.00  0.00     0.000 A 
HETATM   19  C14 UNL     1       4.998   0.167   1.754  1.00  0.00     0.019 A 
HETATM   20  C15 UNL     1       5.807   1.138   1.191  1.00  0.00     0.008 A 
HETATM   21  C16 UNL     1       6.064   1.103  -0.149  1.00  0.00    -0.062 A 
HETATM   22  C17 UNL     1       6.937   2.141  -0.788  1.00  0.00     0.048 C 
HETATM   23  C18 UNL     1       5.538   0.121  -0.964  1.00  0.00     0.008 A 
HETATM   24  C19 UNL     1       4.746  -0.818  -0.371  1.00  0.00     0.019 A 
ENDBRANCH  17  18
ENDBRANCH  16  17
ENDBRANCH  15  16
ENDBRANCH   7  15
ENDBRANCH   1   4
BRANCH   1  25
HETATM   25  C8  UNL     1      -2.604   0.115  -3.306  1.00  0.00     0.237 C 
HETATM   26  N2  UNL     1      -2.204  -1.176  -3.736  1.00  0.00    -0.369 N 
HETATM   27  H10 UNL     1      -1.375  -1.563  -4.238  1.00  0.00     0.159 HD
HETATM   28  H11 UNL     1      -2.899  -1.945  -3.499  1.00  0.00     0.159 HD
HETATM   29  O2  UNL     1      -2.461   0.965  -4.240  1.00  0.00    -0.272 OA
ENDBRANCH   1  25
TORSDOF 10
