REMARK  1 active torsions:
REMARK  status: ('A' for Active; 'I' for Inactive)
REMARK    1  A    between atoms: C5_5  and  O1_6 
ROOT
HETATM    1  C1  UNL     1       4.338   0.956   0.459  1.00  0.00     0.048 C 
HETATM    2  C2  UNL     1       2.845   0.742   0.533  1.00  0.00    -0.064 C 
HETATM    3  C3  UNL     1       2.609  -0.503   0.083  1.00  0.00    -0.011 C 
HETATM    4  C4  UNL     1       1.895  -1.709  -0.294  1.00  0.00     0.059 C 
HETATM    5  C5  UNL     1       0.699  -2.260  -0.332  1.00  0.00     0.120 C 
HETATM    6  C6  UNL     1      -0.749  -2.513  -0.208  1.00  0.00     0.212 C 
HETATM    7  O2  UNL     1      -1.440  -1.429   0.335  1.00  0.00    -0.360 OA
HETATM    8  C7  UNL     1      -1.507  -0.387  -0.646  1.00  0.00     0.254 C 
HETATM    9  C8  UNL     1      -2.773  -0.846  -1.371  1.00  0.00     0.027 C 
HETATM   10  C9  UNL     1      -3.988  -0.402  -1.339  1.00  0.00     0.002 C 
HETATM   11  C10 UNL     1      -4.180   0.749  -0.482  1.00  0.00     0.017 C 
HETATM   12  C11 UNL     1      -3.138   1.258   0.135  1.00  0.00     0.097 C 
HETATM   13  N1  UNL     1      -1.754   0.829   0.058  1.00  0.00    -0.292 N 
HETATM   14  C12 UNL     1      -0.461   1.317   0.406  1.00  0.00     0.270 C 
HETATM   15  O3  UNL     1      -1.098   2.282   0.777  1.00  0.00    -0.266 OA
HETATM   16  C13 UNL     1       0.576   2.251   0.932  1.00  0.00     0.113 C 
HETATM   17  C14 UNL     1       0.609   3.609   1.527  1.00  0.00     0.105 C 
HETATM   18  N2  UNL     1       0.615   4.697   2.011  1.00  0.00    -0.191 NA
HETATM   19  C15 UNL     1       1.764   1.663   0.806  1.00  0.00     0.034 C 
ENDROOT
BRANCH   5  20
HETATM   20  O1  UNL     1       1.445  -3.317  -0.876  1.00  0.00    -0.384 OA
HETATM   21  H6  UNL     1       1.173  -4.272  -0.760  1.00  0.00     0.210 HD
ENDBRANCH   5  20
TORSDOF 1
