REMARK  4 active torsions:
REMARK  status: ('A' for Active; 'I' for Inactive)
REMARK    1  A    between atoms: C1_2  and  C2_3 
REMARK    2  A    between atoms: C2_3  and  N2_4 
REMARK    3  A    between atoms: C11_17  and  N4_18 
REMARK    4  A    between atoms: N4_18  and  C12_19 
ROOT
HETATM    1  N2  UNL     1      -1.424  -2.430  -0.607  1.00  0.00    -0.260 NA
HETATM    2  C3  UNL     1      -1.214  -1.158  -0.375  1.00  0.00     0.192 C 
HETATM    3  O1  UNL     1      -2.193  -0.350   0.187  1.00  0.00    -0.291 OA
HETATM    4  C4  UNL     1      -2.484   0.991   0.037  1.00  0.00     0.075 A 
HETATM    5  C5  UNL     1      -3.698   1.337   0.554  1.00  0.00     0.040 A 
HETATM    6  C6  UNL     1      -4.203   2.641   0.516  1.00  0.00     0.045 A 
HETATM    7  C7  UNL     1      -3.387   3.572  -0.084  1.00  0.00     0.116 A 
HETATM    8  F1  UNL     1      -3.859   4.850  -0.133  1.00  0.00    -0.206 F 
HETATM    9  C8  UNL     1      -2.151   3.300  -0.628  1.00  0.00     0.042 A 
HETATM   10  C9  UNL     1      -1.729   1.985  -0.547  1.00  0.00    -0.040 A 
HETATM   11  B1  UNL     1      -0.303   1.850  -1.212  1.00  0.00     0.309 B 
HETATM   12  N3  UNL     1       0.537   0.560  -1.246  1.00  0.00    -0.433 N 
HETATM   13  C10 UNL     1       0.128  -0.741  -0.775  1.00  0.00     0.083 C 
HETATM   14  C11 UNL     1       1.079  -1.658  -0.697  1.00  0.00     0.120 C 
HETATM   15  H8  UNL     1       0.318   2.855  -1.201  1.00  0.00     0.005 HD
HETATM   16  H9  UNL     1       1.484   0.641  -1.646  1.00  0.00     0.138 HD
ENDROOT
BRANCH  14  17
HETATM   17  N4  UNL     1       2.438  -1.436  -1.043  1.00  0.00    -0.364 N 
HETATM   18  H11 UNL     1       2.699  -1.964  -1.905  1.00  0.00     0.165 HD
BRANCH  17  19
HETATM   19  C12 UNL     1       3.375  -0.618  -0.353  1.00  0.00     0.033 A 
HETATM   20  C13 UNL     1       4.655  -0.526  -0.843  1.00  0.00     0.032 A 
HETATM   21  C14 UNL     1       5.512   0.288  -0.120  1.00  0.00     0.046 A 
HETATM   22  C15 UNL     1       5.179   0.987   1.016  1.00  0.00     0.138 A 
HETATM   23  F2  UNL     1       6.120   1.749   1.625  1.00  0.00    -0.204 F 
HETATM   24  C16 UNL     1       3.872   0.856   1.464  1.00  0.00     0.074 A 
HETATM   25 CL1  UNL     1       3.426   1.738   2.911  1.00  0.00    -0.081 Cl
HETATM   26  C17 UNL     1       2.960   0.051   0.781  1.00  0.00     0.056 A 
ENDBRANCH  17  19
ENDBRANCH  14  17
BRANCH   1  27
HETATM   27  C2  UNL     1      -2.653  -3.105  -0.313  1.00  0.00     0.197 C 
BRANCH  27  28
HETATM   28  C1  UNL     1      -2.936  -2.882   1.149  1.00  0.00     0.102 C 
HETATM   29  N1  UNL     1      -2.900  -3.833   2.029  1.00  0.00    -0.315 NA
HETATM   30  H1  UNL     1      -2.672  -4.817   1.788  1.00  0.00     0.185 HD
ENDBRANCH  27  28
ENDBRANCH   1  27
TORSDOF 4
