REMARK  5 active torsions:
REMARK  status: ('A' for Active; 'I' for Inactive)
REMARK    1  A    between atoms: C5_5  and  O1_6 
REMARK    2  A    between atoms: O1_6  and  C6_7 
REMARK    3  A    between atoms: C6_7  and  C7_8 
REMARK    4  A    between atoms: C7_8  and  C9_11 
REMARK       I    between atoms: C9_11  and  N2_13 
REMARK    5  A    between atoms: N2_13  and  C10_14 
ROOT
HETATM    1  C7  UNL     1       0.010  -1.474  -0.368  1.00  0.00     0.134 C 
HETATM    2  C8  UNL     1       0.665  -2.735  -0.456  1.00  0.00     0.107 C 
HETATM    3  N1  UNL     1       1.176  -3.760  -0.525  1.00  0.00    -0.191 NA
ENDROOT
BRANCH   1   4
HETATM    4  C6  UNL     1       0.774  -0.398  -0.368  1.00  0.00     0.173 C 
BRANCH   4   5
HETATM    5  O1  UNL     1       1.857   0.431  -0.397  1.00  0.00    -0.298 OA
BRANCH   5   6
HETATM    6  C5  UNL     1       3.163   0.033  -0.050  1.00  0.00     0.190 A 
HETATM    7  C4  UNL     1       3.891  -1.057   0.381  1.00  0.00     0.067 A 
HETATM    8  C3  UNL     1       5.202  -0.647   0.508  1.00  0.00     0.037 A 
HETATM    9  C2  UNL     1       5.207   0.684   0.145  1.00  0.00     0.052 A 
HETATM   10  C1  UNL     1       6.489   1.446   0.171  1.00  0.00     0.077 C 
HETATM   11  O3  UNL     1       3.973   1.060  -0.183  1.00  0.00    -0.293 OA
ENDBRANCH   5   6
ENDBRANCH   4   5
ENDBRANCH   1   4
BRANCH   1  12
HETATM   12  C9  UNL     1      -1.409  -1.298  -0.280  1.00  0.00     0.268 C 
HETATM   13  O2  UNL     1      -2.080  -2.356  -0.284  1.00  0.00    -0.266 OA
HETATM   14  N2  UNL     1      -2.075  -0.055  -0.193  1.00  0.00    -0.322 N 
HETATM   15  H7  UNL     1      -1.397   0.733  -0.200  1.00  0.00     0.169 HD
BRANCH  14  16
HETATM   16  C10 UNL     1      -3.464   0.203  -0.103  1.00  0.00     0.035 A 
HETATM   17  C11 UNL     1      -4.478  -0.700  -0.082  1.00  0.00     0.029 A 
HETATM   18  C12 UNL     1      -5.811  -0.364   0.007  1.00  0.00     0.002 A 
HETATM   19  C13 UNL     1      -6.201   0.934   0.082  1.00  0.00     0.000 A 
HETATM   20  C14 UNL     1      -5.192   1.874   0.062  1.00  0.00     0.002 A 
HETATM   21  C15 UNL     1      -3.866   1.511  -0.028  1.00  0.00     0.029 A 
ENDBRANCH  14  16
ENDBRANCH   1  12
TORSDOF 5
