REMARK  5 active torsions:
REMARK  status: ('A' for Active; 'I' for Inactive)
REMARK    1  A    between atoms: N1_1  and  C1_2 
REMARK    2  A    between atoms: C1_2  and  C10_13 
REMARK    3  A    between atoms: C2_3  and  O1_4 
REMARK    4  A    between atoms: O1_4  and  C3_5 
REMARK       I    between atoms: C10_13  and  N2_15 
REMARK    5  A    between atoms: N2_15  and  C11_16 
ROOT
HETATM    1  C1  UNL     1      -0.721   0.356   1.548  1.00  0.00     0.117 C 
HETATM    2  C2  UNL     1       0.393   0.477   0.818  1.00  0.00     0.175 C 
ENDROOT
BRANCH   1   3
HETATM    3  N1  UNL     1      -0.639   0.397   2.987  1.00  0.00    -0.393 N 
HETATM    4  H1  UNL     1      -1.088   1.320   3.224  1.00  0.00     0.156 HD
HETATM    5  H2  UNL     1      -0.164  -0.512   3.215  1.00  0.00     0.156 HD
ENDBRANCH   1   3
BRANCH   1   6
HETATM    6  C10 UNL     1      -1.982   0.185   0.831  1.00  0.00     0.274 C 
HETATM    7  O3  UNL     1      -1.814   0.179  -0.417  1.00  0.00    -0.266 OA
HETATM    8  N2  UNL     1      -3.193   0.052   1.591  1.00  0.00    -0.322 N 
HETATM    9  H13 UNL     1      -3.112   0.085   2.627  1.00  0.00     0.169 HD
BRANCH   8  10
HETATM   10  C11 UNL     1      -4.478  -0.118   1.011  1.00  0.00     0.035 A 
HETATM   11  C12 UNL     1      -4.933  -1.399   0.764  1.00  0.00     0.029 A 
HETATM   12  C13 UNL     1      -6.184  -1.516   0.201  1.00  0.00     0.002 A 
HETATM   13  C14 UNL     1      -6.977  -0.453  -0.118  1.00  0.00     0.000 A 
HETATM   14  C15 UNL     1      -6.527   0.842   0.126  1.00  0.00     0.002 A 
HETATM   15  C16 UNL     1      -5.278   0.966   0.689  1.00  0.00     0.029 A 
ENDBRANCH   8  10
ENDBRANCH   1   6
BRANCH   2  16
HETATM   16  O1  UNL     1       0.877   0.509  -0.487  1.00  0.00    -0.332 OA
BRANCH  16  17
HETATM   17  C3  UNL     1       1.632  -0.500  -1.055  1.00  0.00     0.150 C 
HETATM   18  C4  UNL     1       2.935  -0.291  -1.164  1.00  0.00    -0.013 C 
HETATM   19  C5  UNL     1       3.814  -1.326  -1.764  1.00  0.00     0.007 C 
HETATM   20  C9  UNL     1       3.490   1.023  -0.663  1.00  0.00     0.208 C 
HETATM   21  C6  UNL     1       5.137  -1.428  -1.738  1.00  0.00    -0.024 C 
HETATM   22  C7  UNL     1       6.004  -0.433  -1.044  1.00  0.00     0.053 C 
HETATM   23  C8  UNL     1       5.718   0.958  -1.440  1.00  0.00     0.171 C 
HETATM   24  O2  UNL     1       4.492   1.464  -1.443  1.00  0.00    -0.386 OA
ENDBRANCH  16  17
ENDBRANCH   2  16
TORSDOF 5
