REMARK  7 active torsions:
REMARK  status: ('A' for Active; 'I' for Inactive)
REMARK    1  A    between atoms: C5_5  and  C6_6 
REMARK    2  A    between atoms: C6_6  and  N1_7 
REMARK    3  A    between atoms: C6_6  and  C7_8 
REMARK    4  A    between atoms: C7_8  and  O1_9 
REMARK    5  A    between atoms: C7_8  and  C8_10 
REMARK    6  A    between atoms: C8_10  and  C9_11 
REMARK    7  A    between atoms: C14_17  and  O2_18 
ROOT
HETATM    1  C9  UNL     1      -2.738  -0.206   0.176  1.00  0.00    -0.047 A 
HETATM    2  C10 UNL     1      -2.759   0.242   1.498  1.00  0.00     0.009 A 
HETATM    3  C11 UNL     1      -3.971   0.682   2.055  1.00  0.00     0.026 A 
HETATM    4  C12 UNL     1      -5.036   0.613   1.187  1.00  0.00     0.077 A 
HETATM    5  C13 UNL     1      -6.300   1.060   1.698  1.00  0.00     0.102 C 
HETATM    6  N2  UNL     1      -7.315   1.408   2.124  1.00  0.00    -0.191 NA
HETATM    7  C14 UNL     1      -5.072   0.181  -0.117  1.00  0.00     0.086 A 
HETATM    8  C15 UNL     1      -3.868  -0.239  -0.620  1.00  0.00     0.045 A 
ENDROOT
BRANCH   7   9
HETATM    9  O2  UNL     1      -6.185   0.135  -0.937  1.00  0.00    -0.359 OA
HETATM   10  H13 UNL     1      -6.668  -0.774  -0.933  1.00  0.00     0.217 HD
ENDBRANCH   7   9
BRANCH   1  11
HETATM   11  C8  UNL     1      -1.388  -0.573  -0.095  1.00  0.00     0.140 C 
BRANCH  11  12
HETATM   12  C7  UNL     1      -0.251  -0.705  -0.695  1.00  0.00     0.072 C 
BRANCH  12  13
HETATM   13  C6  UNL     1       0.940  -0.740  -1.544  1.00  0.00     0.137 C 
BRANCH  13  14
HETATM   14  C5  UNL     1       2.123  -0.121  -0.888  1.00  0.00    -0.034 A 
HETATM   15  C4  UNL     1       2.611   1.157  -1.075  1.00  0.00     0.010 A 
HETATM   16  C3  UNL     1       3.724   1.612  -0.403  1.00  0.00     0.007 A 
HETATM   17  C2  UNL     1       4.407   0.802   0.498  1.00  0.00    -0.062 A 
HETATM   18  C1  UNL     1       5.594   1.351   1.184  1.00  0.00     0.048 C 
HETATM   19  C17 UNL     1       3.916  -0.485   0.687  1.00  0.00     0.007 A 
HETATM   20  C16 UNL     1       2.794  -0.936   0.004  1.00  0.00     0.010 A 
ENDBRANCH  13  14
BRANCH  13  21
HETATM   21  N1  UNL     1       1.191  -2.070  -1.992  1.00  0.00    -0.420 N 
HETATM   22  H7  UNL     1       1.358  -2.776  -1.272  1.00  0.00     0.150 HD
HETATM   23  H8  UNL     1       1.840  -2.141  -2.797  1.00  0.00     0.150 HD
ENDBRANCH  13  21
ENDBRANCH  12  13
BRANCH  12  24
HETATM   24  O1  UNL     1       0.264  -1.420   0.405  1.00  0.00    -0.392 OA
HETATM   25  H9  UNL     1       0.250  -2.451   0.401  1.00  0.00     0.210 HD
ENDBRANCH  12  24
ENDBRANCH  11  12
ENDBRANCH   1  11
TORSDOF 7
