REMARK  6 active torsions:
REMARK  status: ('A' for Active; 'I' for Inactive)
REMARK    1  A    between atoms: N1_1  and  C1_2 
REMARK    2  A    between atoms: C4_5  and  N2_6 
REMARK    3  A    between atoms: N2_6  and  C5_7 
REMARK    4  A    between atoms: C6_8  and  C7_9 
REMARK    5  A    between atoms: C7_9  and  N3_10 
REMARK    6  A    between atoms: N3_10  and  C8_11 
ROOT
HETATM    1  C5  UNL     1      -0.834  -2.422  -0.463  1.00  0.00     0.077 A 
HETATM    2  C6  UNL     1       0.338  -2.108   0.026  1.00  0.00     0.080 A 
HETATM    3  N4  UNL     1       0.506  -3.485   0.340  1.00  0.00    -0.259 NA
HETATM    4  C14 UNL     1      -0.637  -3.828  -0.131  1.00  0.00     0.148 A 
ENDROOT
BRANCH   1   5
HETATM    5  N2  UNL     1      -1.825  -1.599  -1.064  1.00  0.00    -0.353 N 
HETATM    6  H5  UNL     1      -2.152  -1.475  -2.043  1.00  0.00     0.166 HD
BRANCH   5   7
HETATM    7  C4  UNL     1      -2.718  -0.649  -0.491  1.00  0.00     0.032 A 
HETATM    8  C3  UNL     1      -2.354   0.668  -0.370  1.00  0.00     0.031 A 
HETATM    9  C2  UNL     1      -3.160   1.662   0.176  1.00  0.00     0.031 A 
HETATM   10  C1  UNL     1      -4.404   1.306   0.625  1.00  0.00     0.025 A 
HETATM   11  C16 UNL     1      -4.809  -0.010   0.521  1.00  0.00     0.031 A 
HETATM   12  C15 UNL     1      -3.985  -0.981  -0.028  1.00  0.00     0.031 A 
BRANCH  10  13
HETATM   13  N1  UNL     1      -5.331   2.235   1.207  1.00  0.00    -0.399 N 
HETATM   14  H1  UNL     1      -5.777   2.891   0.507  1.00  0.00     0.156 HD
HETATM   15  H2  UNL     1      -5.479   2.183   2.238  1.00  0.00     0.156 HD
ENDBRANCH  10  13
ENDBRANCH   5   7
ENDBRANCH   1   5
BRANCH   2  16
HETATM   16  C7  UNL     1       1.221  -0.958   0.239  1.00  0.00     0.181 C 
BRANCH  16  17
HETATM   17  N3  UNL     1       2.502  -1.059  -0.420  1.00  0.00    -0.384 N 
HETATM   18  H8  UNL     1       2.737  -1.888  -0.984  1.00  0.00     0.160 HD
BRANCH  17  19
HETATM   19  C8  UNL     1       3.454  -0.001  -0.291  1.00  0.00     0.029 A 
HETATM   20  C9  UNL     1       4.674  -0.080  -0.909  1.00  0.00     0.029 A 
HETATM   21  C10 UNL     1       5.623   0.934  -0.802  1.00  0.00     0.004 A 
HETATM   22  C11 UNL     1       5.322   2.051  -0.050  1.00  0.00     0.024 A 
HETATM   23  C12 UNL     1       4.092   2.122   0.569  1.00  0.00     0.036 A 
HETATM   24 CL1  UNL     1       3.579   3.482   1.554  1.00  0.00    -0.084 Cl
HETATM   25  C13 UNL     1       3.138   1.122   0.472  1.00  0.00     0.052 A 
ENDBRANCH  17  19
ENDBRANCH  16  17
ENDBRANCH   2  16
TORSDOF 6
