REMARK  4 active torsions:
REMARK  status: ('A' for Active; 'I' for Inactive)
REMARK    1  A    between atoms: C5_5  and  C6_6 
REMARK    2  A    between atoms: C6_6  and  C7_8 
REMARK    3  A    between atoms: C9_11  and  C10_12 
REMARK    4  A    between atoms: C14_17  and  O3_18 
ROOT
HETATM    1  C7  UNL     1      -0.176   0.129  -0.118  1.00  0.00     0.096 C 
HETATM    2  C8  UNL     1      -0.229   1.335  -0.886  1.00  0.00     0.103 C 
HETATM    3  N1  UNL     1      -0.276   2.314  -1.533  1.00  0.00    -0.191 NA
HETATM    4  C9  UNL     1      -1.157  -0.566   0.366  1.00  0.00     0.038 C 
ENDROOT
BRANCH   1   5
HETATM    5  C6  UNL     1       1.148  -0.394   0.144  1.00  0.00     0.202 C 
HETATM    6  O1  UNL     1       0.874  -1.439   0.813  1.00  0.00    -0.286 OA
BRANCH   5   7
HETATM    7  C5  UNL     1       2.516  -0.113  -0.099  1.00  0.00     0.015 A 
HETATM    8  C4  UNL     1       3.406  -1.020   0.424  1.00  0.00     0.016 A 
HETATM    9  C3  UNL     1       4.778  -0.838   0.243  1.00  0.00     0.007 A 
HETATM   10  C2  UNL     1       5.205   0.261  -0.466  1.00  0.00    -0.062 A 
HETATM   11  C1  UNL     1       6.676   0.447  -0.654  1.00  0.00     0.048 C 
HETATM   12  C17 UNL     1       4.373   1.210  -1.018  1.00  0.00     0.007 A 
HETATM   13  C16 UNL     1       3.040   0.955  -0.793  1.00  0.00     0.016 A 
ENDBRANCH   5   7
ENDBRANCH   1   5
BRANCH   4  14
HETATM   14  C10 UNL     1      -2.593  -0.426   0.351  1.00  0.00    -0.034 C 
HETATM   15  C11 UNL     1      -3.427  -1.311   0.942  1.00  0.00     0.010 C 
HETATM   16  C12 UNL     1      -4.870  -1.477   1.117  1.00  0.00     0.196 C 
HETATM   17  O2  UNL     1      -5.653  -0.456   0.623  1.00  0.00    -0.381 OA
HETATM   18  C13 UNL     1      -5.494  -0.206  -0.736  1.00  0.00     0.232 C 
HETATM   19  C14 UNL     1      -4.487   0.915  -0.813  1.00  0.00     0.067 C 
HETATM   20  C15 UNL     1      -3.260   0.718  -0.313  1.00  0.00     0.045 C 
BRANCH  19  21
HETATM   21  O3  UNL     1      -4.689   2.195  -1.369  1.00  0.00    -0.363 OA
HETATM   22  H12 UNL     1      -4.426   2.985  -0.768  1.00  0.00     0.217 HD
ENDBRANCH  19  21
ENDBRANCH   4  14
TORSDOF 4
