REMARK  3 active torsions:
REMARK  status: ('A' for Active; 'I' for Inactive)
REMARK    1  A    between atoms: C6_7  and  O1_8 
REMARK    2  A    between atoms: C7_9  and  O2_10 
REMARK    3  A    between atoms: C10_13  and  C11_14 
ROOT
HETATM    1  N1  UNL     1       4.692   1.072   1.063  1.00  0.00    -0.191 NA
HETATM    2  C1  UNL     1       3.603   1.284   0.653  1.00  0.00     0.103 C 
HETATM    3  C2  UNL     1       2.274   1.568   0.143  1.00  0.00     0.086 C 
HETATM    4  C3  UNL     1       2.179   0.421  -0.485  1.00  0.00     0.000 C 
HETATM    5  C4  UNL     1       2.727  -0.870  -0.862  1.00  0.00     0.037 C 
HETATM    6  C5  UNL     1       1.827  -1.985  -0.606  1.00  0.00     0.118 C 
HETATM    7  C6  UNL     1       0.712  -2.603  -0.262  1.00  0.00     0.090 C 
HETATM    8  C7  UNL     1      -0.666  -2.784   0.184  1.00  0.00     0.069 C 
HETATM    9  C8  UNL     1      -1.618  -1.891   0.533  1.00  0.00     0.008 C 
HETATM   10  C9  UNL     1      -1.436  -0.434   0.537  1.00  0.00     0.039 C 
HETATM   11  C10 UNL     1      -2.135   0.307  -0.560  1.00  0.00     0.025 C 
HETATM   12  C12 UNL     1      -1.498   1.621  -0.745  1.00  0.00    -0.024 C 
HETATM   13  C13 UNL     1      -0.613   2.368  -0.107  1.00  0.00    -0.022 C 
HETATM   14  C14 UNL     1       0.336   3.362   0.414  1.00  0.00     0.111 C 
HETATM   15  C15 UNL     1       1.723   2.833   0.592  1.00  0.00     0.173 C 
HETATM   16  O3  UNL     1       2.429   3.652   1.224  1.00  0.00    -0.291 OA
ENDROOT
BRANCH   7  17
HETATM   17  O1  UNL     1       1.499  -3.736  -0.560  1.00  0.00    -0.388 OA
HETATM   18  H5  UNL     1       1.343  -4.535   0.035  1.00  0.00     0.210 HD
ENDBRANCH   7  17
BRANCH   8  19
HETATM   19  O2  UNL     1      -1.026  -4.120   0.250  1.00  0.00    -0.363 OA
HETATM   20  H6  UNL     1      -1.120  -4.610   1.131  1.00  0.00     0.217 HD
ENDBRANCH   8  19
BRANCH  11  21
HETATM   21  C11 UNL     1      -3.605   0.371  -0.433  1.00  0.00     0.123 C 
HETATM   22 CL1  UNL     1      -4.066   1.198   1.094  1.00  0.00    -0.130 Cl
ENDBRANCH  11  21
TORSDOF 3
