REMARK  5 active torsions:
REMARK  status: ('A' for Active; 'I' for Inactive)
REMARK    1  A    between atoms: C4_4  and  C5_5 
REMARK    2  A    between atoms: C6_6  and  C8_9 
REMARK       I    between atoms: C8_9  and  N2_11 
REMARK    3  A    between atoms: N2_11  and  C9_12 
REMARK    4  A    between atoms: C9_12  and  C10_13 
REMARK    5  A    between atoms: C10_13  and  C11_14 
ROOT
HETATM    1  C5  UNL     1      -2.171  -0.236  -0.316  1.00  0.00     0.039 C 
HETATM    2  C6  UNL     1      -1.393   0.794  -0.194  1.00  0.00     0.113 C 
HETATM    3  C7  UNL     1      -1.823   2.164  -0.004  1.00  0.00     0.105 C 
HETATM    4  N1  UNL     1      -2.152   3.279   0.150  1.00  0.00    -0.191 NA
ENDROOT
BRANCH   2   5
HETATM    5  C8  UNL     1       0.057   0.641  -0.241  1.00  0.00     0.262 C 
HETATM    6  O1  UNL     1       0.841   1.630  -0.125  1.00  0.00    -0.267 OA
HETATM    7  N2  UNL     1       0.831  -0.542  -0.412  1.00  0.00    -0.356 N 
HETATM    8  H6  UNL     1       0.280  -1.438  -0.522  1.00  0.00     0.162 HD
BRANCH   7   9
HETATM    9  C9  UNL     1       2.264  -0.549  -0.439  1.00  0.00     0.127 C 
BRANCH   9  10
HETATM   10  C10 UNL     1       2.936  -0.049   0.791  1.00  0.00     0.058 C 
BRANCH  10  11
HETATM   11  C11 UNL     1       4.418  -0.151   0.537  1.00  0.00    -0.057 A 
HETATM   12  C12 UNL     1       5.147  -1.294   0.855  1.00  0.00     0.007 A 
HETATM   13  C13 UNL     1       6.508  -1.357   0.608  1.00  0.00     0.001 A 
HETATM   14  C14 UNL     1       7.138  -0.271   0.042  1.00  0.00     0.000 A 
HETATM   15  C15 UNL     1       6.431   0.862  -0.278  1.00  0.00     0.001 A 
HETATM   16  C16 UNL     1       5.079   0.924  -0.032  1.00  0.00     0.007 A 
ENDBRANCH  10  11
ENDBRANCH   9  10
ENDBRANCH   7   9
ENDBRANCH   2   5
BRANCH   1  17
HETATM   17  C4  UNL     1      -3.620  -0.333  -0.301  1.00  0.00    -0.038 A 
HETATM   18  C3  UNL     1      -4.556   0.745  -0.141  1.00  0.00     0.013 A 
HETATM   19  C2  UNL     1      -5.813   0.382  -0.165  1.00  0.00    -0.080 A 
HETATM   20  C1  UNL     1      -7.133   1.058  -0.051  1.00  0.00     0.043 C 
HETATM   21  C18 UNL     1      -5.792  -1.088  -0.360  1.00  0.00     0.061 A 
HETATM   22  C17 UNL     1      -4.367  -1.444  -0.434  1.00  0.00    -0.011 A 
ENDBRANCH   1  17
TORSDOF 5
