REMARK  5 active torsions:
REMARK  status: ('A' for Active; 'I' for Inactive)
REMARK    1  A    between atoms: C5_5  and  C6_6 
REMARK    2  A    between atoms: C8_9  and  C9_10 
REMARK    3  A    between atoms: C12_13  and  O1_14 
REMARK    4  A    between atoms: C13_15  and  O2_16 
REMARK    5  A    between atoms: C16_19  and  O3_20 
ROOT
HETATM    1  C6  UNL     1       0.225   0.222  -0.130  1.00  0.00     0.052 C 
HETATM    2  C7  UNL     1       0.744   1.428  -0.752  1.00  0.00     0.100 C 
HETATM    3  N1  UNL     1       1.180   2.410  -1.251  1.00  0.00    -0.191 NA
HETATM    4  C8  UNL     1       1.084  -0.704   0.294  1.00  0.00     0.034 C 
ENDROOT
BRANCH   1   5
HETATM    5  C5  UNL     1      -1.247   0.099   0.010  1.00  0.00    -0.031 A 
HETATM    6  C4  UNL     1      -1.638  -1.021   0.600  1.00  0.00     0.009 A 
HETATM    7  C3  UNL     1      -2.981  -1.466   0.896  1.00  0.00     0.007 A 
HETATM    8  C2  UNL     1      -4.134  -0.880   0.601  1.00  0.00    -0.060 A 
HETATM    9  C1  UNL     1      -5.345  -1.617   1.060  1.00  0.00     0.048 C 
HETATM   10  C17 UNL     1      -4.405   0.359  -0.095  1.00  0.00     0.039 A 
HETATM   11  C16 UNL     1      -3.428   1.159  -0.523  1.00  0.00     0.048 A 
HETATM   12  C15 UNL     1      -1.973   1.244  -0.546  1.00  0.00     0.104 A 
BRANCH  11  13
HETATM   13  O3  UNL     1      -3.827   2.329  -1.181  1.00  0.00    -0.365 OA
HETATM   14  H14 UNL     1      -4.059   3.159  -0.653  1.00  0.00     0.217 HD
ENDBRANCH  11  13
ENDBRANCH   1   5
BRANCH   4  15
HETATM   15  C9  UNL     1       2.517  -0.444   0.091  1.00  0.00    -0.032 A 
HETATM   16  C10 UNL     1       2.820  -0.090  -1.233  1.00  0.00     0.014 A 
HETATM   17  C11 UNL     1       4.135   0.217  -1.555  1.00  0.00     0.040 A 
HETATM   18  C12 UNL     1       5.112   0.169  -0.582  1.00  0.00     0.098 A 
HETATM   19  C13 UNL     1       4.828  -0.176   0.714  1.00  0.00     0.099 A 
HETATM   20  C14 UNL     1       3.512  -0.488   1.059  1.00  0.00     0.051 A 
BRANCH  18  21
HETATM   21  O1  UNL     1       6.430   0.473  -0.888  1.00  0.00    -0.358 OA
HETATM   22  H9  UNL     1       6.659   1.386  -1.317  1.00  0.00     0.217 HD
ENDBRANCH  18  21
BRANCH  19  23
HETATM   23  O2  UNL     1       5.765  -0.239   1.725  1.00  0.00    -0.358 OA
HETATM   24  H10 UNL     1       6.743  -0.092   1.488  1.00  0.00     0.217 HD
ENDBRANCH  19  23
ENDBRANCH   4  15
TORSDOF 5
