REMARK  8 active torsions:
REMARK  status: ('A' for Active; 'I' for Inactive)
REMARK    1  A    between atoms: C3_3  and  C4_4 
REMARK    2  A    between atoms: C4_4  and  O1_5 
REMARK    3  A    between atoms: C4_4  and  C15_18 
REMARK    4  A    between atoms: O1_5  and  C5_6 
REMARK    5  A    between atoms: C5_6  and  C7_9 
REMARK    6  A    between atoms: C9_11  and  O2_12 
REMARK    7  A    between atoms: C11_14  and  C12_15 
REMARK    8  A    between atoms: C15_18  and  O3_19 
ROOT
HETATM    1  C1  UNL     1      -0.892   1.525  -3.572  1.00  0.00     0.012 C 
HETATM    2  C2  UNL     1      -1.694   1.356  -2.680  1.00  0.00    -0.115 C 
HETATM    3  C3  UNL     1      -2.666   1.166  -1.632  1.00  0.00     0.132 C 
ENDROOT
BRANCH   3   4
HETATM    4  C4  UNL     1      -2.038   0.694  -0.335  1.00  0.00     0.190 C 
BRANCH   4   5
HETATM    5  O1  UNL     1      -1.377  -0.517  -0.475  1.00  0.00    -0.358 OA
BRANCH   5   6
HETATM    6  C5  UNL     1      -0.040  -0.419  -0.094  1.00  0.00     0.241 C 
HETATM    7  C6  UNL     1       0.277  -1.330   1.007  1.00  0.00     0.092 C 
HETATM    8  N1  UNL     1       0.540  -2.072   1.877  1.00  0.00    -0.194 NA
BRANCH   6   9
HETATM    9  C7  UNL     1       0.874  -0.775  -1.238  1.00  0.00     0.089 A 
HETATM   10  C8  UNL     1       0.697  -2.154  -1.764  1.00  0.00     0.023 A 
HETATM   11  C9  UNL     1       1.842  -2.707  -1.395  1.00  0.00     0.069 A 
HETATM   12  C10 UNL     1       2.172  -1.407  -0.821  1.00  0.00    -0.014 A 
HETATM   13  C11 UNL     1       3.221  -0.941  -0.172  1.00  0.00     0.010 C 
BRANCH  11  14
HETATM   14  O2  UNL     1       2.538  -3.927  -1.453  1.00  0.00    -0.360 OA
HETATM   15  H8  UNL     1       2.829  -4.260  -2.366  1.00  0.00     0.217 HD
ENDBRANCH  11  14
BRANCH  13  16
HETATM   16  C12 UNL     1       3.267   0.440   0.292  1.00  0.00    -0.004 C 
HETATM   17  C13 UNL     1       4.300   0.949   0.947  1.00  0.00    -0.031 C 
HETATM   18  C14 UNL     1       4.373   2.347   1.429  1.00  0.00     0.036 C 
ENDBRANCH  13  16
ENDBRANCH   6   9
ENDBRANCH   5   6
ENDBRANCH   4   5
BRANCH   4  19
HETATM   19  C15 UNL     1      -3.105   0.533   0.704  1.00  0.00     0.069 C 
HETATM   20  C16 UNL     1      -3.423  -0.587   1.346  1.00  0.00     0.004 C 
HETATM   21  C17 UNL     1      -4.527  -0.519   2.349  1.00  0.00     0.038 C 
BRANCH  19  22
HETATM   22  O3  UNL     1      -3.770   1.743   0.945  1.00  0.00    -0.363 OA
HETATM   23  H15 UNL     1      -3.864   2.071   1.894  1.00  0.00     0.217 HD
ENDBRANCH  19  22
ENDBRANCH   4  19
ENDBRANCH   3   4
TORSDOF 8
