REMARK  1 active torsions:
REMARK  status: ('A' for Active; 'I' for Inactive)
REMARK    1  A    between atoms: C6_7  and  O1_8 
ROOT
HETATM    1  N1  UNL     1      -1.347  -3.523   2.632  1.00  0.00    -0.191 NA
HETATM    2  C1  UNL     1      -1.349  -2.719   1.765  1.00  0.00     0.101 C 
HETATM    3  C2  UNL     1      -1.370  -1.756   0.702  1.00  0.00     0.070 C 
HETATM    4  C3  UNL     1      -2.429  -2.064  -0.045  1.00  0.00     0.002 C 
HETATM    5  C4  UNL     1      -3.019  -1.457  -1.297  1.00  0.00     0.058 C 
HETATM    6  C5  UNL     1      -3.357  -0.033  -0.930  1.00  0.00     0.009 C 
HETATM    7  C6  UNL     1      -2.437   0.910  -0.827  1.00  0.00     0.046 C 
HETATM    8  C7  UNL     1      -0.956   1.124  -0.957  1.00  0.00     0.131 C 
HETATM    9  C8  UNL     1      -0.165   0.386   0.037  1.00  0.00     0.082 C 
HETATM   10  C9  UNL     1      -0.304  -0.760   0.715  1.00  0.00     0.079 C 
HETATM   11  N2  UNL     1       0.535  -1.331   1.674  1.00  0.00    -0.383 N 
HETATM   12  C10 UNL     1       1.681  -0.466   1.819  1.00  0.00     0.147 C 
HETATM   13  C11 UNL     1       2.572  -0.515   0.671  1.00  0.00    -0.007 C 
HETATM   14  C12 UNL     1       3.327  -0.341  -0.431  1.00  0.00    -0.003 C 
HETATM   15  C13 UNL     1       3.393   0.879  -1.276  1.00  0.00    -0.001 C 
HETATM   16  C14 UNL     1       2.681   1.972  -1.080  1.00  0.00     0.021 C 
HETATM   17  C15 UNL     1       1.658   2.223   0.012  1.00  0.00     0.247 C 
HETATM   18 CL1  UNL     1       1.029   3.894  -0.165  1.00  0.00    -0.090 Cl
HETATM   19  O2  UNL     1       0.738   1.279   0.010  1.00  0.00    -0.328 OA
HETATM   20  H8  UNL     1       0.448  -2.185   2.224  1.00  0.00     0.160 HD
ENDROOT
BRANCH   7  21
HETATM   21  O1  UNL     1      -3.147   2.078  -0.475  1.00  0.00    -0.365 OA
HETATM   22  H5  UNL     1      -2.933   2.448   0.438  1.00  0.00     0.217 HD
ENDBRANCH   7  21
TORSDOF 1
