REMARK  5 active torsions:
REMARK  status: ('A' for Active; 'I' for Inactive)
REMARK    1  A    between atoms: N2_9  and  C8_10 
REMARK    2  A    between atoms: C8_10  and  C9_11 
REMARK    3  A    between atoms: C9_11  and  C10_12 
REMARK    4  A    between atoms: C10_12  and  C11_13 
REMARK    5  A    between atoms: C11_13  and  C12_14 
ROOT
HETATM    1  N1  UNL     1      -3.286  -3.912  -0.269  1.00  0.00    -0.192 NA
HETATM    2  C1  UNL     1      -3.518  -2.757  -0.294  1.00  0.00     0.097 C 
HETATM    3  C2  UNL     1      -3.825  -1.333  -0.338  1.00  0.00     0.040 C 
HETATM    4  C3  UNL     1      -5.044  -1.037   0.080  1.00  0.00     0.020 C 
HETATM    5  C4  UNL     1      -5.797   0.209   0.221  1.00  0.00     0.001 C 
HETATM    6  C5  UNL     1      -5.433   1.467   0.528  1.00  0.00     0.001 C 
HETATM    7  C6  UNL     1      -4.134   2.107   0.846  1.00  0.00     0.017 C 
HETATM    8  C7  UNL     1      -2.903   1.662   0.655  1.00  0.00     0.086 C 
HETATM    9  N2  UNL     1      -2.288   0.498   0.117  1.00  0.00    -0.385 N 
HETATM   10  C18 UNL     1      -2.666  -0.522  -0.859  1.00  0.00     0.172 C 
ENDROOT
BRANCH   9  11
HETATM   11  C8  UNL     1      -0.960   0.227   0.639  1.00  0.00     0.122 C 
BRANCH  11  12
HETATM   12  C9  UNL     1       0.127   0.416  -0.364  1.00  0.00     0.020 C 
BRANCH  12  13
HETATM   13  C10 UNL     1       1.497   0.122   0.219  1.00  0.00     0.006 C 
BRANCH  13  14
HETATM   14  C11 UNL     1       2.551   0.334  -0.820  1.00  0.00     0.038 C 
BRANCH  14  15
HETATM   15  C12 UNL     1       3.901   0.042  -0.251  1.00  0.00    -0.058 A 
HETATM   16  C13 UNL     1       4.714   0.984   0.399  1.00  0.00     0.007 A 
HETATM   17  C14 UNL     1       5.937   0.549   0.864  1.00  0.00     0.001 A 
HETATM   18  C15 UNL     1       6.423  -0.724   0.745  1.00  0.00     0.000 A 
HETATM   19  C16 UNL     1       5.634  -1.673   0.105  1.00  0.00     0.001 A 
HETATM   20  C17 UNL     1       4.404  -1.243  -0.366  1.00  0.00     0.007 A 
ENDBRANCH  14  15
ENDBRANCH  13  14
ENDBRANCH  12  13
ENDBRANCH  11  12
ENDBRANCH   9  11
TORSDOF 5
