REMARK  7 active torsions:
REMARK  status: ('A' for Active; 'I' for Inactive)
REMARK    1  A    between atoms: C1_2  and  C2_3 
REMARK       I    between atoms: C1_2  and  N1_14 
REMARK    2  A    between atoms: C2_3  and  C3_4 
REMARK    3  A    between atoms: C3_4  and  C4_5 
REMARK    4  A    between atoms: C9_11  and  O3_12 
REMARK    5  A    between atoms: N1_14  and  C11_15 
REMARK    6  A    between atoms: C11_15  and  C14_19 
REMARK    7  A    between atoms: C12_16  and  C13_17 
ROOT
HETATM    1  C2  UNL     1       0.581  -0.682  -0.719  1.00  0.00     0.107 C 
ENDROOT
BRANCH   1   2
HETATM    2  C1  UNL     1       1.814  -0.318  -0.055  1.00  0.00     0.222 C 
HETATM    3  O1  UNL     1       1.629   0.950  -0.009  1.00  0.00    -0.273 OA
HETATM    4  N1  UNL     1       2.948  -0.938   0.454  1.00  0.00    -0.330 N 
HETATM    5  H12 UNL     1       2.846  -1.982   0.284  1.00  0.00     0.168 HD
BRANCH   4   6
HETATM    6  C11 UNL     1       4.138  -0.552   1.111  1.00  0.00     0.024 C 
HETATM    7  C12 UNL     1       4.235  -1.131   2.338  1.00  0.00     0.030 C 
BRANCH   7   8
HETATM    8  C13 UNL     1       5.301  -0.997   3.331  1.00  0.00     0.251 C 
HETATM    9  F1  UNL     1       6.338  -0.184   3.019  1.00  0.00    -0.251 F 
ENDBRANCH   7   8
BRANCH   6  10
HETATM   10  C14 UNL     1       5.006   0.367   0.348  1.00  0.00     0.171 C 
HETATM   11 CL1  UNL     1       4.256   1.899  -0.080  1.00  0.00    -0.124 Cl
ENDBRANCH   6  10
ENDBRANCH   4   6
ENDBRANCH   1   2
BRANCH   1  12
HETATM   12  C3  UNL     1      -0.185   0.554  -1.152  1.00  0.00     0.037 C 
BRANCH  12  13
HETATM   13  C4  UNL     1      -1.440   0.211  -1.786  1.00  0.00    -0.015 C 
HETATM   14  C5  UNL     1      -2.704   0.521  -1.463  1.00  0.00    -0.036 C 
HETATM   15  C6  UNL     1      -2.859   1.356  -0.251  1.00  0.00     0.009 C 
HETATM   16  C10 UNL     1      -3.793   0.012  -2.320  1.00  0.00     0.074 C 
HETATM   17  C7  UNL     1      -3.977   1.320   0.502  1.00  0.00     0.000 C 
HETATM   18  C8  UNL     1      -5.275   0.615   0.498  1.00  0.00     0.205 C 
HETATM   19  O2  UNL     1      -5.474  -0.284  -0.545  1.00  0.00    -0.327 OA
HETATM   20  C9  UNL     1      -4.980  -0.318  -1.832  1.00  0.00     0.178 C 
BRANCH  20  21
HETATM   21  O3  UNL     1      -5.769  -0.759  -2.905  1.00  0.00    -0.341 OA
HETATM   22  H10 UNL     1      -6.635  -0.320  -3.109  1.00  0.00     0.220 HD
ENDBRANCH  20  21
ENDBRANCH  12  13
ENDBRANCH   1  12
TORSDOF 7
