REMARK  3 active torsions:
REMARK  status: ('A' for Active; 'I' for Inactive)
REMARK    1  A    between atoms: C2_2  and  C3_3 
REMARK    2  A    between atoms: C3_3  and  C4_4 
REMARK    3  A    between atoms: C4_4  and  C5_6 
ROOT
HETATM    1  C5  UNL     1       1.096   0.377  -0.548  1.00  0.00     0.070 C 
HETATM    2  C6  UNL     1       0.444   1.548  -0.047  1.00  0.00     0.236 C 
HETATM    3  O1  UNL     1       1.059   2.524   0.752  1.00  0.00    -0.339 OA
HETATM    4  C7  UNL     1       0.073   3.543   1.021  1.00  0.00     0.252 C 
HETATM    5  N1  UNL     1      -1.224   3.766   0.768  1.00  0.00    -0.231 NA
HETATM    6  C8  UNL     1      -1.956   2.785   0.022  1.00  0.00     0.230 C 
HETATM    7  N2  UNL     1      -2.505   2.078  -0.883  1.00  0.00    -0.263 NA
HETATM    8  C9  UNL     1      -3.306   0.913  -0.722  1.00  0.00     0.281 C 
HETATM    9  N3  UNL     1      -2.583  -0.346  -0.628  1.00  0.00    -0.323 N 
HETATM   10  C10 UNL     1      -3.442  -1.231   0.147  1.00  0.00     0.121 C 
HETATM   11  C11 UNL     1      -3.712  -2.550   0.027  1.00  0.00     0.088 C 
HETATM   12 CL1  UNL     1      -4.809  -3.345   1.136  1.00  0.00    -0.080 Cl
HETATM   13  C12 UNL     1      -3.131  -3.425  -1.021  1.00  0.00     0.139 C 
HETATM   14  F2  UNL     1      -3.811  -4.551  -1.291  1.00  0.00    -0.204 F 
HETATM   15  C13 UNL     1      -2.004  -3.212  -1.724  1.00  0.00     0.048 C 
HETATM   16  C14 UNL     1      -1.101  -2.041  -1.590  1.00  0.00     0.052 C 
HETATM   17  C15 UNL     1      -1.307  -0.789  -1.123  1.00  0.00     0.109 C 
HETATM   18  N4  UNL     1       0.010  -0.269  -1.299  1.00  0.00    -0.342 N 
HETATM   19  H17 UNL     1       0.413  -0.329  -2.271  1.00  0.00     0.167 HD
ENDROOT
BRANCH   1  20
HETATM   20  C4  UNL     1       2.270  -0.216  -0.526  1.00  0.00     0.118 C 
HETATM   21  F1  UNL     1       2.464  -1.372  -1.170  1.00  0.00    -0.209 F 
BRANCH  20  22
HETATM   22  C3  UNL     1       3.371   0.415   0.222  1.00  0.00     0.072 C 
BRANCH  22  23
HETATM   23  C2  UNL     1       3.888  -0.493   1.328  1.00  0.00     0.002 C 
HETATM   24  C1  UNL     1       5.015   0.235   2.040  1.00  0.00     0.005 C 
ENDBRANCH  22  23
ENDBRANCH  20  22
ENDBRANCH   1  20
TORSDOF 3
