REMARK  4 active torsions:
REMARK  status: ('A' for Active; 'I' for Inactive)
REMARK    1  A    between atoms: O1_2  and  C2_3 
REMARK    2  A    between atoms: C13_17  and  O2_18 
REMARK    3  A    between atoms: O2_18  and  N4_19 
REMARK    4  A    between atoms: C14_20  and  O3_21 
ROOT
HETATM    1  C2  UNL     1       0.967  -1.429   0.876  1.00  0.00     0.100 C 
HETATM    2  C3  UNL     1       1.726  -0.374   0.847  1.00  0.00     0.014 C 
HETATM    3  C4  UNL     1       2.799   0.616   0.931  1.00  0.00     0.052 C 
HETATM    4  C5  UNL     1       3.108   1.263  -0.420  1.00  0.00     0.155 C 
HETATM    5  N1  UNL     1       1.896   1.907  -0.896  1.00  0.00    -0.262 NA
HETATM    6  C6  UNL     1       1.572   3.105  -0.659  1.00  0.00     0.226 C 
HETATM    7  C7  UNL     1       2.196   4.151   0.073  1.00  0.00     0.140 C 
HETATM    8  N2  UNL     1       2.690   4.987   0.680  1.00  0.00    -0.188 NA
HETATM    9  N3  UNL     1       0.339   3.096  -1.359  1.00  0.00    -0.236 NA
HETATM   10  C8  UNL     1      -0.712   2.624  -0.748  1.00  0.00     0.093 C 
HETATM   11  C9  UNL     1      -2.141   2.444  -1.120  1.00  0.00     0.057 C 
HETATM   12  C10 UNL     1      -2.549   0.999  -0.862  1.00  0.00    -0.021 C 
HETATM   13  C11 UNL     1      -3.954   0.718  -1.217  1.00  0.00     0.017 C 
HETATM   14  C12 UNL     1      -2.189  -0.202  -0.434  1.00  0.00     0.068 C 
HETATM   15  C13 UNL     1      -1.384  -1.277   0.099  1.00  0.00     0.117 C 
HETATM   16  C14 UNL     1      -0.352  -1.863   0.574  1.00  0.00     0.131 C 
ENDROOT
BRANCH   1  17
HETATM   17  O1  UNL     1       2.091  -1.998   1.368  1.00  0.00    -0.353 OA
HETATM   18  C1  UNL     1       2.660  -3.230   1.067  1.00  0.00     0.210 C 
ENDBRANCH   1  17
BRANCH  16  19
HETATM   19  O3  UNL     1      -0.520  -3.192   0.865  1.00  0.00    -0.356 OA
HETATM   20  H18 UNL     1      -0.468  -3.563   1.806  1.00  0.00     0.218 HD
ENDBRANCH  16  19
BRANCH  15  21
HETATM   21  O2  UNL     1      -2.590  -1.921  -0.111  1.00  0.00    -0.246 OA
BRANCH  21  22
HETATM   22  N4  UNL     1      -2.861  -3.215   0.195  1.00  0.00    -0.305 N 
HETATM   23  H16 UNL     1      -2.984  -3.431   1.192  1.00  0.00     0.184 HD
HETATM   24  H17 UNL     1      -2.372  -3.928  -0.363  1.00  0.00     0.184 HD
ENDBRANCH  21  22
ENDBRANCH  15  21
TORSDOF 4
