REMARK  8 active torsions:
REMARK  status: ('A' for Active; 'I' for Inactive)
REMARK    1  A    between atoms: C2_2  and  O1_3 
REMARK    2  A    between atoms: O1_3  and  C3_4 
REMARK    3  A    between atoms: C5_6  and  C6_7 
REMARK    4  A    between atoms: C6_7  and  S1_8 
REMARK    5  A    between atoms: S1_8  and  C7_9 
REMARK    6  A    between atoms: C11_13  and  O2_14 
REMARK    7  A    between atoms: C15_18  and  C16_19 
REMARK    8  A    between atoms: C16_19  and  C18_22 
REMARK       I    between atoms: C18_22  and  N2_23 
ROOT
HETATM    1  C16 UNL     1      -1.488   2.161  -1.385  1.00  0.00     0.217 C 
HETATM    2  C17 UNL     1      -1.891   1.585  -2.658  1.00  0.00     0.078 C 
HETATM    3  N1  UNL     1      -2.231   1.118  -3.671  1.00  0.00    -0.196 NA
ENDROOT
BRANCH   1   4
HETATM    4  C15 UNL     1      -1.540   1.087  -0.339  1.00  0.00    -0.028 A 
HETATM    5  C14 UNL     1      -0.380   0.833   0.362  1.00  0.00     0.017 A 
HETATM    6  C5  UNL     1      -0.454  -0.149   1.304  1.00  0.00    -0.045 A 
HETATM    7  C4  UNL     1      -1.603  -0.853   1.555  1.00  0.00     0.044 A 
HETATM    8  C3  UNL     1      -2.766  -0.606   0.859  1.00  0.00     0.069 A 
HETATM    9  C19 UNL     1      -2.713   0.394  -0.108  1.00  0.00     0.045 A 
BRANCH   6  10
HETATM   10  C6  UNL     1       0.709  -0.535   2.138  1.00  0.00     0.118 C 
BRANCH  10  11
HETATM   11  S1  UNL     1       1.698  -1.854   1.383  1.00  0.00    -0.125 SA
BRANCH  11  12
HETATM   12  C7  UNL     1       2.442  -1.191  -0.107  1.00  0.00     0.003 A 
HETATM   13  C8  UNL     1       1.847  -1.244  -1.372  1.00  0.00     0.018 A 
HETATM   14  C9  UNL     1       2.535  -0.693  -2.434  1.00  0.00     0.004 A 
HETATM   15  C10 UNL     1       3.783  -0.103  -2.250  1.00  0.00     0.037 A 
HETATM   16  C11 UNL     1       4.361  -0.060  -0.980  1.00  0.00     0.069 A 
HETATM   17  C13 UNL     1       3.678  -0.609   0.083  1.00  0.00     0.055 A 
BRANCH  16  18
HETATM   18  O2  UNL     1       5.594   0.565  -1.023  1.00  0.00    -0.356 OA
HETATM   19  C12 UNL     1       6.319   0.694   0.182  1.00  0.00     0.210 C 
ENDBRANCH  16  18
ENDBRANCH  11  12
ENDBRANCH  10  11
ENDBRANCH   6  10
BRANCH   8  20
HETATM   20  O1  UNL     1      -4.015  -1.180   0.942  1.00  0.00    -0.351 OA
BRANCH  20  21
HETATM   21  C2  UNL     1      -4.259  -2.212   1.857  1.00  0.00     0.171 C 
HETATM   22  C1  UNL     1      -3.345  -3.369   1.522  1.00  0.00     0.034 C 
ENDBRANCH  20  21
ENDBRANCH   8  20
ENDBRANCH   1   4
BRANCH   1  23
HETATM   23  C18 UNL     1      -2.488   3.179  -0.942  1.00  0.00     0.237 C 
HETATM   24  N2  UNL     1      -3.040   4.421  -1.332  1.00  0.00    -0.369 N 
HETATM   25  H18 UNL     1      -4.084   4.459  -1.485  1.00  0.00     0.159 HD
HETATM   26  H19 UNL     1      -2.117   4.939  -1.337  1.00  0.00     0.159 HD
HETATM   27  O3  UNL     1      -3.006   2.782   0.149  1.00  0.00    -0.272 OA
ENDBRANCH   1  23
TORSDOF 8
