REMARK  7 active torsions:
REMARK  status: ('A' for Active; 'I' for Inactive)
REMARK    1  A    between atoms: C2_2  and  C3_3 
REMARK    2  A    between atoms: C2_2  and  C6_10 
REMARK       I    between atoms: C3_3  and  N1_5 
REMARK    3  A    between atoms: N1_5  and  C4_6 
REMARK    4  A    between atoms: C4_6  and  C5_7 
REMARK    5  A    between atoms: C5_7  and  N2_8 
REMARK    6  A    between atoms: C6_10  and  N3_11 
REMARK    7  A    between atoms: C6_10  and  C7_12 
ROOT
HETATM    1  C6  UNL     1       0.042  -0.352   0.752  1.00  0.00     0.262 C 
ENDROOT
BRANCH   1   2
HETATM    2  C2  UNL     1       0.594  -0.738  -0.577  1.00  0.00     0.109 C 
HETATM    3  C1  UNL     1       0.482  -2.202  -0.912  1.00  0.00     0.022 C 
BRANCH   2   4
HETATM    4  C3  UNL     1       1.998  -0.308  -0.772  1.00  0.00     0.223 C 
HETATM    5  O1  UNL     1       2.809  -1.189  -1.162  1.00  0.00    -0.273 OA
HETATM    6  N1  UNL     1       2.359   1.050  -0.516  1.00  0.00    -0.359 N 
HETATM    7  H5  UNL     1       1.602   1.693  -0.196  1.00  0.00     0.162 HD
BRANCH   6   8
HETATM    8  C4  UNL     1       3.704   1.509  -0.691  1.00  0.00     0.146 C 
BRANCH   8   9
HETATM    9  C5  UNL     1       4.688   0.768   0.193  1.00  0.00     0.202 C 
BRANCH   9  10
HETATM   10  N2  UNL     1       4.363   0.935   1.581  1.00  0.00    -0.139 NA
HETATM   11  O2  UNL     1       4.554   2.015   2.079  1.00  0.00    -0.067 OA
ENDBRANCH   9  10
ENDBRANCH   8   9
ENDBRANCH   6   8
ENDBRANCH   2   4
ENDBRANCH   1   2
BRANCH   1  12
HETATM   12  N3  UNL     1       0.767  -1.108   1.761  1.00  0.00     0.086 N 
HETATM   13  H11 UNL     1       0.370  -2.065   1.892  1.00  0.00     0.313 HD
HETATM   14  H12 UNL     1       0.896  -0.576   2.637  1.00  0.00     0.313 HD
ENDBRANCH   1  12
BRANCH   1  15
HETATM   15  C7  UNL     1      -1.447  -0.502   0.891  1.00  0.00     0.086 A 
HETATM   16  C8  UNL     1      -1.894  -0.067   2.304  1.00  0.00     0.046 C 
HETATM   17  C9  UNL     1      -1.897  -1.877   0.652  1.00  0.00     0.009 A 
HETATM   18  C10 UNL     1      -2.779  -1.840  -0.341  1.00  0.00     0.028 A 
HETATM   19  C11 UNL     1      -2.971  -0.478  -0.821  1.00  0.00     0.038 A 
HETATM   20  C12 UNL     1      -3.707   0.192  -1.774  1.00  0.00     0.030 A 
HETATM   21  N4  UNL     1      -2.170   0.306  -0.076  1.00  0.00    -0.299 N 
HETATM   22  C13 UNL     1      -3.644   1.556  -1.969  1.00  0.00     0.008 A 
HETATM   23  C14 UNL     1      -2.798   2.295  -1.166  1.00  0.00     0.074 A 
HETATM   24  C15 UNL     1      -2.066   1.638  -0.219  1.00  0.00     0.249 A 
HETATM   25  O3  UNL     1      -1.315   2.365   0.480  1.00  0.00    -0.268 OA
ENDBRANCH   1  15
TORSDOF 7
