REMARK  4 active torsions:
REMARK  status: ('A' for Active; 'I' for Inactive)
REMARK    1  A    between atoms: O1_2  and  C2_3 
REMARK    2  A    between atoms: C4_5  and  C5_6 
REMARK    3  A    between atoms: C5_6  and  C7_9 
REMARK    4  A    between atoms: C7_9  and  C8_11 
ROOT
HETATM    1  C5  UNL     1      -0.406  -0.030  -0.949  1.00  0.00     0.200 C 
HETATM    2  C6  UNL     1      -0.706  -1.202  -1.822  1.00  0.00     0.076 C 
HETATM    3  N1  UNL     1      -0.921  -2.121  -2.501  1.00  0.00    -0.196 NA
ENDROOT
BRANCH   1   4
HETATM    4  C4  UNL     1       1.067   0.025  -0.845  1.00  0.00    -0.030 A 
HETATM    5  C3  UNL     1       2.093  -0.025  -0.017  1.00  0.00     0.042 A 
HETATM    6  C2  UNL     1       3.577   0.054  -0.109  1.00  0.00     0.289 A 
HETATM    7  O3  UNL     1       3.924   0.197  -1.476  1.00  0.00    -0.329 OA
HETATM    8  C15 UNL     1       2.942   0.266  -2.462  1.00  0.00     0.139 A 
HETATM    9  C14 UNL     1       1.625   0.192  -2.219  1.00  0.00     0.033 A 
BRANCH   6  10
HETATM   10  O1  UNL     1       4.072   1.111   0.629  1.00  0.00    -0.362 OA
HETATM   11  C1  UNL     1       4.914   0.690   1.659  1.00  0.00     0.205 C 
ENDBRANCH   6  10
ENDBRANCH   1   4
BRANCH   1  12
HETATM   12  C7  UNL     1      -1.088  -0.230   0.309  1.00  0.00     0.183 C 
HETATM   13  O2  UNL     1      -0.427  -0.480   1.345  1.00  0.00    -0.290 OA
BRANCH  12  14
HETATM   14  C8  UNL     1      -2.501  -0.183   0.577  1.00  0.00     0.033 A 
HETATM   15  C9  UNL     1      -3.058  -0.424   1.818  1.00  0.00     0.017 A 
HETATM   16  C10 UNL     1      -4.389  -0.410   2.157  1.00  0.00     0.001 A 
HETATM   17  C11 UNL     1      -5.284  -0.124   1.152  1.00  0.00     0.002 A 
HETATM   18  C12 UNL     1      -4.829   0.132  -0.123  1.00  0.00     0.025 A 
HETATM   19  C13 UNL     1      -3.473   0.093  -0.357  1.00  0.00     0.048 A 
HETATM   20 CL1  UNL     1      -3.069   0.458  -2.016  1.00  0.00    -0.083 Cl
ENDBRANCH  12  14
ENDBRANCH   1  12
TORSDOF 4
