REMARK  8 active torsions:
REMARK  status: ('A' for Active; 'I' for Inactive)
REMARK    1  A    between atoms: C2_2  and  O1_3 
REMARK    2  A    between atoms: O1_3  and  C3_4 
REMARK    3  A    between atoms: C5_6  and  C6_7 
REMARK    4  A    between atoms: C6_7  and  C8_10 
REMARK       I    between atoms: C8_10  and  N2_11 
REMARK    5  A    between atoms: C10_14  and  C11_15 
REMARK    6  A    between atoms: C11_15  and  S1_16 
REMARK    7  A    between atoms: C14_19  and  O3_20 
REMARK    8  A    between atoms: C18_24  and  O4_25 
ROOT
HETATM    1  C6  UNL     1      -2.864  -2.371  -0.154  1.00  0.00     0.217 C 
HETATM    2  C7  UNL     1      -3.980  -2.430   0.806  1.00  0.00     0.078 C 
HETATM    3  N1  UNL     1      -4.856  -2.493   1.575  1.00  0.00    -0.196 NA
ENDROOT
BRANCH   1   4
HETATM    4  C5  UNL     1      -2.015  -1.205   0.224  1.00  0.00    -0.028 A 
HETATM    5  C4  UNL     1      -2.489   0.089   0.192  1.00  0.00     0.048 A 
HETATM    6  C3  UNL     1      -1.657   1.134   0.555  1.00  0.00     0.102 A 
HETATM    7  C18 UNL     1      -0.345   0.944   0.956  1.00  0.00     0.106 A 
HETATM    8  C10 UNL     1       0.136  -0.347   0.990  1.00  0.00    -0.013 A 
HETATM    9  C9  UNL     1      -0.702  -1.380   0.627  1.00  0.00     0.020 A 
BRANCH   6  10
HETATM   10  O1  UNL     1      -2.134   2.459   0.525  1.00  0.00    -0.349 OA
BRANCH  10  11
HETATM   11  C2  UNL     1      -3.427   2.806   0.145  1.00  0.00     0.171 C 
HETATM   12  C1  UNL     1      -3.707   4.287   0.194  1.00  0.00     0.034 C 
ENDBRANCH  10  11
ENDBRANCH   6  10
BRANCH   7  13
HETATM   13  O4  UNL     1       0.493   1.983   1.319  1.00  0.00    -0.357 OA
HETATM   14  H20 UNL     1       0.273   2.667   2.037  1.00  0.00     0.217 HD
ENDBRANCH   7  13
BRANCH   8  15
HETATM   15  C11 UNL     1       1.534  -0.625   1.412  1.00  0.00     0.114 C 
BRANCH  15  16
HETATM   16  S1  UNL     1       2.815  -0.244   0.166  1.00  0.00    -0.162 SA
HETATM   17  C12 UNL     1       2.528   0.359  -1.325  1.00  0.00     0.042 A 
HETATM   18  C13 UNL     1       3.682   0.587  -2.151  1.00  0.00     0.043 A 
HETATM   19  C14 UNL     1       4.928   0.342  -1.781  1.00  0.00     0.067 A 
HETATM   20  C15 UNL     1       5.373  -0.196  -0.488  1.00  0.00     0.049 A 
HETATM   21  C16 UNL     1       4.577  -0.515   0.497  1.00  0.00    -0.029 A 
HETATM   22  C17 UNL     1       5.016  -1.058   1.803  1.00  0.00     0.055 C 
BRANCH  19  23
HETATM   23  O3  UNL     1       5.942   0.625  -2.719  1.00  0.00    -0.361 OA
HETATM   24  H15 UNL     1       6.626   1.356  -2.488  1.00  0.00     0.217 HD
ENDBRANCH  19  23
ENDBRANCH  15  16
ENDBRANCH   8  15
ENDBRANCH   1   4
BRANCH   1  25
HETATM   25  C8  UNL     1      -3.401  -2.262  -1.517  1.00  0.00     0.237 C 
HETATM   26  N2  UNL     1      -4.191  -3.426  -1.753  1.00  0.00    -0.369 N 
HETATM   27  H8  UNL     1      -4.681  -4.359  -1.737  1.00  0.00     0.159 HD
HETATM   28  H9  UNL     1      -4.772  -4.270  -1.936  1.00  0.00     0.159 HD
HETATM   29  O2  UNL     1      -3.577  -1.722  -2.637  1.00  0.00    -0.272 OA
ENDBRANCH   1  25
TORSDOF 8
