REMARK  7 active torsions:
REMARK  status: ('A' for Active; 'I' for Inactive)
REMARK    1  A    between atoms: C2_2  and  C3_3 
REMARK    2  A    between atoms: C5_5  and  O1_6 
REMARK    3  A    between atoms: C8_9  and  C9_10 
REMARK    4  A    between atoms: C11_12  and  C12_13 
REMARK       I    between atoms: C12_13  and  N1_14 
REMARK    5  A    between atoms: C14_17  and  O3_18 
REMARK    6  A    between atoms: O3_18  and  C15_19 
REMARK    7  A    between atoms: C17_21  and  O4_22 
ROOT
HETATM    1  C9  UNL     1      -0.437  -0.406  -0.062  1.00  0.00    -0.012 A 
HETATM    2  C10 UNL     1       0.219   0.647  -0.713  1.00  0.00     0.027 A 
HETATM    3  C11 UNL     1       1.458   1.129  -0.351  1.00  0.00     0.035 A 
HETATM    4  C13 UNL     1       2.092   0.534   0.721  1.00  0.00     0.056 A 
HETATM    5  C14 UNL     1       1.468  -0.507   1.380  1.00  0.00     0.103 A 
HETATM    6  C17 UNL     1       0.236  -0.976   1.011  1.00  0.00     0.106 A 
ENDROOT
BRANCH   1   7
HETATM    7  C8  UNL     1      -1.764  -0.801  -0.577  1.00  0.00     0.058 A 
HETATM    8  C3  UNL     1      -2.429   0.418  -1.049  1.00  0.00    -0.050 A 
HETATM    9  C4  UNL     1      -3.006   0.768  -2.186  1.00  0.00     0.043 A 
HETATM   10  C5  UNL     1      -2.984  -0.282  -3.194  1.00  0.00     0.062 A 
HETATM   11  C6  UNL     1      -2.418  -1.438  -2.907  1.00  0.00     0.011 A 
HETATM   12  C7  UNL     1      -1.762  -1.839  -1.619  1.00  0.00     0.044 A 
BRANCH   8  13
HETATM   13  C2  UNL     1      -2.428   1.439  -0.010  1.00  0.00    -0.019 C 
HETATM   14  C1  UNL     1      -2.020   1.625   1.234  1.00  0.00     0.031 C 
ENDBRANCH   8  13
BRANCH  10  15
HETATM   15  O1  UNL     1      -3.554  -0.050  -4.432  1.00  0.00    -0.361 OA
HETATM   16  H5  UNL     1      -4.559   0.182  -4.451  1.00  0.00     0.217 HD
ENDBRANCH  10  15
ENDBRANCH   1   7
BRANCH   6  17
HETATM   17  O4  UNL     1      -0.462  -2.013   1.615  1.00  0.00    -0.357 OA
HETATM   18  H19 UNL     1       0.116  -2.778   1.972  1.00  0.00     0.217 HD
ENDBRANCH   6  17
BRANCH   3  19
HETATM   19  C12 UNL     1       2.081   2.230  -1.076  1.00  0.00     0.249 C 
HETATM   20  N1  UNL     1       1.386   2.808  -2.175  1.00  0.00    -0.366 N 
HETATM   21  H11 UNL     1       1.493   2.826  -3.198  1.00  0.00     0.159 HD
HETATM   22  H12 UNL     1       0.535   3.409  -2.327  1.00  0.00     0.159 HD
HETATM   23  O2  UNL     1       3.205   2.654  -0.733  1.00  0.00    -0.268 OA
ENDBRANCH   3  19
BRANCH   5  24
HETATM   24  O3  UNL     1       2.082  -1.123   2.460  1.00  0.00    -0.349 OA
BRANCH  24  25
HETATM   25  C15 UNL     1       3.357  -0.730   2.941  1.00  0.00     0.171 C 
HETATM   26  C16 UNL     1       3.669  -1.639   4.118  1.00  0.00     0.034 C 
ENDBRANCH  24  25
ENDBRANCH   5  24
TORSDOF 7
