REMARK  7 active torsions:
REMARK  status: ('A' for Active; 'I' for Inactive)
REMARK    1  A    between atoms: O1_1  and  C1_2 
REMARK    2  A    between atoms: C6_8  and  C7_9 
REMARK    3  A    between atoms: C7_9  and  N1_10 
REMARK    4  A    between atoms: N1_10  and  P1_11 
REMARK    5  A    between atoms: P1_11  and  C8_12 
REMARK    6  A    between atoms: C11_17  and  N4_18 
REMARK    7  A    between atoms: N4_18  and  C12_19 
ROOT
HETATM    1  C8  UNL     1       0.430  -0.351   0.560  1.00  0.00     0.060 A 
HETATM    2  C9  UNL     1       0.098  -1.104   1.633  1.00  0.00     0.136 A 
HETATM    3  N2  UNL     1       0.688  -2.176   2.121  1.00  0.00    -0.253 NA
HETATM    4  C10 UNL     1       1.806  -2.645   1.494  1.00  0.00     0.234 A 
HETATM    5  N3  UNL     1       2.217  -1.967   0.418  1.00  0.00    -0.223 NA
HETATM    6  C11 UNL     1       1.589  -0.867  -0.062  1.00  0.00     0.144 A 
ENDROOT
BRANCH   1   7
HETATM    7  P1  UNL     1      -0.158   1.108  -0.312  1.00  0.00     0.097 P 
BRANCH   7   8
HETATM    8  N1  UNL     1      -1.530   1.809  -0.052  1.00  0.00    -0.285 NA
BRANCH   8   9
HETATM    9  C7  UNL     1      -2.548   1.507   0.836  1.00  0.00     0.189 C 
BRANCH   9  10
HETATM   10  C6  UNL     1      -3.761   0.868   0.225  1.00  0.00    -0.004 A 
HETATM   11  C1  UNL     1      -3.802  -0.438  -0.169  1.00  0.00     0.073 A 
HETATM   12  C2  UNL     1      -4.939  -1.000  -0.719  1.00  0.00     0.039 A 
HETATM   13  C3  UNL     1      -6.108  -0.265  -0.903  1.00  0.00     0.026 A 
HETATM   14  C4  UNL     1      -6.079   1.065  -0.505  1.00  0.00     0.034 A 
HETATM   15 CL1  UNL     1      -7.526   2.070  -0.711  1.00  0.00    -0.084 Cl
HETATM   16  C5  UNL     1      -4.926   1.572   0.034  1.00  0.00     0.035 A 
BRANCH  11  17
HETATM   17  O1  UNL     1      -2.688  -1.249  -0.030  1.00  0.00    -0.360 OA
HETATM   18  H1  UNL     1      -2.253  -1.637  -0.852  1.00  0.00     0.217 HD
ENDBRANCH  11  17
ENDBRANCH   9  10
ENDBRANCH   8   9
ENDBRANCH   7   8
ENDBRANCH   1   7
BRANCH   6  19
HETATM   19  N4  UNL     1       2.271  -0.354  -1.219  1.00  0.00    -0.340 N 
HETATM   20  H9  UNL     1       1.943  -0.380  -2.211  1.00  0.00     0.167 HD
BRANCH  19  21
HETATM   21  C12 UNL     1       3.516   0.227  -0.772  1.00  0.00     0.033 A 
HETATM   22  C13 UNL     1       3.873   1.426  -0.201  1.00  0.00     0.032 A 
HETATM   23  C14 UNL     1       5.196   1.640   0.123  1.00  0.00     0.044 A 
HETATM   24  C15 UNL     1       6.161   0.691  -0.108  1.00  0.00     0.116 A 
HETATM   25  F1  UNL     1       7.448   0.969   0.237  1.00  0.00    -0.206 F 
HETATM   26  C16 UNL     1       5.801  -0.505  -0.679  1.00  0.00     0.044 A 
HETATM   27  C17 UNL     1       4.469  -0.762  -1.022  1.00  0.00     0.032 A 
ENDBRANCH  19  21
ENDBRANCH   6  19
TORSDOF 7
