REMARK  7 active torsions:
REMARK  status: ('A' for Active; 'I' for Inactive)
REMARK    1  A    between atoms: C2_2  and  S1_3 
REMARK    2  A    between atoms: S1_3  and  C3_4 
REMARK    3  A    between atoms: C9_13  and  O2_14 
REMARK    4  A    between atoms: O2_14  and  C10_15 
REMARK    5  A    between atoms: C10_15  and  S2_16 
REMARK    6  A    between atoms: S2_16  and  C11_17 
REMARK    7  A    between atoms: C14_20  and  O3_21 
ROOT
HETATM    1  C3  UNL     1      -2.619   0.289  -0.370  1.00  0.00     0.038 C 
HETATM    2  C4  UNL     1      -3.342  -0.851  -0.558  1.00  0.00     0.032 C 
HETATM    3  C5  UNL     1      -2.314  -1.624  -1.377  1.00  0.00    -0.009 C 
HETATM    4  C6  UNL     1      -2.366  -2.959  -0.881  1.00  0.00     0.122 C 
HETATM    5  C7  UNL     1      -2.764  -4.367  -0.943  1.00  0.00     0.106 C 
HETATM    6  N1  UNL     1      -3.075  -5.446  -1.008  1.00  0.00    -0.191 NA
HETATM    7  C8  UNL     1      -1.507  -2.783   0.506  1.00  0.00     0.265 C 
HETATM    8  O1  UNL     1      -1.118  -3.541   1.479  1.00  0.00    -0.267 OA
HETATM    9  N2  UNL     1      -1.034  -1.306   0.701  1.00  0.00    -0.317 N 
HETATM   10  C9  UNL     1      -1.131  -0.016  -0.044  1.00  0.00     0.191 C 
HETATM   11  C17 UNL     1      -0.692  -0.213  -1.512  1.00  0.00     0.040 C 
HETATM   12  C18 UNL     1      -0.924  -1.471  -1.983  1.00  0.00     0.014 C 
HETATM   13  H7  UNL     1      -0.488  -1.251   1.665  1.00  0.00     0.166 HD
ENDROOT
BRANCH   1  14
HETATM   14  S1  UNL     1      -2.940   2.084  -0.392  1.00  0.00    -0.129 SA
BRANCH  14  15
HETATM   15  C2  UNL     1      -4.652   2.434  -0.777  1.00  0.00     0.075 C 
HETATM   16  C1  UNL     1      -5.640   1.988   0.255  1.00  0.00     0.016 C 
ENDBRANCH  14  15
ENDBRANCH   1  14
BRANCH  10  17
HETATM   17  O2  UNL     1      -0.531   0.984   0.575  1.00  0.00    -0.342 OA
BRANCH  17  18
HETATM   18  C10 UNL     1       0.781   0.820   0.907  1.00  0.00     0.251 C 
BRANCH  18  19
HETATM   19  S2  UNL     1       1.868   0.507  -0.534  1.00  0.00    -0.104 SA
BRANCH  19  20
HETATM   20  C11 UNL     1       3.549   0.313   0.038  1.00  0.00     0.002 A 
HETATM   21  C12 UNL     1       4.270   1.506   0.085  1.00  0.00     0.021 A 
HETATM   22  C13 UNL     1       5.591   1.494   0.512  1.00  0.00     0.038 A 
HETATM   23  C14 UNL     1       6.211   0.313   0.896  1.00  0.00     0.065 A 
HETATM   24  C15 UNL     1       5.474  -0.844   0.838  1.00  0.00     0.038 A 
HETATM   25  C16 UNL     1       4.155  -0.881   0.418  1.00  0.00     0.021 A 
BRANCH  23  26
HETATM   26  O3  UNL     1       7.537   0.245   1.334  1.00  0.00    -0.361 OA
HETATM   27  H12 UNL     1       8.042   1.131   1.357  1.00  0.00     0.217 HD
ENDBRANCH  23  26
ENDBRANCH  19  20
ENDBRANCH  18  19
ENDBRANCH  17  18
ENDBRANCH  10  17
TORSDOF 7
