REMARK  6 active torsions:
REMARK  status: ('A' for Active; 'I' for Inactive)
REMARK    1  A    between atoms: C2_2  and  C3_3 
REMARK    2  A    between atoms: C3_3  and  S1_4 
REMARK    3  A    between atoms: S1_4  and  C4_5 
REMARK    4  A    between atoms: C7_8  and  O1_9 
REMARK    5  A    between atoms: C11_13  and  C12_14 
REMARK    6  A    between atoms: C12_14  and  C14_17 
REMARK       I    between atoms: C14_17  and  N2_18 
ROOT
HETATM    1  C12 UNL     1      -3.887  -0.027   0.995  1.00  0.00     0.217 C 
HETATM    2  C13 UNL     1      -3.522   0.476   2.315  1.00  0.00     0.078 C 
HETATM    3  N1  UNL     1      -3.233   0.883   3.353  1.00  0.00    -0.196 NA
ENDROOT
BRANCH   1   4
HETATM    4  C11 UNL     1      -2.722  -0.114   0.081  1.00  0.00    -0.035 C 
HETATM    5  C10 UNL     1      -1.532   0.222   0.530  1.00  0.00    -0.006 C 
HETATM    6  C2  UNL     1      -0.146   0.282  -0.024  1.00  0.00     0.004 C 
HETATM    7  C1  UNL     1       0.614  -0.958   0.317  1.00  0.00     0.022 C 
HETATM    8  C18 UNL     1      -0.187   0.379  -1.543  1.00  0.00     0.181 C 
HETATM    9  O3  UNL     1      -0.345  -0.871  -2.124  1.00  0.00    -0.386 OA
HETATM   10  C17 UNL     1      -1.381  -0.896  -3.024  1.00  0.00     0.195 C 
HETATM   11  C16 UNL     1      -2.727  -0.899  -2.401  1.00  0.00    -0.000 C 
HETATM   12  C15 UNL     1      -3.251  -0.598  -1.202  1.00  0.00     0.007 C 
BRANCH   6  13
HETATM   13  C3  UNL     1       0.563   1.510   0.470  1.00  0.00     0.095 C 
BRANCH  13  14
HETATM   14  S1  UNL     1       2.185   1.791  -0.165  1.00  0.00    -0.129 SA
BRANCH  14  15
HETATM   15  C4  UNL     1       3.502   0.812   0.424  1.00  0.00     0.000 A 
HETATM   16  C5  UNL     1       3.725  -0.124   1.402  1.00  0.00     0.021 A 
HETATM   17  C6  UNL     1       4.880  -0.787   1.654  1.00  0.00     0.038 A 
HETATM   18  C7  UNL     1       5.955  -0.516   0.866  1.00  0.00     0.065 A 
HETATM   19  C8  UNL     1       5.842   0.424  -0.165  1.00  0.00     0.038 A 
HETATM   20  C9  UNL     1       4.621   1.078  -0.377  1.00  0.00     0.021 A 
BRANCH  18  21
HETATM   21  O1  UNL     1       7.136  -1.208   1.140  1.00  0.00    -0.361 OA
HETATM   22  H8  UNL     1       7.817  -1.259   0.397  1.00  0.00     0.217 HD
ENDBRANCH  18  21
ENDBRANCH  14  15
ENDBRANCH  13  14
ENDBRANCH   6  13
ENDBRANCH   1   4
BRANCH   1  23
HETATM   23  C14 UNL     1      -4.913   0.928   0.442  1.00  0.00     0.237 C 
HETATM   24  N2  UNL     1      -6.017   0.988   1.338  1.00  0.00    -0.369 N 
HETATM   25  H13 UNL     1      -6.696   1.227   2.094  1.00  0.00     0.159 HD
HETATM   26  H14 UNL     1      -6.710   0.234   1.094  1.00  0.00     0.159 HD
HETATM   27  O2  UNL     1      -5.178   1.702  -0.514  1.00  0.00    -0.272 OA
ENDBRANCH   1  23
TORSDOF 6
