REMARK  2 active torsions:
REMARK  status: ('A' for Active; 'I' for Inactive)
REMARK    1  A    between atoms: C13_17  and  C14_18 
REMARK    2  A    between atoms: C14_18  and  S1_19 
ROOT
HETATM    1  O1  UNL     1       0.081   3.581   1.069  1.00  0.00    -0.289 OA
HETATM    2  C1  UNL     1      -0.307   2.934   0.030  1.00  0.00     0.199 C 
HETATM    3  C2  UNL     1      -1.453   3.396  -0.683  1.00  0.00     0.092 C 
HETATM    4  C3  UNL     1      -2.473   2.519  -1.232  1.00  0.00     0.002 C 
HETATM    5  C4  UNL     1      -3.270   1.503  -1.645  1.00  0.00    -0.004 C 
HETATM    6  C5  UNL     1      -3.370   0.000  -1.630  1.00  0.00    -0.014 C 
HETATM    7  C6  UNL     1      -3.106  -1.328  -1.410  1.00  0.00     0.044 C 
HETATM    8  C7  UNL     1      -2.180  -2.305  -0.815  1.00  0.00    -0.024 C 
HETATM    9  C8  UNL     1      -1.103  -2.665  -0.154  1.00  0.00    -0.012 C 
HETATM   10  C9  UNL     1       0.085  -2.157   0.543  1.00  0.00     0.047 C 
HETATM   11  C10 UNL     1      -0.267  -1.072   1.485  1.00  0.00     0.013 C 
HETATM   12  C11 UNL     1      -0.313  -0.036   0.728  1.00  0.00     0.138 C 
HETATM   13  N1  UNL     1      -0.022  -0.234  -0.710  1.00  0.00    -0.161 NA
HETATM   14  N2  UNL     1       0.500   0.809  -1.294  1.00  0.00    -0.127 NA
HETATM   15  C12 UNL     1       0.575   1.791  -0.195  1.00  0.00     0.217 C 
HETATM   16  N3  UNL     1       1.543   1.399   0.547  1.00  0.00    -0.229 NA
HETATM   17  C13 UNL     1       2.460   0.371   0.501  1.00  0.00     0.044 C 
HETATM   18  C15 UNL     1       2.322  -0.937   0.244  1.00  0.00     0.034 C 
HETATM   19  C16 UNL     1       1.348  -1.952  -0.091  1.00  0.00     0.164 C 
HETATM   20  O2  UNL     1       1.775  -3.217   0.408  1.00  0.00    -0.379 OA
HETATM   21  C17 UNL     1       0.760  -3.259   1.340  1.00  0.00     0.189 C 
ENDROOT
BRANCH  17  22
HETATM   22  C14 UNL     1       3.752   1.034   0.831  1.00  0.00     0.129 C 
BRANCH  22  23
HETATM   23  S1  UNL     1       3.739   1.843   2.444  1.00  0.00    -0.176 SA
HETATM   24  H13 UNL     1       5.066   1.974   2.924  1.00  0.00     0.102 HD
ENDBRANCH  22  23
ENDBRANCH  17  22
TORSDOF 2
