REMARK  10 active torsions:
REMARK  status: ('A' for Active; 'I' for Inactive)
REMARK    1  A    between atoms: B1_1  and  C1_2 
REMARK    2  A    between atoms: C1_2  and  C2_4 
REMARK    3  A    between atoms: C2_4  and  C4_7 
REMARK    4  A    between atoms: C7_10  and  O2_11 
REMARK    5  A    between atoms: C8_12  and  C9_13 
REMARK    6  A    between atoms: C9_13  and  S1_14 
REMARK    7  A    between atoms: S1_14  and  C10_15 
REMARK    8  A    between atoms: C12_18  and  O3_19 
REMARK    9  A    between atoms: C14_21  and  O4_22 
REMARK   10  A    between atoms: O4_22  and  C15_23 
ROOT
HETATM    1  C2  UNL     1       4.770  -0.524  -0.438  1.00  0.00     0.181 C 
HETATM    2  C3  UNL     1       4.761  -1.909   0.090  1.00  0.00     0.075 C 
HETATM    3  N1  UNL     1       4.763  -2.984   0.480  1.00  0.00    -0.196 NA
ENDROOT
BRANCH   1   4
HETATM    4  C1  UNL     1       5.525   0.308   0.538  1.00  0.00     0.089 C 
HETATM    5  O1  UNL     1       5.137   1.273   1.190  1.00  0.00    -0.311 OA
BRANCH   4   6
HETATM    6  B1  UNL     1       6.992  -0.201   0.675  1.00  0.00     0.224 B 
HETATM    7  H1  UNL     1       7.248  -1.338   0.832  1.00  0.00    -0.023 HD
HETATM    8  H2  UNL     1       7.885   0.561   0.617  1.00  0.00    -0.023 HD
ENDBRANCH   4   6
ENDBRANCH   1   4
BRANCH   1   9
HETATM    9  C4  UNL     1       3.367  -0.035  -0.580  1.00  0.00    -0.034 A 
HETATM   10  C5  UNL     1       2.938   0.257  -1.873  1.00  0.00     0.012 A 
HETATM   11  C6  UNL     1       1.636   0.703  -1.930  1.00  0.00     0.037 A 
HETATM   12  C7  UNL     1       0.815   0.856  -0.836  1.00  0.00     0.072 A 
HETATM   13  C8  UNL     1       1.304   0.547   0.427  1.00  0.00    -0.015 A 
HETATM   14  C17 UNL     1       2.607   0.090   0.579  1.00  0.00     0.019 A 
BRANCH  12  15
HETATM   15  O2  UNL     1      -0.475   1.312  -1.005  1.00  0.00    -0.360 OA
HETATM   16  H6  UNL     1      -0.773   2.116  -1.525  1.00  0.00     0.217 HD
ENDBRANCH  12  15
BRANCH  13  17
HETATM   17  C9  UNL     1       0.489   0.685   1.655  1.00  0.00     0.117 C 
BRANCH  17  18
HETATM   18  S1  UNL     1      -1.234   1.057   1.305  1.00  0.00    -0.137 SA
BRANCH  18  19
HETATM   19  C10 UNL     1      -2.095  -0.292   0.507  1.00  0.00     0.119 A 
HETATM   20  S2  UNL     1      -1.217  -1.679   0.301  1.00  0.00    -0.112 SA
HETATM   21  C11 UNL     1      -2.071  -2.884  -0.440  1.00  0.00     0.083 A 
HETATM   22  C12 UNL     1      -3.452  -2.607  -0.817  1.00  0.00     0.070 A 
HETATM   23  C13 UNL     1      -3.983  -1.442  -0.572  1.00  0.00     0.044 A 
HETATM   24  C14 UNL     1      -3.488  -0.190   0.064  1.00  0.00     0.178 A 
BRANCH  22  25
HETATM   25  O3  UNL     1      -4.212  -3.588  -1.443  1.00  0.00    -0.360 OA
HETATM   26  H10 UNL     1      -5.170  -3.694  -1.076  1.00  0.00     0.217 HD
ENDBRANCH  22  25
BRANCH  24  27
HETATM   27  O4  UNL     1      -3.679   0.909  -0.766  1.00  0.00    -0.380 OA
BRANCH  27  28
HETATM   28  C15 UNL     1      -4.599   1.820  -0.322  1.00  0.00     0.164 C 
HETATM   29  C16 UNL     1      -4.331   2.455   0.998  1.00  0.00     0.033 C 
ENDBRANCH  27  28
ENDBRANCH  24  27
ENDBRANCH  18  19
ENDBRANCH  17  18
ENDBRANCH  13  17
ENDBRANCH   1   9
TORSDOF 10
