REMARK  6 active torsions:
REMARK  status: ('A' for Active; 'I' for Inactive)
REMARK    1  A    between atoms: C3_3  and  S1_4 
REMARK    2  A    between atoms: S1_4  and  C4_5 
REMARK    3  A    between atoms: C7_8  and  O1_9 
REMARK    4  A    between atoms: C9_11  and  O2_12 
REMARK    5  A    between atoms: C16_21  and  C17_22 
REMARK    6  A    between atoms: C18_23  and  N3_24 
ROOT
HETATM    1  C1  UNL     1       0.491   2.016   1.393  1.00  0.00     0.047 C 
HETATM    2  C2  UNL     1       0.964   0.805   0.631  1.00  0.00    -0.030 C 
HETATM    3  C3  UNL     1      -0.136   0.215   0.097  1.00  0.00     0.010 C 
HETATM    4  C10 UNL     1      -0.465  -1.026  -0.654  1.00  0.00     0.019 C 
HETATM    5  C11 UNL     1       0.138  -2.097  -1.116  1.00  0.00     0.003 C 
HETATM    6  C12 UNL     1       1.382  -2.867  -1.274  1.00  0.00     0.020 C 
HETATM    7  C13 UNL     1       2.635  -2.522  -0.806  1.00  0.00     0.050 C 
HETATM    8  C14 UNL     1       3.783  -3.355  -1.026  1.00  0.00     0.097 C 
HETATM    9  N1  UNL     1       4.695  -4.027  -1.220  1.00  0.00    -0.192 NA
HETATM   10  C15 UNL     1       2.599  -1.291  -0.079  1.00  0.00     0.320 C 
HETATM   11  N2  UNL     1       3.120  -0.074  -0.230  1.00  0.00     0.100 NA
HETATM   12  C16 UNL     1       2.448   0.760   0.776  1.00  0.00     0.275 C 
HETATM   13  H14 UNL     1       2.974   0.374  -1.160  1.00  0.00     0.317 HD
ENDROOT
BRANCH  12  14
HETATM   14  C17 UNL     1       2.904   2.189   0.464  1.00  0.00     0.029 C 
HETATM   15  C18 UNL     1       4.056   2.541   1.013  1.00  0.00     0.078 C 
BRANCH  15  16
HETATM   16  N3  UNL     1       4.741   1.587   1.817  1.00  0.00    -0.408 N 
HETATM   17  H18 UNL     1       5.380   0.804   1.521  1.00  0.00     0.155 HD
HETATM   18  H19 UNL     1       4.762   1.454   2.848  1.00  0.00     0.155 HD
ENDBRANCH  15  16
ENDBRANCH  12  14
BRANCH   3  19
HETATM   19  S1  UNL     1      -1.504   1.237   0.605  1.00  0.00    -0.087 SA
BRANCH  19  20
HETATM   20  C4  UNL     1      -3.074   0.588   0.170  1.00  0.00     0.038 A 
HETATM   21  C5  UNL     1      -3.599  -0.255   1.156  1.00  0.00     0.024 A 
HETATM   22  C6  UNL     1      -4.849  -0.854   0.957  1.00  0.00     0.038 A 
HETATM   23  C7  UNL     1      -5.563  -0.620  -0.199  1.00  0.00     0.068 A 
HETATM   24  C8  UNL     1      -5.039   0.220  -1.181  1.00  0.00     0.074 A 
HETATM   25  C9  UNL     1      -3.808   0.812  -0.987  1.00  0.00     0.085 A 
BRANCH  23  26
HETATM   26  O1  UNL     1      -6.804  -1.193  -0.437  1.00  0.00    -0.361 OA
HETATM   27  H6  UNL     1      -6.995  -1.787  -1.237  1.00  0.00     0.217 HD
ENDBRANCH  23  26
BRANCH  25  28
HETATM   28  O2  UNL     1      -3.143   1.668  -1.855  1.00  0.00    -0.359 OA
HETATM   29  H8  UNL     1      -3.197   2.666  -1.595  1.00  0.00     0.217 HD
ENDBRANCH  25  28
ENDBRANCH  19  20
ENDBRANCH   3  19
TORSDOF 6
