REMARK  5 active torsions:
REMARK  status: ('A' for Active; 'I' for Inactive)
REMARK    1  A    between atoms: C2_2  and  C3_3 
REMARK    2  A    between atoms: C6_6  and  O1_7 
REMARK    3  A    between atoms: C7_8  and  O2_9 
REMARK    4  A    between atoms: O2_9  and  C8_10 
REMARK    5  A    between atoms: C8_10  and  C10_13 
ROOT
HETATM    1  C8  UNL     1      -1.742   0.585  -0.877  1.00  0.00     0.252 C 
HETATM    2  C9  UNL     1      -2.151   1.839  -1.521  1.00  0.00     0.093 C 
HETATM    3  N1  UNL     1      -2.465   2.828  -2.038  1.00  0.00    -0.194 NA
ENDROOT
BRANCH   1   4
HETATM    4  O2  UNL     1      -0.466   0.697  -0.323  1.00  0.00    -0.327 OA
BRANCH   4   5
HETATM    5  C7  UNL     1       0.632  -0.075  -0.521  1.00  0.00     0.104 A 
HETATM    6  C6  UNL     1       0.944  -1.187  -1.271  1.00  0.00     0.099 A 
HETATM    7  C5  UNL     1       2.186  -1.773  -1.271  1.00  0.00     0.040 A 
HETATM    8  C4  UNL     1       3.207  -1.259  -0.498  1.00  0.00     0.010 A 
HETATM    9  C3  UNL     1       2.955  -0.146   0.275  1.00  0.00    -0.056 A 
HETATM   10  C16 UNL     1       1.682   0.435   0.260  1.00  0.00     0.046 A 
BRANCH   6  11
HETATM   11  O1  UNL     1      -0.134  -1.636  -2.014  1.00  0.00    -0.358 OA
HETATM   12  H8  UNL     1      -0.757  -2.366  -1.637  1.00  0.00     0.217 HD
ENDBRANCH   6  11
BRANCH   9  13
HETATM   13  C2  UNL     1       4.098   0.337   1.070  1.00  0.00     0.034 C 
HETATM   14  C1  UNL     1       4.954   1.349   0.344  1.00  0.00     0.010 C 
ENDBRANCH   9  13
ENDBRANCH   4   5
ENDBRANCH   1   4
BRANCH   1  15
HETATM   15  C10 UNL     1      -2.742   0.364   0.252  1.00  0.00     0.051 A 
HETATM   16  C11 UNL     1      -2.768   1.473   1.246  1.00  0.00     0.029 C 
HETATM   17  C12 UNL     1      -2.362  -0.955   0.868  1.00  0.00    -0.008 A 
HETATM   18  C13 UNL     1      -3.330  -1.849   0.680  1.00  0.00    -0.001 A 
HETATM   19  C14 UNL     1      -4.431  -1.243  -0.061  1.00  0.00     0.020 A 
HETATM   20  C15 UNL     1      -4.084   0.013  -0.297  1.00  0.00     0.027 A 
HETATM   21 CL1  UNL     1      -4.906   1.324  -1.129  1.00  0.00    -0.088 Cl
ENDBRANCH   1  15
TORSDOF 5
