REMARK  3 active torsions:
REMARK  status: ('A' for Active; 'I' for Inactive)
REMARK    1  A    between atoms: C5_5  and  C6_6 
REMARK    2  A    between atoms: C7_7  and  C9_10 
REMARK       I    between atoms: C9_10  and  N2_12 
REMARK    3  A    between atoms: N2_12  and  C10_13 
ROOT
HETATM    1  C6  UNL     1       1.147  -1.382   1.449  1.00  0.00     0.053 C 
HETATM    2  C7  UNL     1       0.268  -0.564   1.094  1.00  0.00     0.096 C 
HETATM    3  C8  UNL     1      -0.384  -0.897   2.401  1.00  0.00     0.025 C 
HETATM    4  N1  UNL     1      -0.936  -1.155   3.466  1.00  0.00    -0.096 N 
ENDROOT
BRANCH   2   5
HETATM    5  C9  UNL     1      -0.367   0.437   0.292  1.00  0.00     0.261 C 
HETATM    6  O1  UNL     1      -0.256   1.176  -0.733  1.00  0.00    -0.267 OA
HETATM    7  N2  UNL     1      -1.672   0.854   0.724  1.00  0.00    -0.352 N 
HETATM    8  H7  UNL     1      -2.152   0.422   1.578  1.00  0.00     0.163 HD
BRANCH   7   9
HETATM    9  C10 UNL     1      -2.515   1.851   0.119  1.00  0.00     0.084 C 
HETATM   10  C11 UNL     1      -3.216   2.625   1.214  1.00  0.00     0.025 C 
HETATM   11  C12 UNL     1      -4.569   1.937   1.412  1.00  0.00     0.002 C 
HETATM   12  C13 UNL     1      -5.406   2.426   0.240  1.00  0.00     0.000 C 
HETATM   13  C14 UNL     1      -4.753   1.941  -1.037  1.00  0.00     0.002 C 
HETATM   14  C15 UNL     1      -3.507   1.148  -0.781  1.00  0.00     0.025 C 
ENDBRANCH   7   9
ENDBRANCH   2   5
BRANCH   1  15
HETATM   15  C5  UNL     1       2.365  -1.742   0.635  1.00  0.00     0.011 C 
HETATM   16  C4  UNL     1       2.543  -1.192  -0.619  1.00  0.00    -0.015 C 
HETATM   17  C3  UNL     1       3.420  -1.137  -1.802  1.00  0.00     0.001 C 
HETATM   18  C2  UNL     1       4.668  -1.604  -1.594  1.00  0.00    -0.061 C 
HETATM   19  C1  UNL     1       5.447  -1.485  -2.881  1.00  0.00     0.045 C 
HETATM   20  C17 UNL     1       5.404  -2.179  -0.453  1.00  0.00     0.201 C 
HETATM   21  O2  UNL     1       4.709  -1.970   0.748  1.00  0.00    -0.386 OA
HETATM   22  C16 UNL     1       3.549  -2.681   0.834  1.00  0.00     0.181 C 
ENDBRANCH   1  15
TORSDOF 3
