REMARK  4 active torsions:
REMARK  status: ('A' for Active; 'I' for Inactive)
REMARK    1  A    between atoms: C2_3  and  C10_12 
REMARK    2  A    between atoms: C3_4  and  C4_5 
REMARK    3  A    between atoms: C7_8  and  O1_9 
REMARK       I    between atoms: C10_12  and  N2_14 
REMARK    4  A    between atoms: N2_14  and  C11_15 
ROOT
HETATM    1  N1  UNL     1       1.669   0.581   2.684  1.00  0.00    -0.191 NA
HETATM    2  C1  UNL     1       1.467   0.409   1.562  1.00  0.00     0.105 C 
HETATM    3  C2  UNL     1       1.196   0.201   0.147  1.00  0.00     0.113 C 
HETATM    4  C3  UNL     1       2.163   0.182  -0.749  1.00  0.00     0.039 C 
ENDROOT
BRANCH   3   5
HETATM    5  C10 UNL     1      -0.167   0.004  -0.320  1.00  0.00     0.262 C 
HETATM    6  O2  UNL     1      -0.283  -0.170  -1.579  1.00  0.00    -0.267 OA
HETATM    7  N2  UNL     1      -1.287   0.002   0.534  1.00  0.00    -0.352 N 
HETATM    8  H7  UNL     1      -1.103   0.154   1.567  1.00  0.00     0.163 HD
BRANCH   7   9
HETATM    9  C11 UNL     1      -2.633  -0.192   0.085  1.00  0.00     0.084 C 
HETATM   10  C12 UNL     1      -3.567   0.920   0.439  1.00  0.00     0.025 C 
HETATM   11  C13 UNL     1      -4.906   0.696  -0.173  1.00  0.00     0.002 C 
HETATM   12  C14 UNL     1      -5.443  -0.690  -0.096  1.00  0.00     0.000 C 
HETATM   13  C15 UNL     1      -4.413  -1.772  -0.270  1.00  0.00     0.002 C 
HETATM   14  C16 UNL     1      -3.252  -1.472   0.661  1.00  0.00     0.025 C 
ENDBRANCH   7   9
ENDBRANCH   3   5
BRANCH   4  15
HETATM   15  C4  UNL     1       3.584   0.347  -0.563  1.00  0.00    -0.034 A 
HETATM   16  C5  UNL     1       4.191  -0.207   0.538  1.00  0.00     0.014 A 
HETATM   17  C6  UNL     1       5.556  -0.081   0.776  1.00  0.00     0.037 A 
HETATM   18  C7  UNL     1       6.335   0.628  -0.128  1.00  0.00     0.065 A 
HETATM   19  C8  UNL     1       5.772   1.204  -1.251  1.00  0.00     0.037 A 
HETATM   20  C9  UNL     1       4.415   1.026  -1.402  1.00  0.00     0.014 A 
BRANCH  18  21
HETATM   21  O1  UNL     1       7.706   0.748   0.121  1.00  0.00    -0.361 OA
HETATM   22  H4  UNL     1       8.212   1.443  -0.391  1.00  0.00     0.217 HD
ENDBRANCH  18  21
ENDBRANCH   4  15
TORSDOF 4
