REMARK  4 active torsions:
REMARK  status: ('A' for Active; 'I' for Inactive)
REMARK    1  A    between atoms: C7_9  and  S1_10 
REMARK    2  A    between atoms: S1_10  and  C8_12 
REMARK    3  A    between atoms: C9_13  and  C10_14 
REMARK    4  A    between atoms: C14_18  and  O2_19 
ROOT
HETATM    1  N1  UNL     1      -0.827  -1.027   3.983  1.00  0.00    -0.191 NA
HETATM    2  C1  UNL     1      -1.611  -0.594   3.226  1.00  0.00     0.101 C 
HETATM    3  C2  UNL     1      -2.578  -0.035   2.293  1.00  0.00     0.067 A 
HETATM    4  C3  UNL     1      -3.463   0.944   2.717  1.00  0.00     0.066 A 
HETATM    5  C4  UNL     1      -4.380   1.469   1.819  1.00  0.00     0.117 A 
HETATM    6  F1  UNL     1      -5.246   2.427   2.233  1.00  0.00    -0.206 F 
HETATM    7  C5  UNL     1      -4.419   1.022   0.495  1.00  0.00     0.044 A 
HETATM    8  C6  UNL     1      -3.541   0.048   0.065  1.00  0.00     0.026 A 
HETATM    9  C7  UNL     1      -2.620  -0.477   0.978  1.00  0.00     0.056 A 
ENDROOT
BRANCH   9  10
HETATM   10  S1  UNL     1      -1.483  -1.721   0.468  1.00  0.00     0.075 S 
HETATM   11  O1  UNL     1      -2.114  -2.812  -0.351  1.00  0.00    -0.248 OA
BRANCH  10  12
HETATM   12  C8  UNL     1       0.027  -1.106  -0.151  1.00  0.00     0.085 C 
HETATM   13  C9  UNL     1       1.268  -1.225   0.238  1.00  0.00     0.021 C 
BRANCH  13  14
HETATM   14  C10 UNL     1       2.391  -0.605  -0.456  1.00  0.00    -0.033 A 
HETATM   15  C11 UNL     1       3.649  -0.817   0.069  1.00  0.00     0.011 A 
HETATM   16  C12 UNL     1       4.716  -0.234  -0.582  1.00  0.00     0.004 A 
HETATM   17  C13 UNL     1       4.494   0.534  -1.724  1.00  0.00     0.036 A 
HETATM   18  C14 UNL     1       3.220   0.722  -2.218  1.00  0.00     0.066 A 
HETATM   19  C15 UNL     1       2.136   0.148  -1.584  1.00  0.00     0.048 A 
BRANCH  18  20
HETATM   20  O2  UNL     1       3.019   1.486  -3.352  1.00  0.00    -0.361 OA
HETATM   21  H9  UNL     1       2.470   2.348  -3.231  1.00  0.00     0.217 HD
ENDBRANCH  18  20
ENDBRANCH  13  14
ENDBRANCH  10  12
ENDBRANCH   9  10
TORSDOF 4
