REMARK  4 active torsions:
REMARK  status: ('A' for Active; 'I' for Inactive)
REMARK    1  A    between atoms: C7_9  and  O2_10 
REMARK    2  A    between atoms: C8_11  and  O3_12 
REMARK    3  A    between atoms: C13_18  and  O4_19 
REMARK    4  A    between atoms: C14_20  and  O5_21 
ROOT
HETATM    1  C1  UNL     1       3.285   2.017   1.455  1.00  0.00     0.044 C 
HETATM    2  C2  UNL     1       2.327   1.760   0.317  1.00  0.00     0.143 C 
HETATM    3  O1  UNL     1       1.310   2.725   0.392  1.00  0.00    -0.337 OA
HETATM    4  C3  UNL     1       0.105   2.635  -0.288  1.00  0.00     0.245 C 
HETATM    5  N1  UNL     1      -1.112   2.893   0.066  1.00  0.00    -0.278 NA
HETATM    6  C4  UNL     1      -2.229   2.702  -0.867  1.00  0.00     0.154 C 
HETATM    7  C5  UNL     1      -2.102   1.320  -1.502  1.00  0.00     0.051 C 
HETATM    8  C6  UNL     1      -2.105   0.225  -0.535  1.00  0.00     0.009 C 
HETATM    9  C7  UNL     1      -2.257  -0.305   0.654  1.00  0.00     0.068 C 
HETATM   10  C8  UNL     1      -2.103  -1.686   1.151  1.00  0.00     0.177 C 
HETATM   11  C9  UNL     1      -1.202  -2.503   0.273  1.00  0.00     0.063 C 
HETATM   12  C10 UNL     1       0.163  -1.923   0.211  1.00  0.00    -0.083 C 
HETATM   13  B1  UNL     1       0.421  -0.331   1.017  1.00  0.00     0.221 B 
HETATM   14  C11 UNL     1       1.935   0.374   0.296  1.00  0.00    -0.091 C 
HETATM   15  C12 UNL     1       2.693  -0.593  -0.308  1.00  0.00     0.032 C 
HETATM   16  C13 UNL     1       2.456  -1.879  -0.640  1.00  0.00     0.097 C 
HETATM   17  C14 UNL     1       1.262  -2.440  -0.374  1.00  0.00     0.090 C 
ENDROOT
BRANCH   9  18
HETATM   18  O2  UNL     1      -2.573   0.979   1.004  1.00  0.00    -0.363 OA
HETATM   19  H11 UNL     1      -3.306   1.273   1.624  1.00  0.00     0.217 HD
ENDBRANCH   9  18
BRANCH  10  20
HETATM   20  O3  UNL     1      -3.348  -2.267   1.244  1.00  0.00    -0.389 OA
HETATM   21  H13 UNL     1      -4.068  -1.593   1.410  1.00  0.00     0.210 HD
ENDBRANCH  10  20
BRANCH  17  22
HETATM   22  O5  UNL     1       1.025  -3.778  -0.725  1.00  0.00    -0.359 OA
HETATM   23  H18 UNL     1       1.089  -4.521  -0.032  1.00  0.00     0.217 HD
ENDBRANCH  17  22
BRANCH  16  24
HETATM   24  O4  UNL     1       3.415  -2.673  -1.263  1.00  0.00    -0.358 OA
HETATM   25  H17 UNL     1       3.153  -3.118  -2.136  1.00  0.00     0.217 HD
ENDBRANCH  16  24
TORSDOF 4
