REMARK  3 active torsions:
REMARK  status: ('A' for Active; 'I' for Inactive)
REMARK    1  A    between atoms: N1_2  and  C1_3 
REMARK    2  A    between atoms: C1_3  and  C2_4 
REMARK    3  A    between atoms: C8_10  and  O2_11 
ROOT
HETATM    1  C2  UNL     1       2.371  -1.576  -0.440  1.00  0.00     0.028 C 
HETATM    2  C3  UNL     1       1.739  -2.215   0.527  1.00  0.00     0.037 C 
HETATM    3  C4  UNL     1       0.337  -1.759   0.331  1.00  0.00    -0.037 C 
HETATM    4  C5  UNL     1      -0.098  -1.094   1.419  1.00  0.00     0.004 C 
HETATM    5  C6  UNL     1      -0.949   0.084   1.751  1.00  0.00     0.100 C 
HETATM    6  C7  UNL     1      -1.975   0.287   0.661  1.00  0.00     0.025 C 
HETATM    7  C8  UNL     1      -2.142   0.253  -0.705  1.00  0.00     0.050 C 
HETATM    8  C9  UNL     1      -0.958   0.289  -1.749  1.00  0.00     0.081 A 
HETATM    9  C10 UNL     1      -0.664  -1.138  -1.954  1.00  0.00    -0.013 C 
HETATM   10  C11 UNL     1      -0.379  -2.024  -0.959  1.00  0.00     0.008 C 
HETATM   11  C12 UNL     1       0.072   1.022  -0.845  1.00  0.00    -0.008 A 
HETATM   12  C13 UNL     1       0.744   0.076  -1.274  1.00  0.00     0.135 A 
HETATM   13  N2  UNL     1       1.857  -0.705  -1.422  1.00  0.00    -0.385 N 
HETATM   14  C14 UNL     1      -0.604   2.085  -0.146  1.00  0.00     0.034 C 
HETATM   15  C15 UNL     1      -1.433   3.032  -0.427  1.00  0.00    -0.000 C 
HETATM   16  C16 UNL     1      -1.670   3.694   0.853  1.00  0.00    -0.019 C 
HETATM   17  C17 UNL     1      -1.017   3.050   1.850  1.00  0.00     0.042 C 
HETATM   18  S1  UNL     1       0.043   1.593   2.003  1.00  0.00    -0.129 SA
HETATM   19  H12 UNL     1       2.482  -0.777  -2.245  1.00  0.00     0.160 HD
ENDROOT
BRANCH   1  20
HETATM   20  C1  UNL     1       3.657  -2.143  -0.074  1.00  0.00     0.239 C 
BRANCH  20  21
HETATM   21  N1  UNL     1       3.527  -3.030   1.056  1.00  0.00    -0.135 NA
HETATM   22  O1  UNL     1       3.689  -2.665   2.190  1.00  0.00    -0.067 OA
ENDBRANCH  20  21
ENDBRANCH   1  20
BRANCH   7  23
HETATM   23  O2  UNL     1      -3.486   0.182  -1.033  1.00  0.00    -0.364 OA
HETATM   24  H7  UNL     1      -3.975   0.997  -1.410  1.00  0.00     0.217 HD
ENDBRANCH   7  23
TORSDOF 3
