REMARK  8 active torsions:
REMARK  status: ('A' for Active; 'I' for Inactive)
REMARK    1  A    between atoms: C3_3  and  O1_4 
REMARK    2  A    between atoms: C3_3  and  C4_5 
REMARK    3  A    between atoms: C4_5  and  O5_19 
REMARK    4  A    between atoms: C5_6  and  O2_7 
REMARK    5  A    between atoms: O2_7  and  C6_8 
REMARK    6  A    between atoms: C6_8  and  C8_11 
REMARK    7  A    between atoms: C8_11  and  C9_13 
REMARK    8  A    between atoms: C12_16  and  O4_17 
ROOT
HETATM    1  C6  UNL     1       0.373  -0.119  -1.220  1.00  0.00     0.307 C 
HETATM    2  C7  UNL     1       0.026   0.090  -2.622  1.00  0.00     0.100 C 
HETATM    3  N1  UNL     1      -0.265   0.262  -3.728  1.00  0.00    -0.194 NA
ENDROOT
BRANCH   1   4
HETATM    4  O2  UNL     1      -0.717   0.160  -0.366  1.00  0.00    -0.333 OA
BRANCH   4   5
HETATM    5  C5  UNL     1      -0.698   0.064   1.009  1.00  0.00     0.176 C 
HETATM    6  C4  UNL     1      -1.862  -0.418   1.478  1.00  0.00     0.122 C 
BRANCH   6   7
HETATM    7  C3  UNL     1      -2.972  -0.777   0.574  1.00  0.00     0.096 C 
HETATM    8  C2  UNL     1      -4.127  -1.254   1.028  1.00  0.00     0.008 C 
HETATM    9  C1  UNL     1      -4.814  -1.613   2.285  1.00  0.00     0.039 C 
BRANCH   7  10
HETATM   10  O1  UNL     1      -2.710  -0.573  -0.793  1.00  0.00    -0.358 OA
HETATM   11  H5  UNL     1      -2.981   0.323  -1.164  1.00  0.00     0.217 HD
ENDBRANCH   7  10
ENDBRANCH   6   7
BRANCH   6  12
HETATM   12  O5  UNL     1      -1.992  -0.573   2.867  1.00  0.00    -0.351 OA
HETATM   13  C14 UNL     1      -2.172   0.581   3.665  1.00  0.00     0.210 C 
ENDBRANCH   6  12
ENDBRANCH   4   5
ENDBRANCH   1   4
BRANCH   1  14
HETATM   14  C8  UNL     1       1.512   0.729  -0.807  1.00  0.00     0.199 C 
HETATM   15  O3  UNL     1       1.376   1.531   0.169  1.00  0.00    -0.289 OA
BRANCH  14  16
HETATM   16  C9  UNL     1       2.775   0.638  -1.521  1.00  0.00    -0.002 A 
HETATM   17  C10 UNL     1       3.037  -0.166  -2.562  1.00  0.00     0.014 A 
HETATM   18  C11 UNL     1       4.412   0.017  -3.018  1.00  0.00     0.033 A 
HETATM   19  C12 UNL     1       4.949   0.938  -2.232  1.00  0.00     0.047 A 
HETATM   20  C13 UNL     1       4.002   1.442  -1.201  1.00  0.00     0.106 A 
BRANCH  19  21
HETATM   21  O4  UNL     1       6.231   1.477  -2.239  1.00  0.00    -0.365 OA
HETATM   22  H10 UNL     1       6.844   1.247  -1.469  1.00  0.00     0.217 HD
ENDBRANCH  19  21
ENDBRANCH  14  16
ENDBRANCH   1  14
TORSDOF 8
