REMARK  3 active torsions:
REMARK  status: ('A' for Active; 'I' for Inactive)
REMARK    1  A    between atoms: S1_2  and  C2_3 
REMARK    2  A    between atoms: C8_10  and  C9_11 
REMARK    3  A    between atoms: C10_12  and  C12_15 
REMARK       I    between atoms: C12_15  and  N2_16 
ROOT
HETATM    1  C9  UNL     1      -3.147   1.166  -0.442  1.00  0.00     0.039 C 
HETATM    2  C10 UNL     1      -4.201   0.376  -0.669  1.00  0.00     0.107 C 
HETATM    3  C11 UNL     1      -4.074  -1.073  -0.645  1.00  0.00     0.104 C 
HETATM    4  N1  UNL     1      -3.987  -2.225  -0.613  1.00  0.00    -0.191 NA
ENDROOT
BRANCH   2   5
HETATM    5  C12 UNL     1      -5.515   0.925  -0.955  1.00  0.00     0.239 C 
HETATM    6  N2  UNL     1      -6.678   0.146  -1.205  1.00  0.00    -0.268 NA
HETATM    7  H11 UNL     1      -6.775  -0.296  -0.242  1.00  0.00     0.127 HD
HETATM    8  H12 UNL     1      -6.982  -0.404  -0.369  1.00  0.00     0.127 HD
HETATM    9  O1  UNL     1      -5.664   2.183  -0.992  1.00  0.00    -0.273 OA
ENDBRANCH   2   5
BRANCH   1  10
HETATM   10  C8  UNL     1      -1.814   0.646  -0.162  1.00  0.00    -0.034 A 
HETATM   11  C7  UNL     1      -0.928   1.034   0.820  1.00  0.00     0.022 A 
HETATM   12  C6  UNL     1       0.327   0.462   0.948  1.00  0.00    -0.014 A 
HETATM   13  C5  UNL     1       0.909   1.166   2.111  1.00  0.00     0.120 C 
HETATM   14  C15 UNL     1       0.673  -0.521   0.051  1.00  0.00     0.077 A 
HETATM   15  S2  UNL     1       2.138   2.363   1.571  1.00  0.00    -0.137 SA
HETATM   16  C4  UNL     1       3.271   1.653   0.387  1.00  0.00     0.044 C 
HETATM   17  C3  UNL     1       3.559   0.433  -0.044  1.00  0.00     0.023 C 
HETATM   18  C2  UNL     1       3.203  -1.008   0.120  1.00  0.00     0.213 C 
HETATM   19  O2  UNL     1       1.826  -1.267  -0.082  1.00  0.00    -0.331 OA
HETATM   20  C14 UNL     1      -0.174  -0.964  -0.970  1.00  0.00     0.038 A 
HETATM   21  C13 UNL     1      -1.440  -0.359  -1.066  1.00  0.00     0.014 A 
BRANCH  18  22
HETATM   22  S1  UNL     1       4.106  -1.995  -1.102  1.00  0.00    -0.137 SA
HETATM   23  C1  UNL     1       5.894  -1.955  -0.806  1.00  0.00     0.093 C 
ENDBRANCH  18  22
ENDBRANCH   1  10
TORSDOF 3
