REMARK  5 active torsions:
REMARK  status: ('A' for Active; 'I' for Inactive)
REMARK    1  A    between atoms: C2_3  and  C3_4 
REMARK       I    between atoms: C3_4  and  N2_6 
REMARK    2  A    between atoms: N2_6  and  C4_7 
REMARK    3  A    between atoms: C4_7  and  C5_8 
REMARK    4  A    between atoms: C14_17  and  O2_18 
REMARK    5  A    between atoms: C15_19  and  O3_20 
ROOT
HETATM    1  N1  UNL     1      -1.072  -3.405  -1.863  1.00  0.00    -0.191 NA
HETATM    2  C1  UNL     1      -0.937  -2.335  -1.358  1.00  0.00     0.105 C 
HETATM    3  C2  UNL     1      -0.792  -1.010  -0.719  1.00  0.00     0.115 C 
HETATM    4  C11 UNL     1      -1.807  -0.681   0.089  1.00  0.00    -0.047 C 
HETATM    5  C12 UNL     1      -1.701   0.622   0.739  1.00  0.00     0.066 C 
HETATM    6  C13 UNL     1      -2.904   1.040   1.518  1.00  0.00     0.017 C 
HETATM    7  C14 UNL     1      -4.214   0.830   1.475  1.00  0.00     0.095 C 
HETATM    8  C15 UNL     1      -4.793  -0.028   0.434  1.00  0.00     0.095 C 
HETATM    9  C16 UNL     1      -4.232  -1.118  -0.118  1.00  0.00     0.017 C 
HETATM   10  C17 UNL     1      -2.891  -1.678   0.225  1.00  0.00     0.066 C 
ENDROOT
BRANCH   3  11
HETATM   11  C3  UNL     1       0.499  -0.484  -1.213  1.00  0.00     0.262 C 
HETATM   12  O1  UNL     1       1.327  -1.019  -2.028  1.00  0.00    -0.267 OA
HETATM   13  N2  UNL     1       1.120   0.734  -0.896  1.00  0.00    -0.352 N 
HETATM   14  H1  UNL     1       0.654   1.392  -0.228  1.00  0.00     0.163 HD
BRANCH  13  15
HETATM   15  C4  UNL     1       2.369   1.227  -1.378  1.00  0.00     0.161 C 
BRANCH  15  16
HETATM   16  C5  UNL     1       3.566   0.633  -0.739  1.00  0.00    -0.041 A 
HETATM   17  C6  UNL     1       4.349  -0.452  -1.065  1.00  0.00     0.009 A 
HETATM   18  C7  UNL     1       5.413  -0.787  -0.276  1.00  0.00     0.001 A 
HETATM   19  C8  UNL     1       5.805  -0.120   0.871  1.00  0.00     0.000 A 
HETATM   20  C9  UNL     1       5.000   0.980   1.188  1.00  0.00     0.001 A 
HETATM   21  C10 UNL     1       3.925   1.341   0.416  1.00  0.00     0.009 A 
ENDBRANCH  15  16
ENDBRANCH  13  15
ENDBRANCH   3  11
BRANCH   7  22
HETATM   22  O2  UNL     1      -5.152   1.365   2.360  1.00  0.00    -0.358 OA
HETATM   23  H12 UNL     1      -5.118   1.006   3.309  1.00  0.00     0.217 HD
ENDBRANCH   7  22
BRANCH   8  24
HETATM   24  O3  UNL     1      -6.066   0.342  -0.021  1.00  0.00    -0.358 OA
HETATM   25  H13 UNL     1      -6.907   0.029   0.415  1.00  0.00     0.217 HD
ENDBRANCH   8  24
TORSDOF 5
