REMARK  1 active torsions:
REMARK  status: ('A' for Active; 'I' for Inactive)
REMARK    1  A    between atoms: C7_8  and  O1_9 
ROOT
HETATM    1  N1  UNL     1       3.379   4.187   1.483  1.00  0.00    -0.191 NA
HETATM    2  C1  UNL     1       2.684   3.335   1.048  1.00  0.00     0.103 C 
HETATM    3  C2  UNL     1       1.846   2.272   0.520  1.00  0.00     0.091 C 
HETATM    4  C3  UNL     1       0.578   2.573   0.714  1.00  0.00     0.038 C 
HETATM    5  C4  UNL     1      -0.615   1.816   0.361  1.00  0.00    -0.032 A 
HETATM    6  C5  UNL     1      -1.697   2.212  -0.395  1.00  0.00     0.014 A 
HETATM    7  C6  UNL     1      -2.721   1.317  -0.599  1.00  0.00     0.040 A 
HETATM    8  C7  UNL     1      -2.714   0.048  -0.084  1.00  0.00     0.099 A 
HETATM    9  C8  UNL     1      -1.644  -0.369   0.673  1.00  0.00     0.102 A 
HETATM   10  C9  UNL     1      -0.579   0.519   0.904  1.00  0.00     0.051 A 
HETATM   11  O2  UNL     1      -1.431  -1.617   1.290  1.00  0.00    -0.348 OA
HETATM   12  C10 UNL     1      -1.158  -2.677   0.430  1.00  0.00     0.182 C 
HETATM   13  C11 UNL     1       0.028  -2.526  -0.454  1.00  0.00     0.096 C 
HETATM   14  C12 UNL     1       1.324  -2.319   0.175  1.00  0.00     0.092 C 
HETATM   15  F1  UNL     1       1.707  -3.280   1.053  1.00  0.00    -0.211 F 
HETATM   16  C13 UNL     1       2.205  -1.307   0.010  1.00  0.00     0.019 C 
HETATM   17  C14 UNL     1       2.093  -0.111  -0.865  1.00  0.00     0.114 C 
HETATM   18  C15 UNL     1       2.367   1.120  -0.143  1.00  0.00     0.173 C 
HETATM   19  O3  UNL     1       3.651   1.145  -0.114  1.00  0.00    -0.291 OA
ENDROOT
BRANCH   8  20
HETATM   20  O1  UNL     1      -3.716  -0.886  -0.261  1.00  0.00    -0.358 OA
HETATM   21  H4  UNL     1      -4.694  -0.566  -0.334  1.00  0.00     0.217 HD
ENDBRANCH   8  20
TORSDOF 1
