REMARK  2 active torsions:
REMARK  status: ('A' for Active; 'I' for Inactive)
REMARK    1  A    between atoms: C3_3  and  C4_5 
REMARK    2  A    between atoms: C9_12  and  N2_13 
ROOT
HETATM    1  C4  UNL     1      -3.096  -1.603  -0.166  1.00  0.00     0.049 C 
HETATM    2  C5  UNL     1      -3.144  -0.529  -0.936  1.00  0.00    -0.023 C 
HETATM    3  C6  UNL     1      -3.585  -0.256  -2.326  1.00  0.00     0.214 C 
HETATM    4  O1  UNL     1      -2.646   0.697  -2.775  1.00  0.00    -0.332 OA
HETATM    5  C7  UNL     1      -1.850   1.170  -1.745  1.00  0.00     0.163 C 
HETATM    6  N1  UNL     1      -0.718   1.692  -1.970  1.00  0.00    -0.263 NA
HETATM    7  C8  UNL     1       0.228   2.227  -1.047  1.00  0.00     0.209 C 
HETATM    8  C9  UNL     1       0.298   1.515   0.253  1.00  0.00     0.045 C 
HETATM    9  C16 UNL     1      -0.595   0.930   0.997  1.00  0.00     0.110 C 
HETATM   10  N3  UNL     1      -1.961   0.880   0.624  1.00  0.00    -0.382 N 
HETATM   11  C17 UNL     1      -2.715   0.859  -0.588  1.00  0.00     0.189 C 
HETATM   12  H20 UNL     1      -2.708   0.844   1.381  1.00  0.00     0.160 HD
ENDROOT
BRANCH   8  13
HETATM   13  N2  UNL     1       1.618   1.434   0.843  1.00  0.00    -0.347 N 
HETATM   14  C10 UNL     1       2.068   0.219   1.499  1.00  0.00     0.153 C 
HETATM   15  C11 UNL     1       3.425  -0.162   0.980  1.00  0.00    -0.005 C 
HETATM   16  C12 UNL     1       4.295   0.707   0.515  1.00  0.00    -0.082 C 
HETATM   17  C13 UNL     1       5.651   0.316  -0.003  1.00  0.00     0.043 C 
HETATM   18  C14 UNL     1       3.972   2.138   0.481  1.00  0.00     0.092 C 
HETATM   19  C15 UNL     1       2.585   2.500   0.845  1.00  0.00     0.275 C 
HETATM   20  F2  UNL     1       2.559   3.113   2.093  1.00  0.00    -0.226 F 
ENDBRANCH   8  13
BRANCH   1  21
HETATM   21  C3  UNL     1      -3.541  -2.908  -0.630  1.00  0.00     0.112 C 
HETATM   22  C2  UNL     1      -3.454  -3.961   0.202  1.00  0.00     0.011 C 
HETATM   23  C1  UNL     1      -2.963  -4.120   1.610  1.00  0.00     0.039 C 
HETATM   24  F1  UNL     1      -4.045  -3.112  -1.869  1.00  0.00    -0.206 F 
ENDBRANCH   1  21
TORSDOF 2
