REMARK  2 active torsions:
REMARK  status: ('A' for Active; 'I' for Inactive)
REMARK    1  A    between atoms: C7_11  and  N3_12 
REMARK    2  A    between atoms: N3_12  and  C8_13 
ROOT
HETATM    1  F1  UNL     1      -5.473   2.578   1.526  1.00  0.00    -0.210 F 
HETATM    2  C1  UNL     1      -4.416   1.811   1.053  1.00  0.00     0.100 C 
HETATM    3  C2  UNL     1      -4.803   0.950   2.071  1.00  0.00     0.135 C 
HETATM    4  C3  UNL     1      -3.896  -0.133   1.978  1.00  0.00     0.053 C 
HETATM    5  C4  UNL     1      -3.117  -1.035   1.889  1.00  0.00    -0.010 C 
HETATM    6  O1  UNL     1      -2.248  -2.010   1.777  1.00  0.00    -0.251 OA
HETATM    7  C5  UNL     1      -1.142  -1.942   0.877  1.00  0.00     0.210 A 
HETATM    8  N1  UNL     1      -0.732  -3.200   0.952  1.00  0.00    -0.215 NA
HETATM    9  C6  UNL     1       0.311  -3.703   0.282  1.00  0.00     0.238 A 
HETATM   10  N2  UNL     1       1.028  -2.911  -0.542  1.00  0.00    -0.222 NA
HETATM   11  C7  UNL     1       0.586  -1.619  -0.603  1.00  0.00     0.160 A 
HETATM   12  C14 UNL     1      -0.471  -1.015   0.046  1.00  0.00     0.129 A 
HETATM   13  N4  UNL     1      -0.569   0.399  -0.337  1.00  0.00    -0.380 N 
HETATM   14  C15 UNL     1      -1.896   0.759  -0.501  1.00  0.00     0.147 C 
HETATM   15  C16 UNL     1      -2.584   1.985  -0.808  1.00  0.00    -0.005 C 
HETATM   16  C17 UNL     1      -3.683   2.446  -0.124  1.00  0.00     0.036 C 
HETATM   17  H7  UNL     1       0.304   0.913  -0.425  1.00  0.00     0.160 HD
ENDROOT
BRANCH  11  18
HETATM   18  N3  UNL     1       1.418  -0.863  -1.513  1.00  0.00    -0.339 N 
HETATM   19  H3  UNL     1       1.186  -0.709  -2.539  1.00  0.00     0.167 HD
BRANCH  18  20
HETATM   20  C8  UNL     1       2.625  -0.271  -1.056  1.00  0.00     0.035 A 
HETATM   21  C9  UNL     1       3.440   0.505  -1.852  1.00  0.00     0.032 A 
HETATM   22  C10 UNL     1       4.621   1.084  -1.430  1.00  0.00     0.046 A 
HETATM   23  C11 UNL     1       4.973   0.838  -0.097  1.00  0.00     0.138 A 
HETATM   24  F2  UNL     1       6.124   1.391   0.344  1.00  0.00    -0.204 F 
HETATM   25  C12 UNL     1       4.223   0.082   0.753  1.00  0.00     0.074 A 
HETATM   26 CL1  UNL     1       4.702  -0.208   2.420  1.00  0.00    -0.081 Cl
HETATM   27  C13 UNL     1       3.067  -0.450   0.242  1.00  0.00     0.056 A 
ENDBRANCH  18  20
ENDBRANCH  11  18
TORSDOF 2
