REMARK  2 active torsions:
REMARK  status: ('A' for Active; 'I' for Inactive)
REMARK    1  A    between atoms: C1_2  and  C2_3 
REMARK       I    between atoms: C1_2  and  N1_6 
REMARK    2  A    between atoms: N1_6  and  C4_7 
ROOT
HETATM    1  C4  UNL     1       3.592  -0.884   0.760  1.00  0.00     0.038 C 
HETATM    2  C5  UNL     1       3.824  -0.194   1.887  1.00  0.00     0.031 C 
HETATM    3  C6  UNL     1       2.868   0.373   2.860  1.00  0.00     0.027 C 
HETATM    4  C7  UNL     1       1.574   0.615   2.871  1.00  0.00     0.142 C 
HETATM    5  O2  UNL     1       0.490   0.466   2.004  1.00  0.00    -0.318 OA
HETATM    6  C8  UNL     1       0.323  -0.154   0.776  1.00  0.00     0.136 C 
HETATM    7  C9  UNL     1      -0.856   0.192   0.221  1.00  0.00     0.057 C 
HETATM    8  C10 UNL     1      -1.697   1.115   0.983  1.00  0.00     0.089 C 
HETATM    9  C11 UNL     1      -1.976   2.406   0.313  1.00  0.00     0.003 C 
HETATM   10  C12 UNL     1      -3.108   3.008  -0.093  1.00  0.00     0.131 C 
HETATM   11  O3  UNL     1      -3.834   1.932   0.372  1.00  0.00    -0.363 OA
HETATM   12  C13 UNL     1      -5.238   1.757   0.120  1.00  0.00     0.176 C 
HETATM   13  C14 UNL     1      -5.514   0.231   0.230  1.00  0.00     0.053 C 
HETATM   14  C15 UNL     1      -4.690  -0.482  -0.776  1.00  0.00     0.175 C 
HETATM   15  O4  UNL     1      -4.740  -1.857  -0.789  1.00  0.00    -0.360 OA
HETATM   16  P1  UNL     1      -3.316  -2.524  -1.546  1.00  0.00     0.065 P 
HETATM   17  C16 UNL     1      -2.048  -1.191  -1.723  1.00  0.00     0.083 A 
HETATM   18  C17 UNL     1      -1.242  -0.386  -2.494  1.00  0.00     0.130 A 
HETATM   19  N2  UNL     1      -1.266  -0.321  -1.047  1.00  0.00    -0.317 N 
HETATM   20  C18 UNL     1       1.164  -1.070   0.025  1.00  0.00     0.154 C 
HETATM   21  F1  UNL     1       0.430  -1.772  -0.862  1.00  0.00    -0.203 F 
HETATM   22  C19 UNL     1       2.455  -1.370   0.007  1.00  0.00     0.074 C 
HETATM   23  H17 UNL     1      -2.787  -3.662  -0.861  1.00  0.00     0.094 HD
ENDROOT
BRANCH   1  24
HETATM   24  N1  UNL     1       4.836  -1.237   0.129  1.00  0.00    -0.324 N 
HETATM   25  C1  UNL     1       5.183  -0.815  -1.189  1.00  0.00     0.246 C 
HETATM   26  O1  UNL     1       4.467  -0.112  -1.923  1.00  0.00    -0.268 OA
HETATM   27  H3  UNL     1       5.484  -1.836   0.713  1.00  0.00     0.169 HD
BRANCH  25  28
HETATM   28  C2  UNL     1       6.464  -1.215  -1.759  1.00  0.00     0.086 C 
HETATM   29  C3  UNL     1       6.794  -0.828  -2.980  1.00  0.00     0.090 C 
HETATM   30 CL1  UNL     1       5.723   0.163  -3.948  1.00  0.00    -0.097 Cl
ENDBRANCH  25  28
ENDBRANCH   1  24
TORSDOF 2
