REMARK  3 active torsions:
REMARK  status: ('A' for Active; 'I' for Inactive)
REMARK    1  A    between atoms: C6_9  and  N2_10 
REMARK       I    between atoms: N2_10  and  C7_11 
REMARK    2  A    between atoms: C7_11  and  C8_13 
REMARK    3  A    between atoms: N3_15  and  C10_16 
ROOT
HETATM    1  N2  UNL     1      -1.988  -0.375  -0.156  1.00  0.00    -0.344 N 
HETATM    2  C7  UNL     1      -0.769   0.326  -0.332  1.00  0.00     0.274 C 
HETATM    3  O1  UNL     1      -0.743   1.504  -0.775  1.00  0.00    -0.266 OA
HETATM    4  H7  UNL     1      -2.002  -1.341   0.208  1.00  0.00     0.163 HD
ENDROOT
BRANCH   2   5
HETATM    5  C8  UNL     1       0.514  -0.285  -0.007  1.00  0.00     0.165 A 
HETATM    6  C9  UNL     1       1.735   0.351  -0.158  1.00  0.00     0.159 A 
HETATM    7  N3  UNL     1       2.722  -0.480   0.228  1.00  0.00    -0.224 N 
HETATM    8  N4  UNL     1       2.119  -1.607   0.611  1.00  0.00    -0.060 NA
HETATM    9  N5  UNL     1       0.812  -1.503   0.476  1.00  0.00    -0.125 NA
BRANCH   7  10
HETATM   10  C10 UNL     1       4.114  -0.188   0.220  1.00  0.00     0.059 A 
HETATM   11  C11 UNL     1       5.064  -1.178   0.295  1.00  0.00     0.031 A 
HETATM   12  C12 UNL     1       6.424  -0.936   0.290  1.00  0.00     0.002 A 
HETATM   13  C13 UNL     1       6.820   0.400   0.202  1.00  0.00     0.000 A 
HETATM   14  C14 UNL     1       5.882   1.431   0.124  1.00  0.00     0.002 A 
HETATM   15  C15 UNL     1       4.522   1.127   0.133  1.00  0.00     0.031 A 
ENDBRANCH   7  10
ENDBRANCH   2   5
BRANCH   1  16
HETATM   16  C6  UNL     1      -3.256   0.280  -0.496  1.00  0.00     0.144 A 
HETATM   17  C2  UNL     1      -4.166   0.342   0.677  1.00  0.00    -0.019 A 
HETATM   18  C1  UNL     1      -3.703   1.137   1.870  1.00  0.00     0.049 C 
HETATM   19  C3  UNL     1      -5.364  -0.230   0.805  1.00  0.00     0.110 A 
HETATM   20 CL1  UNL     1      -6.279  -0.031   2.280  1.00  0.00    -0.064 Cl
HETATM   21  N1  UNL     1      -5.826  -0.987  -0.309  1.00  0.00    -0.323 N 
HETATM   22  C4  UNL     1      -5.076  -1.145  -1.507  1.00  0.00     0.188 A 
HETATM   23  H4  UNL     1      -6.744  -1.430  -0.221  1.00  0.00     0.169 HD
HETATM   24  F1  UNL     1      -5.520  -1.867  -2.565  1.00  0.00    -0.186 F 
HETATM   25  C5  UNL     1      -3.903  -0.539  -1.532  1.00  0.00     0.064 A 
ENDBRANCH   1  16
TORSDOF 3
