REMARK  6 active torsions:
REMARK  status: ('A' for Active; 'I' for Inactive)
REMARK    1  A    between atoms: O1_2  and  C2_3 
REMARK    2  A    between atoms: C2_3  and  C3_4 
REMARK    3  A    between atoms: C15_20  and  O4_21 
REMARK    4  A    between atoms: C16_22  and  C17_23 
REMARK    5  A    between atoms: C17_23  and  C18_24 
REMARK    6  A    between atoms: C18_24  and  C19_25 
ROOT
HETATM    1  C3  UNL     1       2.274   0.420   0.117  1.00  0.00     0.157 C 
HETATM    2  O2  UNL     1       1.786  -0.637   1.082  1.00  0.00    -0.365 OA
HETATM    3  C4  UNL     1       0.350  -0.698   0.848  1.00  0.00     0.134 C 
HETATM    4  C5  UNL     1      -0.894  -0.214   1.163  1.00  0.00     0.118 A 
HETATM    5  C6  UNL     1      -1.518  -1.385   0.797  1.00  0.00     0.016 A 
HETATM    6  C7  UNL     1      -2.451  -0.400   0.359  1.00  0.00     0.165 A 
HETATM    7  N1  UNL     1      -3.790  -0.359   0.950  1.00  0.00    -0.245 NA
HETATM    8  C8  UNL     1      -4.709  -1.329   0.965  1.00  0.00     0.229 C 
HETATM    9  N2  UNL     1      -4.727  -2.769   0.797  1.00  0.00    -0.254 NA
HETATM   10  C9  UNL     1      -3.906  -3.587   0.180  1.00  0.00     0.120 C 
HETATM   11  C10 UNL     1      -2.461  -3.667   0.056  1.00  0.00     0.056 C 
HETATM   12  C11 UNL     1      -1.591  -2.749   0.336  1.00  0.00     0.078 C 
HETATM   13  O3  UNL     1      -0.194  -2.863   0.247  1.00  0.00    -0.342 OA
HETATM   14  C12 UNL     1       0.431  -1.776  -0.246  1.00  0.00     0.168 C 
HETATM   15  C13 UNL     1       1.565  -1.538  -1.057  1.00  0.00     0.050 C 
HETATM   16  C14 UNL     1       1.567   0.036  -1.174  1.00  0.00     0.078 C 
HETATM   17  C15 UNL     1       0.139   0.482  -1.220  1.00  0.00     0.072 C 
HETATM   18  C16 UNL     1      -0.841   1.265  -0.754  1.00  0.00     0.042 C 
HETATM   19  N3  UNL     1      -2.197   0.602  -0.756  1.00  0.00    -0.359 N 
HETATM   20  H20 UNL     1      -3.077   0.624  -1.369  1.00  0.00     0.162 HD
ENDROOT
BRANCH  18  21
HETATM   21  C17 UNL     1      -1.667   2.238  -0.051  1.00  0.00     0.053 C 
BRANCH  21  22
HETATM   22  C18 UNL     1      -1.743   3.185   0.846  1.00  0.00     0.016 C 
BRANCH  22  23
HETATM   23  C19 UNL     1      -1.370   4.164   1.905  1.00  0.00     0.120 C 
HETATM   24 CL1  UNL     1       0.380   3.981   2.241  1.00  0.00    -0.130 Cl
ENDBRANCH  22  23
ENDBRANCH  21  22
ENDBRANCH  18  21
BRANCH  17  25
HETATM   25  O4  UNL     1      -0.410  -0.282  -2.291  1.00  0.00    -0.362 OA
HETATM   26  H15 UNL     1      -0.222   0.071  -3.206  1.00  0.00     0.217 HD
ENDBRANCH  17  25
BRANCH   1  27
HETATM   27  C2  UNL     1       3.735   0.283   0.077  1.00  0.00     0.199 C 
BRANCH  27  28
HETATM   28  O1  UNL     1       4.355   1.199  -0.785  1.00  0.00    -0.393 OA
HETATM   29  C1  UNL     1       5.748   0.975  -0.742  1.00  0.00     0.201 C 
ENDBRANCH  27  28
ENDBRANCH   1  27
TORSDOF 6
