REMARK  5 active torsions:
REMARK  status: ('A' for Active; 'I' for Inactive)
REMARK    1  A    between atoms: B1_2  and  C2_3 
REMARK    2  A    between atoms: C4_5  and  O1_6 
REMARK    3  A    between atoms: O1_6  and  C5_7 
REMARK    4  A    between atoms: C5_7  and  O2_8 
REMARK    5  A    between atoms: C11_17  and  C12_18 
ROOT
HETATM    1  C2  UNL     1      -2.427  -0.689  -0.627  1.00  0.00     0.077 C 
HETATM    2  C3  UNL     1      -3.180   0.573  -1.019  1.00  0.00     0.082 C 
HETATM    3  C4  UNL     1      -2.347   1.706  -0.361  1.00  0.00     0.269 C 
HETATM    4  O3  UNL     1      -1.125   1.608  -0.844  1.00  0.00    -0.332 OA
HETATM    5  C6  UNL     1       0.054   1.515  -1.309  1.00  0.00     0.139 C 
HETATM    6  C7  UNL     1       1.037   0.610  -1.522  1.00  0.00     0.040 C 
HETATM    7  C8  UNL     1       0.932  -0.821  -1.176  1.00  0.00     0.022 A 
HETATM    8  C9  UNL     1      -0.011  -1.834  -1.432  1.00  0.00     0.072 A 
HETATM    9  N1  UNL     1       0.225  -3.028  -0.881  1.00  0.00    -0.243 NA
HETATM   10  C10 UNL     1       1.278  -3.340  -0.110  1.00  0.00     0.234 A 
HETATM   11  N2  UNL     1       2.200  -2.399   0.155  1.00  0.00    -0.240 NA
HETATM   12  C11 UNL     1       2.008  -1.163  -0.383  1.00  0.00     0.081 A 
HETATM   13  C18 UNL     1      -1.222  -1.739  -2.247  1.00  0.00     0.227 C 
HETATM   14  O4  UNL     1      -2.438  -1.704  -1.531  1.00  0.00    -0.390 OA
ENDROOT
BRANCH  12  15
HETATM   15  C12 UNL     1       3.116  -0.322   0.048  1.00  0.00    -0.005 A 
HETATM   16  C13 UNL     1       4.044   0.410  -0.656  1.00  0.00     0.014 A 
HETATM   17  C14 UNL     1       4.996   1.193  -0.066  1.00  0.00     0.003 A 
HETATM   18  C15 UNL     1       5.083   1.294   1.303  1.00  0.00     0.024 A 
HETATM   19  C16 UNL     1       4.213   0.610   2.120  1.00  0.00     0.035 A 
HETATM   20 CL1  UNL     1       4.235   0.668   3.856  1.00  0.00    -0.084 Cl
HETATM   21  C17 UNL     1       3.273  -0.164   1.438  1.00  0.00     0.037 A 
ENDBRANCH  12  15
BRANCH   3  22
HETATM   22  O1  UNL     1      -2.357   1.468   1.013  1.00  0.00    -0.337 OA
BRANCH  22  23
HETATM   23  C5  UNL     1      -2.940   2.496   1.719  1.00  0.00     0.337 C 
BRANCH  23  24
HETATM   24  O2  UNL     1      -2.222   3.663   1.477  1.00  0.00    -0.377 OA
HETATM   25  H11 UNL     1      -2.824   4.462   1.478  1.00  0.00     0.212 HD
ENDBRANCH  23  24
ENDBRANCH  22  23
ENDBRANCH   3  22
BRANCH   1  26
HETATM   26  B1  UNL     1      -2.637  -1.072   0.853  1.00  0.00     0.188 B 
HETATM   27  C1  UNL     1      -2.101  -2.492   1.380  1.00  0.00    -0.056 C 
HETATM   28  H4  UNL     1      -3.459  -0.513   1.523  1.00  0.00    -0.024 HD
ENDBRANCH   1  26
TORSDOF 5
