REMARK  9 active torsions:
REMARK  status: ('A' for Active; 'I' for Inactive)
REMARK    1  A    between atoms: O1_2  and  C2_3 
REMARK    2  A    between atoms: C5_6  and  O2_7 
REMARK    3  A    between atoms: O2_7  and  C6_8 
REMARK    4  A    between atoms: C6_8  and  C7_9 
REMARK    5  A    between atoms: C12_16  and  O3_17 
REMARK    6  A    between atoms: O3_17  and  C13_18 
REMARK    7  A    between atoms: C13_18  and  C14_19 
REMARK    8  A    between atoms: C14_19  and  C15_20 
REMARK    9  A    between atoms: C15_20  and  N2_21 
ROOT
HETATM    1  C2  UNL     1       1.575   0.931   0.451  1.00  0.00     0.102 A 
HETATM    2  C3  UNL     1       2.947   0.897   0.365  1.00  0.00     0.056 A 
HETATM    3  C4  UNL     1       3.757  -0.223   0.432  1.00  0.00     0.029 A 
HETATM    4  C5  UNL     1       5.160  -0.233   0.340  1.00  0.00     0.082 A 
HETATM    5  C8  UNL     1       5.652  -1.509   0.445  1.00  0.00     0.057 A 
HETATM    6  C9  UNL     1       4.976  -2.690   0.616  1.00  0.00     0.120 A 
HETATM    7  N1  UNL     1       3.643  -2.574   0.691  1.00  0.00    -0.260 NA
HETATM    8  C10 UNL     1       3.006  -1.393   0.607  1.00  0.00     0.072 A 
HETATM    9  C11 UNL     1       1.637  -1.467   0.705  1.00  0.00     0.072 A 
HETATM   10  C12 UNL     1       0.944  -0.281   0.622  1.00  0.00     0.104 A 
ENDROOT
BRANCH  10  11
HETATM   11  O3  UNL     1      -0.440  -0.254   0.709  1.00  0.00    -0.348 OA
BRANCH  11  12
HETATM   12  C13 UNL     1      -1.122  -1.473   0.884  1.00  0.00     0.177 C 
BRANCH  12  13
HETATM   13  C14 UNL     1      -2.625  -1.268   0.953  1.00  0.00     0.046 C 
BRANCH  13  14
HETATM   14  C15 UNL     1      -3.019  -0.623  -0.382  1.00  0.00     0.119 C 
BRANCH  14  15
HETATM   15  N2  UNL     1      -4.409  -0.399  -0.398  1.00  0.00    -0.412 N 
HETATM   16  C16 UNL     1      -4.952   0.572   0.478  1.00  0.00     0.117 C 
HETATM   17  C17 UNL     1      -6.060   1.261  -0.267  1.00  0.00     0.019 C 
HETATM   18  C18 UNL     1      -6.997   0.384  -1.000  1.00  0.00     0.003 C 
HETATM   19  C19 UNL     1      -6.644  -1.033  -1.201  1.00  0.00     0.019 C 
HETATM   20  C20 UNL     1      -5.259  -1.444  -0.830  1.00  0.00     0.117 C 
ENDBRANCH  14  15
ENDBRANCH  13  14
ENDBRANCH  12  13
ENDBRANCH  11  12
ENDBRANCH  10  11
BRANCH   1  21
HETATM   21  O1  UNL     1       0.885   2.130   0.368  1.00  0.00    -0.353 OA
HETATM   22  C1  UNL     1       1.635   3.316   0.193  1.00  0.00     0.210 C 
ENDBRANCH   1  21
BRANCH   4  23
HETATM   23  O2  UNL     1       5.595   1.011   0.180  1.00  0.00    -0.348 OA
BRANCH  23  24
HETATM   24  C6  UNL     1       6.843   1.531   0.015  1.00  0.00     0.207 C 
BRANCH  24  25
HETATM   25  C7  UNL     1       7.475   1.110  -1.282  1.00  0.00     0.248 C 
HETATM   26  F1  UNL     1       7.654  -0.210  -1.475  1.00  0.00    -0.253 F 
ENDBRANCH  24  25
ENDBRANCH  23  24
ENDBRANCH   4  23
TORSDOF 9
