REMARK  3 active torsions:
REMARK  status: ('A' for Active; 'I' for Inactive)
REMARK    1  A    between atoms: C2_2  and  C3_3 
REMARK    2  A    between atoms: C12_14  and  C13_15 
REMARK    3  A    between atoms: C13_15  and  O2_16 
ROOT
HETATM    1  C3  UNL     1      -2.805  -2.650  -1.059  1.00  0.00     0.057 C 
HETATM    2  C4  UNL     1      -2.012  -1.611  -0.456  1.00  0.00    -0.050 C 
HETATM    3  C5  UNL     1      -1.479  -0.389  -0.763  1.00  0.00     0.019 C 
HETATM    4  C6  UNL     1      -0.810   0.895  -0.810  1.00  0.00     0.276 C 
HETATM    5  N1  UNL     1      -1.716   1.984  -0.964  1.00  0.00     0.122 N 
HETATM    6  C7  UNL     1      -1.429   3.027   0.028  1.00  0.00     0.368 C 
HETATM    7  C8  UNL     1      -0.028   3.479  -0.250  1.00  0.00     0.055 C 
HETATM    8  C9  UNL     1       0.794   3.324  -1.285  1.00  0.00     0.135 C 
HETATM    9  O1  UNL     1       0.766   2.185  -2.103  1.00  0.00    -0.355 OA
HETATM   10  C10 UNL     1       0.285   0.905  -1.882  1.00  0.00     0.167 C 
HETATM   11  C11 UNL     1       1.437   0.033  -1.378  1.00  0.00     0.069 C 
HETATM   12  C12 UNL     1       1.384  -0.142   0.142  1.00  0.00     0.148 C 
HETATM   13  O3  UNL     1       0.265  -0.908   0.457  1.00  0.00    -0.373 OA
HETATM   14  C15 UNL     1      -0.795  -0.558   1.325  1.00  0.00     0.071 C 
HETATM   15  C16 UNL     1      -1.616   0.099   2.212  1.00  0.00     0.101 C 
HETATM   16  C17 UNL     1      -2.369   0.954   3.163  1.00  0.00     0.117 C 
HETATM   17  N2  UNL     1      -1.876   2.190   3.204  1.00  0.00    -0.255 NA
HETATM   18  C18 UNL     1      -0.745   2.469   2.329  1.00  0.00     0.229 C 
HETATM   19  N3  UNL     1      -1.583   2.672   1.377  1.00  0.00    -0.243 NA
HETATM   20  C19 UNL     1      -1.560  -1.803   1.022  1.00  0.00     0.075 C 
HETATM   21  H6  UNL     1      -1.629   2.449  -1.894  1.00  0.00     0.320 HD
ENDROOT
BRANCH   1  22
HETATM   22  C2  UNL     1      -2.185  -3.651  -1.664  1.00  0.00    -0.154 C 
HETATM   23  C1  UNL     1      -1.435  -4.420  -2.439  1.00  0.00     0.096 C 
ENDBRANCH   1  22
BRANCH  12  24
HETATM   24  C13 UNL     1       2.579  -1.046   0.562  1.00  0.00     0.199 C 
BRANCH  24  25
HETATM   25  O2  UNL     1       3.771  -0.411   0.306  1.00  0.00    -0.393 OA
HETATM   26  C14 UNL     1       4.799  -1.274   0.703  1.00  0.00     0.201 C 
ENDBRANCH  24  25
ENDBRANCH  12  24
TORSDOF 3
