REMARK  5 active torsions:
REMARK  status: ('A' for Active; 'I' for Inactive)
REMARK    1  A    between atoms: O1_2  and  C2_3 
REMARK    2  A    between atoms: C2_3  and  C3_4 
REMARK    3  A    between atoms: C8_12  and  N3_13 
REMARK    4  A    between atoms: C18_25  and  C19_26 
REMARK    5  A    between atoms: C19_26  and  O4_27 
ROOT
HETATM    1  C3  UNL     1      -3.149   0.053   0.388  1.00  0.00     0.184 C 
HETATM    2  O2  UNL     1      -2.062   0.089   1.331  1.00  0.00    -0.338 OA
HETATM    3  C4  UNL     1      -0.795  -0.171   0.843  1.00  0.00     0.104 A 
HETATM    4  C5  UNL     1       0.170   0.038   1.757  1.00  0.00     0.068 A 
HETATM    5  C6  UNL     1       1.508  -0.215   1.316  1.00  0.00     0.051 A 
HETATM    6  N1  UNL     1       2.268   0.014   2.334  1.00  0.00    -0.246 NA
HETATM    7  C7  UNL     1       3.633  -0.006   2.697  1.00  0.00     0.229 C 
HETATM    8  N2  UNL     1       4.747  -0.293   2.128  1.00  0.00    -0.253 NA
HETATM    9  C8  UNL     1       5.167  -0.748   0.797  1.00  0.00     0.235 C 
HETATM   10  C9  UNL     1       4.367   0.094  -0.169  1.00  0.00    -0.006 A 
HETATM   11  C10 UNL     1       5.306   0.923  -0.707  1.00  0.00     0.012 A 
HETATM   12  C11 UNL     1       4.985   1.878  -1.644  1.00  0.00     0.002 A 
HETATM   13  C12 UNL     1       3.659   1.943  -2.002  1.00  0.00     0.024 A 
HETATM   14  C13 UNL     1       2.733   1.098  -1.447  1.00  0.00     0.042 A 
HETATM   15 CL1  UNL     1       1.083   1.272  -1.952  1.00  0.00    -0.084 Cl
HETATM   16  C14 UNL     1       3.011   0.137  -0.516  1.00  0.00    -0.013 A 
HETATM   17  C15 UNL     1       1.899  -0.664  -0.049  1.00  0.00     0.098 A 
HETATM   18  C16 UNL     1       0.754  -0.855  -0.921  1.00  0.00     0.028 A 
HETATM   19  C17 UNL     1      -0.515  -0.625  -0.510  1.00  0.00     0.100 A 
HETATM   20  O3  UNL     1      -1.684  -0.750  -1.199  1.00  0.00    -0.339 OA
HETATM   21  C18 UNL     1      -2.881  -1.177  -0.463  1.00  0.00     0.184 C 
ENDROOT
BRANCH   1  22
HETATM   22  C2  UNL     1      -2.966   1.261  -0.488  1.00  0.00     0.202 C 
BRANCH  22  23
HETATM   23  O1  UNL     1      -2.970   2.415   0.256  1.00  0.00    -0.393 OA
HETATM   24  C1  UNL     1      -4.157   2.590   0.932  1.00  0.00     0.201 C 
ENDBRANCH  22  23
ENDBRANCH   1  22
BRANCH  21  25
HETATM   25  C19 UNL     1      -3.943  -1.531  -1.431  1.00  0.00     0.202 C 
BRANCH  25  26
HETATM   26  O4  UNL     1      -5.037  -2.092  -0.945  1.00  0.00    -0.393 OA
HETATM   27  C20 UNL     1      -5.893  -1.657  -0.043  1.00  0.00     0.201 C 
ENDBRANCH  25  26
ENDBRANCH  21  25
BRANCH   9  28
HETATM   28  N3  UNL     1       4.683  -2.100   0.630  1.00  0.00    -0.406 N 
HETATM   29  H10 UNL     1       4.692  -2.661   1.492  1.00  0.00     0.152 HD
HETATM   30  H11 UNL     1       5.004  -2.553  -0.230  1.00  0.00     0.152 HD
ENDBRANCH   9  28
TORSDOF 5
