REMARK  7 active torsions:
REMARK  status: ('A' for Active; 'I' for Inactive)
REMARK    1  A    between atoms: O1_2  and  C2_3 
REMARK    2  A    between atoms: C2_3  and  C3_4 
REMARK    3  A    between atoms: C8_12  and  N3_13 
REMARK    4  A    between atoms: N3_13  and  C9_14 
REMARK    5  A    between atoms: C17_25  and  C18_26 
REMARK    6  A    between atoms: C18_26  and  O4_27 
REMARK    7  A    between atoms: O4_27  and  P2_28 
ROOT
HETATM    1  C3  UNL     1      -3.090   1.062  -0.092  1.00  0.00     0.184 C 
HETATM    2  O2  UNL     1      -2.311   0.514  -1.124  1.00  0.00    -0.338 OA
HETATM    3  C4  UNL     1      -0.934   0.390  -1.067  1.00  0.00     0.105 A 
HETATM    4  C5  UNL     1      -0.047   0.517  -2.121  1.00  0.00     0.072 A 
HETATM    5  C6  UNL     1       1.317   0.366  -1.914  1.00  0.00     0.075 A 
HETATM    6  N1  UNL     1       2.166   0.493  -2.952  1.00  0.00    -0.241 NA
HETATM    7  C7  UNL     1       3.486   0.348  -2.758  1.00  0.00     0.236 A 
HETATM    8  N2  UNL     1       3.926   0.076  -1.516  1.00  0.00    -0.224 NA
HETATM    9  C8  UNL     1       3.090  -0.053  -0.472  1.00  0.00     0.142 A 
HETATM   10  C14 UNL     1       1.730   0.085  -0.615  1.00  0.00     0.042 A 
HETATM   11  C15 UNL     1       0.887  -0.048   0.449  1.00  0.00     0.057 A 
HETATM   12  C16 UNL     1      -0.450   0.110   0.198  1.00  0.00     0.103 A 
HETATM   13  O3  UNL     1      -1.360  -0.011   1.229  1.00  0.00    -0.338 OA
HETATM   14  C17 UNL     1      -2.609   0.629   1.277  1.00  0.00     0.184 C 
ENDROOT
BRANCH   9  15
HETATM   15  N3  UNL     1       3.695  -0.341   0.780  1.00  0.00    -0.339 N 
HETATM   16  H9  UNL     1       3.279  -0.485   1.719  1.00  0.00     0.167 HD
BRANCH  15  17
HETATM   17  C9  UNL     1       5.107  -0.475   0.878  1.00  0.00     0.048 A 
HETATM   18  C10 UNL     1       5.801  -1.662   0.722  1.00  0.00     0.031 A 
HETATM   19  C11 UNL     1       7.148  -1.794   0.815  1.00  0.00     0.004 A 
HETATM   20  C12 UNL     1       8.087  -0.814   1.077  1.00  0.00     0.025 A 
HETATM   21  C13 UNL     1       7.800   0.538   1.299  1.00  0.00     0.049 A 
HETATM   22 CL1  UNL     1       9.088   1.681   1.621  1.00  0.00    -0.083 Cl
HETATM   23  P1  UNL     1       6.106   0.919   1.221  1.00  0.00     0.021 P 
ENDBRANCH  15  17
ENDBRANCH   9  15
BRANCH  14  24
HETATM   24  C18 UNL     1      -3.626  -0.280   1.931  1.00  0.00     0.207 C 
BRANCH  24  25
HETATM   25  O4  UNL     1      -3.728  -1.440   1.192  1.00  0.00    -0.365 OA
BRANCH  25  26
HETATM   26  P2  UNL     1      -4.858  -2.559   1.838  1.00  0.00     0.008 P 
HETATM   27  C19 UNL     1      -5.679  -3.455   0.437  1.00  0.00     0.072 C 
HETATM   28  H17 UNL     1      -5.884  -1.951   2.654  1.00  0.00     0.087 HD
ENDBRANCH  25  26
ENDBRANCH  24  25
ENDBRANCH  14  24
BRANCH   1  29
HETATM   29  C2  UNL     1      -3.090   2.567  -0.205  1.00  0.00     0.202 C 
BRANCH  29  30
HETATM   30  O1  UNL     1      -3.572   3.070  -1.379  1.00  0.00    -0.393 OA
HETATM   31  C1  UNL     1      -4.871   2.731  -1.631  1.00  0.00     0.201 C 
ENDBRANCH  29  30
ENDBRANCH   1  29
TORSDOF 7
