REMARK  6 active torsions:
REMARK  status: ('A' for Active; 'I' for Inactive)
REMARK    1  A    between atoms: O1_2  and  C2_3 
REMARK    2  A    between atoms: C2_3  and  C3_4 
REMARK    3  A    between atoms: C7_10  and  N2_11 
REMARK    4  A    between atoms: N2_11  and  C8_12 
REMARK    5  A    between atoms: C17_24  and  C18_25 
REMARK    6  A    between atoms: C18_25  and  O4_26 
ROOT
HETATM    1  C3  UNL     1      -3.845   0.887  -0.476  1.00  0.00     0.184 C 
HETATM    2  O2  UNL     1      -2.671   1.477  -1.077  1.00  0.00    -0.338 OA
HETATM    3  C4  UNL     1      -1.444   1.112  -0.549  1.00  0.00     0.107 A 
HETATM    4  C5  UNL     1      -0.443   1.879  -0.963  1.00  0.00     0.090 A 
HETATM    5  C6  UNL     1       0.934   1.622  -0.492  1.00  0.00     0.129 A 
HETATM    6  N1  UNL     1       2.081   2.131  -0.672  1.00  0.00    -0.245 NA
HETATM    7  C7  UNL     1       3.139   1.484   0.045  1.00  0.00     0.226 A 
HETATM    8  C14 UNL     1       2.454   0.372   0.798  1.00  0.00     0.178 A 
HETATM    9  N3  UNL     1       1.071   0.529   0.402  1.00  0.00    -0.336 N 
HETATM   10  C15 UNL     1      -0.029  -0.261   0.814  1.00  0.00     0.132 A 
HETATM   11  C16 UNL     1      -1.247  -0.001   0.372  1.00  0.00     0.118 A 
HETATM   12  O3  UNL     1      -2.444  -0.647   0.651  1.00  0.00    -0.337 OA
HETATM   13  C17 UNL     1      -3.465  -0.588  -0.327  1.00  0.00     0.184 C 
ENDROOT
BRANCH   7  14
HETATM   14  N2  UNL     1       4.089   0.852  -0.868  1.00  0.00    -0.366 N 
HETATM   15  H9  UNL     1       3.904   0.922  -1.870  1.00  0.00     0.162 HD
BRANCH  14  16
HETATM   16  C8  UNL     1       5.239   0.156  -0.410  1.00  0.00     0.031 A 
HETATM   17  C9  UNL     1       5.594  -0.002   0.912  1.00  0.00     0.029 A 
HETATM   18  C10 UNL     1       6.711  -0.681   1.325  1.00  0.00     0.004 A 
HETATM   19  C11 UNL     1       7.519  -1.234   0.358  1.00  0.00     0.024 A 
HETATM   20  C12 UNL     1       7.229  -1.118  -0.984  1.00  0.00     0.036 A 
HETATM   21 CL1  UNL     1       8.254  -1.819  -2.205  1.00  0.00    -0.084 Cl
HETATM   22  C13 UNL     1       6.100  -0.427  -1.314  1.00  0.00     0.053 A 
ENDBRANCH  14  16
ENDBRANCH   7  14
BRANCH   1  23
HETATM   23  C2  UNL     1      -3.956   1.551   0.877  1.00  0.00     0.202 C 
BRANCH  23  24
HETATM   24  O1  UNL     1      -5.030   1.146   1.634  1.00  0.00    -0.393 OA
HETATM   25  C1  UNL     1      -6.234   1.429   0.997  1.00  0.00     0.201 C 
ENDBRANCH  23  24
ENDBRANCH   1  23
BRANCH  13  26
HETATM   26  C18 UNL     1      -4.622  -1.460   0.026  1.00  0.00     0.202 C 
BRANCH  26  27
HETATM   27  O4  UNL     1      -4.224  -2.772   0.133  1.00  0.00    -0.393 OA
HETATM   28  C19 UNL     1      -3.680  -3.330  -0.995  1.00  0.00     0.201 C 
ENDBRANCH  26  27
ENDBRANCH  13  26
TORSDOF 6
