REMARK  0 active torsions:
REMARK  status: ('A' for Active; 'I' for Inactive)
ROOT
HETATM    1  O1  UNL     1       4.053   1.084  -1.935  1.00  0.00    -0.291 OA
HETATM    2  C1  UNL     1       3.061   0.517  -1.420  1.00  0.00     0.169 C 
HETATM    3  C2  UNL     1       2.449  -0.722  -1.882  1.00  0.00     0.092 C 
HETATM    4  C3  UNL     1       1.736  -1.550  -1.102  1.00  0.00     0.121 C 
HETATM    5  F1  UNL     1       1.231  -2.665  -1.681  1.00  0.00    -0.208 F 
HETATM    6  C4  UNL     1       1.699  -0.961   0.299  1.00  0.00     0.167 C 
HETATM    7  C5  UNL     1       0.800  -1.878   1.046  1.00  0.00     0.060 C 
HETATM    8 CL1  UNL     1       1.867  -2.900   2.113  1.00  0.00    -0.121 Cl
HETATM    9  C6  UNL     1      -0.486  -1.580   0.621  1.00  0.00     0.142 C 
HETATM   10  C7  UNL     1      -1.673  -2.338   1.178  1.00  0.00     0.101 C 
HETATM   11  F2  UNL     1      -2.158  -3.344   2.044  1.00  0.00    -0.210 F 
HETATM   12  C8  UNL     1      -2.822  -1.897   0.639  1.00  0.00     0.039 C 
HETATM   13  C9  UNL     1      -3.322  -0.941  -0.289  1.00  0.00     0.020 C 
HETATM   14  C10 UNL     1      -2.822  -0.011  -1.050  1.00  0.00     0.090 C 
HETATM   15  N1  UNL     1      -1.496   0.447  -1.261  1.00  0.00    -0.349 N 
HETATM   16  C11 UNL     1      -0.914   1.290  -0.238  1.00  0.00     0.157 A 
HETATM   17  N2  UNL     1      -1.789   2.257   0.065  1.00  0.00    -0.222 NA
HETATM   18  C12 UNL     1      -1.556   3.208   0.980  1.00  0.00     0.235 A 
HETATM   19  N3  UNL     1      -0.415   3.285   1.687  1.00  0.00    -0.252 NA
HETATM   20  C13 UNL     1       0.495   2.308   1.395  1.00  0.00     0.151 A 
HETATM   21  C14 UNL     1       0.257   1.335   0.459  1.00  0.00     0.095 A 
HETATM   22  N4  UNL     1       1.297   0.415   0.249  1.00  0.00    -0.357 N 
HETATM   23  C15 UNL     1       2.464   1.187  -0.222  1.00  0.00     0.207 C 
HETATM   24  H7  UNL     1      -0.626   0.520  -1.803  1.00  0.00     0.167 HD
ENDROOT
TORSDOF 0
