REMARK  5 active torsions:
REMARK  status: ('A' for Active; 'I' for Inactive)
REMARK    1  A    between atoms: C2_2  and  O1_3 
REMARK    2  A    between atoms: O1_3  and  C3_4 
REMARK    3  A    between atoms: C4_5  and  C5_6 
REMARK    4  A    between atoms: C10_13  and  C11_14 
REMARK    5  A    between atoms: C11_14  and  O2_16 
ROOT
HETATM    1  C5  UNL     1       3.436   0.440   0.154  1.00  0.00     0.052 C 
HETATM    2  C6  UNL     1       2.159   0.345  -0.349  1.00  0.00     0.125 C 
HETATM    3  N1  UNL     1       1.148   0.189  -1.289  1.00  0.00    -0.225 NA
HETATM    4  C7  UNL     1       1.262  -0.082  -2.577  1.00  0.00     0.234 C 
HETATM    5  N2  UNL     1      -0.100  -0.121  -3.055  1.00  0.00    -0.254 NA
HETATM    6  C8  UNL     1      -1.090  -0.102  -2.237  1.00  0.00     0.118 C 
HETATM    7  C9  UNL     1      -2.524  -0.113  -2.067  1.00  0.00     0.030 C 
HETATM    8  C10 UNL     1      -3.521  -0.082  -1.236  1.00  0.00    -0.014 C 
HETATM    9  P1  UNL     1      -3.028   0.034   0.357  1.00  0.00    -0.025 P 
HETATM   10 CL1  UNL     1      -2.618   1.854   0.122  1.00  0.00    -0.097 Cl
HETATM   11  C13 UNL     1      -4.107   0.460   1.695  1.00  0.00     0.014 C 
HETATM   12  C14 UNL     1      -3.247   0.523   2.770  1.00  0.00    -0.021 C 
HETATM   13  C15 UNL     1      -1.785   0.455   3.030  1.00  0.00     0.063 C 
HETATM   14  C16 UNL     1      -0.902   0.176   1.893  1.00  0.00    -0.058 C 
HETATM   15  C17 UNL     1      -1.507  -0.490   0.915  1.00  0.00     0.022 C 
HETATM   16  C18 UNL     1       0.492   0.671   2.051  1.00  0.00     0.155 C 
HETATM   17  N3  UNL     1       1.320   0.508   0.860  1.00  0.00    -0.371 N 
HETATM   18  H17 UNL     1      -3.548  -1.164   0.497  1.00  0.00     0.076 HD
HETATM   19  H25 UNL     1       1.715  -0.394   1.294  1.00  0.00     0.161 HD
ENDROOT
BRANCH   1  20
HETATM   20  C4  UNL     1       3.928   0.649   1.515  1.00  0.00     0.028 C 
HETATM   21  C3  UNL     1       5.212   0.637   1.296  1.00  0.00     0.134 C 
BRANCH  21  22
HETATM   22  O1  UNL     1       5.681   0.457   0.020  1.00  0.00    -0.363 OA
BRANCH  22  23
HETATM   23  C2  UNL     1       6.337  -0.654  -0.498  1.00  0.00     0.170 C 
HETATM   24  C1  UNL     1       6.819  -0.292  -1.897  1.00  0.00     0.034 C 
ENDBRANCH  22  23
ENDBRANCH  21  22
ENDBRANCH   1  20
BRANCH   8  25
HETATM   25  C11 UNL     1      -4.870  -0.135  -1.781  1.00  0.00     0.148 C 
HETATM   26  C12 UNL     1      -5.733  -1.236  -1.200  1.00  0.00     0.044 C 
BRANCH  25  27
HETATM   27  O2  UNL     1      -4.822  -0.348  -3.152  1.00  0.00    -0.391 OA
HETATM   28  H16 UNL     1      -5.641  -0.191  -3.641  1.00  0.00     0.210 HD
ENDBRANCH  25  27
ENDBRANCH   8  25
TORSDOF 5
