REMARK  6 active torsions:
REMARK  status: ('A' for Active; 'I' for Inactive)
REMARK    1  A    between atoms: C2_2  and  O1_3 
REMARK    2  A    between atoms: O1_3  and  C3_4 
REMARK    3  A    between atoms: C3_4  and  C4_5 
REMARK    4  A    between atoms: C9_12  and  N2_13 
REMARK    5  A    between atoms: C15_19  and  N3_20 
REMARK    6  A    between atoms: C20_26  and  O4_27 
ROOT
HETATM    1  C4  UNL     1       3.862   0.450  -0.256  1.00  0.00     0.049 C 
HETATM    2  O2  UNL     1       3.995  -0.972  -0.459  1.00  0.00     0.000 OA
HETATM    3  C5  UNL     1       2.761  -1.707  -0.480  1.00  0.00     0.002 C 
HETATM    4  C6  UNL     1       1.473  -1.462  -0.480  1.00  0.00     0.032 C 
HETATM    5  C7  UNL     1       0.318  -0.639  -0.468  1.00  0.00     0.063 A 
HETATM    6  N1  UNL     1      -0.594  -1.488  -0.666  1.00  0.00    -0.283 NA
HETATM    7  C8  UNL     1      -2.006  -1.261  -0.758  1.00  0.00     0.206 A 
HETATM    8  C9  UNL     1      -2.352   0.151  -0.582  1.00  0.00     0.030 A 
HETATM    9  C16 UNL     1      -1.411   1.050  -0.373  1.00  0.00     0.042 A 
HETATM   10  C17 UNL     1       0.012   0.755  -0.295  1.00  0.00     0.016 A 
HETATM   11  C18 UNL     1       0.607   1.915  -0.096  1.00  0.00     0.148 C 
HETATM   12  O3  UNL     1       1.919   2.279   0.037  1.00  0.00    -0.360 OA
HETATM   13  C19 UNL     1       2.717   2.070   1.214  1.00  0.00     0.206 C 
HETATM   14  C20 UNL     1       3.329   0.706   1.122  1.00  0.00     0.149 C 
ENDROOT
BRANCH   8  15
HETATM   15  N2  UNL     1      -3.753   0.262  -0.684  1.00  0.00    -0.358 N 
HETATM   16  C10 UNL     1      -4.608  -0.224  -1.750  1.00  0.00     0.152 C 
HETATM   17  C11 UNL     1      -5.720  -1.065  -1.206  1.00  0.00    -0.005 C 
HETATM   18  C12 UNL     1      -5.977  -1.028   0.117  1.00  0.00    -0.082 C 
HETATM   19  C13 UNL     1      -7.086  -1.873   0.633  1.00  0.00     0.043 C 
HETATM   20  C14 UNL     1      -5.228  -0.197   1.112  1.00  0.00     0.080 C 
HETATM   21  C15 UNL     1      -4.524   0.927   0.352  1.00  0.00     0.181 C 
BRANCH  21  22
HETATM   22  N3  UNL     1      -5.540   1.798  -0.137  1.00  0.00    -0.410 N 
HETATM   23  H22 UNL     1      -6.501   1.561   0.151  1.00  0.00     0.151 HD
HETATM   24  H23 UNL     1      -5.412   2.187  -1.075  1.00  0.00     0.151 HD
ENDBRANCH  21  22
ENDBRANCH   8  15
BRANCH  14  25
HETATM   25  O4  UNL     1       4.173   0.389   2.128  1.00  0.00    -0.393 OA
HETATM   26  H29 UNL     1       4.212  -0.577   2.353  1.00  0.00     0.210 HD
ENDBRANCH  14  25
BRANCH   1  27
HETATM   27  C3  UNL     1       5.157   1.165  -0.480  1.00  0.00     0.175 C 
BRANCH  27  28
HETATM   28  O1  UNL     1       6.198   0.857   0.324  1.00  0.00    -0.391 OA
BRANCH  28  29
HETATM   29  C2  UNL     1       6.620  -0.446   0.286  1.00  0.00     0.163 C 
HETATM   30  C1  UNL     1       7.828  -0.572   1.220  1.00  0.00     0.033 C 
ENDBRANCH  28  29
ENDBRANCH  27  28
ENDBRANCH   1  27
TORSDOF 6
