REMARK  5 active torsions:
REMARK  status: ('A' for Active; 'I' for Inactive)
REMARK    1  A    between atoms: C2_2  and  C3_4 
REMARK    2  A    between atoms: C4_6  and  C5_7 
REMARK    3  A    between atoms: C5_7  and  N1_8 
REMARK    4  A    between atoms: C11_17  and  C12_18 
REMARK    5  A    between atoms: C12_18  and  C13_19 
ROOT
HETATM    1  N1  UNL     1      -0.853   0.451  -0.064  1.00  0.00    -0.377 N 
HETATM    2  C6  UNL     1       0.098   1.311  -0.710  1.00  0.00     0.271 C 
HETATM    3  N2  UNL     1       1.120   1.731   0.181  1.00  0.00    -0.259 N 
HETATM    4  C7  UNL     1       1.720   2.809   0.363  1.00  0.00     0.230 A 
HETATM    5  N3  UNL     1       2.185   1.836   1.241  1.00  0.00    -0.235 N 
HETATM    6  C8  UNL     1       3.104   1.812   2.094  1.00  0.00     0.252 C 
HETATM    7  O1  UNL     1       2.549   0.531   2.182  1.00  0.00    -0.340 OA
HETATM    8  C9  UNL     1       3.188  -0.614   1.558  1.00  0.00     0.212 C 
HETATM    9  C10 UNL     1       2.191  -1.269   0.665  1.00  0.00    -0.042 C 
HETATM   10  C11 UNL     1       2.597  -1.286  -0.636  1.00  0.00    -0.018 C 
HETATM   11  C14 UNL     1       0.855  -1.830   0.953  1.00  0.00     0.152 C 
HETATM   12  N4  UNL     1      -0.073  -1.098   1.653  1.00  0.00    -0.403 N 
HETATM   13  C15 UNL     1      -0.637   0.111   1.261  1.00  0.00     0.237 C 
HETATM   14  H21 UNL     1      -0.414  -1.461   2.563  1.00  0.00     0.155 HD
ENDROOT
BRANCH   1  15
HETATM   15  C5  UNL     1      -1.740  -0.168  -0.917  1.00  0.00     0.149 C 
BRANCH  15  16
HETATM   16  C4  UNL     1      -2.743  -1.067  -0.291  1.00  0.00     0.015 C 
HETATM   17  C3  UNL     1      -4.068  -1.076  -0.259  1.00  0.00     0.043 C 
HETATM   18 CL1  UNL     1      -4.852  -2.358   0.620  1.00  0.00    -0.086 Cl
BRANCH  17  19
HETATM   19  C2  UNL     1      -4.922  -0.061  -0.926  1.00  0.00     0.210 C 
HETATM   20  C1  UNL     1      -5.793   0.652   0.087  1.00  0.00     0.051 C 
HETATM   21  F1  UNL     1      -5.785  -0.747  -1.763  1.00  0.00    -0.244 F 
ENDBRANCH  17  19
ENDBRANCH  15  16
ENDBRANCH   1  15
BRANCH  10  22
HETATM   22  C12 UNL     1       3.757  -0.835  -1.416  1.00  0.00     0.058 C 
BRANCH  22  23
HETATM   23  C13 UNL     1       3.308   0.147  -2.455  1.00  0.00     0.225 C 
HETATM   24  F2  UNL     1       4.358   0.603  -3.233  1.00  0.00    -0.255 F 
ENDBRANCH  22  23
ENDBRANCH  10  22
TORSDOF 5
