REMARK  5 active torsions:
REMARK  status: ('A' for Active; 'I' for Inactive)
REMARK    1  A    between atoms: C2_2  and  C3_3 
REMARK    2  A    between atoms: C5_7  and  N3_8 
REMARK    3  A    between atoms: N3_8  and  C6_9 
REMARK    4  A    between atoms: C15_20  and  C16_21 
REMARK    5  A    between atoms: C16_21  and  O2_22 
ROOT
HETATM    1  C3  UNL     1      -2.418   1.624  -0.652  1.00  0.00     0.046 C 
HETATM    2  N1  UNL     1      -1.149   1.689  -0.960  1.00  0.00    -0.236 NA
HETATM    3  C4  UNL     1      -0.155   0.782  -0.597  1.00  0.00     0.301 C 
HETATM    4  N2  UNL     1       0.566   0.278   0.188  1.00  0.00    -0.381 NA
HETATM    5  C5  UNL     1       1.345  -0.243   1.111  1.00  0.00     0.180 C 
HETATM    6  C12 UNL     1       0.683  -0.963   1.998  1.00  0.00     0.066 C 
HETATM    7  C13 UNL     1      -0.688  -1.343   2.238  1.00  0.00     0.029 C 
HETATM    8  C14 UNL     1      -1.844  -1.092   1.622  1.00  0.00     0.136 C 
HETATM    9  O1  UNL     1      -1.833  -0.305   0.500  1.00  0.00    -0.350 OA
HETATM   10  C15 UNL     1      -2.934   0.496   0.170  1.00  0.00     0.199 C 
ENDROOT
BRANCH   5  11
HETATM   11  N3  UNL     1       2.709   0.013   1.051  1.00  0.00    -0.331 N 
HETATM   12  H7  UNL     1       2.710   0.831   1.683  1.00  0.00     0.168 HD
BRANCH  11  13
HETATM   13  C6  UNL     1       3.845  -0.547   0.405  1.00  0.00     0.036 A 
HETATM   14  C7  UNL     1       3.657  -1.649  -0.401  1.00  0.00     0.029 A 
HETATM   15  C8  UNL     1       4.821  -2.139  -1.000  1.00  0.00     0.004 A 
HETATM   16  C9  UNL     1       6.053  -1.550  -0.789  1.00  0.00     0.024 A 
HETATM   17  C10 UNL     1       6.164  -0.431   0.044  1.00  0.00     0.036 A 
HETATM   18 CL1  UNL     1       7.749   0.282   0.281  1.00  0.00    -0.084 Cl
HETATM   19  C11 UNL     1       5.035   0.094   0.664  1.00  0.00     0.053 A 
ENDBRANCH  11  13
ENDBRANCH   5  11
BRANCH   1  20
HETATM   20  C2  UNL     1      -3.171   2.776  -1.219  1.00  0.00     0.053 C 
HETATM   21  C1  UNL     1      -4.168   2.277  -2.230  1.00  0.00     0.011 C 
ENDBRANCH   1  20
BRANCH  10  22
HETATM   22  C16 UNL     1      -3.983  -0.329  -0.503  1.00  0.00     0.202 C 
BRANCH  22  23
HETATM   23  O2  UNL     1      -4.405  -1.366   0.356  1.00  0.00    -0.398 OA
HETATM   24  H18 UNL     1      -4.804  -2.119  -0.128  1.00  0.00     0.209 HD
ENDBRANCH  22  23
ENDBRANCH  10  22
TORSDOF 5
