REMARK  7 active torsions:
REMARK  status: ('A' for Active; 'I' for Inactive)
REMARK    1  A    between atoms: C5_5  and  C6_6 
REMARK    2  A    between atoms: C6_6  and  N1_7 
REMARK    3  A    between atoms: N1_7  and  C7_8 
REMARK    4  A    between atoms: C13_17  and  C14_18 
REMARK    5  A    between atoms: C14_18  and  O2_19 
REMARK    6  A    between atoms: C16_21  and  C17_22 
REMARK    7  A    between atoms: C17_22  and  O3_23 
ROOT
HETATM    1  C1  UNL     1       6.976   2.549   0.189  1.00  0.00     0.017 C 
HETATM    2  C2  UNL     1       6.679   1.381   0.144  1.00  0.00    -0.083 C 
HETATM    3  C3  UNL     1       6.345  -0.014   0.106  1.00  0.00    -0.012 C 
HETATM    4  C4  UNL     1       7.013  -1.058   0.926  1.00  0.00     0.058 C 
HETATM    5  C5  UNL     1       5.382  -0.432  -0.701  1.00  0.00     0.008 C 
ENDROOT
BRANCH   5   6
HETATM    6  C6  UNL     1       4.571   0.412  -1.614  1.00  0.00     0.149 C 
BRANCH   6   7
HETATM    7  N1  UNL     1       3.152   0.352  -1.324  1.00  0.00    -0.370 N 
HETATM    8  H8  UNL     1       2.553  -0.012  -2.121  1.00  0.00     0.161 HD
BRANCH   7   9
HETATM    9  C7  UNL     1       2.552   0.736  -0.074  1.00  0.00     0.138 A 
HETATM   10  N2  UNL     1       3.460   1.156   0.819  1.00  0.00    -0.224 NA
HETATM   11  C8  UNL     1       3.053   1.539   2.032  1.00  0.00     0.236 A 
HETATM   12  N3  UNL     1       1.728   1.511   2.378  1.00  0.00    -0.232 NA
HETATM   13  C9  UNL     1       0.857   1.093   1.479  1.00  0.00     0.127 A 
HETATM   14  C10 UNL     1       1.173   0.668   0.177  1.00  0.00     0.049 A 
HETATM   15  C20 UNL     1      -0.485   0.895   1.443  1.00  0.00    -0.015 C 
HETATM   16  C11 UNL     1       0.327   0.187  -0.938  1.00  0.00     0.042 C 
HETATM   17  C12 UNL     1      -0.743  -0.610  -0.961  1.00  0.00     0.136 C 
HETATM   18  O1  UNL     1      -1.605  -1.358  -0.207  1.00  0.00    -0.353 OA
HETATM   19  C13 UNL     1      -3.007  -1.245  -0.316  1.00  0.00     0.183 C 
HETATM   20  C16 UNL     1      -3.383   0.204  -0.027  1.00  0.00     0.195 C 
HETATM   21  O4  UNL     1      -2.879   0.498   1.326  1.00  0.00    -0.293 OA
HETATM   22  C19 UNL     1      -1.571   0.722   1.398  1.00  0.00     0.062 C 
BRANCH  19  23
HETATM   23  C14 UNL     1      -3.574  -2.173   0.729  1.00  0.00     0.202 C 
BRANCH  23  24
HETATM   24  O2  UNL     1      -4.947  -2.180   0.756  1.00  0.00    -0.393 OA
HETATM   25  C15 UNL     1      -5.301  -3.089   1.777  1.00  0.00     0.201 C 
ENDBRANCH  23  24
ENDBRANCH  19  23
BRANCH  20  26
HETATM   26  C17 UNL     1      -4.786   0.562  -0.144  1.00  0.00     0.203 C 
BRANCH  26  27
HETATM   27  O3  UNL     1      -4.907   1.948   0.114  1.00  0.00    -0.393 OA
HETATM   28  C18 UNL     1      -6.259   2.288   0.001  1.00  0.00     0.201 C 
ENDBRANCH  26  27
ENDBRANCH  20  26
ENDBRANCH   7   9
ENDBRANCH   6   7
ENDBRANCH   5   6
TORSDOF 7
