REMARK  6 active torsions:
REMARK  status: ('A' for Active; 'I' for Inactive)
REMARK    1  A    between atoms: O1_2  and  C2_3 
REMARK    2  A    between atoms: C2_3  and  C3_4 
REMARK    3  A    between atoms: C9_13  and  N3_14 
REMARK    4  A    between atoms: N3_14  and  C10_15 
REMARK    5  A    between atoms: C11_16  and  C12_17 
REMARK    6  A    between atoms: C13_18  and  C14_19 
ROOT
HETATM    1  C3  UNL     1      -4.010   0.240  -0.356  1.00  0.00     0.177 C 
HETATM    2  C4  UNL     1      -4.208  -1.021  -1.158  1.00  0.00     0.210 C 
HETATM    3  O2  UNL     1      -3.220  -1.040  -2.171  1.00  0.00    -0.346 OA
HETATM    4  C5  UNL     1      -1.924  -0.715  -1.744  1.00  0.00     0.104 A 
HETATM    5  C6  UNL     1      -0.871  -1.010  -2.617  1.00  0.00     0.072 A 
HETATM    6  C7  UNL     1       0.404  -0.681  -2.176  1.00  0.00     0.075 A 
HETATM    7  N1  UNL     1       1.390  -0.979  -3.038  1.00  0.00    -0.241 NA
HETATM    8  C8  UNL     1       2.681  -0.702  -2.708  1.00  0.00     0.236 A 
HETATM    9  N2  UNL     1       2.926  -0.130  -1.511  1.00  0.00    -0.224 NA
HETATM   10  C9  UNL     1       1.994   0.188  -0.617  1.00  0.00     0.141 A 
HETATM   11  C16 UNL     1       0.687  -0.097  -0.959  1.00  0.00     0.042 A 
HETATM   12  C17 UNL     1      -0.371   0.181  -0.120  1.00  0.00     0.057 A 
HETATM   13  C18 UNL     1      -1.659  -0.132  -0.524  1.00  0.00     0.103 A 
HETATM   14  O3  UNL     1      -2.750   0.133   0.295  1.00  0.00    -0.339 OA
ENDROOT
BRANCH  10  15
HETATM   15  N3  UNL     1       2.295   0.795   0.645  1.00  0.00    -0.350 N 
HETATM   16  H11 UNL     1       2.452   0.318   1.582  1.00  0.00     0.166 HD
BRANCH  15  17
HETATM   17  C10 UNL     1       2.427   2.226   0.806  1.00  0.00     0.086 C 
HETATM   18  C11 UNL     1       3.665   2.711   1.004  1.00  0.00    -0.004 C 
BRANCH  18  19
HETATM   19  C12 UNL     1       4.311   1.431   0.952  1.00  0.00     0.045 C 
HETATM   20  C13 UNL     1       5.570   1.057   1.064  1.00  0.00    -0.014 C 
BRANCH  20  21
HETATM   21  C14 UNL     1       5.173  -0.361   0.876  1.00  0.00     0.042 C 
HETATM   22  C15 UNL     1       5.688  -1.584   0.813  1.00  0.00     0.146 C 
HETATM   23  I1  UNL     1       7.725  -2.021   1.003  1.00  0.00    -0.194 I 
ENDBRANCH  20  21
ENDBRANCH  18  19
ENDBRANCH  15  17
ENDBRANCH  10  15
BRANCH   1  24
HETATM   24  C2  UNL     1      -5.117   0.440   0.658  1.00  0.00     0.201 C 
BRANCH  24  25
HETATM   25  O1  UNL     1      -5.184  -0.620   1.548  1.00  0.00    -0.393 OA
HETATM   26  C1  UNL     1      -6.222  -0.368   2.447  1.00  0.00     0.201 C 
ENDBRANCH  24  25
ENDBRANCH   1  24
TORSDOF 6
