REMARK  9 active torsions:
REMARK  status: ('A' for Active; 'I' for Inactive)
REMARK    1  A    between atoms: O1_2  and  C2_3 
REMARK    2  A    between atoms: C2_3  and  C3_4 
REMARK    3  A    between atoms: C3_4  and  O2_5 
REMARK    4  A    between atoms: O2_5  and  C4_6 
REMARK    5  A    between atoms: C8_12  and  N3_13 
REMARK    6  A    between atoms: N3_13  and  C9_14 
REMARK    7  A    between atoms: C9_14  and  C10_15 
REMARK    8  A    between atoms: C17_23  and  C18_24 
REMARK    9  A    between atoms: C18_24  and  O4_25 
ROOT
HETATM    1  C4  UNL     1       2.873  -0.239   0.526  1.00  0.00     0.080 A 
HETATM    2  C5  UNL     1       2.019  -1.240   0.653  1.00  0.00     0.069 A 
HETATM    3  C6  UNL     1       0.645  -0.954   0.287  1.00  0.00     0.093 A 
HETATM    4  N1  UNL     1      -0.066  -2.015   0.462  1.00  0.00    -0.239 NA
HETATM    5  C7  UNL     1      -1.451  -2.386   0.291  1.00  0.00     0.236 A 
HETATM    6  N2  UNL     1      -2.519  -1.775  -0.110  1.00  0.00    -0.225 NA
HETATM    7  C8  UNL     1      -2.857  -0.453  -0.577  1.00  0.00     0.125 A 
HETATM    8  C14 UNL     1      -2.161   0.658  -0.769  1.00  0.00     0.053 A 
HETATM    9  C15 UNL     1      -0.754   0.999  -0.585  1.00  0.00     0.043 A 
HETATM   10  C16 UNL     1       0.343   0.391  -0.178  1.00  0.00     0.098 A 
HETATM   11  O3  UNL     1       1.291   1.386  -0.284  1.00  0.00    -0.335 OA
HETATM   12  C17 UNL     1       2.640   1.149   0.060  1.00  0.00     0.209 A 
ENDROOT
BRANCH   7  13
HETATM   13  N3  UNL     1      -4.256  -0.416  -0.873  1.00  0.00    -0.371 N 
HETATM   14  H10 UNL     1      -4.650  -1.274  -1.362  1.00  0.00     0.161 HD
BRANCH  13  15
HETATM   15  C9  UNL     1      -5.146   0.686  -0.559  1.00  0.00     0.148 C 
BRANCH  15  16
HETATM   16  C10 UNL     1      -6.537   0.360  -1.023  1.00  0.00    -0.005 C 
HETATM   17  C11 UNL     1      -7.536   0.313  -0.133  1.00  0.00    -0.090 C 
HETATM   18  C12 UNL     1      -8.902  -0.013  -0.624  1.00  0.00     0.042 C 
HETATM   19  C13 UNL     1      -7.270   0.580   1.289  1.00  0.00     0.042 C 
ENDBRANCH  15  16
ENDBRANCH  13  15
ENDBRANCH   7  13
BRANCH  12  20
HETATM   20  C18 UNL     1       2.954   2.161   1.144  1.00  0.00     0.206 C 
BRANCH  20  21
HETATM   21  O4  UNL     1       4.232   2.135   1.617  1.00  0.00    -0.393 OA
HETATM   22  C19 UNL     1       5.235   2.395   0.722  1.00  0.00     0.201 C 
ENDBRANCH  20  21
ENDBRANCH  12  20
BRANCH   1  23
HETATM   23  O2  UNL     1       4.139  -0.653   0.909  1.00  0.00    -0.350 OA
BRANCH  23  24
HETATM   24  C3  UNL     1       5.041  -1.388   0.108  1.00  0.00     0.201 C 
BRANCH  24  25
HETATM   25  C2  UNL     1       6.327  -1.693   0.779  1.00  0.00     0.193 C 
BRANCH  25  26
HETATM   26  O1  UNL     1       7.199  -2.416  -0.002  1.00  0.00    -0.394 OA
HETATM   27  C1  UNL     1       7.539  -1.757  -1.158  1.00  0.00     0.201 C 
ENDBRANCH  25  26
ENDBRANCH  24  25
ENDBRANCH  23  24
ENDBRANCH   1  23
TORSDOF 9
