REMARK  5 active torsions:
REMARK  status: ('A' for Active; 'I' for Inactive)
REMARK    1  A    between atoms: O1_2  and  C2_3 
REMARK    2  A    between atoms: C2_3  and  C3_4 
REMARK    3  A    between atoms: C8_11  and  N2_12 
REMARK    4  A    between atoms: C19_24  and  C20_25 
REMARK    5  A    between atoms: C20_25  and  O4_26 
ROOT
HETATM    1  C3  UNL     1      -3.503   0.555  -0.148  1.00  0.00     0.183 C 
HETATM    2  O2  UNL     1      -2.352  -0.073  -0.739  1.00  0.00    -0.343 OA
HETATM    3  C4  UNL     1      -1.841  -1.222  -0.161  1.00  0.00     0.078 C 
HETATM    4  C5  UNL     1      -0.557  -1.576   0.056  1.00  0.00    -0.012 A 
HETATM    5  C6  UNL     1      -0.308  -2.890   0.705  1.00  0.00     0.088 A 
HETATM    6  C7  UNL     1       1.152  -3.064   0.856  1.00  0.00     0.096 A 
HETATM    7  N1  UNL     1       2.069  -2.255   0.496  1.00  0.00    -0.247 NA
HETATM    8  C8  UNL     1       1.816  -1.006  -0.131  1.00  0.00     0.132 A 
HETATM    9  C16 UNL     1       0.532  -0.671  -0.350  1.00  0.00    -0.007 A 
HETATM   10  C17 UNL     1       0.286   0.629  -1.011  1.00  0.00     0.053 C 
HETATM   11  C18 UNL     1      -2.930  -2.148   0.249  1.00  0.00     0.233 C 
HETATM   12  O3  UNL     1      -3.744  -1.461   1.140  1.00  0.00    -0.375 OA
HETATM   13  C19 UNL     1      -4.406  -0.416   0.550  1.00  0.00     0.176 C 
ENDROOT
BRANCH   8  14
HETATM   14  N2  UNL     1       2.899  -0.165  -0.503  1.00  0.00    -0.357 N 
HETATM   15  C9  UNL     1       3.717  -0.277  -1.705  1.00  0.00     0.152 C 
HETATM   16  C10 UNL     1       5.145   0.016  -1.427  1.00  0.00    -0.005 C 
HETATM   17  C11 UNL     1       5.570   0.394  -0.236  1.00  0.00    -0.084 C 
HETATM   18  C12 UNL     1       7.037   0.618  -0.245  1.00  0.00     0.043 C 
HETATM   19  C13 UNL     1       4.649   0.557   0.932  1.00  0.00     0.058 C 
HETATM   20  C14 UNL     1       3.290   0.930   0.339  1.00  0.00     0.086 C 
HETATM   21  C15 UNL     1       2.273   1.240   1.406  1.00  0.00     0.032 C 
ENDBRANCH   8  14
BRANCH   1  22
HETATM   22  C2  UNL     1      -2.925   1.587   0.795  1.00  0.00     0.202 C 
BRANCH  22  23
HETATM   23  O1  UNL     1      -3.833   2.319   1.504  1.00  0.00    -0.393 OA
HETATM   24  C1  UNL     1      -4.663   3.059   0.679  1.00  0.00     0.201 C 
ENDBRANCH  22  23
ENDBRANCH   1  22
BRANCH  13  25
HETATM   25  C20 UNL     1      -5.542  -0.929  -0.274  1.00  0.00     0.198 C 
BRANCH  25  26
HETATM   26  O4  UNL     1      -6.282   0.063  -0.917  1.00  0.00    -0.398 OA
HETATM   27  H30 UNL     1      -5.906   0.212  -1.811  1.00  0.00     0.209 HD
ENDBRANCH  25  26
ENDBRANCH  13  25
TORSDOF 5
