REMARK  5 active torsions:
REMARK  status: ('A' for Active; 'I' for Inactive)
REMARK    1  A    between atoms: C2_2  and  C3_3 
REMARK    2  A    between atoms: C7_8  and  N1_9 
REMARK    3  A    between atoms: N1_9  and  C8_10 
REMARK    4  A    between atoms: C18_24  and  C19_25 
REMARK    5  A    between atoms: C19_25  and  O3_26 
ROOT
HETATM    1  C3  UNL     1      -3.187  -0.522   0.769  1.00  0.00     0.160 C 
HETATM    2  O1  UNL     1      -1.835  -0.453   1.290  1.00  0.00    -0.340 OA
HETATM    3  C4  UNL     1      -0.973   0.434   0.701  1.00  0.00     0.103 A 
HETATM    4  C5  UNL     1       0.386   0.281   0.521  1.00  0.00     0.057 A 
HETATM    5  C6  UNL     1       1.234   1.186  -0.074  1.00  0.00     0.042 A 
HETATM    6  C7  UNL     1       2.573   0.991  -0.231  1.00  0.00     0.142 A 
HETATM    7  N2  UNL     1       3.187   2.006  -0.835  1.00  0.00    -0.224 NA
HETATM    8  C14 UNL     1       2.637   3.139  -1.277  1.00  0.00     0.236 A 
HETATM    9  N3  UNL     1       1.308   3.300  -1.106  1.00  0.00    -0.241 NA
HETATM   10  C15 UNL     1       0.577   2.320  -0.497  1.00  0.00     0.075 A 
HETATM   11  C16 UNL     1      -0.772   2.550  -0.354  1.00  0.00     0.072 A 
HETATM   12  C17 UNL     1      -1.570   1.587   0.259  1.00  0.00     0.105 A 
HETATM   13  O2  UNL     1      -2.905   1.850   0.383  1.00  0.00    -0.338 OA
HETATM   14  C18 UNL     1      -3.774   0.824   0.883  1.00  0.00     0.182 C 
ENDROOT
BRANCH   6  15
HETATM   15  N1  UNL     1       3.176  -0.200   0.227  1.00  0.00    -0.340 N 
HETATM   16  H8  UNL     1       2.619  -0.942   0.683  1.00  0.00     0.167 HD
BRANCH  15  17
HETATM   17  C8  UNL     1       4.538  -0.574   0.158  1.00  0.00     0.035 A 
HETATM   18  C9  UNL     1       5.507   0.242  -0.374  1.00  0.00     0.029 A 
HETATM   19  C10 UNL     1       6.840  -0.102  -0.453  1.00  0.00     0.004 A 
HETATM   20  C11 UNL     1       7.285  -1.316   0.008  1.00  0.00     0.024 A 
HETATM   21  C12 UNL     1       6.342  -2.160   0.547  1.00  0.00     0.036 A 
HETATM   22 CL1  UNL     1       6.833  -3.713   1.151  1.00  0.00    -0.084 Cl
HETATM   23  C13 UNL     1       5.027  -1.780   0.608  1.00  0.00     0.053 A 
ENDBRANCH  15  17
ENDBRANCH   6  15
BRANCH   1  24
HETATM   24  C2  UNL     1      -3.045  -1.091  -0.601  1.00  0.00     0.031 C 
HETATM   25  C1  UNL     1      -2.404  -2.476  -0.453  1.00  0.00     0.007 C 
ENDBRANCH   1  24
BRANCH  14  26
HETATM   26  C19 UNL     1      -5.110   1.122   0.333  1.00  0.00     0.202 C 
BRANCH  26  27
HETATM   27  O3  UNL     1      -6.200   0.421   0.570  1.00  0.00    -0.393 OA
HETATM   28  C20 UNL     1      -6.385  -0.831   0.154  1.00  0.00     0.201 C 
ENDBRANCH  26  27
ENDBRANCH  14  26
TORSDOF 5
