REMARK  4 active torsions:
REMARK  status: ('A' for Active; 'I' for Inactive)
REMARK    1  A    between atoms: O1_2  and  C2_3 
REMARK    2  A    between atoms: C2_3  and  C3_4 
REMARK    3  A    between atoms: C7_10  and  C8_11 
REMARK    4  A    between atoms: C19_26  and  O4_27 
ROOT
HETATM    1  C3  UNL     1       3.138   0.591   0.574  1.00  0.00     0.206 C 
HETATM    2  O2  UNL     1       2.148   1.184  -0.128  1.00  0.00    -0.270 OA
HETATM    3  N1  UNL     1       0.895   0.729   0.102  1.00  0.00    -0.264 N 
HETATM    4  C4  UNL     1       0.220  -0.471  -0.286  1.00  0.00     0.088 A 
HETATM    5  C5  UNL     1      -1.123  -0.271  -0.228  1.00  0.00     0.050 A 
HETATM    6  C6  UNL     1      -1.976  -1.302  -0.562  1.00  0.00     0.025 A 
HETATM    7  C7  UNL     1      -3.315  -1.000  -0.463  1.00  0.00     0.081 A 
HETATM    8  N2  UNL     1      -4.174  -1.996  -0.775  1.00  0.00    -0.240 NA
HETATM    9  C14 UNL     1      -3.780  -3.211  -1.161  1.00  0.00     0.234 A 
HETATM   10  N3  UNL     1      -2.447  -3.476  -1.250  1.00  0.00    -0.241 NA
HETATM   11  C15 UNL     1      -1.528  -2.542  -0.958  1.00  0.00     0.073 A 
HETATM   12  C16 UNL     1      -0.163  -2.734  -1.014  1.00  0.00     0.071 A 
HETATM   13  C17 UNL     1       0.714  -1.721  -0.685  1.00  0.00     0.099 A 
HETATM   14  O3  UNL     1       1.998  -2.256  -0.852  1.00  0.00    -0.346 OA
HETATM   15  C18 UNL     1       3.275  -1.685  -0.520  1.00  0.00     0.210 C 
HETATM   16  C19 UNL     1       3.143  -0.878   0.725  1.00  0.00     0.176 C 
HETATM   17  H7  UNL     1       0.225   1.314   0.668  1.00  0.00     0.194 HD
ENDROOT
BRANCH   7  18
HETATM   18  C8  UNL     1      -3.967   0.235  -0.066  1.00  0.00    -0.005 A 
HETATM   19  C9  UNL     1      -3.781   1.528  -0.497  1.00  0.00     0.014 A 
HETATM   20  C10 UNL     1      -4.498   2.576   0.033  1.00  0.00     0.002 A 
HETATM   21  C11 UNL     1      -5.441   2.400   1.022  1.00  0.00     0.018 A 
HETATM   22  C12 UNL     1      -5.663   1.121   1.487  1.00  0.00     0.007 A 
HETATM   23  I1  UNL     1      -7.090   0.815   2.991  1.00  0.00    -0.045 I 
HETATM   24  C13 UNL     1      -4.932   0.097   0.938  1.00  0.00     0.032 A 
ENDBRANCH   7  18
BRANCH   1  25
HETATM   25  C2  UNL     1       4.459   1.078  -0.022  1.00  0.00     0.204 C 
BRANCH  25  26
HETATM   26  O1  UNL     1       4.573   2.454   0.071  1.00  0.00    -0.393 OA
HETATM   27  C1  UNL     1       5.790   2.847  -0.485  1.00  0.00     0.201 C 
ENDBRANCH  25  26
ENDBRANCH   1  25
BRANCH  16  28
HETATM   28  O4  UNL     1       2.098  -1.289   1.566  1.00  0.00    -0.391 OA
HETATM   29  H18 UNL     1       2.335  -1.122   2.513  1.00  0.00     0.210 HD
ENDBRANCH  16  28
TORSDOF 4
