REMARK  4 active torsions:
REMARK  status: ('A' for Active; 'I' for Inactive)
REMARK    1  A    between atoms: C9_11  and  N1_12 
REMARK    2  A    between atoms: C9_11  and  N3_15 
REMARK    3  A    between atoms: C10_13  and  N2_14 
REMARK    4  A    between atoms: N3_15  and  C11_16 
ROOT
HETATM    1  C1  UNL     1       4.317  -1.871   0.944  1.00  0.00     0.051 C 
HETATM    2  C2  UNL     1       3.918  -0.623   0.255  1.00  0.00    -0.025 A 
HETATM    3  C3  UNL     1       4.720   0.470   0.016  1.00  0.00     0.051 A 
HETATM    4  C4  UNL     1       4.266   1.598  -0.638  1.00  0.00     0.117 A 
HETATM    5  F1  UNL     1       5.089   2.653  -0.853  1.00  0.00    -0.206 F 
HETATM    6  C5  UNL     1       2.950   1.591  -1.053  1.00  0.00     0.052 A 
HETATM    7  C6  UNL     1       2.109   0.494  -0.825  1.00  0.00    -0.017 A 
HETATM    8  C7  UNL     1       2.598  -0.613  -0.169  1.00  0.00     0.081 A 
HETATM    9  O1  UNL     1       1.611  -1.576  -0.047  1.00  0.00    -0.346 OA
HETATM   10  C8  UNL     1       0.287  -1.191   0.326  1.00  0.00     0.231 C 
HETATM   11  C9  UNL     1      -0.217   0.019  -0.375  1.00  0.00     0.152 C 
HETATM   12  C17 UNL     1       0.729   0.658  -1.345  1.00  0.00     0.099 C 
ENDROOT
BRANCH  11  13
HETATM   13  N1  UNL     1      -0.592   1.072   0.585  1.00  0.00    -0.251 NA
HETATM   14  C10 UNL     1      -0.928   2.202   0.038  1.00  0.00     0.197 C 
BRANCH  14  15
HETATM   15  N2  UNL     1      -1.258   3.102   1.114  1.00  0.00    -0.394 N 
HETATM   16  H9  UNL     1      -1.796   3.708   1.801  1.00  0.00     0.156 HD
HETATM   17  H10 UNL     1      -0.942   3.713   1.906  1.00  0.00     0.156 HD
ENDBRANCH  14  15
ENDBRANCH  11  13
BRANCH  11  18
HETATM   18  N3  UNL     1      -1.466  -0.253  -1.103  1.00  0.00    -0.360 N 
HETATM   19  H11 UNL     1      -1.506  -0.136  -2.150  1.00  0.00     0.162 HD
BRANCH  18  20
HETATM   20  C11 UNL     1      -2.703  -0.680  -0.551  1.00  0.00     0.031 A 
HETATM   21  C12 UNL     1      -3.857  -0.929  -1.302  1.00  0.00     0.032 A 
HETATM   22  C13 UNL     1      -5.007  -1.338  -0.663  1.00  0.00     0.046 A 
HETATM   23  C14 UNL     1      -5.112  -1.525   0.690  1.00  0.00     0.138 A 
HETATM   24  F2  UNL     1      -6.313  -1.928   1.152  1.00  0.00    -0.204 F 
HETATM   25  C15 UNL     1      -3.964  -1.276   1.437  1.00  0.00     0.074 A 
HETATM   26 CL1  UNL     1      -4.115  -1.520   3.169  1.00  0.00    -0.081 Cl
HETATM   27  C16 UNL     1      -2.804  -0.867   0.813  1.00  0.00     0.056 A 
ENDBRANCH  18  20
ENDBRANCH  11  18
TORSDOF 4
