REMARK  1 active torsions:
REMARK  status: ('A' for Active; 'I' for Inactive)
REMARK    1  A    between atoms: C8_11  and  C9_12 
ROOT
HETATM    1  C1  UNL     1      -4.567   0.630  -0.673  1.00  0.00     0.137 C 
HETATM    2  N1  UNL     1      -3.663  -0.124   0.208  1.00  0.00    -0.222 NA
HETATM    3  C2  UNL     1      -3.474  -1.423  -0.378  1.00  0.00     0.117 C 
HETATM    4  C3  UNL     1      -2.615  -2.299   0.527  1.00  0.00     0.024 C 
HETATM    5  C4  UNL     1      -1.430  -2.962   0.659  1.00  0.00     0.217 A 
HETATM    6  C5  UNL     1      -0.102  -3.647   0.687  1.00  0.00     0.236 A 
HETATM    7  O1  UNL     1      -0.873  -3.814   1.671  1.00  0.00    -0.341 OA
HETATM    8  N2  UNL     1       0.275  -3.086  -0.638  1.00  0.00    -0.256 NA
HETATM    9  C6  UNL     1       0.955  -2.015  -0.628  1.00  0.00     0.116 C 
HETATM   10  C7  UNL     1       1.686  -0.868  -0.165  1.00  0.00     0.051 C 
HETATM   11  C8  UNL     1       2.223   0.193  -0.666  1.00  0.00     0.067 C 
HETATM   12  N3  UNL     1       1.906   0.290  -2.075  1.00  0.00    -0.262 NA
HETATM   13  C15 UNL     1       0.578   0.419  -2.265  1.00  0.00     0.121 C 
HETATM   14  C16 UNL     1      -0.754   0.505  -1.573  1.00  0.00     0.385 C 
HETATM   15  N4  UNL     1      -1.120   0.489  -0.355  1.00  0.00    -0.339 NA
HETATM   16  N5  UNL     1      -2.394   0.571   0.179  1.00  0.00    -0.276 N 
HETATM   17  H16 UNL     1      -2.528   1.431   0.791  1.00  0.00     0.200 HD
ENDROOT
BRANCH  11  18
HETATM   18  C9  UNL     1       2.867   1.045   0.252  1.00  0.00    -0.006 A 
HETATM   19  C10 UNL     1       3.467   2.105  -0.378  1.00  0.00     0.014 A 
HETATM   20  C11 UNL     1       4.125   3.078   0.361  1.00  0.00     0.002 A 
HETATM   21  C12 UNL     1       4.145   2.935   1.728  1.00  0.00     0.019 A 
HETATM   22  C13 UNL     1       3.530   1.857   2.326  1.00  0.00     0.011 A 
HETATM   23 BR1  UNL     1       3.617   1.754   4.226  1.00  0.00    -0.051 Br
HETATM   24  C14 UNL     1       2.880   0.894   1.591  1.00  0.00     0.032 A 
ENDBRANCH  11  18
TORSDOF 1
