REMARK  5 active torsions:
REMARK  status: ('A' for Active; 'I' for Inactive)
REMARK    1  A    between atoms: B1_2  and  C2_3 
REMARK    2  A    between atoms: C6_8  and  N2_9 
REMARK    3  A    between atoms: C14_19  and  C15_20 
REMARK    4  A    between atoms: C15_20  and  N3_21 
REMARK    5  A    between atoms: C18_24  and  C19_25 
REMARK       I    between atoms: C19_25  and  N4_26 
ROOT
HETATM    1  C2  UNL     1      -1.004   2.959  -0.467  1.00  0.00    -0.092 A 
HETATM    2  C3  UNL     1      -0.103   3.326  -1.384  1.00  0.00     0.027 A 
HETATM    3  C4  UNL     1       0.968   2.310  -1.385  1.00  0.00     0.061 A 
HETATM    4  N1  UNL     1       2.039   2.186  -2.055  1.00  0.00    -0.283 NA
HETATM    5  C5  UNL     1       2.950   1.075  -1.869  1.00  0.00     0.206 A 
HETATM    6  C6  UNL     1       2.497   0.121  -0.830  1.00  0.00     0.030 A 
HETATM    7  C12 UNL     1       1.383   0.200  -0.096  1.00  0.00     0.041 A 
HETATM    8  C13 UNL     1       0.546   1.361  -0.371  1.00  0.00     0.002 A 
HETATM    9  C14 UNL     1      -0.617   1.703   0.200  1.00  0.00    -0.022 A 
ENDROOT
BRANCH   9  10
HETATM   10  C15 UNL     1      -1.369   1.016   1.252  1.00  0.00     0.311 C 
BRANCH  10  11
HETATM   11  N3  UNL     1      -2.692   0.601   0.899  1.00  0.00     0.093 N 
HETATM   12  C16 UNL     1      -3.236  -0.054   2.100  1.00  0.00     0.273 C 
HETATM   13  C17 UNL     1      -4.280  -1.007   1.605  1.00  0.00     0.046 C 
HETATM   14  C18 UNL     1      -3.852  -1.359   0.218  1.00  0.00     0.107 C 
HETATM   15  C20 UNL     1      -2.589  -0.558   0.020  1.00  0.00     0.286 C 
BRANCH  14  16
HETATM   16  C19 UNL     1      -3.568  -2.817   0.202  1.00  0.00     0.221 C 
HETATM   17  N4  UNL     1      -3.132  -3.640  -0.869  1.00  0.00    -0.370 N 
HETATM   18  H22 UNL     1      -2.114  -3.870  -1.006  1.00  0.00     0.159 HD
HETATM   19  H23 UNL     1      -3.991  -3.909  -1.400  1.00  0.00     0.159 HD
HETATM   20  O1  UNL     1      -3.746  -3.404   1.318  1.00  0.00    -0.273 OA
ENDBRANCH  14  16
ENDBRANCH  10  11
ENDBRANCH   9  10
BRANCH   1  21
HETATM   21  B1  UNL     1      -2.310   3.741  -0.123  1.00  0.00     0.191 B 
HETATM   22  C1  UNL     1      -2.817   4.885  -1.102  1.00  0.00    -0.053 C 
HETATM   23  H4  UNL     1      -2.519   3.911   1.029  1.00  0.00    -0.021 HD
ENDBRANCH   1  21
BRANCH   6  24
HETATM   24  N2  UNL     1       3.437  -0.942  -0.702  1.00  0.00    -0.348 N 
HETATM   25  C7  UNL     1       3.289  -2.342  -0.973  1.00  0.00     0.154 C 
HETATM   26  C8  UNL     1       3.827  -3.130   0.152  1.00  0.00     0.012 C 
HETATM   27  C9  UNL     1       4.622  -2.713   1.134  1.00  0.00     0.014 C 
HETATM   28 CL1  UNL     1       5.206  -3.741   2.428  1.00  0.00    -0.089 Cl
HETATM   29  C10 UNL     1       5.036  -1.281   1.125  1.00  0.00     0.110 C 
HETATM   30  C11 UNL     1       4.777  -0.656  -0.230  1.00  0.00     0.277 C 
HETATM   31  F1  UNL     1       5.679  -1.088  -1.182  1.00  0.00    -0.226 F 
ENDBRANCH   6  24
TORSDOF 5
