REMARK  7 active torsions:
REMARK  status: ('A' for Active; 'I' for Inactive)
REMARK    1  A    between atoms: C3_3  and  C4_4 
REMARK    2  A    between atoms: C6_8  and  N3_9 
REMARK    3  A    between atoms: N3_9  and  C7_10 
REMARK    4  A    between atoms: C13_18  and  C14_19 
REMARK    5  A    between atoms: C15_20  and  C16_21 
REMARK    6  A    between atoms: C16_21  and  N4_22 
REMARK    7  A    between atoms: C19_25  and  C20_26 
REMARK       I    between atoms: C20_26  and  N5_27 
ROOT
HETATM    1  C4  UNL     1      -2.221   2.711   0.079  1.00  0.00     0.071 A 
HETATM    2  N1  UNL     1      -3.511   3.002  -0.118  1.00  0.00    -0.241 NA
HETATM    3  C5  UNL     1      -4.391   1.999  -0.251  1.00  0.00     0.236 A 
HETATM    4  N2  UNL     1      -4.061   0.706  -0.200  1.00  0.00    -0.224 NA
HETATM    5  C6  UNL     1      -2.788   0.369  -0.006  1.00  0.00     0.142 A 
HETATM    6  C13 UNL     1      -1.869   1.375   0.133  1.00  0.00     0.038 A 
ENDROOT
BRANCH   6   7
HETATM    7  C14 UNL     1      -0.481   1.012   0.346  1.00  0.00     0.015 C 
HETATM    8  C15 UNL     1       0.528   0.190   0.505  1.00  0.00     0.004 C 
BRANCH   8   9
HETATM    9  C16 UNL     1       1.993   0.471   0.725  1.00  0.00     0.300 C 
BRANCH   9  10
HETATM   10  N4  UNL     1       2.803  -0.073  -0.313  1.00  0.00     0.092 N 
HETATM   11  C17 UNL     1       2.814  -1.514  -0.278  1.00  0.00     0.273 C 
HETATM   12  C18 UNL     1       3.992  -1.898  -1.154  1.00  0.00     0.046 C 
HETATM   13  C19 UNL     1       4.938  -0.733  -0.986  1.00  0.00     0.107 C 
HETATM   14  C21 UNL     1       4.198   0.237  -0.095  1.00  0.00     0.286 C 
BRANCH  13  15
HETATM   15  C20 UNL     1       6.198  -1.233  -0.416  1.00  0.00     0.221 C 
HETATM   16  N5  UNL     1       6.323  -1.891   0.836  1.00  0.00    -0.370 N 
HETATM   17  H20 UNL     1       6.342  -2.842   1.261  1.00  0.00     0.159 HD
HETATM   18  H21 UNL     1       6.421  -1.024   1.425  1.00  0.00     0.159 HD
HETATM   19  O1  UNL     1       7.308  -1.106  -1.025  1.00  0.00    -0.273 OA
ENDBRANCH  13  15
ENDBRANCH   9  10
ENDBRANCH   8   9
ENDBRANCH   6   7
BRANCH   1  20
HETATM   20  C3  UNL     1      -1.278   3.792   0.219  1.00  0.00     0.028 C 
HETATM   21  C2  UNL     1      -1.777   5.025   0.140  1.00  0.00    -0.029 C 
HETATM   22  C1  UNL     1      -1.016   6.292   0.252  1.00  0.00     0.036 C 
ENDBRANCH   1  20
BRANCH   5  23
HETATM   23  N3  UNL     1      -2.550  -1.005   0.027  1.00  0.00    -0.340 N 
HETATM   24  H7  UNL     1      -1.550  -1.221   0.151  1.00  0.00     0.167 HD
BRANCH  23  25
HETATM   25  C7  UNL     1      -3.433  -2.077  -0.079  1.00  0.00     0.035 A 
HETATM   26  C8  UNL     1      -4.806  -2.079  -0.025  1.00  0.00     0.032 A 
HETATM   27  C9  UNL     1      -5.608  -3.188  -0.154  1.00  0.00     0.046 A 
HETATM   28  C10 UNL     1      -4.998  -4.390  -0.351  1.00  0.00     0.138 A 
HETATM   29  F1  UNL     1      -5.737  -5.513  -0.485  1.00  0.00    -0.204 F 
HETATM   30  C11 UNL     1      -3.629  -4.508  -0.421  1.00  0.00     0.074 A 
HETATM   31 CL1  UNL     1      -2.880  -6.061  -0.673  1.00  0.00    -0.081 Cl
HETATM   32  C12 UNL     1      -2.900  -3.357  -0.283  1.00  0.00     0.056 A 
ENDBRANCH  23  25
ENDBRANCH   5  23
TORSDOF 7
