REMARK  6 active torsions:
REMARK  status: ('A' for Active; 'I' for Inactive)
REMARK    1  A    between atoms: O1_2  and  C2_3 
REMARK    2  A    between atoms: C6_9  and  N2_10 
REMARK    3  A    between atoms: N2_10  and  C7_11 
REMARK    4  A    between atoms: C15_21  and  C16_22 
REMARK    5  A    between atoms: C16_22  and  N3_23 
REMARK    6  A    between atoms: C19_26  and  C20_27 
REMARK       I    between atoms: C20_27  and  N4_28 
ROOT
HETATM    1  C2  UNL     1      -0.640   2.858   0.033  1.00  0.00     0.072 C 
HETATM    2  C3  UNL     1       0.436   3.547  -0.306  1.00  0.00     0.010 C 
HETATM    3  C4  UNL     1       1.692   2.808  -0.337  1.00  0.00     0.010 C 
HETATM    4  B1  UNL     1       2.863   3.315  -1.206  1.00  0.00     0.218 B 
HETATM    5  C5  UNL     1       3.838   2.198  -1.770  1.00  0.00     0.032 C 
HETATM    6  N1  UNL     1       3.543   0.958  -1.578  1.00  0.00    -0.259 NA
HETATM    7  C6  UNL     1       2.369   0.559  -0.853  1.00  0.00     0.132 C 
HETATM    8  C13 UNL     1       1.470   1.363  -0.274  1.00  0.00    -0.013 C 
HETATM    9  C14 UNL     1       0.313   0.648   0.183  1.00  0.00     0.022 C 
HETATM   10  C15 UNL     1      -0.778   1.435   0.315  1.00  0.00     0.004 C 
HETATM   11  H6  UNL     1       3.375   4.354  -0.906  1.00  0.00    -0.019 HD
ENDROOT
BRANCH  10  12
HETATM   12  C16 UNL     1      -2.094   0.949   0.718  1.00  0.00     0.313 C 
BRANCH  12  13
HETATM   13  N3  UNL     1      -2.192  -0.452   0.961  1.00  0.00     0.093 N 
HETATM   14  C17 UNL     1      -3.553  -0.710   1.407  1.00  0.00     0.273 C 
HETATM   15  C18 UNL     1      -4.379  -0.894   0.162  1.00  0.00     0.046 C 
HETATM   16  C19 UNL     1      -3.413  -1.613  -0.741  1.00  0.00     0.107 C 
HETATM   17  C21 UNL     1      -2.063  -1.118  -0.322  1.00  0.00     0.286 C 
BRANCH  16  18
HETATM   18  C20 UNL     1      -3.523  -3.078  -0.539  1.00  0.00     0.221 C 
HETATM   19  N4  UNL     1      -4.871  -3.364  -0.869  1.00  0.00    -0.370 N 
HETATM   20  H20 UNL     1      -5.822  -3.657  -0.573  1.00  0.00     0.159 HD
HETATM   21  H21 UNL     1      -5.796  -3.523  -1.305  1.00  0.00     0.159 HD
HETATM   22  O2  UNL     1      -2.796  -4.043  -0.184  1.00  0.00    -0.273 OA
ENDBRANCH  16  18
ENDBRANCH  12  13
ENDBRANCH  10  12
BRANCH   1  23
HETATM   23  O1  UNL     1      -1.797   3.665   0.073  1.00  0.00    -0.356 OA
HETATM   24  C1  UNL     1      -1.790   4.817   0.879  1.00  0.00     0.210 C 
ENDBRANCH   1  23
BRANCH   7  25
HETATM   25  N2  UNL     1       2.284  -0.883  -0.832  1.00  0.00    -0.341 N 
HETATM   26  H8  UNL     1       1.404  -1.256  -1.240  1.00  0.00     0.167 HD
BRANCH  25  27
HETATM   27  C7  UNL     1       3.279  -1.779  -0.313  1.00  0.00     0.035 A 
HETATM   28  C8  UNL     1       3.062  -3.146  -0.360  1.00  0.00     0.032 A 
HETATM   29  C9  UNL     1       4.079  -3.947   0.165  1.00  0.00     0.046 A 
HETATM   30  C10 UNL     1       5.227  -3.400   0.698  1.00  0.00     0.138 A 
HETATM   31  F1  UNL     1       6.146  -4.274   1.179  1.00  0.00    -0.204 F 
HETATM   32  C11 UNL     1       5.420  -2.035   0.734  1.00  0.00     0.074 A 
HETATM   33 CL1  UNL     1       6.903  -1.407   1.425  1.00  0.00    -0.081 Cl
HETATM   34  C12 UNL     1       4.419  -1.208   0.215  1.00  0.00     0.056 A 
ENDBRANCH  25  27
ENDBRANCH   7  25
TORSDOF 6
