REMARK  6 active torsions:
REMARK  status: ('A' for Active; 'I' for Inactive)
REMARK    1  A    between atoms: N1_1  and  C1_2 
REMARK    2  A    between atoms: N2_5  and  C4_6 
REMARK    3  A    between atoms: C7_9  and  N3_10 
REMARK    4  A    between atoms: N3_10  and  C8_11 
REMARK    5  A    between atoms: C17_24  and  O1_25 
REMARK    6  A    between atoms: O1_25  and  C18_26 
ROOT
HETATM    1  C4  UNL     1      -1.572  -0.853   0.282  1.00  0.00     0.065 A 
HETATM    2  C5  UNL     1      -0.255  -0.455   0.214  1.00  0.00     0.050 A 
HETATM    3  C6  UNL     1       0.824  -1.198   0.563  1.00  0.00     0.041 A 
HETATM    4  C7  UNL     1       2.134  -0.776   0.488  1.00  0.00     0.142 A 
HETATM    5  N4  UNL     1       3.026  -1.677   0.887  1.00  0.00    -0.224 NA
HETATM    6  C14 UNL     1       2.773  -2.910   1.338  1.00  0.00     0.236 A 
HETATM    7  N5  UNL     1       1.500  -3.333   1.417  1.00  0.00    -0.241 NA
HETATM    8  C15 UNL     1       0.536  -2.483   1.033  1.00  0.00     0.075 A 
HETATM    9  C16 UNL     1      -0.743  -2.951   1.129  1.00  0.00     0.071 A 
HETATM   10  C17 UNL     1      -1.814  -2.137   0.753  1.00  0.00     0.101 A 
ENDROOT
BRANCH   4  11
HETATM   11  N3  UNL     1       2.423   0.522   0.006  1.00  0.00    -0.340 N 
HETATM   12  H9  UNL     1       1.683   1.156  -0.317  1.00  0.00     0.167 HD
BRANCH  11  13
HETATM   13  C8  UNL     1       3.692   1.142  -0.111  1.00  0.00     0.035 A 
HETATM   14  C9  UNL     1       4.839   0.610   0.414  1.00  0.00     0.032 A 
HETATM   15  C10 UNL     1       6.087   1.168   0.318  1.00  0.00     0.046 A 
HETATM   16  C11 UNL     1       6.249   2.362  -0.352  1.00  0.00     0.138 A 
HETATM   17  F1  UNL     1       7.441   2.970  -0.487  1.00  0.00    -0.204 F 
HETATM   18  C12 UNL     1       5.130   2.944  -0.900  1.00  0.00     0.074 A 
HETATM   19 CL1  UNL     1       5.251   4.452  -1.761  1.00  0.00    -0.081 Cl
HETATM   20  C13 UNL     1       3.906   2.332  -0.769  1.00  0.00     0.056 A 
ENDBRANCH  11  13
ENDBRANCH   4  11
BRANCH   1  21
HETATM   21  N2  UNL     1      -2.640   0.017  -0.103  1.00  0.00    -0.376 N 
HETATM   22  C3  UNL     1      -2.434   1.330  -0.635  1.00  0.00     0.125 C 
HETATM   23  C2  UNL     1      -3.777   1.843  -1.075  1.00  0.00     0.056 C 
HETATM   24  C1  UNL     1      -4.725   1.120  -0.133  1.00  0.00     0.237 C 
HETATM   25  C19 UNL     1      -4.063  -0.244  -0.024  1.00  0.00     0.158 C 
BRANCH  24  26
HETATM   26  N1  UNL     1      -4.749   1.790   1.133  1.00  0.00     0.084 N 
HETATM   27  H1  UNL     1      -4.900   1.065   1.867  1.00  0.00     0.313 HD
HETATM   28  H2  UNL     1      -3.832   2.287   1.252  1.00  0.00     0.313 HD
ENDBRANCH  24  26
ENDBRANCH   1  21
BRANCH  10  29
HETATM   29  O1  UNL     1      -3.087  -2.657   0.869  1.00  0.00    -0.310 OA
BRANCH  29  30
HETATM   30  C18 UNL     1      -3.656  -3.446  -0.150  1.00  0.00     0.568 C 
HETATM   31  O2  UNL     1      -2.870  -3.604  -1.140  1.00  0.00    -0.406 OA
ENDBRANCH  29  30
ENDBRANCH  10  29
TORSDOF 6
