REMARK  7 active torsions:
REMARK  status: ('A' for Active; 'I' for Inactive)
REMARK    1  A    between atoms: C2_2  and  N1_3 
REMARK    2  A    between atoms: N1_3  and  C3_4 
REMARK    3  A    between atoms: C3_4  and  C4_5 
REMARK    4  A    between atoms: C7_8  and  N2_9 
REMARK    5  A    between atoms: N2_9  and  C8_10 
REMARK    6  A    between atoms: C12_15  and  C13_16 
REMARK       I    between atoms: C13_16  and  N3_17 
REMARK    7  A    between atoms: C18_25  and  O2_26 
ROOT
HETATM    1  C4  UNL     1      -1.830  -0.022  -0.868  1.00  0.00     0.004 A 
HETATM    2  C5  UNL     1      -0.705   0.433  -0.205  1.00  0.00     0.029 A 
HETATM    3  C6  UNL     1       0.087   1.488  -0.565  1.00  0.00     0.039 A 
HETATM    4  C7  UNL     1       1.195   1.862   0.191  1.00  0.00     0.142 A 
HETATM    5  N4  UNL     1       1.935   2.936  -0.224  1.00  0.00    -0.224 NA
HETATM    6  C15 UNL     1       1.516   3.558  -1.362  1.00  0.00     0.236 A 
HETATM    7  N5  UNL     1       0.435   3.204  -2.112  1.00  0.00    -0.241 NA
HETATM    8  C16 UNL     1      -0.317   2.136  -1.715  1.00  0.00     0.074 A 
HETATM    9  C17 UNL     1      -1.426   1.741  -2.431  1.00  0.00     0.070 A 
HETATM   10  C18 UNL     1      -2.191   0.661  -2.014  1.00  0.00     0.078 A 
ENDROOT
BRANCH   4  11
HETATM   11  N2  UNL     1       1.476   1.069   1.352  1.00  0.00    -0.340 N 
HETATM   12  H10 UNL     1       0.771   1.307   2.108  1.00  0.00     0.167 HD
BRANCH  11  13
HETATM   13  C8  UNL     1       2.501   0.101   1.534  1.00  0.00     0.034 A 
HETATM   14  C9  UNL     1       2.542  -0.791   2.571  1.00  0.00     0.032 A 
HETATM   15  C10 UNL     1       3.601  -1.675   2.660  1.00  0.00     0.045 A 
HETATM   16  C11 UNL     1       4.630  -1.673   1.711  1.00  0.00     0.132 A 
HETATM   17  F1  UNL     1       5.674  -2.531   1.783  1.00  0.00    -0.205 F 
HETATM   18  C12 UNL     1       4.571  -0.764   0.670  1.00  0.00     0.072 A 
HETATM   19  C14 UNL     1       3.507   0.132   0.569  1.00  0.00     0.049 A 
BRANCH  18  20
HETATM   20  C13 UNL     1       5.594  -0.674  -0.360  1.00  0.00     0.252 C 
HETATM   21  N3  UNL     1       6.756  -1.461  -0.442  1.00  0.00    -0.366 N 
HETATM   22  H13 UNL     1       7.309  -2.130  -0.984  1.00  0.00     0.159 HD
HETATM   23  H14 UNL     1       7.470  -1.459   0.343  1.00  0.00     0.159 HD
HETATM   24  O1  UNL     1       5.634   0.098  -1.344  1.00  0.00    -0.268 OA
ENDBRANCH  18  20
ENDBRANCH  11  13
ENDBRANCH   4  11
BRANCH   1  25
HETATM   25  C3  UNL     1      -2.538  -1.173  -0.253  1.00  0.00     0.310 C 
BRANCH  25  26
HETATM   26  N1  UNL     1      -3.686  -0.657   0.480  1.00  0.00     0.087 N 
HETATM   27  H6  UNL     1      -3.387   0.057   1.185  1.00  0.00     0.316 HD
BRANCH  26  28
HETATM   28  C2  UNL     1      -4.402  -1.701   1.172  1.00  0.00     0.265 C 
HETATM   29  C1  UNL     1      -5.546  -1.105   1.931  1.00  0.00     0.037 C 
ENDBRANCH  26  28
ENDBRANCH  25  26
ENDBRANCH   1  25
BRANCH  10  30
HETATM   30  O2  UNL     1      -3.325   0.198  -2.676  1.00  0.00    -0.355 OA
HETATM   31  C19 UNL     1      -3.809   0.791  -3.850  1.00  0.00     0.210 C 
ENDBRANCH  10  30
TORSDOF 7
