REMARK  5 active torsions:
REMARK  status: ('A' for Active; 'I' for Inactive)
REMARK    1  A    between atoms: C2_4  and  O2_5 
REMARK    2  A    between atoms: O2_5  and  C3_6 
REMARK    3  A    between atoms: C7_13  and  C8_14 
REMARK    4  A    between atoms: C8_14  and  N4_15 
REMARK    5  A    between atoms: N4_15  and  C9_16 
ROOT
HETATM    1  O1  UNL     1      -3.319  -0.147  -0.364  1.00  0.00    -0.143 OA
HETATM    2  C1  UNL     1      -3.036   0.517  -1.396  1.00  0.00     0.365 A 
HETATM    3  N1  UNL     1      -2.588  -0.811  -1.443  1.00  0.00     0.140 N 
HETATM    4  C2  UNL     1      -2.662  -1.916  -0.568  1.00  0.00     0.283 C 
HETATM    5  C4  UNL     1      -1.688  -2.528   0.081  1.00  0.00     0.099 C 
HETATM    6  C5  UNL     1      -0.256  -2.341   0.163  1.00  0.00     0.072 A 
HETATM    7  N2  UNL     1       0.421  -3.431  -0.219  1.00  0.00    -0.241 NA
HETATM    8  C6  UNL     1       1.764  -3.486  -0.229  1.00  0.00     0.234 A 
HETATM    9  N3  UNL     1       2.519  -2.432   0.151  1.00  0.00    -0.240 NA
HETATM   10  C7  UNL     1       1.892  -1.311   0.544  1.00  0.00     0.083 A 
HETATM   11  C15 UNL     1       0.526  -1.287   0.542  1.00  0.00     0.016 A 
HETATM   12  C16 UNL     1      -0.136  -0.230   0.911  1.00  0.00     0.201 C 
HETATM   13  S1  UNL     1      -0.309   1.432   1.498  1.00  0.00    -0.205 SA
HETATM   14  C17 UNL     1      -2.064   1.783   1.906  1.00  0.00     0.329 C 
HETATM   15  N5  UNL     1      -2.821   1.671   0.757  1.00  0.00     0.096 N 
HETATM   16  C18 UNL     1      -4.225   1.883   0.919  1.00  0.00     0.274 C 
HETATM   17  C19 UNL     1      -4.779   1.945  -0.521  1.00  0.00     0.042 C 
HETATM   18  C20 UNL     1      -3.509   1.922  -1.350  1.00  0.00     0.091 C 
HETATM   19  C21 UNL     1      -2.533   2.601  -0.321  1.00  0.00     0.283 C 
HETATM   20  H1  UNL     1      -2.078  -1.234  -2.234  1.00  0.00     0.332 HD
ENDROOT
BRANCH  10  21
HETATM   21  C8  UNL     1       2.631  -0.291   0.911  1.00  0.00     0.120 C 
BRANCH  21  22
HETATM   22  N4  UNL     1       4.046  -0.433   0.871  1.00  0.00    -0.364 N 
HETATM   23  H7  UNL     1       4.339  -1.216   1.525  1.00  0.00     0.165 HD
BRANCH  22  24
HETATM   24  C9  UNL     1       5.054   0.246   0.158  1.00  0.00     0.033 A 
HETATM   25  C10 UNL     1       5.566  -0.065  -1.085  1.00  0.00     0.029 A 
HETATM   26  C11 UNL     1       6.562   0.735  -1.615  1.00  0.00     0.004 A 
HETATM   27  C12 UNL     1       7.037   1.830  -0.911  1.00  0.00     0.024 A 
HETATM   28  C13 UNL     1       6.534   2.155   0.336  1.00  0.00     0.036 A 
HETATM   29 CL1  UNL     1       7.169   3.555   1.192  1.00  0.00    -0.084 Cl
HETATM   30  C14 UNL     1       5.528   1.341   0.865  1.00  0.00     0.053 A 
ENDBRANCH  22  24
ENDBRANCH  21  22
ENDBRANCH  10  21
BRANCH   4  31
HETATM   31  O2  UNL     1      -3.966  -2.345  -0.441  1.00  0.00    -0.298 OA
BRANCH  31  32
HETATM   32  C3  UNL     1      -4.323  -3.698  -0.735  1.00  0.00     0.400 C 
HETATM   33  F1  UNL     1      -5.685  -3.846  -0.522  1.00  0.00    -0.227 F 
ENDBRANCH  31  32
ENDBRANCH   4  31
TORSDOF 5
