REMARK  1 active torsions:
REMARK  status: ('A' for Active; 'I' for Inactive)
REMARK    1  A    between atoms: C5_6  and  C7_8 
ROOT
HETATM    1  C1  UNL     1       0.696   4.205   0.369  1.00  0.00     0.000 C 
HETATM    2  O1  UNL     1       0.578   2.793   0.277  1.00  0.00     0.000 OA
HETATM    3  C2  UNL     1       1.672   1.978   0.052  1.00  0.00    -0.053 A 
HETATM    4  C3  UNL     1       0.574   1.314   0.327  1.00  0.00     0.027 A 
HETATM    5  C4  UNL     1      -0.840   1.110   0.657  1.00  0.00     0.047 C 
HETATM    6  C5  UNL     1      -1.484   0.093  -0.285  1.00  0.00     0.075 C 
HETATM    7  C6  UNL     1      -1.407   0.547  -1.706  1.00  0.00     0.046 C 
HETATM    8  N1  UNL     1      -0.798  -1.161  -0.025  1.00  0.00    -0.269 N 
HETATM    9  C13 UNL     1      -1.365  -2.228   0.406  1.00  0.00     0.218 A 
HETATM   10  N2  UNL     1       0.016  -2.423   0.217  1.00  0.00    -0.068 NA
HETATM   11  N3  UNL     1       0.819  -2.931   1.096  1.00  0.00    -0.135 NA
HETATM   12  C14 UNL     1       2.230  -3.067   0.750  1.00  0.00     0.262 C 
HETATM   13  O2  UNL     1       2.082  -4.117   1.385  1.00  0.00    -0.270 OA
HETATM   14  C15 UNL     1       2.676  -1.953  -0.008  1.00  0.00     0.100 C 
HETATM   15  C16 UNL     1       3.946  -2.020  -0.815  1.00  0.00     0.035 C 
HETATM   16  C17 UNL     1       4.053  -0.506  -1.174  1.00  0.00     0.118 C 
HETATM   17  N4  UNL     1       3.144   0.157  -0.297  1.00  0.00    -0.408 N 
HETATM   18  C18 UNL     1       3.052   1.520  -0.251  1.00  0.00     0.151 C 
HETATM   19  C19 UNL     1       3.103  -0.707   0.820  1.00  0.00     0.131 C 
ENDROOT
BRANCH   6  20
HETATM   20  C7  UNL     1      -2.907  -0.075   0.073  1.00  0.00    -0.027 A 
HETATM   21  C8  UNL     1      -3.592  -0.986  -0.728  1.00  0.00     0.013 A 
HETATM   22  C9  UNL     1      -4.924  -1.247  -0.514  1.00  0.00     0.044 A 
HETATM   23  C10 UNL     1      -5.647  -0.633   0.488  1.00  0.00     0.138 A 
HETATM   24  F1  UNL     1      -6.959  -0.902   0.686  1.00  0.00    -0.204 F 
HETATM   25  C11 UNL     1      -4.938   0.269   1.271  1.00  0.00     0.073 A 
HETATM   26 CL1  UNL     1      -5.764   1.103   2.571  1.00  0.00    -0.081 Cl
HETATM   27  C12 UNL     1      -3.600   0.539   1.064  1.00  0.00     0.036 A 
ENDBRANCH   6  20
TORSDOF 1
