REMARK  8 active torsions:
REMARK  status: ('A' for Active; 'I' for Inactive)
REMARK    1  A    between atoms: O1_2  and  C2_3 
REMARK    2  A    between atoms: C2_3  and  C15_21 
REMARK    3  A    between atoms: C3_4  and  C4_5 
REMARK    4  A    between atoms: C6_9  and  N3_10 
REMARK    5  A    between atoms: N3_10  and  C7_11 
REMARK    6  A    between atoms: C15_21  and  C16_22 
REMARK    7  A    between atoms: C16_22  and  N4_23 
REMARK       I    between atoms: N4_23  and  C17_24 
REMARK    8  A    between atoms: C17_24  and  C18_26 
ROOT
HETATM    1  C4  UNL     1       2.483   0.076  -1.296  1.00  0.00     0.070 A 
HETATM    2  N1  UNL     1       2.598  -1.154  -0.773  1.00  0.00    -0.241 NA
HETATM    3  C5  UNL     1       3.708  -1.669  -0.242  1.00  0.00     0.235 A 
HETATM    4  N2  UNL     1       4.828  -0.912  -0.213  1.00  0.00    -0.224 NA
HETATM    5  C6  UNL     1       4.838   0.326  -0.702  1.00  0.00     0.137 A 
HETATM    6  C13 UNL     1       3.658   0.806  -1.240  1.00  0.00     0.013 A 
HETATM    7  C14 UNL     1       3.693   2.192  -1.776  1.00  0.00     0.055 C 
ENDROOT
BRANCH   1   8
HETATM    8  C3  UNL     1       1.272   0.667  -1.863  1.00  0.00     0.064 C 
HETATM    9  C2  UNL     1       0.099   0.550  -1.275  1.00  0.00     0.049 C 
BRANCH   9  10
HETATM   10  O1  UNL     1       0.754  -0.187  -0.268  1.00  0.00    -0.360 OA
HETATM   11  C1  UNL     1       0.986   0.316   1.017  1.00  0.00     0.209 C 
ENDBRANCH   9  10
BRANCH   9  12
HETATM   12  C15 UNL     1      -1.306   0.556  -0.813  1.00  0.00     0.084 C 
BRANCH  12  13
HETATM   13  C16 UNL     1      -1.756  -0.888  -0.702  1.00  0.00     0.129 C 
BRANCH  13  14
HETATM   14  N4  UNL     1      -3.107  -1.035  -0.228  1.00  0.00    -0.359 N 
HETATM   15  C17 UNL     1      -4.231  -0.478  -0.919  1.00  0.00     0.251 C 
HETATM   16  O2  UNL     1      -4.111   0.174  -1.985  1.00  0.00    -0.271 OA
HETATM   17  H17 UNL     1      -3.204  -1.590   0.679  1.00  0.00     0.162 HD
BRANCH  15  18
HETATM   18  C18 UNL     1      -5.509  -0.775  -0.209  1.00  0.00     0.313 C 
HETATM   19  C19 UNL     1      -5.496  -0.249   1.207  1.00  0.00     0.046 C 
HETATM   20  C20 UNL     1      -6.556  -1.005   1.977  1.00  0.00     0.004 C 
HETATM   21  C21 UNL     1      -7.642  -1.452   1.043  1.00  0.00     0.030 C 
HETATM   22  C22 UNL     1      -7.842  -0.547  -0.141  1.00  0.00     0.273 C 
HETATM   23  N5  UNL     1      -6.655  -0.222  -0.867  1.00  0.00     0.098 N 
HETATM   24  C23 UNL     1      -6.582   1.230  -0.926  1.00  0.00     0.310 C 
ENDBRANCH  15  18
ENDBRANCH  13  14
ENDBRANCH  12  13
ENDBRANCH   9  12
ENDBRANCH   1   8
BRANCH   5  25
HETATM   25  N3  UNL     1       6.051   1.050  -0.618  1.00  0.00    -0.340 N 
HETATM   26  H6  UNL     1       6.342   1.981  -0.937  1.00  0.00     0.167 HD
BRANCH  25  27
HETATM   27  C7  UNL     1       7.164   0.426   0.035  1.00  0.00     0.035 A 
HETATM   28  C8  UNL     1       8.192  -0.350  -0.427  1.00  0.00     0.032 A 
HETATM   29  C9  UNL     1       9.131  -0.811   0.476  1.00  0.00     0.046 A 
HETATM   30  C10 UNL     1       9.056  -0.509   1.815  1.00  0.00     0.138 A 
HETATM   31  F1  UNL     1      10.017  -1.002   2.619  1.00  0.00    -0.204 F 
HETATM   32  C11 UNL     1       8.033   0.270   2.308  1.00  0.00     0.074 A 
HETATM   33 CL1  UNL     1       8.016   0.602   4.018  1.00  0.00    -0.081 Cl
HETATM   34  C12 UNL     1       7.078   0.739   1.397  1.00  0.00     0.056 A 
ENDBRANCH  25  27
ENDBRANCH   5  25
TORSDOF 8
