REMARK  7 active torsions:
REMARK  status: ('A' for Active; 'I' for Inactive)
REMARK    1  A    between atoms: O1_2  and  C2_3 
REMARK    2  A    between atoms: C6_9  and  N3_10 
REMARK    3  A    between atoms: N3_10  and  C7_11 
REMARK    4  A    between atoms: C7_11  and  C8_12 
REMARK    5  A    between atoms: C15_21  and  C16_22 
REMARK    6  A    between atoms: C16_22  and  N4_23 
REMARK    7  A    between atoms: C19_26  and  C20_27 
REMARK       I    between atoms: C20_27  and  N5_28 
ROOT
HETATM    1  C2  UNL     1       0.774  -2.919   0.100  1.00  0.00     0.078 A 
HETATM    2  C3  UNL     1      -0.383  -3.325  -0.492  1.00  0.00     0.070 A 
HETATM    3  C4  UNL     1      -1.548  -2.598  -0.388  1.00  0.00     0.074 A 
HETATM    4  N1  UNL     1      -2.662  -3.060  -1.002  1.00  0.00    -0.241 NA
HETATM    5  C5  UNL     1      -3.808  -2.357  -0.907  1.00  0.00     0.235 A 
HETATM    6  N2  UNL     1      -3.818  -1.218  -0.208  1.00  0.00    -0.224 NA
HETATM    7  C6  UNL     1      -2.786  -0.689   0.424  1.00  0.00     0.137 A 
HETATM    8  C13 UNL     1      -1.628  -1.422   0.315  1.00  0.00     0.039 A 
HETATM    9  C14 UNL     1      -0.450  -1.030   0.904  1.00  0.00     0.029 A 
HETATM   10  C15 UNL     1       0.739  -1.725   0.826  1.00  0.00     0.004 A 
ENDROOT
BRANCH  10  11
HETATM   11  C16 UNL     1       2.003  -1.299   1.461  1.00  0.00     0.313 C 
BRANCH  11  12
HETATM   12  N4  UNL     1       2.961  -0.735   0.524  1.00  0.00     0.093 N 
HETATM   13  C17 UNL     1       4.181  -0.331   1.174  1.00  0.00     0.273 C 
HETATM   14  C18 UNL     1       4.427   1.116   0.858  1.00  0.00     0.045 C 
HETATM   15  C19 UNL     1       3.475   1.470  -0.236  1.00  0.00     0.102 C 
HETATM   16  C21 UNL     1       2.410   0.416  -0.122  1.00  0.00     0.286 C 
BRANCH  15  17
HETATM   17  C20 UNL     1       4.210   1.430  -1.528  1.00  0.00     0.201 C 
HETATM   18  N5  UNL     1       5.246   2.390  -1.390  1.00  0.00    -0.272 NA
HETATM   19  H20 UNL     1       5.789   2.920  -0.672  1.00  0.00     0.127 HD
HETATM   20  H21 UNL     1       5.887   3.003  -0.852  1.00  0.00     0.127 HD
HETATM   21  O2  UNL     1       4.219   0.859  -2.643  1.00  0.00    -0.280 OA
ENDBRANCH  15  17
ENDBRANCH  11  12
ENDBRANCH  10  11
BRANCH   1  22
HETATM   22  O1  UNL     1       1.891  -3.711  -0.059  1.00  0.00    -0.355 OA
HETATM   23  C1  UNL     1       1.899  -4.914  -0.799  1.00  0.00     0.210 C 
ENDBRANCH   1  22
BRANCH   7  24
HETATM   24  N3  UNL     1      -2.854   0.506   1.167  1.00  0.00    -0.370 N 
HETATM   25  H6  UNL     1      -1.990   0.831   1.650  1.00  0.00     0.161 HD
BRANCH  24  26
HETATM   26  C7  UNL     1      -3.965   1.396   1.377  1.00  0.00     0.157 C 
BRANCH  26  27
HETATM   27  C8  UNL     1      -4.366   2.198   0.203  1.00  0.00    -0.033 C 
HETATM   28  C9  UNL     1      -4.275   3.530   0.375  1.00  0.00     0.119 C 
HETATM   29  F1  UNL     1      -3.835   4.048   1.587  1.00  0.00    -0.206 F 
HETATM   30  C10 UNL     1      -4.568   4.620  -0.586  1.00  0.00     0.036 C 
HETATM   31  C11 UNL     1      -3.921   4.670  -1.748  1.00  0.00    -0.109 C 
HETATM   32  B1  UNL     1      -3.829   2.784  -2.270  1.00  0.00     0.186 B 
HETATM   33  C12 UNL     1      -4.878   1.928  -1.141  1.00  0.00    -0.013 C 
ENDBRANCH  26  27
ENDBRANCH  24  26
ENDBRANCH   7  24
TORSDOF 7
