REMARK  6 active torsions:
REMARK  status: ('A' for Active; 'I' for Inactive)
REMARK    1  A    between atoms: O1_2  and  C2_3 
REMARK    2  A    between atoms: C6_9  and  N3_10 
REMARK    3  A    between atoms: N3_10  and  C7_11 
REMARK    4  A    between atoms: C15_21  and  C16_22 
REMARK    5  A    between atoms: C16_22  and  N4_23 
REMARK       I    between atoms: N4_23  and  C17_24 
REMARK    6  A    between atoms: C17_24  and  C18_26 
ROOT
HETATM    1  C2  UNL     1       0.312  -2.602   1.258  1.00  0.00     0.078 A 
HETATM    2  C3  UNL     1       1.428  -3.258   0.782  1.00  0.00     0.070 A 
HETATM    3  C4  UNL     1       2.529  -2.554   0.402  1.00  0.00     0.074 A 
HETATM    4  N1  UNL     1       3.579  -3.275  -0.054  1.00  0.00    -0.241 NA
HETATM    5  C5  UNL     1       4.718  -2.694  -0.459  1.00  0.00     0.236 A 
HETATM    6  N2  UNL     1       4.737  -1.360  -0.378  1.00  0.00    -0.224 NA
HETATM    7  C6  UNL     1       3.785  -0.557   0.045  1.00  0.00     0.142 A 
HETATM    8  C13 UNL     1       2.637  -1.194   0.449  1.00  0.00     0.039 A 
HETATM    9  C14 UNL     1       1.506  -0.572   0.929  1.00  0.00     0.029 A 
HETATM   10  C15 UNL     1       0.357  -1.218   1.332  1.00  0.00    -0.006 A 
ENDROOT
BRANCH  10  11
HETATM   11  C16 UNL     1      -0.823  -0.490   1.836  1.00  0.00     0.164 C 
BRANCH  11  12
HETATM   12  N4  UNL     1      -1.883  -0.430   0.827  1.00  0.00    -0.355 N 
HETATM   13  C17 UNL     1      -2.997   0.274   1.357  1.00  0.00     0.251 C 
HETATM   14  O2  UNL     1      -3.022   0.762   2.540  1.00  0.00    -0.271 OA
HETATM   15  H13 UNL     1      -1.998  -0.773  -0.151  1.00  0.00     0.162 HD
BRANCH  13  16
HETATM   16  C18 UNL     1      -4.272   0.572   0.701  1.00  0.00     0.313 C 
HETATM   17  C19 UNL     1      -4.401   2.090   0.667  1.00  0.00     0.046 C 
HETATM   18  C20 UNL     1      -4.265   2.623  -0.745  1.00  0.00     0.004 C 
HETATM   19  C21 UNL     1      -5.430   2.107  -1.586  1.00  0.00     0.030 C 
HETATM   20  C22 UNL     1      -5.584   0.656  -1.229  1.00  0.00     0.273 C 
HETATM   21  N5  UNL     1      -4.384   0.077  -0.657  1.00  0.00     0.098 N 
HETATM   22  C23 UNL     1      -4.543  -1.361  -0.695  1.00  0.00     0.310 C 
ENDBRANCH  13  16
ENDBRANCH  11  12
ENDBRANCH  10  11
BRANCH   1  23
HETATM   23  O1  UNL     1      -0.827  -3.278   1.655  1.00  0.00    -0.355 OA
HETATM   24  C1  UNL     1      -0.856  -4.691   1.573  1.00  0.00     0.210 C 
ENDBRANCH   1  23
BRANCH   7  25
HETATM   25  N3  UNL     1       3.835   0.855   0.118  1.00  0.00    -0.340 N 
HETATM   26  H6  UNL     1       3.046   1.421   0.479  1.00  0.00     0.167 HD
BRANCH  25  27
HETATM   27  C7  UNL     1       4.878   1.742  -0.252  1.00  0.00     0.035 A 
HETATM   28  C8  UNL     1       4.877   3.129  -0.067  1.00  0.00     0.032 A 
HETATM   29  C9  UNL     1       5.915   3.932  -0.450  1.00  0.00     0.046 A 
HETATM   30  C10 UNL     1       7.040   3.416  -1.049  1.00  0.00     0.138 A 
HETATM   31  F1  UNL     1       7.992   4.308  -1.380  1.00  0.00    -0.204 F 
HETATM   32  C11 UNL     1       7.085   2.055  -1.251  1.00  0.00     0.074 A 
HETATM   33 CL1  UNL     1       8.533   1.455  -2.015  1.00  0.00    -0.081 Cl
HETATM   34  C12 UNL     1       6.025   1.279  -0.854  1.00  0.00     0.056 A 
ENDBRANCH  25  27
ENDBRANCH   7  25
TORSDOF 6
