REMARK  7 active torsions:
REMARK  status: ('A' for Active; 'I' for Inactive)
REMARK    1  A    between atoms: B1_2  and  N1_3 
REMARK    2  A    between atoms: C6_8  and  C7_9 
REMARK       I    between atoms: C7_9  and  N2_11 
REMARK    3  A    between atoms: N2_11  and  C8_12 
REMARK    4  A    between atoms: C8_12  and  C9_13 
REMARK    5  A    between atoms: C12_16  and  N3_17 
REMARK    6  A    between atoms: N3_17  and  C13_18 
REMARK    7  A    between atoms: C22_31  and  O2_32 
ROOT
HETATM    1  C9  UNL     1      -0.309   1.692   1.489  1.00  0.00    -0.006 A 
HETATM    2  C10 UNL     1      -1.364   1.210   0.742  1.00  0.00     0.029 A 
HETATM    3  C11 UNL     1      -2.369   0.418   1.222  1.00  0.00     0.039 A 
HETATM    4  C12 UNL     1      -3.410  -0.050   0.448  1.00  0.00     0.142 A 
HETATM    5  N4  UNL     1      -4.294  -0.812   1.095  1.00  0.00    -0.224 NA
HETATM    6  C19 UNL     1      -4.229  -1.129   2.383  1.00  0.00     0.236 A 
HETATM    7  N5  UNL     1      -3.195  -0.660   3.137  1.00  0.00    -0.241 NA
HETATM    8  C20 UNL     1      -2.246   0.126   2.558  1.00  0.00     0.074 A 
HETATM    9  C21 UNL     1      -1.224   0.572   3.358  1.00  0.00     0.070 A 
HETATM   10  C22 UNL     1      -0.233   1.368   2.828  1.00  0.00     0.078 A 
ENDROOT
BRANCH   1  11
HETATM   11  C8  UNL     1       0.778   2.552   0.955  1.00  0.00     0.164 C 
BRANCH  11  12
HETATM   12  N2  UNL     1       2.006   1.799   0.765  1.00  0.00    -0.355 N 
HETATM   13  C7  UNL     1       2.047   0.682  -0.113  1.00  0.00     0.234 C 
HETATM   14  O1  UNL     1       1.061   0.268  -0.774  1.00  0.00    -0.272 OA
HETATM   15  H14 UNL     1       2.888   2.071   1.278  1.00  0.00     0.162 HD
BRANCH  13  16
HETATM   16  C6  UNL     1       3.331  -0.044  -0.261  1.00  0.00     0.137 C 
HETATM   17  N1  UNL     1       3.223  -1.152  -1.187  1.00  0.00    -0.353 NA
HETATM   18  C2  UNL     1       4.595  -1.592  -1.437  1.00  0.00     0.074 C 
HETATM   19  C3  UNL     1       5.112  -2.288  -0.206  1.00  0.00     0.013 C 
HETATM   20  C4  UNL     1       4.906  -1.515   1.050  1.00  0.00     0.003 C 
HETATM   21  C5  UNL     1       3.708  -0.633   1.090  1.00  0.00     0.028 C 
BRANCH  17  22
HETATM   22  B1  UNL     1       2.534  -0.752  -2.476  1.00  0.00     0.237 B 
HETATM   23  C1  UNL     1       2.925   0.590  -3.224  1.00  0.00    -0.040 C 
HETATM   24  H4  UNL     1       2.069  -1.629  -3.138  1.00  0.00    -0.008 HD
ENDBRANCH  17  22
ENDBRANCH  13  16
ENDBRANCH  11  12
ENDBRANCH   1  11
BRANCH  10  25
HETATM   25  O2  UNL     1       0.811   1.833   3.615  1.00  0.00    -0.355 OA
HETATM   26  C23 UNL     1       0.888   1.498   4.997  1.00  0.00     0.210 C 
ENDBRANCH  10  25
BRANCH   4  27
HETATM   27  N3  UNL     1      -3.483   0.296  -0.922  1.00  0.00    -0.340 N 
HETATM   28  H18 UNL     1      -2.796   0.920  -1.352  1.00  0.00     0.167 HD
BRANCH  27  29
HETATM   29  C13 UNL     1      -4.436  -0.118  -1.873  1.00  0.00     0.035 A 
HETATM   30  C14 UNL     1      -5.354  -1.112  -1.633  1.00  0.00     0.032 A 
HETATM   31  C15 UNL     1      -6.300  -1.532  -2.536  1.00  0.00     0.046 A 
HETATM   32  C16 UNL     1      -6.373  -0.946  -3.781  1.00  0.00     0.138 A 
HETATM   33  F1  UNL     1      -7.279  -1.310  -4.717  1.00  0.00    -0.204 F 
HETATM   34  C17 UNL     1      -5.482   0.046  -4.064  1.00  0.00     0.074 A 
HETATM   35 CL1  UNL     1      -5.538   0.813  -5.623  1.00  0.00    -0.081 Cl
HETATM   36  C18 UNL     1      -4.567   0.420  -3.131  1.00  0.00     0.056 A 
ENDBRANCH  27  29
ENDBRANCH   4  27
TORSDOF 7
