REMARK  2 active torsions:
REMARK  status: ('A' for Active; 'I' for Inactive)
REMARK    1  A    between atoms: C7_9  and  N2_10 
REMARK       I    between atoms: N2_10  and  C8_11 
REMARK    2  A    between atoms: C8_11  and  C9_13 
ROOT
HETATM    1  C1  UNL     1       6.620   1.470  -0.434  1.00  0.00     0.050 C 
HETATM    2  C2  UNL     1       5.237   0.935  -0.501  1.00  0.00    -0.043 C 
HETATM    3  C3  UNL     1       4.691   1.387   0.670  1.00  0.00    -0.010 C 
HETATM    4  C4  UNL     1       5.515   2.206   1.590  1.00  0.00     0.062 C 
HETATM    5  N1  UNL     1       3.341   1.015   1.061  1.00  0.00    -0.265 NA
HETATM    6  C5  UNL     1       2.211   0.173   1.553  1.00  0.00     0.252 C 
HETATM    7  O1  UNL     1       1.190   1.074   1.708  1.00  0.00    -0.359 OA
HETATM    8  C6  UNL     1      -0.083   0.672   1.483  1.00  0.00     0.228 C 
HETATM    9  C7  UNL     1      -0.257  -0.284   0.383  1.00  0.00     0.048 C 
HETATM   10  C15 UNL     1       0.682  -0.863  -0.281  1.00  0.00     0.017 C 
HETATM   11  C16 UNL     1       0.511  -1.572  -1.583  1.00  0.00     0.022 C 
HETATM   12  C17 UNL     1       1.793  -1.736  -1.399  1.00  0.00    -0.034 C 
HETATM   13  C18 UNL     1       3.085  -2.309  -0.824  1.00  0.00     0.185 C 
HETATM   14  N4  UNL     1       3.286  -1.223   0.248  1.00  0.00    -0.285 NA
HETATM   15  C19 UNL     1       1.989  -0.773   0.427  1.00  0.00     0.084 C 
HETATM   16  C20 UNL     1       2.293  -0.601  -2.256  1.00  0.00     0.175 C 
HETATM   17 CL1  UNL     1       1.483   0.948  -1.833  1.00  0.00    -0.113 Cl
HETATM   18  C21 UNL     1       3.719  -0.349  -2.339  1.00  0.00     0.117 C 
HETATM   19  F1  UNL     1       4.172  -0.977  -3.500  1.00  0.00    -0.209 F 
HETATM   20  C22 UNL     1       4.711   0.229  -1.641  1.00  0.00     0.048 C 
HETATM   21  H7  UNL     1       4.005   0.188   1.249  1.00  0.00     0.130 HD
ENDROOT
BRANCH   9  22
HETATM   22  N2  UNL     1      -1.551  -0.667  -0.060  1.00  0.00    -0.326 N 
HETATM   23  C8  UNL     1      -2.684  -0.120   0.575  1.00  0.00     0.255 C 
HETATM   24  O2  UNL     1      -2.723   0.698   1.528  1.00  0.00    -0.271 OA
HETATM   25  H11 UNL     1      -1.830  -1.307  -0.802  1.00  0.00     0.168 HD
BRANCH  23  26
HETATM   26  C9  UNL     1      -4.098  -0.358   0.294  1.00  0.00     0.314 C 
HETATM   27  C10 UNL     1      -4.485  -0.031  -1.132  1.00  0.00     0.046 C 
HETATM   28  C11 UNL     1      -5.981  -0.292  -1.223  1.00  0.00     0.004 C 
HETATM   29  C12 UNL     1      -6.651   0.778  -0.404  1.00  0.00     0.030 C 
HETATM   30  C13 UNL     1      -5.805   1.309   0.702  1.00  0.00     0.273 C 
HETATM   31  N3  UNL     1      -4.868   0.395   1.252  1.00  0.00     0.098 N 
HETATM   32  C14 UNL     1      -5.400  -0.424   2.314  1.00  0.00     0.310 C 
ENDBRANCH  23  26
ENDBRANCH   9  22
TORSDOF 2
