REMARK  8 active torsions:
REMARK  status: ('A' for Active; 'I' for Inactive)
REMARK    1  A    between atoms: O1_2  and  C2_3 
REMARK    2  A    between atoms: C6_9  and  N3_10 
REMARK    3  A    between atoms: N3_10  and  C7_11 
REMARK    4  A    between atoms: C7_11  and  C8_12 
REMARK    5  A    between atoms: C16_22  and  C17_23 
REMARK    6  A    between atoms: C17_23  and  N4_24 
REMARK       I    between atoms: N4_24  and  C19_26 
REMARK    7  A    between atoms: C19_26  and  C20_28 
REMARK    8  A    between atoms: C20_28  and  N5_29 
ROOT
HETATM    1  C2  UNL     1      -1.642  -1.769  -1.053  1.00  0.00     0.078 A 
HETATM    2  C3  UNL     1      -0.710  -1.652  -2.061  1.00  0.00     0.070 A 
HETATM    3  C4  UNL     1       0.390  -0.829  -1.959  1.00  0.00     0.074 A 
HETATM    4  N1  UNL     1       1.260  -0.757  -2.971  1.00  0.00    -0.241 NA
HETATM    5  C5  UNL     1       2.328   0.045  -2.865  1.00  0.00     0.235 A 
HETATM    6  N2  UNL     1       2.516   0.767  -1.750  1.00  0.00    -0.224 NA
HETATM    7  C6  UNL     1       1.702   0.762  -0.685  1.00  0.00     0.137 A 
HETATM    8  C14 UNL     1       0.616  -0.073  -0.828  1.00  0.00     0.039 A 
HETATM    9  C15 UNL     1      -0.307  -0.189   0.170  1.00  0.00     0.029 A 
HETATM   10  C16 UNL     1      -1.412  -1.009   0.081  1.00  0.00    -0.006 A 
ENDROOT
BRANCH   7  11
HETATM   11  N3  UNL     1       1.945   1.549   0.474  1.00  0.00    -0.370 N 
HETATM   12  H6  UNL     1       1.280   1.511   1.274  1.00  0.00     0.161 HD
BRANCH  11  13
HETATM   13  C7  UNL     1       3.078   2.432   0.654  1.00  0.00     0.160 C 
BRANCH  13  14
HETATM   14  C8  UNL     1       4.388   1.747   0.624  1.00  0.00    -0.039 A 
HETATM   15  C9  UNL     1       4.745   1.242   1.881  1.00  0.00     0.012 A 
HETATM   16  C10 UNL     1       5.927   0.570   2.114  1.00  0.00     0.044 A 
HETATM   17  C11 UNL     1       6.818   0.371   1.078  1.00  0.00     0.138 A 
HETATM   18  F1  UNL     1       7.990  -0.284   1.258  1.00  0.00    -0.204 F 
HETATM   19  C12 UNL     1       6.466   0.868  -0.160  1.00  0.00     0.073 A 
HETATM   20 CL1  UNL     1       7.533   0.664  -1.536  1.00  0.00    -0.081 Cl
HETATM   21  C13 UNL     1       5.286   1.541  -0.399  1.00  0.00     0.035 A 
ENDBRANCH  13  14
ENDBRANCH  11  13
ENDBRANCH   7  11
BRANCH  10  22
HETATM   22  C17 UNL     1      -2.413  -1.132   1.169  1.00  0.00     0.166 C 
BRANCH  22  23
HETATM   23  N4  UNL     1      -3.644  -0.418   0.898  1.00  0.00    -0.351 N 
HETATM   24  C18 UNL     1      -4.802  -0.975   0.222  1.00  0.00     0.153 C 
HETATM   25  C19 UNL     1      -3.663   0.930   1.354  1.00  0.00     0.247 C 
HETATM   26  O2  UNL     1      -2.644   1.386   1.938  1.00  0.00    -0.271 OA
BRANCH  25  27
HETATM   27  C20 UNL     1      -4.880   1.766   1.132  1.00  0.00     0.369 C 
BRANCH  27  28
HETATM   28  N5  UNL     1      -4.685   3.087   1.668  1.00  0.00     0.087 N 
HETATM   29  H20 UNL     1      -4.791   3.852   0.969  1.00  0.00     0.313 HD
HETATM   30  H21 UNL     1      -5.222   3.262   2.524  1.00  0.00     0.313 HD
ENDBRANCH  27  28
ENDBRANCH  25  27
ENDBRANCH  22  23
ENDBRANCH  10  22
BRANCH   1  31
HETATM   31  O1  UNL     1      -2.736  -2.586  -1.152  1.00  0.00    -0.355 OA
HETATM   32  C1  UNL     1      -3.094  -3.402  -2.222  1.00  0.00     0.210 C 
ENDBRANCH   1  31
TORSDOF 8
