REMARK  7 active torsions:
REMARK  status: ('A' for Active; 'I' for Inactive)
REMARK    1  A    between atoms: C5_6  and  N2_7 
REMARK    2  A    between atoms: N2_7  and  C6_8 
REMARK    3  A    between atoms: C9_11  and  C10_12 
REMARK    4  A    between atoms: C10_12  and  C11_13 
REMARK    5  A    between atoms: C12_14  and  O1_15 
REMARK    6  A    between atoms: C16_20  and  C17_21 
REMARK    7  A    between atoms: C16_20  and  C19_23 
REMARK       I    between atoms: C19_23  and  N3_24 
ROOT
HETATM    1  C1  UNL     1      -5.137  -0.504   0.624  1.00  0.00     0.144 C 
HETATM    2  N1  UNL     1      -4.115   0.449   0.853  1.00  0.00    -0.395 N 
HETATM    3  C2  UNL     1      -4.475   1.785   0.515  1.00  0.00     0.145 C 
HETATM    4  C3  UNL     1      -3.439   2.567  -0.213  1.00  0.00    -0.009 C 
HETATM    5  C4  UNL     1      -2.121   2.351   0.017  1.00  0.00    -0.002 C 
HETATM    6  C5  UNL     1      -1.970   1.280   1.042  1.00  0.00     0.141 C 
HETATM    7  C16 UNL     1      -2.760   0.088   0.542  1.00  0.00     0.127 C 
ENDROOT
BRANCH   6   8
HETATM    8  N2  UNL     1      -0.650   1.051   1.499  1.00  0.00    -0.379 N 
HETATM    9  H9  UNL     1      -0.553   0.976   2.565  1.00  0.00     0.160 HD
BRANCH   8  10
HETATM   10  C6  UNL     1       0.615   0.886   0.861  1.00  0.00     0.030 A 
HETATM   11  C7  UNL     1       0.810   0.983  -0.478  1.00  0.00     0.030 A 
HETATM   12  C8  UNL     1       2.011   0.813  -1.131  1.00  0.00     0.011 A 
HETATM   13  C9  UNL     1       3.143   0.515  -0.373  1.00  0.00    -0.033 A 
HETATM   14  C14 UNL     1       2.987   0.410   0.975  1.00  0.00     0.042 A 
HETATM   15 CL1  UNL     1       4.363   0.041   1.985  1.00  0.00    -0.084 Cl
HETATM   16  C15 UNL     1       1.760   0.590   1.570  1.00  0.00     0.053 A 
BRANCH  13  17
HETATM   17  C10 UNL     1       4.450   0.326  -1.068  1.00  0.00     0.069 C 
BRANCH  17  18
HETATM   18  C11 UNL     1       4.745  -1.128  -1.133  1.00  0.00     0.002 C 
HETATM   19  C12 UNL     1       5.782  -1.743  -0.642  1.00  0.00     0.130 C 
BRANCH  19  20
HETATM   20  O1  UNL     1       6.805  -1.128   0.037  1.00  0.00    -0.368 OA
HETATM   21  C13 UNL     1       8.116  -1.600   0.006  1.00  0.00     0.208 C 
ENDBRANCH  19  20
ENDBRANCH  17  18
ENDBRANCH  13  17
ENDBRANCH   8  10
ENDBRANCH   6   8
BRANCH   7  22
HETATM   22  C17 UNL     1      -2.217  -1.111   1.226  1.00  0.00     0.038 C 
HETATM   23  C18 UNL     1      -2.904  -2.411   0.999  1.00  0.00     0.008 C 
ENDBRANCH   7  22
BRANCH   7  24
HETATM   24  C19 UNL     1      -2.517  -0.054  -0.900  1.00  0.00     0.225 C 
HETATM   25  N3  UNL     1      -3.613   0.236  -1.757  1.00  0.00    -0.270 NA
HETATM   26  H25 UNL     1      -4.517   0.346  -2.309  1.00  0.00     0.127 HD
HETATM   27  H26 UNL     1      -4.520   0.344  -2.308  1.00  0.00     0.127 HD
HETATM   28  O2  UNL     1      -2.041  -0.253  -2.071  1.00  0.00    -0.277 OA
ENDBRANCH   7  24
TORSDOF 7
