REMARK  4 active torsions:
REMARK  status: ('A' for Active; 'I' for Inactive)
REMARK    1  A    between atoms: C2_2  and  C3_4 
REMARK    2  A    between atoms: C4_6  and  C5_7 
REMARK    3  A    between atoms: C6_8  and  N1_9 
REMARK    4  A    between atoms: N1_9  and  C7_10 
ROOT
HETATM    1  C7  UNL     1      -0.018   1.581   0.074  1.00  0.00     0.159 A 
HETATM    2  N2  UNL     1       0.254   1.894   1.359  1.00  0.00    -0.222 NA
HETATM    3  C8  UNL     1      -0.395   1.330   2.394  1.00  0.00     0.238 A 
HETATM    4  N3  UNL     1      -1.354   0.418   2.159  1.00  0.00    -0.215 NA
HETATM    5  C9  UNL     1      -1.695   0.042   0.891  1.00  0.00     0.202 A 
HETATM    6  C10 UNL     1      -1.006   0.643  -0.138  1.00  0.00     0.129 A 
HETATM    7  N4  UNL     1      -1.177   0.432  -1.556  1.00  0.00    -0.379 N 
HETATM    8  C11 UNL     1      -2.376   0.052  -2.267  1.00  0.00     0.161 C 
HETATM    9  C12 UNL     1      -3.269  -0.844  -1.537  1.00  0.00    -0.004 A 
HETATM   10  C13 UNL     1      -4.153  -1.361  -2.482  1.00  0.00     0.054 A 
HETATM   11  C14 UNL     1      -5.149  -2.261  -2.125  1.00  0.00     0.117 A 
HETATM   12  F2  UNL     1      -6.050  -2.808  -2.973  1.00  0.00    -0.206 F 
HETATM   13  C15 UNL     1      -5.296  -2.673  -0.819  1.00  0.00     0.045 A 
HETATM   14  C16 UNL     1      -4.449  -2.191   0.150  1.00  0.00     0.041 A 
HETATM   15  C17 UNL     1      -3.472  -1.300  -0.243  1.00  0.00     0.086 A 
HETATM   16  O1  UNL     1      -2.705  -0.907   0.839  1.00  0.00    -0.289 OA
HETATM   17  H8  UNL     1      -0.271   0.597  -2.066  1.00  0.00     0.160 HD
ENDROOT
BRANCH   1  18
HETATM   18  N1  UNL     1       0.709   2.222  -0.967  1.00  0.00    -0.349 N 
HETATM   19  H6  UNL     1       0.604   3.016  -1.632  1.00  0.00     0.167 HD
BRANCH  18  20
HETATM   20  C6  UNL     1       1.963   1.514  -1.094  1.00  0.00     0.090 C 
HETATM   21  C5  UNL     1       2.971   1.172  -0.333  1.00  0.00     0.020 C 
BRANCH  21  22
HETATM   22  C4  UNL     1       4.235   0.569  -0.047  1.00  0.00     0.045 C 
HETATM   23  C3  UNL     1       4.807   0.567   1.112  1.00  0.00     0.134 C 
HETATM   24  F1  UNL     1       4.278   1.133   2.189  1.00  0.00    -0.205 F 
BRANCH  23  25
HETATM   25  C2  UNL     1       6.068  -0.091   1.179  1.00  0.00     0.050 C 
HETATM   26  C1  UNL     1       6.749  -0.137   2.314  1.00  0.00     0.060 C 
HETATM   27 CL1  UNL     1       7.275  -1.021   0.374  1.00  0.00    -0.086 Cl
ENDBRANCH  23  25
ENDBRANCH  21  22
ENDBRANCH  18  20
ENDBRANCH   1  18
TORSDOF 4
