REMARK  2 active torsions:
REMARK  status: ('A' for Active; 'I' for Inactive)
REMARK    1  A    between atoms: C2_2  and  C3_3 
REMARK    2  A    between atoms: C9_11  and  O1_12 
ROOT
HETATM    1  C3  UNL     1      -1.691  -0.314  -1.463  1.00  0.00     0.110 C 
HETATM    2  C4  UNL     1      -2.033   1.154  -1.202  1.00  0.00     0.048 C 
HETATM    3  C5  UNL     1      -1.142   2.041  -0.712  1.00  0.00     0.126 C 
HETATM    4  N1  UNL     1       0.086   2.526  -0.223  1.00  0.00    -0.228 NA
HETATM    5  C6  UNL     1       0.484   2.422   0.975  1.00  0.00     0.195 C 
HETATM    6  N2  UNL     1       1.728   3.063   0.865  1.00  0.00    -0.399 NA
HETATM    7  C7  UNL     1       2.827   2.416   0.832  1.00  0.00     0.329 C 
HETATM    8  C8  UNL     1       4.248   2.005   0.767  1.00  0.00     0.034 C 
HETATM    9  C9  UNL     1       4.533   0.694   0.827  1.00  0.00     0.043 C 
HETATM   10  C10 UNL     1       3.434  -0.344   0.961  1.00  0.00     0.083 C 
HETATM   11  C11 UNL     1       3.435  -1.278  -0.204  1.00  0.00     0.120 C 
HETATM   12  N3  UNL     1       2.489  -2.297  -0.290  1.00  0.00    -0.415 N 
HETATM   13  C12 UNL     1       1.122  -2.059  -0.622  1.00  0.00     0.090 C 
HETATM   14  C13 UNL     1       0.379  -3.360  -0.409  1.00  0.00     0.033 C 
HETATM   15  C14 UNL     1       0.461  -0.894  -0.010  1.00  0.00     0.147 C 
HETATM   16  N4  UNL     1      -0.935  -0.658  -0.270  1.00  0.00    -0.374 N 
HETATM   17  C15 UNL     1      -1.868  -0.606   0.846  1.00  0.00     0.004 C 
HETATM   18  C16 UNL     1      -2.010  -1.953   1.418  1.00  0.00     0.068 C 
HETATM   19  C17 UNL     1      -2.340   0.598   1.083  1.00  0.00     0.026 C 
HETATM   20  C18 UNL     1      -2.897   1.893   1.399  1.00  0.00     0.019 C 
HETATM   21  C19 UNL     1      -2.566   2.975   0.694  1.00  0.00     0.090 C 
HETATM   22  N5  UNL     1      -1.722   3.326  -0.430  1.00  0.00    -0.351 N 
HETATM   23  H16 UNL     1       2.810  -3.180  -0.729  1.00  0.00     0.153 HD
HETATM   24  H29 UNL     1      -1.666   4.288  -0.814  1.00  0.00     0.166 HD
ENDROOT
BRANCH   1  25
HETATM   25  C2  UNL     1      -3.039  -1.005  -1.476  1.00  0.00     0.025 C 
HETATM   26  C1  UNL     1      -3.902  -0.432  -2.558  1.00  0.00     0.007 C 
ENDBRANCH   1  25
BRANCH   9  27
HETATM   27  O1  UNL     1       5.854   0.381   0.761  1.00  0.00    -0.365 OA
HETATM   28  H11 UNL     1       6.549   0.821   1.355  1.00  0.00     0.217 HD
ENDBRANCH   9  27
TORSDOF 2
