REMARK  7 active torsions:
REMARK  status: ('A' for Active; 'I' for Inactive)
REMARK    1  A    between atoms: O1_2  and  B1_3 
REMARK    2  A    between atoms: C4_8  and  N3_9 
REMARK    3  A    between atoms: N3_9  and  C5_10 
REMARK    4  A    between atoms: C13_20  and  C14_21 
REMARK    5  A    between atoms: C14_21  and  N4_22 
REMARK    6  A    between atoms: N4_22  and  C16_24 
REMARK    7  A    between atoms: C16_24  and  C18_26 
REMARK       I    between atoms: C18_26  and  N5_27 
ROOT
HETATM    1  B1  UNL     1      -1.339   1.795   0.267  1.00  0.00     0.382 B 
HETATM    2  C2  UNL     1      -0.173   2.774   0.660  1.00  0.00     0.119 A 
HETATM    3  N1  UNL     1       1.083   2.093   0.448  1.00  0.00    -0.344 N 
HETATM    4  C3  UNL     1       2.252   2.700   0.703  1.00  0.00     0.211 A 
HETATM    5  N2  UNL     1       3.231   1.827   0.413  1.00  0.00    -0.224 NA
HETATM    6  C4  UNL     1       2.724   0.664  -0.026  1.00  0.00     0.156 A 
HETATM    7  C11 UNL     1       1.359   0.856   0.004  1.00  0.00     0.080 A 
HETATM    8  C12 UNL     1       0.274  -0.047  -0.358  1.00  0.00     0.029 A 
HETATM    9  C13 UNL     1      -0.973   0.372  -0.242  1.00  0.00    -0.055 A 
ENDROOT
BRANCH   6  10
HETATM   10  N3  UNL     1       3.372  -0.529  -0.439  1.00  0.00    -0.339 N 
HETATM   11  H7  UNL     1       2.780  -1.332  -0.754  1.00  0.00     0.167 HD
BRANCH  10  12
HETATM   12  C5  UNL     1       4.774  -0.729  -0.461  1.00  0.00     0.035 A 
HETATM   13  C6  UNL     1       5.742   0.177  -0.139  1.00  0.00     0.032 A 
HETATM   14  C7  UNL     1       7.096  -0.052  -0.168  1.00  0.00     0.046 A 
HETATM   15  C8  UNL     1       7.552  -1.310  -0.557  1.00  0.00     0.138 A 
HETATM   16  F1  UNL     1       8.888  -1.509  -0.577  1.00  0.00    -0.204 F 
HETATM   17  C9  UNL     1       6.613  -2.262  -0.893  1.00  0.00     0.074 A 
HETATM   18 CL1  UNL     1       7.176  -3.847  -1.382  1.00  0.00    -0.081 Cl
HETATM   19  C10 UNL     1       5.283  -1.954  -0.837  1.00  0.00     0.056 A 
ENDBRANCH  10  12
ENDBRANCH   6  10
BRANCH   9  20
HETATM   20  C14 UNL     1      -2.135  -0.496  -0.599  1.00  0.00     0.298 C 
BRANCH  20  21
HETATM   21  N4  UNL     1      -2.935  -0.668   0.573  1.00  0.00     0.100 N 
HETATM   22  C15 UNL     1      -2.233  -1.460   1.549  1.00  0.00     0.311 C 
BRANCH  21  23
HETATM   23  C16 UNL     1      -4.269  -1.113   0.376  1.00  0.00     0.309 C 
HETATM   24  C17 UNL     1      -5.081  -0.114  -0.452  1.00  0.00     0.053 C 
BRANCH  23  25
HETATM   25  C18 UNL     1      -4.366  -2.402  -0.345  1.00  0.00     0.248 C 
HETATM   26  N5  UNL     1      -5.642  -2.965  -0.615  1.00  0.00    -0.368 N 
HETATM   27  H21 UNL     1      -6.397  -2.836  -1.348  1.00  0.00     0.159 HD
HETATM   28  H22 UNL     1      -6.337  -3.673  -0.263  1.00  0.00     0.159 HD
HETATM   29  O2  UNL     1      -3.785  -3.375  -0.913  1.00  0.00    -0.271 OA
ENDBRANCH  23  25
ENDBRANCH  21  23
ENDBRANCH  20  21
ENDBRANCH   9  20
BRANCH   1  30
HETATM   30  O1  UNL     1      -2.673   2.371  -0.012  1.00  0.00    -0.450 OA
HETATM   31  C1  UNL     1      -2.693   3.716   0.281  1.00  0.00     0.174 C 
ENDBRANCH   1  30
TORSDOF 7
