REMARK  3 active torsions:
REMARK  status: ('A' for Active; 'I' for Inactive)
REMARK    1  A    between atoms: C2_2  and  C3_3 
REMARK    2  A    between atoms: C4_4  and  C5_5 
REMARK    3  A    between atoms: C5_5  and  C6_6 
ROOT
HETATM    1  C6  UNL     1       1.092  -0.642  -1.257  1.00  0.00     0.070 A 
HETATM    2  N1  UNL     1       1.425  -1.786  -1.896  1.00  0.00    -0.244 NA
HETATM    3  C7  UNL     1       0.673  -2.898  -1.909  1.00  0.00     0.236 A 
HETATM    4  N2  UNL     1      -0.502  -2.922  -1.255  1.00  0.00    -0.215 NA
HETATM    5  C8  UNL     1      -0.934  -1.825  -0.579  1.00  0.00     0.200 A 
HETATM    6  C9  UNL     1      -0.120  -0.698  -0.595  1.00  0.00     0.107 A 
HETATM    7  N3  UNL     1      -0.428   0.522   0.062  1.00  0.00    -0.380 N 
HETATM    8  C10 UNL     1      -1.483   0.936   0.956  1.00  0.00     0.161 C 
HETATM    9  C11 UNL     1      -2.779   0.318   0.578  1.00  0.00    -0.004 A 
HETATM   10  C12 UNL     1      -3.821   1.249   0.658  1.00  0.00     0.054 A 
HETATM   11  C13 UNL     1      -5.129   0.936   0.362  1.00  0.00     0.117 A 
HETATM   12  F1  UNL     1      -6.109   1.851   0.447  1.00  0.00    -0.206 F 
HETATM   13  C14 UNL     1      -5.437  -0.351  -0.033  1.00  0.00     0.045 A 
HETATM   14  C15 UNL     1      -4.444  -1.286  -0.122  1.00  0.00     0.041 A 
HETATM   15  C16 UNL     1      -3.113  -0.969   0.179  1.00  0.00     0.086 A 
HETATM   16  O1  UNL     1      -2.181  -2.011   0.051  1.00  0.00    -0.289 OA
HETATM   17  H9  UNL     1       0.229   1.282  -0.128  1.00  0.00     0.160 HD
ENDROOT
BRANCH   1  18
HETATM   18  C5  UNL     1       1.951   0.573  -1.262  1.00  0.00     0.089 C 
BRANCH  18  19
HETATM   19  C4  UNL     1       2.683   0.754  -0.001  1.00  0.00    -0.021 C 
HETATM   20  C3  UNL     1       3.984   0.789   0.111  1.00  0.00    -0.008 C 
BRANCH  20  21
HETATM   21  C2  UNL     1       4.915   0.952   1.218  1.00  0.00    -0.027 C 
HETATM   22  C1  UNL     1       6.252   0.964   1.153  1.00  0.00     0.031 C 
ENDBRANCH  20  21
ENDBRANCH  18  19
ENDBRANCH   1  18
TORSDOF 3
