REMARK  8 active torsions:
REMARK  status: ('A' for Active; 'I' for Inactive)
REMARK    1  A    between atoms: O1_2  and  C2_3 
REMARK    2  A    between atoms: C6_9  and  N3_10 
REMARK    3  A    between atoms: N3_10  and  C7_11 
REMARK    4  A    between atoms: C15_21  and  C16_22 
REMARK    5  A    between atoms: C16_22  and  N4_23 
REMARK    6  A    between atoms: N4_23  and  C18_25 
REMARK    7  A    between atoms: C18_25  and  C19_26 
REMARK    8  A    between atoms: C19_26  and  C20_27 
REMARK       I    between atoms: C20_27  and  N5_28 
ROOT
HETATM    1  C2  UNL     1       0.346  -2.572   0.016  1.00  0.00     0.078 A 
HETATM    2  C3  UNL     1      -0.681  -3.123  -0.732  1.00  0.00     0.070 A 
HETATM    3  C4  UNL     1      -1.654  -2.342  -1.355  1.00  0.00     0.074 A 
HETATM    4  N1  UNL     1      -2.641  -2.852  -2.076  1.00  0.00    -0.241 NA
HETATM    5  C5  UNL     1      -3.546  -2.038  -2.653  1.00  0.00     0.236 A 
HETATM    6  N2  UNL     1      -3.426  -0.701  -2.480  1.00  0.00    -0.224 NA
HETATM    7  C6  UNL     1      -2.431  -0.165  -1.752  1.00  0.00     0.142 A 
HETATM    8  C13 UNL     1      -1.496  -0.976  -1.153  1.00  0.00     0.039 A 
HETATM    9  C14 UNL     1      -0.498  -0.360  -0.421  1.00  0.00     0.029 A 
HETATM   10  C15 UNL     1       0.443  -1.187   0.174  1.00  0.00    -0.006 A 
ENDROOT
BRANCH   7  11
HETATM   11  N3  UNL     1      -2.497   1.251  -1.710  1.00  0.00    -0.340 N 
HETATM   12  H6  UNL     1      -1.944   1.941  -2.266  1.00  0.00     0.167 HD
BRANCH  11  13
HETATM   13  C7  UNL     1      -3.438   1.826  -0.791  1.00  0.00     0.035 A 
HETATM   14  C8  UNL     1      -3.660   3.196  -0.689  1.00  0.00     0.032 A 
HETATM   15  C9  UNL     1      -4.565   3.766   0.177  1.00  0.00     0.046 A 
HETATM   16  C10 UNL     1      -5.307   2.933   1.004  1.00  0.00     0.138 A 
HETATM   17  F1  UNL     1      -6.191   3.528   1.841  1.00  0.00    -0.204 F 
HETATM   18  C11 UNL     1      -5.128   1.552   0.947  1.00  0.00     0.074 A 
HETATM   19 CL1  UNL     1      -6.089   0.546   2.011  1.00  0.00    -0.081 Cl
HETATM   20  C12 UNL     1      -4.212   1.055   0.063  1.00  0.00     0.056 A 
ENDBRANCH  11  13
ENDBRANCH   7  11
BRANCH  10  21
HETATM   21  C16 UNL     1       1.506  -0.480   0.928  1.00  0.00     0.158 C 
BRANCH  21  22
HETATM   22  N4  UNL     1       2.669  -0.353   0.174  1.00  0.00    -0.412 N 
HETATM   23  C17 UNL     1       3.399  -1.442  -0.294  1.00  0.00     0.143 C 
BRANCH  22  24
HETATM   24  C18 UNL     1       3.294   0.928   0.121  1.00  0.00     0.125 C 
BRANCH  24  25
HETATM   25  C19 UNL     1       3.895   1.383   1.428  1.00  0.00     0.115 C 
BRANCH  25  26
HETATM   26  C20 UNL     1       4.488   2.722   1.161  1.00  0.00     0.196 C 
HETATM   27  N5  UNL     1       5.163   3.622   1.994  1.00  0.00    -0.273 NA
HETATM   28  H20 UNL     1       6.191   3.555   2.207  1.00  0.00     0.127 HD
HETATM   29  H21 UNL     1       6.186   3.349   2.055  1.00  0.00     0.127 HD
HETATM   30  O2  UNL     1       4.514   3.370   0.074  1.00  0.00    -0.280 OA
ENDBRANCH  25  26
ENDBRANCH  24  25
ENDBRANCH  22  24
ENDBRANCH  21  22
ENDBRANCH  10  21
BRANCH   1  31
HETATM   31  O1  UNL     1       1.272  -3.376   0.609  1.00  0.00    -0.355 OA
HETATM   32  C1  UNL     1       1.287  -4.766   0.528  1.00  0.00     0.210 C 
ENDBRANCH   1  31
TORSDOF 8
