REMARK  7 active torsions:
REMARK  status: ('A' for Active; 'I' for Inactive)
REMARK    1  A    between atoms: O1_2  and  C2_3 
REMARK    2  A    between atoms: C6_9  and  N3_10 
REMARK    3  A    between atoms: N3_10  and  C7_11 
REMARK    4  A    between atoms: C15_21  and  C16_22 
REMARK    5  A    between atoms: C16_22  and  N4_23 
REMARK    6  A    between atoms: N4_23  and  C18_25 
REMARK    7  A    between atoms: C18_25  and  N5_27 
ROOT
HETATM    1  C2  UNL     1      -0.916   2.224  -0.100  1.00  0.00     0.078 A 
HETATM    2  C3  UNL     1      -0.102   2.776   0.868  1.00  0.00     0.070 A 
HETATM    3  C4  UNL     1       0.866   2.062   1.544  1.00  0.00     0.074 A 
HETATM    4  N1  UNL     1       1.636   2.640   2.481  1.00  0.00    -0.241 NA
HETATM    5  C5  UNL     1       2.575   1.931   3.134  1.00  0.00     0.236 A 
HETATM    6  N2  UNL     1       2.733   0.612   2.828  1.00  0.00    -0.224 NA
HETATM    7  C6  UNL     1       1.966   0.024   1.891  1.00  0.00     0.142 A 
HETATM    8  C13 UNL     1       0.999   0.728   1.209  1.00  0.00     0.039 A 
HETATM    9  C14 UNL     1       0.187   0.175   0.243  1.00  0.00     0.029 A 
HETATM   10  C15 UNL     1      -0.792   0.898  -0.440  1.00  0.00    -0.006 A 
ENDROOT
BRANCH   7  11
HETATM   11  N3  UNL     1       2.139  -1.354   1.582  1.00  0.00    -0.340 N 
HETATM   12  H6  UNL     1       1.519  -1.960   2.159  1.00  0.00     0.167 HD
BRANCH  11  13
HETATM   13  C7  UNL     1       3.081  -1.718   0.581  1.00  0.00     0.035 A 
HETATM   14  C8  UNL     1       3.802  -0.706  -0.002  1.00  0.00     0.032 A 
HETATM   15  C9  UNL     1       4.734  -0.981  -0.981  1.00  0.00     0.046 A 
HETATM   16  C10 UNL     1       4.948  -2.282  -1.382  1.00  0.00     0.138 A 
HETATM   17  F1  UNL     1       5.842  -2.610  -2.331  1.00  0.00    -0.204 F 
HETATM   18  C11 UNL     1       4.232  -3.321  -0.807  1.00  0.00     0.074 A 
HETATM   19 CL1  UNL     1       4.423  -5.002  -1.240  1.00  0.00    -0.081 Cl
HETATM   20  C12 UNL     1       3.299  -3.017   0.178  1.00  0.00     0.056 A 
ENDBRANCH  11  13
ENDBRANCH   7  11
BRANCH  10  21
HETATM   21  C16 UNL     1      -1.542   0.097  -1.405  1.00  0.00     0.160 C 
BRANCH  21  22
HETATM   22  N4  UNL     1      -2.824  -0.368  -1.001  1.00  0.00    -0.390 N 
HETATM   23  C17 UNL     1      -3.796   0.617  -0.668  1.00  0.00     0.145 C 
BRANCH  22  24
HETATM   24  C18 UNL     1      -2.788  -1.522  -0.152  1.00  0.00     0.230 C 
HETATM   25  C19 UNL     1      -4.200  -1.933   0.181  1.00  0.00     0.060 C 
BRANCH  24  26
HETATM   26  N5  UNL     1      -2.106  -2.586  -0.821  1.00  0.00    -0.115 NA
HETATM   27  O2  UNL     1      -2.770  -3.434  -1.332  1.00  0.00    -0.065 OA
ENDBRANCH  24  26
ENDBRANCH  22  24
ENDBRANCH  21  22
ENDBRANCH  10  21
BRANCH   1  28
HETATM   28  O1  UNL     1      -1.881   2.927  -0.780  1.00  0.00    -0.355 OA
HETATM   29  C1  UNL     1      -2.203   4.274  -0.624  1.00  0.00     0.210 C 
ENDBRANCH   1  28
TORSDOF 7
