REMARK  5 active torsions:
REMARK  status: ('A' for Active; 'I' for Inactive)
REMARK    1  A    between atoms: C2_2  and  C3_3 
REMARK    2  A    between atoms: C3_3  and  C4_4 
REMARK    3  A    between atoms: C4_4  and  P1_5 
REMARK    4  A    between atoms: P1_5  and  C5_6 
REMARK    5  A    between atoms: C5_6  and  C6_7 
ROOT
HETATM    1  C6  UNL     1      -0.172   0.054  -0.295  1.00  0.00     0.028 C 
HETATM    2  N1  UNL     1      -0.886  -0.999  -0.652  1.00  0.00    -0.250 NA
HETATM    3  C7  UNL     1      -2.030  -0.883  -1.503  1.00  0.00     0.233 C 
HETATM    4  N2  UNL     1      -2.596  -0.627  -0.387  1.00  0.00    -0.238 NA
HETATM    5  C8  UNL     1      -3.960  -0.341  -0.291  1.00  0.00     0.110 A 
HETATM    6  C9  UNL     1      -3.933   0.810   0.515  1.00  0.00     0.069 A 
HETATM    7  C10 UNL     1      -5.169   1.392   0.827  1.00  0.00     0.035 A 
HETATM    8  C11 UNL     1      -6.365   0.874   0.372  1.00  0.00     0.046 A 
HETATM    9  C12 UNL     1      -6.351  -0.255  -0.415  1.00  0.00     0.140 A 
HETATM   10  F1  UNL     1      -7.409  -0.915  -0.957  1.00  0.00    -0.204 F 
HETATM   11  C13 UNL     1      -5.151  -0.845  -0.735  1.00  0.00     0.103 A 
HETATM   12 CL1  UNL     1      -4.822  -2.271  -1.705  1.00  0.00    -0.078 Cl
HETATM   13  N3  UNL     1      -2.890   1.574   1.128  1.00  0.00    -0.328 N 
HETATM   14  S1  UNL     1      -1.399   2.297   0.493  1.00  0.00    -0.050 SA
HETATM   15  C14 UNL     1      -0.669   1.353  -0.840  1.00  0.00     0.152 C 
HETATM   16  H14 UNL     1      -2.979   1.773   2.152  1.00  0.00     0.174 HD
ENDROOT
BRANCH   1  17
HETATM   17  C5  UNL     1       1.019  -0.004   0.583  1.00  0.00     0.087 C 
BRANCH  17  18
HETATM   18  P1  UNL     1       2.528   0.658  -0.249  1.00  0.00    -0.107 P 
BRANCH  18  19
HETATM   19  C4  UNL     1       3.833  -0.316  -0.483  1.00  0.00     0.044 C 
BRANCH  19  20
HETATM   20  C3  UNL     1       4.740  -1.487  -0.490  1.00  0.00     0.028 C 
BRANCH  20  21
HETATM   21  C2  UNL     1       5.966  -1.245   0.389  1.00  0.00    -0.001 C 
HETATM   22  C1  UNL     1       6.674  -0.032  -0.185  1.00  0.00     0.005 C 
ENDBRANCH  20  21
ENDBRANCH  19  20
ENDBRANCH  18  19
ENDBRANCH  17  18
ENDBRANCH   1  17
TORSDOF 5
