REMARK  4 active torsions:
REMARK  status: ('A' for Active; 'I' for Inactive)
REMARK    1  A    between atoms: C3_3  and  C4_4 
REMARK       I    between atoms: C4_4  and  N1_6 
REMARK    2  A    between atoms: N1_6  and  C5_7 
REMARK    3  A    between atoms: C10_14  and  N4_15 
REMARK    4  A    between atoms: N4_15  and  C11_16 
ROOT
HETATM    1  C1  UNL     1       6.946   2.878  -0.604  1.00  0.00     0.112 C 
HETATM    2  C2  UNL     1       5.910   1.849  -0.463  1.00  0.00    -0.101 C 
HETATM    3  C3  UNL     1       5.057   0.992  -0.361  1.00  0.00    -0.006 C 
ENDROOT
BRANCH   3   4
HETATM    4  C4  UNL     1       4.040  -0.021  -0.220  1.00  0.00     0.300 C 
HETATM    5  O1  UNL     1       4.061  -1.049  -0.972  1.00  0.00    -0.258 OA
HETATM    6  N1  UNL     1       3.047   0.198   0.781  1.00  0.00    -0.316 N 
HETATM    7  H4  UNL     1       3.073   1.057   1.372  1.00  0.00     0.170 HD
BRANCH   6   8
HETATM    8  C5  UNL     1       1.916  -0.557   1.204  1.00  0.00     0.036 A 
HETATM    9  C6  UNL     1       2.109  -1.482   2.216  1.00  0.00     0.032 A 
HETATM   10  C7  UNL     1       1.022  -2.220   2.637  1.00  0.00     0.035 A 
HETATM   11  C8  UNL     1      -0.209  -2.022   2.050  1.00  0.00     0.072 A 
HETATM   12  N2  UNL     1      -1.205  -2.789   2.528  1.00  0.00    -0.241 NA
HETATM   13  C17 UNL     1      -0.456  -1.116   1.040  1.00  0.00     0.041 A 
HETATM   14  C9  UNL     1      -2.428  -2.641   1.993  1.00  0.00     0.236 A 
HETATM   15  N3  UNL     1      -2.629  -1.752   1.016  1.00  0.00    -0.224 NA
HETATM   16  C10 UNL     1      -1.696  -0.955   0.487  1.00  0.00     0.142 A 
HETATM   17  C18 UNL     1       0.667  -0.411   0.665  1.00  0.00     0.047 A 
BRANCH  16  18
HETATM   18  N4  UNL     1      -1.877  -0.006  -0.546  1.00  0.00    -0.340 N 
HETATM   19  H8  UNL     1      -1.112   0.579  -0.878  1.00  0.00     0.167 HD
BRANCH  18  20
HETATM   20  C11 UNL     1      -3.070   0.279  -1.256  1.00  0.00     0.035 A 
HETATM   21  C12 UNL     1      -4.213  -0.472  -1.115  1.00  0.00     0.029 A 
HETATM   22  C13 UNL     1      -5.383  -0.207  -1.790  1.00  0.00     0.004 A 
HETATM   23  C14 UNL     1      -5.471   0.854  -2.665  1.00  0.00     0.019 A 
HETATM   24  C15 UNL     1      -4.346   1.629  -2.832  1.00  0.00     0.013 A 
HETATM   25 BR1  UNL     1      -4.380   3.110  -4.018  1.00  0.00    -0.051 Br
HETATM   26  C16 UNL     1      -3.208   1.321  -2.136  1.00  0.00     0.048 A 
ENDBRANCH  18  20
ENDBRANCH  16  18
ENDBRANCH   6   8
ENDBRANCH   3   4
TORSDOF 4
