REMARK  3 active torsions:
REMARK  status: ('A' for Active; 'I' for Inactive)
REMARK    1  A    between atoms: C2_2  and  C3_4 
REMARK    2  A    between atoms: C8_11  and  C9_12 
REMARK    3  A    between atoms: C14_18  and  N3_19 
ROOT
HETATM    1  C3  UNL     1      -2.233  -1.142   1.253  1.00  0.00     0.010 A 
HETATM    2  C4  UNL     1      -2.272  -2.522   1.504  1.00  0.00     0.017 A 
HETATM    3  C5  UNL     1      -1.180  -3.253   1.090  1.00  0.00     0.033 A 
HETATM    4  C6  UNL     1      -0.126  -2.632   0.469  1.00  0.00     0.070 A 
HETATM    5  N1  UNL     1       0.950  -3.351   0.064  1.00  0.00    -0.241 NA
HETATM    6  C7  UNL     1       1.978  -2.738  -0.541  1.00  0.00     0.234 A 
HETATM    7  N2  UNL     1       1.921  -1.426  -0.733  1.00  0.00    -0.240 NA
HETATM    8  C8  UNL     1       0.939  -0.591  -0.394  1.00  0.00     0.082 A 
HETATM    9  C15 UNL     1      -0.056  -1.291   0.210  1.00  0.00     0.023 A 
HETATM   10  C16 UNL     1      -1.152  -0.603   0.632  1.00  0.00     0.031 A 
ENDROOT
BRANCH   8  11
HETATM   11  C9  UNL     1       1.070   0.783  -0.681  1.00  0.00     0.016 A 
HETATM   12  C10 UNL     1       0.381   1.926  -0.539  1.00  0.00     0.034 A 
HETATM   13  C11 UNL     1       0.673   3.204  -0.889  1.00  0.00     0.011 A 
HETATM   14 BR1  UNL     1      -0.494   4.662  -0.567  1.00  0.00    -0.051 Br
HETATM   15  C12 UNL     1       1.877   3.426  -1.503  1.00  0.00     0.021 A 
HETATM   16  C13 UNL     1       2.690   2.346  -1.716  1.00  0.00     0.025 A 
HETATM   17  C14 UNL     1       2.256   1.111  -1.304  1.00  0.00     0.018 A 
BRANCH  17  18
HETATM   18  N3  UNL     1       3.270   0.134  -1.623  1.00  0.00    -0.302 NA
HETATM   19  H10 UNL     1       4.118  -0.422  -1.564  1.00  0.00     0.124 HD
HETATM   20  H11 UNL     1       4.120  -0.419  -1.559  1.00  0.00     0.124 HD
ENDBRANCH  17  18
ENDBRANCH   8  11
BRANCH   1  21
HETATM   21  C2  UNL     1      -3.414  -0.377   1.707  1.00  0.00     0.155 C 
HETATM   22  C1  UNL     1      -3.404   1.104   1.450  1.00  0.00     0.096 C 
HETATM   23  O1  UNL     1      -4.347  -0.986   2.270  1.00  0.00    -0.293 OA
ENDBRANCH   1  21
TORSDOF 3
