REMARK  2 active torsions:
REMARK  status: ('A' for Active; 'I' for Inactive)
REMARK    1  A    between atoms: C3_3  and  C4_4 
REMARK    2  A    between atoms: C4_4  and  C5_6 
ROOT
HETATM    1  C1  UNL     1       5.635   0.500  -0.638  1.00  0.00     0.112 C 
HETATM    2  C2  UNL     1       4.335  -0.174  -0.627  1.00  0.00    -0.103 C 
HETATM    3  C3  UNL     1       3.272  -0.738  -0.602  1.00  0.00    -0.029 C 
ENDROOT
BRANCH   3   4
HETATM    4  C4  UNL     1       1.998  -1.396  -0.593  1.00  0.00     0.210 C 
HETATM    5  O1  UNL     1       1.776  -2.470  -1.214  1.00  0.00    -0.283 OA
BRANCH   4   6
HETATM    6  C5  UNL     1       0.941  -0.666   0.243  1.00  0.00     0.092 C 
HETATM    7  C6  UNL     1      -0.311  -1.444   0.157  1.00  0.00    -0.001 C 
HETATM    8  C7  UNL     1      -1.618  -1.771  -0.039  1.00  0.00     0.006 C 
HETATM    9  C8  UNL     1      -1.970  -3.195   0.168  1.00  0.00     0.192 C 
HETATM   10  C10 UNL     1      -2.665  -0.805  -0.466  1.00  0.00     0.158 C 
HETATM   11  N1  UNL     1      -3.239  -3.482  -0.393  1.00  0.00    -0.278 NA
HETATM   12  C9  UNL     1      -4.064  -2.640  -0.843  1.00  0.00     0.229 C 
HETATM   13  N2  UNL     1      -3.807  -1.216  -0.873  1.00  0.00    -0.222 NA
HETATM   14  N3  UNL     1      -2.078   0.406  -0.088  1.00  0.00    -0.241 NA
HETATM   15  C11 UNL     1      -2.789   1.366   0.463  1.00  0.00     0.119 C 
HETATM   16  C12 UNL     1      -2.463   2.715   0.972  1.00  0.00     0.016 C 
HETATM   17  C13 UNL     1      -1.301   3.354   1.074  1.00  0.00    -0.009 C 
HETATM   18  C14 UNL     1       0.128   3.061   0.759  1.00  0.00     0.026 C 
HETATM   19 BR1  UNL     1       1.215   4.630   1.267  1.00  0.00    -0.086 Br
HETATM   20  C15 UNL     1       0.120   1.784   0.230  1.00  0.00     0.067 C 
HETATM   21  C16 UNL     1       0.910   0.706  -0.328  1.00  0.00     0.024 C 
ENDBRANCH   4   6
ENDBRANCH   3   4
TORSDOF 2
