REMARK  7 active torsions:
REMARK  status: ('A' for Active; 'I' for Inactive)
REMARK    1  A    between atoms: C2_2  and  C3_4 
REMARK    2  A    between atoms: C3_4  and  C4_5 
REMARK    3  A    between atoms: C4_5  and  C5_6 
REMARK    4  A    between atoms: C5_6  and  C6_7 
REMARK    5  A    between atoms: C6_7  and  N1_8 
REMARK    6  A    between atoms: N1_8  and  C7_9 
REMARK       I    between atoms: N4_17  and  C13_18 
REMARK    7  A    between atoms: C13_18  and  C14_20 
ROOT
HETATM    1  C14 UNL     1      -3.165   1.602   1.275  1.00  0.00    -0.005 C 
HETATM    2  C15 UNL     1      -4.103   2.228   0.926  1.00  0.00    -0.101 C 
HETATM    3  C16 UNL     1      -5.258   3.009   0.520  1.00  0.00     0.112 C 
ENDROOT
BRANCH   1   4
HETATM    4  C13 UNL     1      -2.064   0.847   1.708  1.00  0.00     0.306 C 
HETATM    5  N4  UNL     1      -1.393  -0.221   1.177  1.00  0.00    -0.265 N 
HETATM    6  C7  UNL     1      -0.763  -1.209   0.695  1.00  0.00     0.282 C 
HETATM    7  C12 UNL     1      -2.186  -0.303   0.062  1.00  0.00     0.100 C 
HETATM    8  N2  UNL     1       0.289  -1.927   0.283  1.00  0.00    -0.224 NA
HETATM    9  C8  UNL     1       0.135  -2.620  -0.904  1.00  0.00     0.231 C 
HETATM   10  N3  UNL     1      -1.054  -2.681  -1.542  1.00  0.00    -0.254 NA
HETATM   11  C9  UNL     1      -2.140  -2.855  -0.785  1.00  0.00     0.118 C 
HETATM   12  C10 UNL     1      -2.863  -2.581   0.395  1.00  0.00     0.021 C 
HETATM   13  C11 UNL     1      -3.215  -1.215   0.400  1.00  0.00     0.019 C 
HETATM   14  O1  UNL     1      -1.295   0.839   2.687  1.00  0.00    -0.257 OA
BRANCH   6  15
HETATM   15  N1  UNL     1       0.344  -0.371   1.176  1.00  0.00    -0.352 N 
HETATM   16  H7  UNL     1       0.754  -0.362   2.200  1.00  0.00     0.163 HD
BRANCH  15  17
HETATM   17  C6  UNL     1       1.326   0.618   0.705  1.00  0.00     0.066 C 
BRANCH  17  18
HETATM   18  C5  UNL     1       2.334  -0.132   0.171  1.00  0.00     0.069 C 
BRANCH  18  19
HETATM   19  C4  UNL     1       3.197   1.175  -0.214  1.00  0.00     0.006 C 
BRANCH  19  20
HETATM   20  C3  UNL     1       4.435   0.992  -0.860  1.00  0.00    -0.007 C 
BRANCH  20  21
HETATM   21  C2  UNL     1       5.741   1.195  -1.520  1.00  0.00    -0.003 C 
HETATM   22  C1  UNL     1       6.456   0.184  -1.965  1.00  0.00     0.031 C 
HETATM   23 BR1  UNL     1       6.399   2.968  -1.705  1.00  0.00    -0.052 Br
ENDBRANCH  20  21
ENDBRANCH  19  20
ENDBRANCH  18  19
ENDBRANCH  17  18
ENDBRANCH  15  17
ENDBRANCH   6  15
ENDBRANCH   1   4
TORSDOF 7
