REMARK  6 active torsions:
REMARK  status: ('A' for Active; 'I' for Inactive)
REMARK    1  A    between atoms: N1_2  and  C3_4 
REMARK    2  A    between atoms: C3_4  and  C4_5 
REMARK    3  A    between atoms: C5_6  and  C6_7 
REMARK       I    between atoms: C6_7  and  N2_9 
REMARK    4  A    between atoms: N2_9  and  C7_10 
REMARK    5  A    between atoms: C12_17  and  N5_18 
REMARK    6  A    between atoms: N5_18  and  C13_19 
ROOT
HETATM    1  C7  UNL     1       0.153  -1.717  -1.444  1.00  0.00     0.036 A 
HETATM    2  C8  UNL     1       0.016  -2.731  -2.404  1.00  0.00     0.032 A 
HETATM    3  C9  UNL     1      -1.259  -3.127  -2.752  1.00  0.00     0.035 A 
HETATM    4  C10 UNL     1      -2.378  -2.550  -2.178  1.00  0.00     0.072 A 
HETATM    5  N3  UNL     1      -3.616  -2.942  -2.523  1.00  0.00    -0.241 NA
HETATM    6  C11 UNL     1      -4.683  -2.352  -1.937  1.00  0.00     0.236 A 
HETATM    7  N4  UNL     1      -4.605  -1.366  -1.002  1.00  0.00    -0.224 NA
HETATM    8  C12 UNL     1      -3.369  -0.969  -0.653  1.00  0.00     0.142 A 
HETATM    9  C19 UNL     1      -2.272  -1.550  -1.230  1.00  0.00     0.041 A 
HETATM   10  C20 UNL     1      -0.992  -1.172  -0.900  1.00  0.00     0.047 A 
ENDROOT
BRANCH   1  11
HETATM   11  N2  UNL     1       1.465  -1.300  -1.076  1.00  0.00    -0.316 N 
HETATM   12  C6  UNL     1       2.426  -0.340  -1.487  1.00  0.00     0.301 C 
HETATM   13  O1  UNL     1       2.329   0.498  -2.417  1.00  0.00    -0.258 OA
HETATM   14  H9  UNL     1       1.644  -1.956  -0.285  1.00  0.00     0.170 HD
BRANCH  12  15
HETATM   15  C5  UNL     1       3.664  -0.341  -0.728  1.00  0.00    -0.004 C 
HETATM   16  C4  UNL     1       4.705  -0.350  -0.109  1.00  0.00    -0.066 C 
BRANCH  16  17
HETATM   17  C3  UNL     1       5.959  -0.346   0.654  1.00  0.00     0.365 C 
BRANCH  17  18
HETATM   18  N1  UNL     1       6.651   0.868   0.276  1.00  0.00     0.090 N 
HETATM   19  C1  UNL     1       5.982   2.041   0.747  1.00  0.00     0.310 C 
HETATM   20  C2  UNL     1       7.990   0.790   0.845  1.00  0.00     0.310 C 
ENDBRANCH  17  18
ENDBRANCH  16  17
ENDBRANCH  12  15
ENDBRANCH   1  11
BRANCH   8  21
HETATM   21  N5  UNL     1      -3.261   0.043   0.307  1.00  0.00    -0.339 N 
HETATM   22  H13 UNL     1      -2.426   0.503   0.723  1.00  0.00     0.167 HD
BRANCH  21  23
HETATM   23  C13 UNL     1      -4.338   0.680   0.941  1.00  0.00     0.045 C 
HETATM   24  C14 UNL     1      -4.518   0.926   2.211  1.00  0.00    -0.001 C 
HETATM   25  C15 UNL     1      -4.978   2.059   2.604  1.00  0.00    -0.007 C 
HETATM   26  C16 UNL     1      -5.978   2.865   1.854  1.00  0.00     0.074 C 
HETATM   27  C17 UNL     1      -6.214   2.181   0.539  1.00  0.00    -0.006 C 
HETATM   28 BR1  UNL     1      -7.654   2.784  -0.562  1.00  0.00    -0.055 Br
HETATM   29  C18 UNL     1      -5.455   1.163   0.108  1.00  0.00     0.045 C 
ENDBRANCH  21  23
ENDBRANCH   8  21
TORSDOF 6
