REMARK  5 active torsions:
REMARK  status: ('A' for Active; 'I' for Inactive)
REMARK    1  A    between atoms: C1_2  and  C2_3 
REMARK    2  A    between atoms: C2_3  and  N1_4 
REMARK    3  A    between atoms: N1_4  and  C3_5 
REMARK    4  A    between atoms: C5_7  and  N2_8 
REMARK    5  A    between atoms: N2_8  and  C6_9 
ROOT
HETATM    1  C3  UNL     1      -2.145   0.180  -0.620  1.00  0.00     0.025 A 
HETATM    2  C4  UNL     1      -1.237   1.150  -0.729  1.00  0.00     0.061 A 
HETATM    3  C5  UNL     1       0.122   1.147  -0.496  1.00  0.00     0.144 A 
HETATM    4  N3  UNL     1       0.718   2.306  -0.710  1.00  0.00    -0.223 NA
HETATM    5  C12 UNL     1       0.139   3.439  -1.118  1.00  0.00     0.236 A 
HETATM    6  N4  UNL     1      -1.184   3.426  -1.341  1.00  0.00    -0.241 NA
HETATM    7  C13 UNL     1      -1.871   2.294  -1.149  1.00  0.00     0.070 A 
HETATM    8  C14 UNL     1      -3.167   2.106  -1.320  1.00  0.00     0.012 A 
HETATM    9  C15 UNL     1      -3.494   0.678  -0.986  1.00  0.00     0.087 A 
ENDROOT
BRANCH   3  10
HETATM   10  N2  UNL     1       0.714  -0.064  -0.064  1.00  0.00    -0.340 N 
HETATM   11  H5  UNL     1       0.157  -0.906   0.070  1.00  0.00     0.167 HD
BRANCH  10  12
HETATM   12  C6  UNL     1       2.074  -0.334   0.241  1.00  0.00     0.035 A 
HETATM   13  C7  UNL     1       2.568  -1.552   0.659  1.00  0.00     0.029 A 
HETATM   14  C8  UNL     1       3.888  -1.792   0.950  1.00  0.00     0.004 A 
HETATM   15  C9  UNL     1       4.823  -0.787   0.834  1.00  0.00     0.019 A 
HETATM   16  C10 UNL     1       4.376   0.449   0.420  1.00  0.00     0.013 A 
HETATM   17 BR1  UNL     1       5.703   1.805   0.275  1.00  0.00    -0.051 Br
HETATM   18  C11 UNL     1       3.042   0.642   0.139  1.00  0.00     0.048 A 
ENDBRANCH  10  12
ENDBRANCH   3  10
BRANCH   1  19
HETATM   19  N1  UNL     1      -2.107  -1.169  -0.245  1.00  0.00    -0.386 N 
HETATM   20  H4  UNL     1      -1.811  -1.908  -0.937  1.00  0.00     0.159 HD
BRANCH  19  21
HETATM   21  C2  UNL     1      -2.479  -1.562   1.112  1.00  0.00     0.188 C 
BRANCH  21  22
HETATM   22  C1  UNL     1      -2.364  -3.037   1.281  1.00  0.00     0.250 C 
HETATM   23  O1  UNL     1      -2.532  -3.863   2.134  1.00  0.00    -0.305 OA
ENDBRANCH  21  22
ENDBRANCH  19  21
ENDBRANCH   1  19
TORSDOF 5
