REMARK  6 active torsions:
REMARK  status: ('A' for Active; 'I' for Inactive)
REMARK    1  A    between atoms: C2_2  and  C3_3 
REMARK       I    between atoms: C3_3  and  N1_5 
REMARK    2  A    between atoms: N1_5  and  C4_6 
REMARK    3  A    between atoms: C9_13  and  N4_14 
REMARK    4  A    between atoms: N4_14  and  C10_15 
REMARK    5  A    between atoms: C10_15  and  C11_16 
REMARK    6  A    between atoms: C11_16  and  C12_17 
ROOT
HETATM    1  C4  UNL     1      -2.037   0.113   0.419  1.00  0.00     0.036 A 
HETATM    2  C5  UNL     1      -2.722   0.116   1.607  1.00  0.00     0.032 A 
HETATM    3  C6  UNL     1      -2.150  -0.299   2.807  1.00  0.00     0.035 A 
HETATM    4  C7  UNL     1      -0.839  -0.709   2.688  1.00  0.00     0.072 A 
HETATM    5  N2  UNL     1      -0.196  -1.126   3.814  1.00  0.00    -0.241 NA
HETATM    6  C8  UNL     1       1.077  -1.535   3.787  1.00  0.00     0.236 A 
HETATM    7  N3  UNL     1       1.835  -1.570   2.645  1.00  0.00    -0.224 NA
HETATM    8  C9  UNL     1       1.238  -1.161   1.482  1.00  0.00     0.141 A 
HETATM    9  C14 UNL     1      -0.065  -0.747   1.542  1.00  0.00     0.041 A 
HETATM   10  C15 UNL     1      -0.702  -0.318   0.375  1.00  0.00     0.047 A 
ENDROOT
BRANCH   8  11
HETATM   11  N4  UNL     1       1.950  -1.148   0.251  1.00  0.00    -0.350 N 
HETATM   12  H8  UNL     1       1.369  -1.591  -0.487  1.00  0.00     0.166 HD
BRANCH  11  13
HETATM   13  C10 UNL     1       3.197  -0.701  -0.152  1.00  0.00     0.091 C 
BRANCH  13  14
HETATM   14  C11 UNL     1       4.391  -0.316  -0.481  1.00  0.00     0.032 C 
BRANCH  14  15
HETATM   15  C12 UNL     1       4.198   0.545  -1.669  1.00  0.00    -0.010 C 
HETATM   16  C13 UNL     1       5.259   1.100  -2.253  1.00  0.00     0.051 C 
HETATM   17 BR1  UNL     1       2.671   1.090  -2.649  1.00  0.00    -0.056 Br
ENDBRANCH  14  15
ENDBRANCH  13  14
ENDBRANCH  11  13
ENDBRANCH   8  11
BRANCH   1  18
HETATM   18  N1  UNL     1      -2.809   0.573  -0.671  1.00  0.00    -0.324 N 
HETATM   19  C3  UNL     1      -3.042   1.826  -1.277  1.00  0.00     0.241 C 
HETATM   20  O1  UNL     1      -2.404   2.731  -0.703  1.00  0.00    -0.269 OA
HETATM   21  H4  UNL     1      -3.227  -0.355  -0.974  1.00  0.00     0.169 HD
BRANCH  19  22
HETATM   22  C2  UNL     1      -3.947   1.776  -2.400  1.00  0.00     0.048 C 
HETATM   23  C1  UNL     1      -4.574   0.690  -2.890  1.00  0.00     0.037 C 
ENDBRANCH  19  22
ENDBRANCH   1  18
TORSDOF 6
