REMARK  5 active torsions:
REMARK  status: ('A' for Active; 'I' for Inactive)
REMARK    1  A    between atoms: C2_2  and  O1_3 
REMARK    2  A    between atoms: O1_3  and  C3_4 
REMARK    3  A    between atoms: C3_4  and  N1_6 
REMARK    4  A    between atoms: N1_6  and  C5_7 
REMARK    5  A    between atoms: C11_13  and  N2_14 
ROOT
HETATM    1  C5  UNL     1       1.768  -0.466   0.028  1.00  0.00     0.030 A 
HETATM    2  C6  UNL     1       1.967   0.486  -0.950  1.00  0.00     0.031 A 
HETATM    3  C7  UNL     1       0.965   1.385  -1.299  1.00  0.00     0.034 A 
HETATM    4  C8  UNL     1      -0.256   1.321  -0.648  1.00  0.00     0.067 A 
HETATM    5  C9  UNL     1      -0.504   0.388   0.337  1.00  0.00     0.010 A 
HETATM    6  C10 UNL     1       0.530  -0.478   0.638  1.00  0.00     0.041 A 
HETATM    7  C11 UNL     1      -1.593  -0.015   1.237  1.00  0.00     0.288 C 
HETATM    8  C12 UNL     1      -2.922  -0.027   0.598  1.00  0.00     0.007 A 
HETATM    9  C13 UNL     1      -3.574  -1.175   1.065  1.00  0.00     0.012 A 
HETATM   10  C14 UNL     1      -4.836  -1.591   0.734  1.00  0.00     0.002 A 
HETATM   11  C15 UNL     1      -5.539  -0.807  -0.146  1.00  0.00     0.021 A 
HETATM   12  C16 UNL     1      -4.980   0.352  -0.666  1.00  0.00     0.038 A 
HETATM   13 BR1  UNL     1      -5.950   1.459  -1.897  1.00  0.00    -0.049 Br
HETATM   14  C17 UNL     1      -3.704   0.698  -0.281  1.00  0.00     0.059 A 
HETATM   15  N3  UNL     1      -3.461   1.919  -0.998  1.00  0.00    -0.349 N 
HETATM   16  C18 UNL     1      -2.271   2.600  -1.389  1.00  0.00     0.208 C 
HETATM   17  N4  UNL     1      -1.006   2.368  -1.253  1.00  0.00    -0.244 NA
HETATM   18  H18 UNL     1      -4.320   2.415  -1.296  1.00  0.00     0.166 HD
ENDROOT
BRANCH   1  19
HETATM   19  N1  UNL     1       2.781  -1.394   0.396  1.00  0.00    -0.364 N 
HETATM   20  H8  UNL     1       2.569  -2.087   1.143  1.00  0.00     0.162 HD
BRANCH  19  21
HETATM   21  C3  UNL     1       4.068  -1.351  -0.271  1.00  0.00     0.222 C 
HETATM   22  C4  UNL     1       3.885  -1.703  -1.708  1.00  0.00     0.063 C 
BRANCH  21  23
HETATM   23  O1  UNL     1       4.732  -0.108  -0.117  1.00  0.00    -0.339 OA
BRANCH  23  24
HETATM   24  C2  UNL     1       4.997   0.397   1.157  1.00  0.00     0.127 C 
HETATM   25  C1  UNL     1       4.799   0.027   2.418  1.00  0.00     0.037 C 
ENDBRANCH  23  24
ENDBRANCH  21  23
ENDBRANCH  19  21
ENDBRANCH   1  19
BRANCH   7  26
HETATM   26  N2  UNL     1      -1.662   0.781   2.457  1.00  0.00     0.091 N 
HETATM   27  H13 UNL     1      -0.779   1.294   2.648  1.00  0.00     0.314 HD
HETATM   28  H14 UNL     1      -2.494   1.415   2.428  1.00  0.00     0.314 HD
ENDBRANCH   7  26
TORSDOF 5
