REMARK  4 active torsions:
REMARK  status: ('A' for Active; 'I' for Inactive)
REMARK    1  A    between atoms: C2_2  and  N1_4 
REMARK    2  A    between atoms: C8_11  and  N4_12 
REMARK    3  A    between atoms: N4_12  and  C9_13 
REMARK    4  A    between atoms: C14_19  and  O1_20 
ROOT
HETATM    1  N1  UNL     1      -2.916   0.032  -0.323  1.00  0.00    -0.337 N 
HETATM    2  C4  UNL     1      -3.515   1.176   0.310  1.00  0.00     0.094 A 
HETATM    3  C5  UNL     1      -2.732   2.168   0.735  1.00  0.00     0.023 A 
HETATM    4  C6  UNL     1      -1.312   2.150   0.607  1.00  0.00     0.171 A 
HETATM    5  N2  UNL     1      -0.682   3.361   0.188  1.00  0.00    -0.269 NA
HETATM    6  C7  UNL     1       0.547   3.256  -0.351  1.00  0.00     0.230 C 
HETATM    7  N3  UNL     1       1.289   2.071  -0.577  1.00  0.00    -0.224 NA
HETATM    8  C8  UNL     1       0.780   0.929  -0.285  1.00  0.00     0.139 C 
HETATM    9  C15 UNL     1      -0.690   1.002  -0.072  1.00  0.00     0.032 A 
HETATM   10  C16 UNL     1      -1.495   0.008  -0.486  1.00  0.00     0.109 A 
ENDROOT
BRANCH   8  11
HETATM   11  N4  UNL     1       1.331  -0.368  -0.395  1.00  0.00    -0.338 N 
HETATM   12  H10 UNL     1       0.800  -1.232  -0.609  1.00  0.00     0.167 HD
BRANCH  11  13
HETATM   13  C9  UNL     1       2.727  -0.467  -0.188  1.00  0.00     0.068 A 
HETATM   14  C10 UNL     1       3.603   0.514   0.189  1.00  0.00     0.051 A 
HETATM   15  C11 UNL     1       4.954   0.320   0.351  1.00  0.00     0.013 A 
HETATM   16 BR1  UNL     1       6.094   1.753   0.879  1.00  0.00    -0.051 Br
HETATM   17  C12 UNL     1       5.518  -0.917   0.134  1.00  0.00     0.022 A 
HETATM   18  C13 UNL     1       4.682  -1.943  -0.248  1.00  0.00     0.040 A 
HETATM   19  C14 UNL     1       3.335  -1.693  -0.396  1.00  0.00     0.092 A 
BRANCH  19  20
HETATM   20  O1  UNL     1       2.567  -2.782  -0.783  1.00  0.00    -0.358 OA
HETATM   21  H14 UNL     1       1.913  -2.745  -1.555  1.00  0.00     0.217 HD
ENDBRANCH  19  20
ENDBRANCH  11  13
ENDBRANCH   8  11
BRANCH   1  22
HETATM   22  C2  UNL     1      -3.754  -1.027  -0.760  1.00  0.00     0.002 C 
HETATM   23  C1  UNL     1      -4.723  -0.698  -1.598  1.00  0.00     0.038 C 
HETATM   24  C3  UNL     1      -3.558  -2.429  -0.300  1.00  0.00     0.068 C 
ENDBRANCH   1  22
TORSDOF 4
