REMARK  5 active torsions:
REMARK  status: ('A' for Active; 'I' for Inactive)
REMARK    1  A    between atoms: C2_2  and  N1_3 
REMARK    2  A    between atoms: N1_3  and  O1_4 
REMARK    3  A    between atoms: N1_3  and  C3_5 
REMARK    4  A    between atoms: C9_11  and  N2_12 
REMARK    5  A    between atoms: C14_18  and  N3_19 
ROOT
HETATM    1  C3  UNL     1       1.956  -0.088   0.447  1.00  0.00     0.056 A 
HETATM    2  C4  UNL     1       2.599  -0.013  -0.775  1.00  0.00     0.017 A 
HETATM    3  C5  UNL     1       1.786  -0.683  -1.750  1.00  0.00     0.011 A 
HETATM    4  C6  UNL     1       1.030  -1.300  -2.626  1.00  0.00     0.022 A 
HETATM    5  C7  UNL     1       0.676  -1.150  -1.189  1.00  0.00     0.021 A 
HETATM    6  C8  UNL     1       0.756  -0.805   0.124  1.00  0.00     0.018 A 
HETATM    7  C9  UNL     1      -0.794  -0.993  -1.636  1.00  0.00     0.122 A 
HETATM    8  C15 UNL     1      -0.528   0.358  -2.422  1.00  0.00    -0.003 A 
HETATM    9  N4  UNL     1       0.448  -0.398  -2.358  1.00  0.00     0.000 N 
ENDROOT
BRANCH   7  10
HETATM   10  N2  UNL     1      -1.703  -0.763  -0.573  1.00  0.00    -0.354 N 
HETATM   11  C10 UNL     1      -2.231  -1.985   0.003  1.00  0.00     0.152 A 
HETATM   12  C11 UNL     1      -3.143  -1.763   1.120  1.00  0.00    -0.006 A 
HETATM   13  C12 UNL     1      -3.544  -0.632   1.650  1.00  0.00     0.020 A 
HETATM   14  C13 UNL     1      -2.983   0.554   1.015  1.00  0.00     0.054 A 
HETATM   15 BR1  UNL     1      -3.470   2.283   1.665  1.00  0.00    -0.047 Br
HETATM   16  C14 UNL     1      -2.143   0.460  -0.001  1.00  0.00     0.115 A 
BRANCH  16  17
HETATM   17  N3  UNL     1      -1.613   1.637  -0.596  1.00  0.00    -0.384 N 
HETATM   18  H13 UNL     1      -2.359   2.154  -1.119  1.00  0.00     0.157 HD
HETATM   19  H14 UNL     1      -0.579   1.828  -0.439  1.00  0.00     0.157 HD
ENDBRANCH  16  17
ENDBRANCH   7  10
BRANCH   1  20
HETATM   20  N1  UNL     1       2.384   0.388   1.648  1.00  0.00    -0.238 N 
BRANCH  20  21
HETATM   21  C2  UNL     1       3.633   1.000   1.464  1.00  0.00     0.113 C 
HETATM   22  C1  UNL     1       3.801   2.302   1.523  1.00  0.00     0.032 C 
ENDBRANCH  20  21
BRANCH  20  23
HETATM   23  O1  UNL     1       1.467   0.106   2.571  1.00  0.00    -0.283 OA
HETATM   24  H4  UNL     1       0.982   0.861   2.938  1.00  0.00     0.245 HD
ENDBRANCH  20  23
ENDBRANCH   1  20
TORSDOF 5
