REMARK  2 active torsions:
REMARK  status: ('A' for Active; 'I' for Inactive)
REMARK    1  A    between atoms: C11_16  and  N4_17 
REMARK    2  A    between atoms: N4_17  and  C12_18 
ROOT
HETATM    1  N1  UNL     1      -3.161  -0.132  -4.205  1.00  0.00    -0.170 NA
HETATM    2  C1  UNL     1      -2.148  -0.287  -3.669  1.00  0.00     0.208 C 
HETATM    3  N2  UNL     1      -0.925  -0.467  -2.999  1.00  0.00    -0.146 NA
HETATM    4  C2  UNL     1      -0.981  -0.378  -1.692  1.00  0.00     0.209 C 
HETATM    5  O1  UNL     1      -2.193  -0.120  -1.058  1.00  0.00    -0.289 OA
HETATM    6  C3  UNL     1      -2.526  -0.293   0.293  1.00  0.00     0.086 A 
HETATM    7  C4  UNL     1      -3.739   0.338   0.559  1.00  0.00     0.041 A 
HETATM    8  C5  UNL     1      -4.247   0.287   1.829  1.00  0.00     0.045 A 
HETATM    9  C6  UNL     1      -3.539  -0.389   2.812  1.00  0.00     0.117 A 
HETATM   10  F1  UNL     1      -4.012  -0.459   4.080  1.00  0.00    -0.206 F 
HETATM   11  C7  UNL     1      -2.339  -1.004   2.521  1.00  0.00     0.054 A 
HETATM   12  C8  UNL     1      -1.798  -0.973   1.249  1.00  0.00    -0.004 A 
HETATM   13  C9  UNL     1      -0.510  -1.710   1.209  1.00  0.00     0.161 C 
HETATM   14  N3  UNL     1       0.482  -1.033   0.360  1.00  0.00    -0.381 N 
HETATM   15  C10 UNL     1       0.302  -0.567  -0.987  1.00  0.00     0.098 C 
HETATM   16  C11 UNL     1       1.370  -0.279  -1.675  1.00  0.00     0.121 C 
HETATM   17  H6  UNL     1       1.442  -0.864   0.782  1.00  0.00     0.160 HD
ENDROOT
BRANCH  16  18
HETATM   18  N4  UNL     1       2.787  -0.212  -1.684  1.00  0.00    -0.365 N 
HETATM   19  H8  UNL     1       3.430  -0.960  -2.058  1.00  0.00     0.165 HD
BRANCH  18  20
HETATM   20  C12 UNL     1       3.516   0.894  -1.174  1.00  0.00     0.040 C 
HETATM   21  C13 UNL     1       4.156   2.044  -1.518  1.00  0.00     0.053 C 
HETATM   22 CL1  UNL     1       4.729   3.281  -2.638  1.00  0.00    -0.086 Cl
HETATM   23  C14 UNL     1       4.698   1.926  -0.156  1.00  0.00     0.085 A 
HETATM   24  C15 UNL     1       4.689   1.478   1.100  1.00  0.00     0.100 A 
HETATM   25  C16 UNL     1       3.519   1.096   0.304  1.00  0.00     0.118 A 
HETATM   26  F2  UNL     1       5.151   1.332   2.381  1.00  0.00    -0.213 F 
ENDBRANCH  18  20
ENDBRANCH  16  18
TORSDOF 2
