REMARK  3 active torsions:
REMARK  status: ('A' for Active; 'I' for Inactive)
REMARK    1  A    between atoms: C3_3  and  C4_4 
REMARK    2  A    between atoms: C4_4  and  C5_6 
REMARK    3  A    between atoms: C5_6  and  C6_7 
ROOT
HETATM    1  C6  UNL     1       0.584  -0.218   0.407  1.00  0.00     0.045 C 
HETATM    2  C7  UNL     1       1.036  -0.462  -0.787  1.00  0.00    -0.002 C 
HETATM    3  C8  UNL     1       0.083  -0.798  -1.648  1.00  0.00    -0.022 C 
HETATM    4  C9  UNL     1      -1.002  -1.586  -1.041  1.00  0.00    -0.021 C 
HETATM    5  B1  UNL     1      -2.392  -1.448  -1.744  1.00  0.00     0.185 B 
HETATM    6  C10 UNL     1      -3.688  -1.309  -0.928  1.00  0.00    -0.082 C 
HETATM    7  C11 UNL     1      -3.826  -0.096  -0.445  1.00  0.00     0.001 C 
HETATM    8  C12 UNL     1      -2.880   0.982  -0.649  1.00  0.00     0.026 A 
HETATM    9  C13 UNL     1      -3.441   2.007  -1.383  1.00  0.00     0.134 A 
HETATM   10  N1  UNL     1      -2.821   3.169  -1.743  1.00  0.00    -0.245 NA
HETATM   11  C14 UNL     1      -1.534   3.278  -1.317  1.00  0.00     0.124 A 
HETATM   12  C15 UNL     1      -0.886   4.561  -1.727  1.00  0.00     0.093 C 
HETATM   13  N2  UNL     1      -0.941   2.304  -0.599  1.00  0.00    -0.215 NA
HETATM   14  C16 UNL     1      -1.577   1.179  -0.263  1.00  0.00     0.141 A 
HETATM   15  N3  UNL     1      -0.687   0.383   0.489  1.00  0.00    -0.339 N 
HETATM   16  H10 UNL     1      -2.510  -1.752  -2.882  1.00  0.00    -0.021 HD
HETATM   17  H17 UNL     1      -1.327   0.348   1.307  1.00  0.00     0.167 HD
ENDROOT
BRANCH   1  18
HETATM   18  C5  UNL     1       1.258  -0.504   1.656  1.00  0.00     0.049 C 
BRANCH  18  19
HETATM   19  C4  UNL     1       2.457  -1.072   1.651  1.00  0.00     0.012 C 
HETATM   20 BR1  UNL     1       3.250  -1.492  -0.046  1.00  0.00    -0.051 Br
BRANCH  19  21
HETATM   21  C3  UNL     1       3.147  -1.366   2.906  1.00  0.00     0.015 C 
HETATM   22  C2  UNL     1       4.330  -1.921   3.062  1.00  0.00    -0.030 C 
HETATM   23  C1  UNL     1       5.481  -2.482   2.329  1.00  0.00     0.036 C 
ENDBRANCH  19  21
ENDBRANCH  18  19
ENDBRANCH   1  18
TORSDOF 3
