REMARK  4 active torsions:
REMARK  status: ('A' for Active; 'I' for Inactive)
REMARK    1  A    between atoms: C5_6  and  N1_7 
REMARK    2  A    between atoms: N1_7  and  C6_8 
REMARK    3  A    between atoms: C8_10  and  C9_11 
REMARK    4  A    between atoms: C9_11  and  C10_12 
ROOT
HETATM    1  C6  UNL     1       2.035  -0.042   0.419  1.00  0.00     0.108 C 
HETATM    2  C7  UNL     1       0.643  -0.446   0.064  1.00  0.00     0.023 C 
HETATM    3  C8  UNL     1      -0.433   0.218  -0.330  1.00  0.00     0.007 C 
HETATM    4  N2  UNL     1      -0.192   1.616  -0.444  1.00  0.00    -0.393 N 
HETATM    5  C20 UNL     1       1.162   2.048  -0.670  1.00  0.00     0.122 C 
HETATM    6  C21 UNL     1       2.148   1.485   0.309  1.00  0.00     0.048 C 
HETATM    7  H16 UNL     1      -0.966   2.324  -0.374  1.00  0.00     0.159 HD
ENDROOT
BRANCH   3   8
HETATM    8  C9  UNL     1      -1.744  -0.352  -0.641  1.00  0.00     0.095 C 
BRANCH   8   9
HETATM    9  C10 UNL     1      -2.857   0.099   0.190  1.00  0.00    -0.042 A 
HETATM   10  C11 UNL     1      -2.830   0.926   1.277  1.00  0.00     0.008 A 
HETATM   11  C12 UNL     1      -3.921   1.309   2.021  1.00  0.00     0.001 A 
HETATM   12  C13 UNL     1      -5.154   0.814   1.634  1.00  0.00     0.012 A 
HETATM   13  C14 UNL     1      -5.236  -0.030   0.536  1.00  0.00    -0.025 A 
HETATM   14  C15 UNL     1      -6.498  -0.494   0.196  1.00  0.00     0.012 A 
HETATM   15  C19 UNL     1      -4.104  -0.401  -0.200  1.00  0.00    -0.019 A 
HETATM   16  C16 UNL     1      -6.590  -1.333  -0.893  1.00  0.00     0.001 A 
HETATM   17  C17 UNL     1      -5.507  -1.731  -1.655  1.00  0.00     0.001 A 
HETATM   18  C18 UNL     1      -4.276  -1.251  -1.286  1.00  0.00     0.013 A 
ENDBRANCH   8   9
ENDBRANCH   3   8
BRANCH   1  19
HETATM   19  N1  UNL     1       3.038  -0.678  -0.387  1.00  0.00    -0.382 N 
HETATM   20  H4  UNL     1       2.647  -1.258  -1.180  1.00  0.00     0.160 HD
BRANCH  19  21
HETATM   21  C5  UNL     1       4.450  -0.616  -0.242  1.00  0.00     0.029 A 
HETATM   22  C4  UNL     1       5.049   0.086   0.779  1.00  0.00     0.029 A 
HETATM   23  C3  UNL     1       6.430   0.163   0.930  1.00  0.00     0.004 A 
HETATM   24  C2  UNL     1       7.217  -0.498   0.008  1.00  0.00     0.019 A 
HETATM   25  C1  UNL     1       6.625  -1.195  -1.005  1.00  0.00     0.013 A 
HETATM   26 BR1  UNL     1       7.687  -2.128  -2.307  1.00  0.00    -0.051 Br
HETATM   27  C22 UNL     1       5.265  -1.258  -1.135  1.00  0.00     0.048 A 
ENDBRANCH  19  21
ENDBRANCH   1  19
TORSDOF 4
