REMARK  2 active torsions:
REMARK  status: ('A' for Active; 'I' for Inactive)
REMARK    1  A    between atoms: C8_9  and  C9_10 
REMARK    2  A    between atoms: C9_10  and  C10_11 
ROOT
HETATM    1 BR1  UNL     1       4.164   1.446  -3.835  1.00  0.00    -0.051 Br
HETATM    2  C1  UNL     1       4.127   1.458  -1.925  1.00  0.00     0.011 A 
HETATM    3  C2  UNL     1       5.273   1.873  -1.304  1.00  0.00     0.019 A 
HETATM    4  C3  UNL     1       5.258   1.885   0.087  1.00  0.00     0.002 A 
HETATM    5  C4  UNL     1       4.164   1.506   0.805  1.00  0.00     0.014 A 
HETATM    6  C5  UNL     1       3.004   1.086   0.195  1.00  0.00    -0.005 A 
HETATM    7  C6  UNL     1       1.746   0.644   0.729  1.00  0.00     0.081 C 
HETATM    8  C7  UNL     1       0.687   1.268   1.112  1.00  0.00     0.031 C 
HETATM    9  C8  UNL     1      -0.509   0.729   0.983  1.00  0.00     0.028 C 
HETATM   10  N1  UNL     1      -0.468  -0.267   1.988  1.00  0.00    -0.352 N 
HETATM   11  C20 UNL     1      -0.249  -0.015   3.387  1.00  0.00     0.229 C 
HETATM   12  N2  UNL     1       0.901  -0.086   3.997  1.00  0.00    -0.169 NA
HETATM   13  N3  UNL     1       1.989  -0.444   3.173  1.00  0.00    -0.271 N 
HETATM   14  C21 UNL     1       1.745  -1.265   2.039  1.00  0.00     0.226 C 
HETATM   15  N4  UNL     1       1.626  -0.761   0.864  1.00  0.00    -0.241 NA
HETATM   16  C22 UNL     1       3.001   1.067  -1.200  1.00  0.00     0.032 A 
HETATM   17  H13 UNL     1      -0.643  -1.067   1.352  1.00  0.00     0.166 HD
HETATM   18  H15 UNL     1       2.953  -0.113   3.390  1.00  0.00     0.190 HD
ENDROOT
BRANCH   9  19
HETATM   19  C9  UNL     1      -1.485   1.209  -0.027  1.00  0.00     0.097 C 
BRANCH  19  20
HETATM   20  C10 UNL     1      -1.906   0.174  -0.978  1.00  0.00    -0.041 A 
HETATM   21  C11 UNL     1      -1.394   0.099  -2.280  1.00  0.00     0.008 A 
HETATM   22  C12 UNL     1      -1.746  -0.857  -3.212  1.00  0.00     0.001 A 
HETATM   23  C13 UNL     1      -2.664  -1.817  -2.862  1.00  0.00     0.012 A 
HETATM   24  C14 UNL     1      -3.202  -1.797  -1.601  1.00  0.00    -0.025 A 
HETATM   25  C15 UNL     1      -4.127  -2.781  -1.290  1.00  0.00     0.012 A 
HETATM   26  C19 UNL     1      -2.819  -0.825  -0.713  1.00  0.00    -0.019 A 
HETATM   27  C16 UNL     1      -4.683  -2.781  -0.037  1.00  0.00     0.001 A 
HETATM   28  C17 UNL     1      -4.333  -1.824   0.898  1.00  0.00     0.001 A 
HETATM   29  C18 UNL     1      -3.404  -0.867   0.529  1.00  0.00     0.013 A 
ENDBRANCH  19  20
ENDBRANCH   9  19
TORSDOF 2
