REMARK  5 active torsions:
REMARK  status: ('A' for Active; 'I' for Inactive)
REMARK    1  A    between atoms: C4_4  and  C5_5 
REMARK    2  A    between atoms: C5_5  and  C6_7 
REMARK    3  A    between atoms: C7_8  and  C8_9 
REMARK    4  A    between atoms: C8_9  and  N1_10 
REMARK    5  A    between atoms: C15_18  and  N2_19 
ROOT
HETATM    1  C1  UNL     1       0.707  -3.334  -2.295  1.00  0.00     0.049 C 
HETATM    2  C2  UNL     1       1.106  -2.236  -1.346  1.00  0.00    -0.047 C 
HETATM    3  C3  UNL     1       0.285  -1.868  -0.393  1.00  0.00    -0.006 C 
HETATM    4  C4  UNL     1       0.284  -0.878   0.702  1.00  0.00     0.088 C 
HETATM    5  C13 UNL     1       1.145   0.329   0.464  1.00  0.00     0.077 C 
HETATM    6  C14 UNL     1       2.560   0.022   0.186  1.00  0.00     0.050 C 
HETATM    7  C15 UNL     1       3.529   0.432   1.020  1.00  0.00     0.118 C 
HETATM    8  N3  UNL     1       3.038  -0.706  -0.939  1.00  0.00    -0.264 NA
HETATM    9  C22 UNL     1       2.424  -1.650  -1.576  1.00  0.00     0.123 C 
ENDROOT
BRANCH   4  10
HETATM   10  C5  UNL     1      -1.106  -0.386   0.850  1.00  0.00     0.157 C 
HETATM   11  O1  UNL     1      -1.704  -0.547   1.956  1.00  0.00    -0.293 OA
BRANCH  10  12
HETATM   12  C6  UNL     1      -1.765   0.274  -0.269  1.00  0.00     0.048 C 
HETATM   13  C7  UNL     1      -2.992   0.741  -0.230  1.00  0.00     0.007 C 
BRANCH  13  14
HETATM   14  C8  UNL     1      -4.090   0.829   0.728  1.00  0.00     0.300 C 
BRANCH  14  15
HETATM   15  N1  UNL     1      -5.296   0.162   0.283  1.00  0.00     0.096 N 
HETATM   16  C9  UNL     1      -6.318   0.305   1.294  1.00  0.00     0.299 C 
HETATM   17  C10 UNL     1      -7.170   1.534   1.077  1.00  0.00     0.198 C 
HETATM   18  O2  UNL     1      -7.836   1.550  -0.128  1.00  0.00    -0.388 OA
HETATM   19  C11 UNL     1      -7.295   0.673  -1.061  1.00  0.00     0.198 C 
HETATM   20  C12 UNL     1      -5.778   0.671  -0.979  1.00  0.00     0.299 C 
ENDBRANCH  14  15
ENDBRANCH  13  14
ENDBRANCH  10  12
ENDBRANCH   4  10
BRANCH   7  21
HETATM   21  N2  UNL     1       4.920   0.189   0.844  1.00  0.00    -0.354 N 
HETATM   22  C16 UNL     1       5.365  -1.188   0.911  1.00  0.00     0.155 A 
HETATM   23  C17 UNL     1       6.835  -1.289   0.710  1.00  0.00    -0.005 A 
HETATM   24  C18 UNL     1       7.643  -0.261   0.497  1.00  0.00     0.019 A 
HETATM   25  C19 UNL     1       7.109   1.081   0.446  1.00  0.00     0.033 A 
HETATM   26 BR1  UNL     1       8.276   2.532   0.142  1.00  0.00    -0.049 Br
HETATM   27  C20 UNL     1       5.810   1.299   0.611  1.00  0.00     0.025 A 
HETATM   28  C21 UNL     1       5.305   2.701   0.551  1.00  0.00     0.070 C 
ENDBRANCH   7  21
TORSDOF 5
