REMARK  5 active torsions:
REMARK  status: ('A' for Active; 'I' for Inactive)
REMARK       I    between atoms: N1_4  and  C4_5 
REMARK    1  A    between atoms: C4_5  and  C5_7 
REMARK    2  A    between atoms: C6_8  and  C7_9 
REMARK    3  A    between atoms: C7_9  and  N2_10 
REMARK    4  A    between atoms: C14_18  and  N3_19 
REMARK    5  A    between atoms: N3_19  and  C15_20 
ROOT
HETATM    1  C1  UNL     1      -1.173  -4.382  -1.018  1.00  0.00     0.018 C 
HETATM    2  C2  UNL     1      -1.164  -3.113  -0.235  1.00  0.00     0.052 C 
HETATM    3  C3  UNL     1      -0.404  -1.994  -0.925  1.00  0.00     0.137 C 
HETATM    4  N1  UNL     1      -0.307  -0.926   0.064  1.00  0.00    -0.344 N 
HETATM    5  C4  UNL     1       0.891  -0.442   0.679  1.00  0.00     0.243 C 
HETATM    6  O1  UNL     1       1.024   0.481   1.553  1.00  0.00    -0.268 OA
HETATM    7  C12 UNL     1      -1.566  -0.274   0.466  1.00  0.00     0.169 C 
HETATM    8  C13 UNL     1      -2.664  -1.255   0.380  1.00  0.00     0.012 A 
HETATM    9  C14 UNL     1      -3.959  -0.813   0.652  1.00  0.00     0.043 A 
HETATM   10  C21 UNL     1      -4.964  -1.785   0.569  1.00  0.00     0.049 A 
HETATM   11  C22 UNL     1      -4.800  -3.120   0.248  1.00  0.00     0.119 A 
HETATM   12  N4  UNL     1      -3.529  -3.468   0.000  1.00  0.00    -0.264 NA
HETATM   13  C23 UNL     1      -2.527  -2.580   0.065  1.00  0.00     0.049 A 
ENDROOT
BRANCH   5  14
HETATM   14  C5  UNL     1       2.176  -1.025   0.316  1.00  0.00     0.072 C 
HETATM   15  C6  UNL     1       3.250  -0.537   0.919  1.00  0.00    -0.002 C 
BRANCH  15  16
HETATM   16  C7  UNL     1       4.618  -1.065   0.618  1.00  0.00     0.144 C 
BRANCH  16  17
HETATM   17  N2  UNL     1       5.444  -0.006   0.112  1.00  0.00    -0.405 N 
HETATM   18  C8  UNL     1       5.737   0.969   1.100  1.00  0.00     0.143 C 
HETATM   19  C9  UNL     1       5.370   2.385   0.735  1.00  0.00     0.187 C 
HETATM   20  O2  UNL     1       5.955   2.619  -0.532  1.00  0.00    -0.388 OA
HETATM   21  C10 UNL     1       5.169   1.908  -1.421  1.00  0.00     0.187 C 
HETATM   22  C11 UNL     1       5.164   0.440  -1.200  1.00  0.00     0.143 C 
ENDBRANCH  16  17
ENDBRANCH  15  16
ENDBRANCH   5  14
BRANCH   9  23
HETATM   23  N3  UNL     1      -4.325   0.509   1.008  1.00  0.00    -0.356 N 
HETATM   24  H21 UNL     1      -4.723   0.408   1.989  1.00  0.00     0.166 HD
BRANCH  23  25
HETATM   25  C15 UNL     1      -4.281   1.777   0.420  1.00  0.00     0.033 A 
HETATM   26  C16 UNL     1      -4.548   2.881   1.199  1.00  0.00     0.029 A 
HETATM   27  C17 UNL     1      -4.522   4.133   0.642  1.00  0.00     0.004 A 
HETATM   28  C18 UNL     1      -4.234   4.333  -0.689  1.00  0.00     0.019 A 
HETATM   29  C19 UNL     1      -3.960   3.263  -1.514  1.00  0.00     0.013 A 
HETATM   30 BR1  UNL     1      -3.549   3.431  -3.368  1.00  0.00    -0.051 Br
HETATM   31  C20 UNL     1      -4.000   2.028  -0.903  1.00  0.00     0.048 A 
ENDBRANCH  23  25
ENDBRANCH   9  23
TORSDOF 5
