REMARK  3 active torsions:
REMARK  status: ('A' for Active; 'I' for Inactive)
REMARK    1  A    between atoms: O1_2  and  C2_3 
REMARK    2  A    between atoms: C7_10  and  N1_11 
REMARK    3  A    between atoms: N1_11  and  C8_12 
ROOT
HETATM    1  C2  UNL     1       4.091   0.429  -0.431  1.00  0.00     0.149 C 
HETATM    2  C3  UNL     1       2.894   0.317  -0.991  1.00  0.00     0.031 C 
HETATM    3  C4  UNL     1       2.887   0.388  -2.418  1.00  0.00     0.020 C 
HETATM    4 BR1  UNL     1       4.375  -0.051  -3.528  1.00  0.00    -0.051 Br
HETATM    5  C5  UNL     1       1.886   0.754  -3.159  1.00  0.00    -0.086 C 
HETATM    6  B1  UNL     1       0.282   0.081  -2.461  1.00  0.00     0.232 B 
HETATM    7  C6  UNL     1       0.480   0.018  -0.682  1.00  0.00    -0.045 A 
HETATM    8  C7  UNL     1      -0.626  -0.150   0.084  1.00  0.00     0.031 A 
HETATM    9  C14 UNL     1      -0.354  -0.184   1.433  1.00  0.00     0.048 A 
HETATM   10  C15 UNL     1       0.893  -0.066   2.008  1.00  0.00     0.119 A 
HETATM   11  N2  UNL     1       1.953   0.098   1.204  1.00  0.00    -0.261 NA
HETATM   12  C16 UNL     1       1.733   0.137  -0.122  1.00  0.00     0.067 A 
ENDROOT
BRANCH   8  13
HETATM   13  N1  UNL     1      -1.892  -0.283  -0.492  1.00  0.00    -0.356 N 
HETATM   14  H5  UNL     1      -1.940  -0.200  -1.549  1.00  0.00     0.166 HD
BRANCH  13  15
HETATM   15  C8  UNL     1      -3.189  -0.519   0.008  1.00  0.00     0.032 A 
HETATM   16  C9  UNL     1      -3.530  -1.308   1.076  1.00  0.00     0.029 A 
HETATM   17  C10 UNL     1      -4.792  -1.506   1.570  1.00  0.00     0.002 A 
HETATM   18  C11 UNL     1      -5.827  -0.850   0.937  1.00  0.00     0.000 A 
HETATM   19  C12 UNL     1      -5.606  -0.030  -0.147  1.00  0.00     0.002 A 
HETATM   20  C13 UNL     1      -4.304   0.105  -0.568  1.00  0.00     0.029 A 
ENDBRANCH  13  15
ENDBRANCH   8  13
BRANCH   1  21
HETATM   21  O1  UNL     1       5.279   0.602  -1.124  1.00  0.00    -0.367 OA
HETATM   22  C1  UNL     1       6.365   1.344  -0.639  1.00  0.00     0.208 C 
ENDBRANCH   1  21
TORSDOF 3
