REMARK  10 active torsions:
REMARK  status: ('A' for Active; 'I' for Inactive)
REMARK    1  A    between atoms: N1_1  and  C1_2 
REMARK    2  A    between atoms: C1_2  and  C2_3 
REMARK    3  A    between atoms: C2_3  and  C13_18 
REMARK    4  A    between atoms: C3_4  and  C4_5 
REMARK    5  A    between atoms: C4_5  and  N2_6 
REMARK    6  A    between atoms: C4_5  and  C5_7 
REMARK    7  A    between atoms: C5_7  and  C6_9 
REMARK    8  A    between atoms: C7_10  and  C8_11 
REMARK    9  A    between atoms: C8_11  and  N3_12 
REMARK   10  A    between atoms: C15_20  and  C16_21 
ROOT
HETATM    1  C2  UNL     1       1.376  -0.967   0.057  1.00  0.00    -0.003 C 
HETATM    2  C3  UNL     1       0.461  -1.892   0.042  1.00  0.00     0.027 C 
ENDROOT
BRANCH   1   3
HETATM    3  C1  UNL     1       1.216   0.470   0.391  1.00  0.00     0.307 C 
BRANCH   3   4
HETATM    4  N1  UNL     1       2.004   0.879   1.541  1.00  0.00     0.082 N 
HETATM    5  H1  UNL     1       1.599   1.769   1.872  1.00  0.00     0.313 HD
HETATM    6  H2  UNL     1       1.981   0.137   2.281  1.00  0.00     0.313 HD
ENDBRANCH   3   4
ENDBRANCH   1   3
BRANCH   1   7
HETATM    7  C13 UNL     1       2.749  -1.361  -0.306  1.00  0.00     0.065 A 
HETATM    8  C14 UNL     1       3.790  -0.495  -0.364  1.00  0.00     0.044 A 
HETATM    9  C15 UNL     1       5.087  -0.808  -0.692  1.00  0.00    -0.022 A 
HETATM   10  C22 UNL     1       5.363  -2.147  -0.997  1.00  0.00     0.031 A 
HETATM   11  C23 UNL     1       4.291  -3.010  -0.933  1.00  0.00     0.118 A 
HETATM   12  N4  UNL     1       3.054  -2.635  -0.606  1.00  0.00    -0.261 NA
BRANCH   9  13
HETATM   13  C16 UNL     1       6.116   0.241  -0.714  1.00  0.00    -0.025 A 
HETATM   14  C17 UNL     1       5.784   1.537  -1.061  1.00  0.00     0.012 A 
HETATM   15  C18 UNL     1       6.786   2.497  -1.069  1.00  0.00     0.002 A 
HETATM   16  C19 UNL     1       8.106   2.180  -0.735  1.00  0.00     0.019 A 
HETATM   17  C20 UNL     1       8.371   0.871  -0.399  1.00  0.00     0.011 A 
HETATM   18 BR1  UNL     1      10.146   0.299   0.082  1.00  0.00    -0.051 Br
HETATM   19  C21 UNL     1       7.417  -0.123  -0.374  1.00  0.00     0.031 A 
ENDBRANCH   9  13
ENDBRANCH   1   7
BRANCH   2  20
HETATM   20  C4  UNL     1      -0.980  -1.919   0.320  1.00  0.00     0.314 C 
BRANCH  20  21
HETATM   21  N2  UNL     1      -1.757  -1.807  -0.910  1.00  0.00     0.094 N 
HETATM   22  H7  UNL     1      -1.587  -2.694  -1.451  1.00  0.00     0.314 HD
HETATM   23  H8  UNL     1      -1.525  -0.959  -1.462  1.00  0.00     0.314 HD
ENDBRANCH  20  21
BRANCH  20  24
HETATM   24  C5  UNL     1      -1.368  -0.944   1.349  1.00  0.00     0.185 C 
HETATM   25  O1  UNL     1      -0.529  -1.203   2.278  1.00  0.00    -0.291 OA
BRANCH  24  26
HETATM   26  C6  UNL     1      -2.372   0.137   1.556  1.00  0.00     0.050 C 
HETATM   27  C7  UNL     1      -3.363   0.672   0.849  1.00  0.00     0.007 C 
BRANCH  27  28
HETATM   28  C8  UNL     1      -4.177   0.739  -0.371  1.00  0.00     0.300 C 
BRANCH  28  29
HETATM   29  N3  UNL     1      -5.559   0.494  -0.143  1.00  0.00     0.096 N 
HETATM   30  C9  UNL     1      -6.287   1.489   0.587  1.00  0.00     0.299 C 
HETATM   31  C10 UNL     1      -7.529   0.807   1.132  1.00  0.00     0.198 C 
HETATM   32  O2  UNL     1      -8.003  -0.178   0.297  1.00  0.00    -0.388 OA
HETATM   33  C11 UNL     1      -7.750   0.083  -1.047  1.00  0.00     0.198 C 
HETATM   34  C12 UNL     1      -6.292   0.201  -1.359  1.00  0.00     0.299 C 
ENDBRANCH  28  29
ENDBRANCH  27  28
ENDBRANCH  24  26
ENDBRANCH  20  24
ENDBRANCH   2  20
TORSDOF 10
