REMARK  4 active torsions:
REMARK  status: ('A' for Active; 'I' for Inactive)
REMARK    1  A    between atoms: O1_2  and  C2_3 
REMARK    2  A    between atoms: C2_3  and  C3_4 
REMARK    3  A    between atoms: C5_6  and  O2_7 
REMARK    4  A    between atoms: C7_9  and  O3_10 
ROOT
HETATM    1  C3  UNL     1      -1.665   1.572  -0.069  1.00  0.00    -0.027 C 
HETATM    2  C4  UNL     1      -2.420   0.530   0.423  1.00  0.00     0.047 C 
HETATM    3  C5  UNL     1      -2.180  -0.931   0.918  1.00  0.00     0.102 C 
HETATM    4  C7  UNL     1      -0.862  -1.505   0.778  1.00  0.00     0.111 C 
HETATM    5  C9  UNL     1       0.443  -0.594   0.449  1.00  0.00     0.026 A 
HETATM    6  C10 UNL     1       0.919  -1.428  -0.403  1.00  0.00     0.056 A 
HETATM    7  N1  UNL     1       1.488  -0.530  -1.422  1.00  0.00    -0.279 N 
HETATM    8  N2  UNL     1       1.509   0.886  -1.408  1.00  0.00    -0.158 NA
HETATM    9  C11 UNL     1       1.021   1.369  -0.458  1.00  0.00     0.158 A 
HETATM   10  C12 UNL     1       0.322   0.871   0.790  1.00  0.00     0.098 A 
HETATM   11  C13 UNL     1      -0.072   1.705   1.733  1.00  0.00     0.002 A 
HETATM   12  C14 UNL     1      -0.558   2.268   0.363  1.00  0.00     0.153 A 
HETATM   13  N3  UNL     1       0.755   2.612   0.045  1.00  0.00    -0.268 N 
HETATM   14  N4  UNL     1       2.075   2.956  -0.274  1.00  0.00    -0.144 NA
HETATM   15  N5  UNL     1       3.033   2.064   0.393  1.00  0.00    -0.308 N 
HETATM   16  C15 UNL     1       3.934   0.959   0.052  1.00  0.00     0.018 C 
HETATM   17  C16 UNL     1       5.185   1.735  -0.056  1.00  0.00     0.069 C 
HETATM   18  C17 UNL     1       3.987  -0.369  -0.178  1.00  0.00     0.025 C 
HETATM   19  C18 UNL     1       3.416  -1.738  -0.304  1.00  0.00    -0.001 C 
HETATM   20  C19 UNL     1       2.495  -2.691  -0.295  1.00  0.00    -0.005 C 
HETATM   21  C20 UNL     1       0.909  -2.768  -0.015  1.00  0.00     0.132 C 
HETATM   22 BR1  UNL     1       1.562  -3.216   1.834  1.00  0.00    -0.080 Br
HETATM   23  H13 UNL     1       1.951  -0.790  -2.289  1.00  0.00     0.189 HD
HETATM   24  H16 UNL     1       2.303   3.897   0.012  1.00  0.00     0.173 HD
HETATM   25  H17 UNL     1       3.070   2.304   1.430  1.00  0.00     0.182 HD
ENDROOT
BRANCH   1  26
HETATM   26  C2  UNL     1      -2.100   2.163  -1.339  1.00  0.00     0.204 C 
BRANCH  26  27
HETATM   27  O1  UNL     1      -3.179   1.706  -1.952  1.00  0.00    -0.392 OA
HETATM   28  C1  UNL     1      -4.443   1.927  -1.601  1.00  0.00     0.201 C 
ENDBRANCH  26  27
ENDBRANCH   1  26
BRANCH   3  29
HETATM   29  O2  UNL     1      -3.017  -1.761   1.461  1.00  0.00    -0.353 OA
HETATM   30  C6  UNL     1      -4.400  -1.820   1.073  1.00  0.00     0.210 C 
ENDBRANCH   3  29
BRANCH   4  31
HETATM   31  O3  UNL     1      -0.689  -2.816   0.901  1.00  0.00    -0.352 OA
HETATM   32  C8  UNL     1      -1.692  -3.826   0.720  1.00  0.00     0.210 C 
ENDBRANCH   4  31
TORSDOF 4
