REMARK  5 active torsions:
REMARK  status: ('A' for Active; 'I' for Inactive)
REMARK    1  A    between atoms: C2_2  and  C3_3 
REMARK    2  A    between atoms: C4_5  and  N1_6 
REMARK       I    between atoms: N1_6  and  C5_7 
REMARK    3  A    between atoms: C5_7  and  C6_9 
REMARK    4  A    between atoms: C7_10  and  C8_11 
REMARK    5  A    between atoms: C8_11  and  N2_12 
ROOT
HETATM    1  C3  UNL     1      -2.830   1.216  -0.826  1.00  0.00     0.001 A 
HETATM    2  B1  UNL     1      -2.321   2.064   0.364  1.00  0.00     0.289 B 
HETATM    3  C4  UNL     1      -0.989   1.427  -0.006  1.00  0.00    -0.018 A 
HETATM    4  C13 UNL     1      -1.484   0.756  -0.990  1.00  0.00     0.076 A 
HETATM    5  O3  UNL     1      -1.404  -0.121  -2.061  1.00  0.00    -0.354 OA
HETATM    6  C14 UNL     1      -0.219  -0.683  -2.492  1.00  0.00     0.294 C 
HETATM    7  N3  UNL     1      -0.960  -1.789  -2.517  1.00  0.00    -0.265 NA
HETATM    8  C15 UNL     1      -2.307  -1.538  -2.111  1.00  0.00     0.116 C 
HETATM    9  C16 UNL     1      -3.546  -1.317  -1.821  1.00  0.00     0.049 C 
HETATM   10  C17 UNL     1      -4.387  -1.058  -0.691  1.00  0.00     0.041 C 
HETATM   11  C18 UNL     1      -3.852   0.157  -0.441  1.00  0.00    -0.022 C 
HETATM   12  C19 UNL     1      -5.015   0.265   0.385  1.00  0.00     0.165 C 
HETATM   13  C20 UNL     1      -5.154   0.739   1.743  1.00  0.00     0.039 C 
HETATM   14 CL1  UNL     1      -4.748   2.191   2.613  1.00  0.00    -0.086 Cl
HETATM   15  C21 UNL     1      -5.752  -0.135   2.595  1.00  0.00     0.023 C 
HETATM   16  C22 UNL     1      -6.247  -1.517   2.358  1.00  0.00     0.019 C 
HETATM   17  C23 UNL     1      -6.038  -2.053   1.118  1.00  0.00     0.092 C 
HETATM   18  N4  UNL     1      -5.310  -1.113   0.354  1.00  0.00    -0.342 N 
HETATM   19  H6  UNL     1      -2.620   3.165   0.807  1.00  0.00    -0.007 HD
ENDROOT
BRANCH   3  20
HETATM   20  N1  UNL     1       0.240   1.661   0.681  1.00  0.00    -0.339 N 
HETATM   21  C5  UNL     1       1.562   1.183   0.522  1.00  0.00     0.244 C 
HETATM   22  O1  UNL     1       1.756   0.375  -0.413  1.00  0.00    -0.268 OA
HETATM   23  H7  UNL     1       0.342   2.313   1.522  1.00  0.00     0.167 HD
BRANCH  21  24
HETATM   24  C6  UNL     1       2.765   1.476   1.278  1.00  0.00     0.072 C 
HETATM   25  C7  UNL     1       3.945   0.980   1.044  1.00  0.00     0.008 C 
BRANCH  25  26
HETATM   26  C8  UNL     1       4.638   0.060   0.120  1.00  0.00     0.300 C 
BRANCH  26  27
HETATM   27  N2  UNL     1       5.258  -1.071   0.745  1.00  0.00     0.096 N 
HETATM   28  C9  UNL     1       6.369  -0.696   1.533  1.00  0.00     0.299 C 
HETATM   29  C10 UNL     1       7.667  -1.384   1.242  1.00  0.00     0.198 C 
HETATM   30  O2  UNL     1       7.562  -2.599   0.604  1.00  0.00    -0.388 OA
HETATM   31  C11 UNL     1       6.885  -2.332  -0.610  1.00  0.00     0.198 C 
HETATM   32  C12 UNL     1       5.443  -2.111  -0.212  1.00  0.00     0.299 C 
ENDBRANCH  26  27
ENDBRANCH  25  26
ENDBRANCH  21  24
ENDBRANCH   3  20
BRANCH   1  33
HETATM   33  C2  UNL     1      -3.368   2.093  -1.962  1.00  0.00     0.003 C 
HETATM   34  C1  UNL     1      -4.509   2.910  -1.419  1.00  0.00     0.005 C 
ENDBRANCH   1  33
TORSDOF 5
