REMARK  5 active torsions:
REMARK  status: ('A' for Active; 'I' for Inactive)
REMARK    1  A    between atoms: O1_2  and  C2_3 
REMARK    2  A    between atoms: C7_8  and  N1_9 
REMARK       I    between atoms: N1_9  and  C8_10 
REMARK    3  A    between atoms: C8_10  and  C9_12 
REMARK    4  A    between atoms: C10_13  and  C11_14 
REMARK    5  A    between atoms: C11_14  and  N2_15 
ROOT
HETATM    1  C2  UNL     1      -1.283  -1.276  -0.431  1.00  0.00     0.094 A 
HETATM    2  C3  UNL     1      -2.579  -1.785  -0.407  1.00  0.00     0.051 A 
HETATM    3  C4  UNL     1      -3.683  -1.045  -0.024  1.00  0.00     0.114 A 
HETATM    4  C5  UNL     1      -3.230   0.143   0.270  1.00  0.00    -0.026 A 
HETATM    5  C6  UNL     1      -2.131   0.788   0.319  1.00  0.00     0.039 A 
HETATM    6  C7  UNL     1      -1.053   0.029  -0.061  1.00  0.00     0.068 A 
HETATM    7  C16 UNL     1      -4.477   0.286   0.248  1.00  0.00     0.076 A 
HETATM    8  C17 UNL     1      -5.004   0.333  -1.028  1.00  0.00     0.047 A 
HETATM    9  C18 UNL     1      -4.378   1.431  -0.993  1.00  0.00     0.167 A 
HETATM   10  F1  UNL     1      -3.363   1.859  -1.718  1.00  0.00    -0.234 F 
HETATM   11  C19 UNL     1      -5.115   2.212   0.082  1.00  0.00     0.050 C 
HETATM   12 CL1  UNL     1      -4.391   3.768   0.301  1.00  0.00    -0.086 Cl
HETATM   13  C20 UNL     1      -6.189   1.731   0.749  1.00  0.00    -0.000 C 
HETATM   14  C21 UNL     1      -7.182   0.685   1.039  1.00  0.00     0.057 C 
HETATM   15  C22 UNL     1      -6.972  -0.721   0.644  1.00  0.00    -0.004 C 
HETATM   16  C23 UNL     1      -6.060  -1.591   0.253  1.00  0.00     0.108 C 
HETATM   17  N3  UNL     1      -4.692  -1.958  -0.094  1.00  0.00    -0.281 NA
ENDROOT
BRANCH   6  18
HETATM   18  N1  UNL     1       0.236   0.611  -0.055  1.00  0.00    -0.321 N 
HETATM   19  C8  UNL     1       0.721   1.867   0.266  1.00  0.00     0.245 C 
HETATM   20  O2  UNL     1      -0.157   2.685   0.636  1.00  0.00    -0.268 OA
HETATM   21  H6  UNL     1       0.990  -0.039  -0.356  1.00  0.00     0.169 HD
BRANCH  19  22
HETATM   22  C9  UNL     1       2.110   2.287   0.208  1.00  0.00     0.072 C 
HETATM   23  C10 UNL     1       3.270   1.714  -0.126  1.00  0.00     0.008 C 
BRANCH  23  24
HETATM   24  C11 UNL     1       3.953   0.494  -0.595  1.00  0.00     0.300 C 
BRANCH  24  25
HETATM   25  N2  UNL     1       4.948   0.036   0.364  1.00  0.00     0.096 N 
HETATM   26  C12 UNL     1       5.560  -1.155  -0.186  1.00  0.00     0.299 C 
HETATM   27  C13 UNL     1       6.888  -1.498   0.407  1.00  0.00     0.198 C 
HETATM   28  O3  UNL     1       7.710  -0.362   0.277  1.00  0.00    -0.388 OA
HETATM   29  C14 UNL     1       7.203   0.563   1.179  1.00  0.00     0.198 C 
HETATM   30  C15 UNL     1       5.871   1.079   0.672  1.00  0.00     0.299 C 
ENDBRANCH  24  25
ENDBRANCH  23  24
ENDBRANCH  19  22
ENDBRANCH   6  18
BRANCH   1  31
HETATM   31  O1  UNL     1      -0.148  -2.031  -0.822  1.00  0.00    -0.354 OA
HETATM   32  C1  UNL     1      -0.330  -3.388  -1.216  1.00  0.00     0.210 C 
ENDBRANCH   1  31
TORSDOF 5
