REMARK  4 active torsions:
REMARK  status: ('A' for Active; 'I' for Inactive)
REMARK    1  A    between atoms: O1_2  and  C2_3 
REMARK    2  A    between atoms: C11_14  and  C12_15 
REMARK    3  A    between atoms: C12_15  and  C13_16 
REMARK    4  A    between atoms: C13_16  and  C14_17 
ROOT
HETATM    1  C2  UNL     1      -2.149  -2.251  -0.891  1.00  0.00     0.089 A 
HETATM    2  C3  UNL     1      -3.196  -2.577  -0.055  1.00  0.00     0.067 A 
HETATM    3  C4  UNL     1      -3.873  -1.668   0.815  1.00  0.00     0.071 A 
HETATM    4  N1  UNL     1      -4.878  -2.207   1.622  1.00  0.00    -0.260 NA
HETATM    5  C5  UNL     1      -5.454  -1.339   2.456  1.00  0.00     0.119 A 
HETATM    6  C6  UNL     1      -4.920  -0.107   2.325  1.00  0.00     0.049 A 
HETATM    7  C7  UNL     1      -4.002   0.619   1.660  1.00  0.00     0.042 A 
HETATM    8  C8  UNL     1      -3.433  -0.411   0.788  1.00  0.00     0.018 A 
HETATM    9  C9  UNL     1      -2.439  -0.549  -0.138  1.00  0.00     0.036 A 
HETATM   10  C10 UNL     1      -1.534  -0.967  -1.061  1.00  0.00     0.238 A 
HETATM   11  N2  UNL     1      -0.642   0.081  -1.520  1.00  0.00     0.111 N 
HETATM   12  C11 UNL     1       0.567   0.489  -0.775  1.00  0.00     0.232 C 
HETATM   13  C19 UNL     1       1.193   1.510  -1.456  1.00  0.00     0.032 A 
HETATM   14  C20 UNL     1       1.050   2.862  -2.028  1.00  0.00     0.005 A 
HETATM   15  C21 UNL     1      -0.206   2.422  -1.311  1.00  0.00     0.119 A 
HETATM   16  C22 UNL     1      -1.312   3.450  -1.235  1.00  0.00     0.107 C 
HETATM   17  F1  UNL     1      -1.319   4.779  -1.790  1.00  0.00    -0.247 F 
HETATM   18  C23 UNL     1      -2.353   2.987  -0.068  1.00  0.00     0.077 C 
HETATM   19 CL1  UNL     1      -3.450   4.301  -0.725  1.00  0.00    -0.119 Cl
HETATM   20  C24 UNL     1      -2.613   2.122   0.828  1.00  0.00     0.189 C 
HETATM   21  N3  UNL     1      -3.706   2.054   1.729  1.00  0.00    -0.380 N 
HETATM   22  H8  UNL     1      -0.487  -0.504  -0.707  1.00  0.00     0.362 HD
HETATM   23  H23 UNL     1      -4.388   2.430   2.410  1.00  0.00     0.160 HD
ENDROOT
BRANCH  12  24
HETATM   24  C12 UNL     1       1.485  -0.709  -0.534  1.00  0.00     0.031 C 
BRANCH  24  25
HETATM   25  C13 UNL     1       2.667  -0.167  -0.456  1.00  0.00     0.009 C 
BRANCH  25  26
HETATM   26  C14 UNL     1       4.023   0.238  -0.345  1.00  0.00     0.064 C 
HETATM   27  C15 UNL     1       4.112   1.066   1.063  1.00  0.00     0.039 C 
HETATM   28  C16 UNL     1       4.389  -0.015   2.073  1.00  0.00     0.168 C 
HETATM   29  O2  UNL     1       5.700  -0.446   1.995  1.00  0.00    -0.384 OA
HETATM   30  C17 UNL     1       5.784  -1.341   0.849  1.00  0.00     0.246 C 
HETATM   31  C18 UNL     1       5.235  -0.543  -0.295  1.00  0.00     0.154 C 
HETATM   32  O3  UNL     1       5.976  -0.599  -1.341  1.00  0.00    -0.295 OA
ENDBRANCH  25  26
ENDBRANCH  24  25
ENDBRANCH  12  24
BRANCH   1  33
HETATM   33  O1  UNL     1      -1.398  -2.886  -1.736  1.00  0.00    -0.357 OA
HETATM   34  C1  UNL     1      -0.926  -3.883  -2.432  1.00  0.00     0.209 C 
ENDBRANCH   1  33
TORSDOF 4
