REMARK  5 active torsions:
REMARK  status: ('A' for Active; 'I' for Inactive)
REMARK    1  A    between atoms: O1_2  and  C2_3 
REMARK    2  A    between atoms: C4_5  and  N1_6 
REMARK       I    between atoms: N1_6  and  C5_7 
REMARK    3  A    between atoms: C5_7  and  C6_9 
REMARK    4  A    between atoms: C7_10  and  C8_11 
REMARK    5  A    between atoms: C8_11  and  N2_12 
ROOT
HETATM    1  N1  UNL     1      -1.217  -0.889  -0.901  1.00  0.00    -0.324 N 
HETATM    2  C5  UNL     1      -0.366  -0.038  -0.151  1.00  0.00     0.245 C 
HETATM    3  O2  UNL     1      -0.899   0.938   0.433  1.00  0.00    -0.268 OA
HETATM    4  H5  UNL     1      -0.772  -1.702  -1.387  1.00  0.00     0.169 HD
ENDROOT
BRANCH   1   5
HETATM    5  C4  UNL     1      -2.562  -0.376  -0.787  1.00  0.00     0.038 A 
HETATM    6  C3  UNL     1      -3.349  -0.837   0.249  1.00  0.00     0.068 A 
HETATM    7  C2  UNL     1      -4.640  -0.389   0.421  1.00  0.00     0.100 A 
HETATM    8  C15 UNL     1      -5.144   0.539  -0.467  1.00  0.00     0.101 A 
HETATM    9  C14 UNL     1      -4.366   1.011  -1.511  1.00  0.00     0.010 A 
HETATM   10  N3  UNL     1      -6.357   1.021  -0.381  1.00  0.00    -0.257 NA
HETATM   11  C13 UNL     1      -3.065   0.560  -1.685  1.00  0.00     0.044 A 
HETATM   12  C18 UNL     1      -4.825   1.894  -2.367  1.00  0.00     0.001 C 
HETATM   13  C17 UNL     1      -5.849   2.598  -2.015  1.00  0.00     0.006 C 
HETATM   14  C16 UNL     1      -6.796   1.975  -1.339  1.00  0.00     0.130 C 
BRANCH   7  15
HETATM   15  O1  UNL     1      -5.538  -0.764   1.411  1.00  0.00    -0.353 OA
HETATM   16  C1  UNL     1      -5.115  -1.712   2.370  1.00  0.00     0.210 C 
ENDBRANCH   7  15
ENDBRANCH   1   5
BRANCH   2  17
HETATM   17  C6  UNL     1       1.072  -0.193   0.001  1.00  0.00     0.072 C 
HETATM   18  C7  UNL     1       1.922  -1.071  -0.456  1.00  0.00     0.008 C 
BRANCH  18  19
HETATM   19  C8  UNL     1       3.379  -1.281  -0.338  1.00  0.00     0.300 C 
BRANCH  19  20
HETATM   20  N2  UNL     1       4.016  -0.275   0.472  1.00  0.00     0.096 N 
HETATM   21  C9  UNL     1       4.001   1.017  -0.170  1.00  0.00     0.299 C 
HETATM   22  C10 UNL     1       5.376   1.340  -0.772  1.00  0.00     0.198 C 
HETATM   23  O3  UNL     1       6.395   1.270   0.144  1.00  0.00    -0.388 OA
HETATM   24  C11 UNL     1       6.065   0.593   1.306  1.00  0.00     0.198 C 
HETATM   25  C12 UNL     1       5.284  -0.677   0.991  1.00  0.00     0.299 C 
ENDBRANCH  19  20
ENDBRANCH  18  19
ENDBRANCH   2  17
TORSDOF 5
