REMARK  2 active torsions:
REMARK  status: ('A' for Active; 'I' for Inactive)
REMARK    1  A    between atoms: O1_2  and  C2_3 
REMARK    2  A    between atoms: C17_21  and  C18_22 
ROOT
HETATM    1  C2  UNL     1       4.070  -0.457   0.272  1.00  0.00     0.195 C 
HETATM    2  C3  UNL     1       4.248   1.030   0.458  1.00  0.00     0.125 C 
HETATM    3  N1  UNL     1       3.468   1.542  -0.358  1.00  0.00    -0.274 NA
HETATM    4  C4  UNL     1       3.200   2.845  -0.640  1.00  0.00     0.117 C 
HETATM    5  C5  UNL     1       1.921   2.968  -0.507  1.00  0.00     0.033 C 
HETATM    6  C6  UNL     1       0.701   2.283  -0.178  1.00  0.00    -0.003 C 
HETATM    7  C7  UNL     1       0.729   1.015   0.170  1.00  0.00    -0.002 C 
HETATM    8  C8  UNL     1       1.917   0.222   0.265  1.00  0.00     0.057 C 
HETATM    9  C9  UNL     1       2.670  -0.852   0.469  1.00  0.00     0.012 C 
HETATM   10  C10 UNL     1       2.442  -2.335   0.637  1.00  0.00     0.177 C 
HETATM   11  O2  UNL     1       3.508  -2.943   0.893  1.00  0.00    -0.288 OA
HETATM   12  C11 UNL     1       1.216  -3.119   0.553  1.00  0.00     0.051 C 
HETATM   13  C12 UNL     1      -0.099  -3.302   0.287  1.00  0.00    -0.018 C 
HETATM   14  C13 UNL     1      -0.931  -2.223  -0.227  1.00  0.00     0.005 C 
HETATM   15  C14 UNL     1      -1.651  -2.845  -1.488  1.00  0.00     0.014 C 
HETATM   16  C15 UNL     1      -2.001  -1.722   0.678  1.00  0.00     0.028 C 
HETATM   17  C16 UNL     1      -2.648  -0.538  -0.053  1.00  0.00     0.120 C 
HETATM   18  N2  UNL     1      -3.357   0.289   0.883  1.00  0.00    -0.390 N 
HETATM   19  C17 UNL     1      -3.805   1.602   0.531  1.00  0.00     0.025 C 
HETATM   20  C20 UNL     1      -3.041   2.652   0.127  1.00  0.00     0.015 C 
HETATM   21  C21 UNL     1      -1.594   2.277   0.079  1.00  0.00     0.088 C 
HETATM   22  C22 UNL     1      -0.546   3.089  -0.270  1.00  0.00     0.112 C 
HETATM   23  F1  UNL     1      -0.268   4.411  -0.680  1.00  0.00    -0.209 F 
HETATM   24  H20 UNL     1      -3.560  -0.063   1.848  1.00  0.00     0.159 HD
ENDROOT
BRANCH  19  25
HETATM   25  C18 UNL     1      -5.246   1.647   0.677  1.00  0.00     0.040 C 
HETATM   26  C19 UNL     1      -6.322   2.400   0.567  1.00  0.00     0.086 C 
HETATM   27 CL1  UNL     1      -8.034   2.687   0.671  1.00  0.00    -0.097 Cl
ENDBRANCH  19  25
BRANCH   1  28
HETATM   28  O1  UNL     1       4.904  -1.148   1.136  1.00  0.00    -0.381 OA
HETATM   29  C1  UNL     1       5.972  -1.692   0.413  1.00  0.00     0.202 C 
ENDBRANCH   1  28
TORSDOF 2
