REMARK  6 active torsions:
REMARK  status: ('A' for Active; 'I' for Inactive)
REMARK    1  A    between atoms: O1_2  and  C2_3 
REMARK    2  A    between atoms: N2_9  and  C7_10 
REMARK    3  A    between atoms: C14_18  and  N3_19 
REMARK       I    between atoms: N3_19  and  C15_20 
REMARK    4  A    between atoms: C15_20  and  C16_22 
REMARK    5  A    between atoms: C17_23  and  C18_24 
REMARK    6  A    between atoms: C18_24  and  N4_26 
ROOT
HETATM    1  C2  UNL     1       2.005  -1.868   1.575  1.00  0.00     0.096 C 
HETATM    2  C3  UNL     1       3.223  -2.369   1.593  1.00  0.00     0.068 C 
HETATM    3  C4  UNL     1       4.375  -1.855   0.878  1.00  0.00     0.064 C 
HETATM    4  N1  UNL     1       5.579  -2.231   0.858  1.00  0.00    -0.262 NA
HETATM    5  C5  UNL     1       6.603  -1.646   0.073  1.00  0.00     0.134 C 
HETATM    6  C6  UNL     1       6.358  -0.653  -0.744  1.00  0.00     0.111 C 
HETATM    7  N2  UNL     1       5.006  -0.191  -0.829  1.00  0.00    -0.344 N 
HETATM    8  C12 UNL     1       4.180  -0.548   0.231  1.00  0.00     0.166 C 
HETATM    9  C13 UNL     1       2.779  -0.141   0.246  1.00  0.00     0.037 C 
HETATM   10  C14 UNL     1       1.728  -0.658   0.826  1.00  0.00     0.067 C 
ENDROOT
BRANCH  10  11
HETATM   11  N3  UNL     1       0.411  -0.152   0.781  1.00  0.00    -0.321 N 
HETATM   12  C15 UNL     1      -0.130   0.987   0.144  1.00  0.00     0.245 C 
HETATM   13  O2  UNL     1       0.654   1.712  -0.512  1.00  0.00    -0.268 OA
HETATM   14  H13 UNL     1      -0.332  -0.686   1.301  1.00  0.00     0.169 HD
BRANCH  12  15
HETATM   15  C16 UNL     1      -1.518   1.367   0.197  1.00  0.00     0.072 C 
HETATM   16  C17 UNL     1      -2.529   0.778   0.813  1.00  0.00     0.013 C 
BRANCH  16  17
HETATM   17  C18 UNL     1      -3.957   1.164   0.872  1.00  0.00     0.242 C 
HETATM   18  C19 UNL     1      -4.503   0.837   2.228  1.00  0.00     0.047 C 
BRANCH  17  19
HETATM   19  N4  UNL     1      -4.717   0.632  -0.224  1.00  0.00     0.100 N 
HETATM   20  C20 UNL     1      -4.686  -0.802  -0.263  1.00  0.00     0.299 C 
HETATM   21  C21 UNL     1      -5.495  -1.338  -1.406  1.00  0.00     0.198 C 
HETATM   22  O3  UNL     1      -6.791  -0.844  -1.431  1.00  0.00    -0.388 OA
HETATM   23  C22 UNL     1      -6.835   0.540  -1.333  1.00  0.00     0.198 C 
HETATM   24  C23 UNL     1      -6.075   1.072  -0.150  1.00  0.00     0.299 C 
ENDBRANCH  17  19
ENDBRANCH  16  17
ENDBRANCH  12  15
ENDBRANCH  10  11
BRANCH   1  25
HETATM   25  O1  UNL     1       0.988  -2.490   2.299  1.00  0.00    -0.354 OA
HETATM   26  C1  UNL     1       0.741  -2.026   3.605  1.00  0.00     0.210 C 
ENDBRANCH   1  25
BRANCH   7  27
HETATM   27  C7  UNL     1       4.585   0.573  -1.938  1.00  0.00     0.018 A 
HETATM   28  C8  UNL     1       3.847   0.337  -3.023  1.00  0.00     0.028 A 
HETATM   29  C9  UNL     1       3.751   1.559  -3.846  1.00  0.00     0.040 A 
HETATM   30  C10 UNL     1       4.451   2.507  -3.211  1.00  0.00     0.099 A 
HETATM   31  F1  UNL     1       4.525   3.735  -3.756  1.00  0.00    -0.210 F 
HETATM   32  C11 UNL     1       5.033   1.980  -1.967  1.00  0.00     0.127 A 
ENDBRANCH   7  27
TORSDOF 6
