REMARK  5 active torsions:
REMARK  status: ('A' for Active; 'I' for Inactive)
REMARK    1  A    between atoms: S1_2  and  C2_4 
REMARK       I    between atoms: C2_4  and  N1_6 
REMARK    2  A    between atoms: N1_6  and  C3_7 
REMARK    3  A    between atoms: C4_8  and  C5_9 
REMARK    4  A    between atoms: C9_14  and  N3_15 
REMARK    5  A    between atoms: N3_15  and  C10_16 
ROOT
HETATM    1  C5  UNL     1       0.268  -2.107   1.111  1.00  0.00     0.009 A 
HETATM    2  C6  UNL     1       0.589  -3.436   1.281  1.00  0.00     0.130 A 
HETATM    3  N2  UNL     1      -0.235  -4.252   1.916  1.00  0.00    -0.272 NA
HETATM    4  C7  UNL     1      -1.393  -3.817   2.407  1.00  0.00     0.118 A 
HETATM    5  C8  UNL     1      -1.763  -2.497   2.264  1.00  0.00     0.049 A 
HETATM    6  C9  UNL     1      -0.917  -1.598   1.595  1.00  0.00     0.045 A 
ENDROOT
BRANCH   6   7
HETATM    7  N3  UNL     1      -1.554  -0.338   1.597  1.00  0.00    -0.355 N 
HETATM    8  H9  UNL     1      -1.705   0.107   2.549  1.00  0.00     0.166 HD
BRANCH   7   9
HETATM    9  C10 UNL     1      -2.017   0.409   0.480  1.00  0.00     0.034 A 
HETATM   10  C11 UNL     1      -1.986  -0.059  -0.817  1.00  0.00     0.032 A 
HETATM   11  C12 UNL     1      -2.419   0.629  -1.911  1.00  0.00     0.046 A 
HETATM   12  C13 UNL     1      -2.937   1.897  -1.747  1.00  0.00     0.138 A 
HETATM   13  F1  UNL     1      -3.367   2.583  -2.821  1.00  0.00    -0.204 F 
HETATM   14  C14 UNL     1      -2.981   2.392  -0.462  1.00  0.00     0.074 A 
HETATM   15 CL1  UNL     1      -3.628   4.002  -0.177  1.00  0.00    -0.081 Cl
HETATM   16  C15 UNL     1      -2.536   1.675   0.627  1.00  0.00     0.056 A 
ENDBRANCH   7   9
ENDBRANCH   6   7
BRANCH   1  17
HETATM   17  C4  UNL     1       1.076  -1.103   0.464  1.00  0.00     0.032 C 
HETATM   18  C3  UNL     1       1.254   0.126   0.107  1.00  0.00     0.092 C 
BRANCH  18  19
HETATM   19  N1  UNL     1       2.341   0.709  -0.601  1.00  0.00    -0.328 N 
HETATM   20  C2  UNL     1       2.340   1.370  -1.854  1.00  0.00     0.287 C 
HETATM   21  O1  UNL     1       1.251   1.478  -2.448  1.00  0.00    -0.260 OA
HETATM   22  H3  UNL     1       3.219   0.582  -0.040  1.00  0.00     0.169 HD
BRANCH  20  23
HETATM   23  S1  UNL     1       3.884   2.005  -2.509  1.00  0.00    -0.043 SA
HETATM   24  C1  UNL     1       4.512   2.923  -1.346  1.00  0.00     0.074 C 
HETATM   25 BR1  UNL     1       5.267   0.240  -2.795  1.00  0.00    -0.009 Br
ENDBRANCH  20  23
ENDBRANCH  18  19
ENDBRANCH   1  17
TORSDOF 5
