REMARK  6 active torsions:
REMARK  status: ('A' for Active; 'I' for Inactive)
REMARK    1  A    between atoms: C1_2  and  O2_3 
REMARK    2  A    between atoms: O2_3  and  C2_4 
REMARK    3  A    between atoms: C6_9  and  C7_10 
REMARK    4  A    between atoms: C16_22  and  C17_23 
REMARK    5  A    between atoms: C18_24  and  C19_25 
REMARK    6  A    between atoms: C19_25  and  N3_26 
ROOT
HETATM    1  C2  UNL     1      -0.005   1.357  -0.185  1.00  0.00     0.210 C 
HETATM    2  C3  UNL     1      -1.447   1.211  -0.155  1.00  0.00     0.077 A 
HETATM    3  N1  UNL     1      -1.984   2.467  -0.164  1.00  0.00    -0.262 NA
HETATM    4  C4  UNL     1      -3.293   2.696  -0.136  1.00  0.00     0.118 A 
HETATM    5  C5  UNL     1      -4.165   1.618  -0.095  1.00  0.00     0.032 A 
HETATM    6  C6  UNL     1      -3.719   0.291  -0.081  1.00  0.00    -0.012 A 
HETATM    7  C13 UNL     1      -2.368   0.188  -0.113  1.00  0.00     0.004 A 
HETATM    8  C14 UNL     1      -1.985  -1.220  -0.126  1.00  0.00     0.031 C 
HETATM    9  C15 UNL     1      -0.772  -1.767   0.076  1.00  0.00     0.084 C 
HETATM   10  N2  UNL     1       0.450  -1.042   0.356  1.00  0.00    -0.388 N 
HETATM   11  C16 UNL     1       0.870   0.187  -0.211  1.00  0.00     0.139 C 
HETATM   12  H10 UNL     1       1.050  -1.555   1.076  1.00  0.00     0.159 HD
ENDROOT
BRANCH   6  13
HETATM   13  C7  UNL     1      -4.686  -0.787  -0.003  1.00  0.00    -0.023 A 
HETATM   14  C8  UNL     1      -5.610  -0.627  -1.044  1.00  0.00     0.015 A 
HETATM   15  C9  UNL     1      -6.676  -1.519  -1.205  1.00  0.00     0.045 A 
HETATM   16  C10 UNL     1      -6.832  -2.576  -0.335  1.00  0.00     0.138 A 
HETATM   17  F1  UNL     1      -7.840  -3.477  -0.433  1.00  0.00    -0.204 F 
HETATM   18  C11 UNL     1      -5.920  -2.731   0.689  1.00  0.00     0.073 A 
HETATM   19 CL1  UNL     1      -5.998  -4.022   1.857  1.00  0.00    -0.081 Cl
HETATM   20  C12 UNL     1      -4.867  -1.861   0.859  1.00  0.00     0.039 A 
ENDBRANCH   6  13
BRANCH   1  21
HETATM   21  O2  UNL     1       0.344   2.254   0.884  1.00  0.00    -0.314 OA
BRANCH  21  22
HETATM   22  C1  UNL     1       0.827   3.508   0.631  1.00  0.00     0.398 C 
HETATM   23  O1  UNL     1       1.025   4.024  -0.502  1.00  0.00    -0.276 OA
ENDBRANCH  21  22
ENDBRANCH   1  21
BRANCH  11  24
HETATM   24  C17 UNL     1       2.136   0.583   0.519  1.00  0.00    -0.001 C 
HETATM   25  C18 UNL     1       3.309   0.791  -0.058  1.00  0.00     0.001 C 
BRANCH  25  26
HETATM   26  C19 UNL     1       4.460   1.172   0.773  1.00  0.00     0.302 C 
BRANCH  26  27
HETATM   27  N3  UNL     1       5.555   0.242   0.698  1.00  0.00     0.116 N 
HETATM   28  C20 UNL     1       6.203   0.235  -0.615  1.00  0.00     0.301 C 
HETATM   29  C21 UNL     1       6.861  -1.138  -0.567  1.00  0.00     0.200 C 
HETATM   30  O3  UNL     1       5.907  -1.908   0.052  1.00  0.00    -0.361 OA
HETATM   31  C22 UNL     1       5.164  -1.119   0.912  1.00  0.00     0.440 C 
ENDBRANCH  26  27
ENDBRANCH  25  26
ENDBRANCH  11  24
TORSDOF 6
