REMARK  5 active torsions:
REMARK  status: ('A' for Active; 'I' for Inactive)
REMARK    1  A    between atoms: O1_2  and  C2_3 
REMARK    2  A    between atoms: C7_8  and  N1_9 
REMARK       I    between atoms: N1_9  and  C8_10 
REMARK    3  A    between atoms: C8_10  and  C9_12 
REMARK    4  A    between atoms: C10_13  and  C11_14 
REMARK    5  A    between atoms: C11_14  and  N2_16 
ROOT
HETATM    1  C2  UNL     1       1.451  -0.654  -1.208  1.00  0.00     0.097 A 
HETATM    2  C3  UNL     1       2.817  -0.829  -1.140  1.00  0.00     0.071 A 
HETATM    3  C4  UNL     1       3.576  -0.876   0.011  1.00  0.00     0.068 A 
HETATM    4  C5  UNL     1       2.859  -0.731   1.182  1.00  0.00     0.045 A 
HETATM    5  C6  UNL     1       1.498  -0.554   1.150  1.00  0.00     0.050 A 
HETATM    6  C7  UNL     1       0.747  -0.507  -0.003  1.00  0.00     0.069 A 
HETATM    7  C17 UNL     1       3.445  -0.771   2.403  1.00  0.00     0.180 C 
HETATM    8  F1  UNL     1       2.617  -0.617   3.513  1.00  0.00    -0.192 F 
HETATM    9  N3  UNL     1       4.876  -0.977   2.422  1.00  0.00    -0.245 NA
HETATM   10  C18 UNL     1       6.203  -0.417   2.644  1.00  0.00     0.064 C 
HETATM   11  C19 UNL     1       6.974   0.001   1.652  1.00  0.00     0.013 C 
HETATM   12  C20 UNL     1       7.873   0.477   0.630  1.00  0.00     0.020 C 
HETATM   13  C21 UNL     1       7.500   0.369  -0.658  1.00  0.00     0.013 C 
HETATM   14 CL1  UNL     1       8.772   1.050  -1.698  1.00  0.00    -0.089 Cl
HETATM   15  C22 UNL     1       6.498  -0.219  -1.538  1.00  0.00     0.073 C 
HETATM   16  C23 UNL     1       5.678  -1.331  -1.006  1.00  0.00     0.155 C 
HETATM   17  N4  UNL     1       4.826  -1.090   0.095  1.00  0.00    -0.288 NA
HETATM   18  H21 UNL     1       4.674   0.060   2.639  1.00  0.00     0.135 HD
ENDROOT
BRANCH   6  19
HETATM   19  N1  UNL     1      -0.639  -0.329  -0.117  1.00  0.00    -0.321 N 
HETATM   20  C8  UNL     1      -1.441   0.837  -0.250  1.00  0.00     0.245 C 
HETATM   21  O2  UNL     1      -0.902   1.981  -0.281  1.00  0.00    -0.268 OA
HETATM   22  H6  UNL     1      -1.055  -1.282  -0.085  1.00  0.00     0.169 HD
BRANCH  20  23
HETATM   23  C9  UNL     1      -2.881   0.701  -0.352  1.00  0.00     0.072 C 
HETATM   24  C10 UNL     1      -3.629   1.786  -0.477  1.00  0.00     0.013 C 
BRANCH  24  25
HETATM   25  C11 UNL     1      -5.115   1.671  -0.584  1.00  0.00     0.242 C 
HETATM   26  C12 UNL     1      -5.511   1.443  -2.028  1.00  0.00     0.047 C 
BRANCH  25  27
HETATM   27  N2  UNL     1      -5.584   0.610   0.263  1.00  0.00     0.100 N 
HETATM   28  C13 UNL     1      -7.004   0.437   0.198  1.00  0.00     0.299 C 
HETATM   29  C14 UNL     1      -7.488  -0.499   1.281  1.00  0.00     0.198 C 
HETATM   30  O3  UNL     1      -7.174  -0.017   2.550  1.00  0.00    -0.388 OA
HETATM   31  C15 UNL     1      -6.403   1.140   2.465  1.00  0.00     0.198 C 
HETATM   32  C16 UNL     1      -5.198   0.894   1.624  1.00  0.00     0.299 C 
ENDBRANCH  25  27
ENDBRANCH  24  25
ENDBRANCH  20  23
ENDBRANCH   6  19
BRANCH   1  33
HETATM   33  O1  UNL     1       0.772  -0.620  -2.416  1.00  0.00    -0.354 OA
HETATM   34  C1  UNL     1       1.517  -0.771  -3.605  1.00  0.00     0.210 C 
ENDBRANCH   1  33
TORSDOF 5
