REMARK  6 active torsions:
REMARK  status: ('A' for Active; 'I' for Inactive)
REMARK    1  A    between atoms: C2_2  and  C3_3 
REMARK    2  A    between atoms: C2_2  and  N5_27 
REMARK    3  A    between atoms: C4_4  and  C5_5 
REMARK       I    between atoms: C5_5  and  N1_7 
REMARK    4  A    between atoms: N1_7  and  C6_8 
REMARK    5  A    between atoms: C9_11  and  N2_12 
REMARK    6  A    between atoms: N2_12  and  C10_13 
ROOT
HETATM    1  C6  UNL     1      -1.631  -1.406  -1.263  1.00  0.00     0.104 A 
HETATM    2  C7  UNL     1      -2.566  -0.506  -1.066  1.00  0.00     0.064 A 
HETATM    3  C8  UNL     1      -3.951  -0.832  -1.316  1.00  0.00     0.021 A 
HETATM    4  C9  UNL     1      -4.889   0.156  -1.100  1.00  0.00     0.046 A 
HETATM    5  C16 UNL     1      -6.199  -0.249  -1.379  1.00  0.00     0.049 A 
HETATM    6  C17 UNL     1      -6.602  -1.489  -1.827  1.00  0.00     0.119 A 
HETATM    7  N3  UNL     1      -5.610  -2.379  -2.004  1.00  0.00    -0.263 NA
HETATM    8  C18 UNL     1      -4.328  -2.071  -1.760  1.00  0.00     0.064 A 
HETATM    9  C19 UNL     1      -3.356  -3.153  -2.002  1.00  0.00     0.181 A 
HETATM   10  N4  UNL     1      -2.004  -2.694  -1.722  1.00  0.00    -0.370 N 
HETATM   11  H17 UNL     1      -1.346  -3.482  -1.919  1.00  0.00     0.161 HD
ENDROOT
BRANCH   1  12
HETATM   12  N1  UNL     1      -0.235  -1.232  -1.061  1.00  0.00    -0.310 N 
HETATM   13  C5  UNL     1       0.643  -1.937  -0.197  1.00  0.00     0.246 C 
HETATM   14  O1  UNL     1       0.160  -2.863   0.515  1.00  0.00    -0.268 OA
HETATM   15  H7  UNL     1       0.087  -0.455  -1.679  1.00  0.00     0.170 HD
BRANCH  13  16
HETATM   16  C4  UNL     1       2.054  -1.616  -0.125  1.00  0.00     0.072 C 
HETATM   17  C3  UNL     1       2.685  -0.678  -0.807  1.00  0.00     0.013 C 
BRANCH  17  18
HETATM   18  C2  UNL     1       4.138  -0.356  -0.726  1.00  0.00     0.242 C 
HETATM   19  C1  UNL     1       4.545   0.489  -1.940  1.00  0.00     0.047 C 
BRANCH  18  20
HETATM   20  N5  UNL     1       4.472   0.398   0.441  1.00  0.00     0.100 N 
HETATM   21  C20 UNL     1       4.181  -0.231   1.693  1.00  0.00     0.299 C 
HETATM   22  C21 UNL     1       4.960   0.567   2.748  1.00  0.00     0.198 C 
HETATM   23  O2  UNL     1       6.323   0.326   2.605  1.00  0.00    -0.388 OA
HETATM   24  C22 UNL     1       6.732   0.113   1.312  1.00  0.00     0.198 C 
HETATM   25  C23 UNL     1       5.818   0.901   0.363  1.00  0.00     0.299 C 
ENDBRANCH  18  20
ENDBRANCH  17  18
ENDBRANCH  13  16
ENDBRANCH   1  12
BRANCH   4  26
HETATM   26  N2  UNL     1      -4.625   1.475  -0.646  1.00  0.00    -0.355 N 
HETATM   27  H9  UNL     1      -4.950   2.071  -1.418  1.00  0.00     0.166 HD
BRANCH  26  28
HETATM   28  C10 UNL     1      -4.059   2.006   0.545  1.00  0.00     0.034 A 
HETATM   29  C11 UNL     1      -3.704   1.241   1.633  1.00  0.00     0.032 A 
HETATM   30  C12 UNL     1      -3.151   1.773   2.792  1.00  0.00     0.046 A 
HETATM   31  C13 UNL     1      -2.962   3.135   2.826  1.00  0.00     0.138 A 
HETATM   32  F1  UNL     1      -2.433   3.777   3.897  1.00  0.00    -0.204 F 
HETATM   33  C14 UNL     1      -3.323   3.890   1.727  1.00  0.00     0.074 A 
HETATM   34 CL1  UNL     1      -3.079   5.639   1.773  1.00  0.00    -0.081 Cl
HETATM   35  C15 UNL     1      -3.863   3.349   0.599  1.00  0.00     0.056 A 
ENDBRANCH  26  28
ENDBRANCH   4  26
TORSDOF 6
