REMARK  3 active torsions:
REMARK  status: ('A' for Active; 'I' for Inactive)
REMARK    1  A    between atoms: C1_2  and  O2_3 
REMARK    2  A    between atoms: C1_2  and  C2_4 
REMARK    3  A    between atoms: C12_17  and  N4_18 
ROOT
HETATM    1  C2  UNL     1       4.623  -0.651  -0.058  1.00  0.00     0.038 A 
HETATM    2  C3  UNL     1       4.723  -0.604  -1.452  1.00  0.00     0.021 A 
HETATM    3  C4  UNL     1       3.656  -0.119  -2.181  1.00  0.00     0.039 A 
HETATM    4  C5  UNL     1       2.507   0.313  -1.552  1.00  0.00     0.086 A 
HETATM    5  C6  UNL     1       2.371   0.281  -0.159  1.00  0.00    -0.006 A 
HETATM    6  C7  UNL     1       3.467  -0.214   0.557  1.00  0.00     0.029 A 
HETATM    7  C8  UNL     1       1.332   0.647   0.809  1.00  0.00     0.161 C 
HETATM    8  N1  UNL     1      -0.002   0.710   0.268  1.00  0.00    -0.379 N 
HETATM    9  C9  UNL     1      -0.564   0.505  -1.017  1.00  0.00     0.128 A 
HETATM   10  C10 UNL     1       0.129   0.543  -2.210  1.00  0.00     0.202 A 
HETATM   11  N2  UNL     1      -0.598   0.320  -3.344  1.00  0.00    -0.215 NA
HETATM   12  C11 UNL     1      -1.919   0.082  -3.246  1.00  0.00     0.238 A 
HETATM   13  N3  UNL     1      -2.561   0.053  -2.060  1.00  0.00    -0.222 NA
HETATM   14  C12 UNL     1      -1.907   0.263  -0.906  1.00  0.00     0.158 A 
HETATM   15  O3  UNL     1       1.500   0.782  -2.420  1.00  0.00    -0.289 OA
HETATM   16  H7  UNL     1      -0.705   0.965   0.995  1.00  0.00     0.160 HD
ENDROOT
BRANCH  14  17
HETATM   17  N4  UNL     1      -2.629   0.221   0.317  1.00  0.00    -0.360 N 
HETATM   18  C13 UNL     1      -2.501  -0.635   1.502  1.00  0.00     0.153 C 
HETATM   19  C14 UNL     1      -3.825  -1.345   1.603  1.00  0.00     0.007 C 
HETATM   20  C15 UNL     1      -4.861  -0.508   1.559  1.00  0.00    -0.012 C 
HETATM   21 BR1  UNL     1      -6.622  -1.215   1.671  1.00  0.00    -0.056 Br
HETATM   22  C16 UNL     1      -4.646   0.975   1.422  1.00  0.00     0.066 C 
HETATM   23  C17 UNL     1      -3.653   1.240   0.298  1.00  0.00     0.130 C 
ENDBRANCH  14  17
BRANCH   1  24
HETATM   24  C1  UNL     1       5.745  -1.161   0.718  1.00  0.00     0.176 C 
HETATM   25  O1  UNL     1       6.769  -1.541   0.065  1.00  0.00    -0.646 OA
BRANCH  24  26
HETATM   26  O2  UNL     1       5.640  -1.205   2.097  1.00  0.00    -0.773 OA
HETATM   27  H1  UNL     1       6.524  -1.310   2.604  1.00  0.00     0.167 HD
ENDBRANCH  24  26
ENDBRANCH   1  24
TORSDOF 3
