REMARK  5 active torsions:
REMARK  status: ('A' for Active; 'I' for Inactive)
REMARK    1  A    between atoms: C2_2  and  C3_3 
REMARK    2  A    between atoms: C3_3  and  C4_4 
REMARK    3  A    between atoms: C8_9  and  N2_10 
REMARK    4  A    between atoms: N2_10  and  C9_11 
REMARK       I    between atoms: N3_22  and  C19_23 
REMARK    5  A    between atoms: C19_23  and  C20_25 
ROOT
HETATM    1  C4  UNL     1      -2.037   0.584   0.802  1.00  0.00     0.145 C 
HETATM    2  C5  UNL     1      -0.531   0.510   0.795  1.00  0.00     0.070 A 
HETATM    3  N1  UNL     1      -0.012   1.166   1.874  1.00  0.00    -0.262 NA
HETATM    4  C6  UNL     1       1.317   1.126   2.059  1.00  0.00     0.119 A 
HETATM    5  C7  UNL     1       2.225   0.479   1.258  1.00  0.00     0.049 A 
HETATM    6  C8  UNL     1       1.660  -0.174   0.172  1.00  0.00     0.046 A 
HETATM    7  C16 UNL     1       0.305  -0.160  -0.060  1.00  0.00     0.019 A 
HETATM    8  C17 UNL     1      -0.372  -0.757  -1.228  1.00  0.00     0.033 C 
HETATM    9  C18 UNL     1      -1.674  -0.608  -1.384  1.00  0.00     0.096 C 
HETATM   10  N3  UNL     1      -2.491   0.118  -0.482  1.00  0.00    -0.317 N 
HETATM   11  C19 UNL     1      -3.785   0.359  -1.001  1.00  0.00     0.224 C 
HETATM   12  O1  UNL     1      -4.152  -0.052  -2.116  1.00  0.00    -0.273 OA
ENDROOT
BRANCH   6  13
HETATM   13  N2  UNL     1       2.473  -0.872  -0.754  1.00  0.00    -0.355 N 
HETATM   14  H11 UNL     1       2.150  -1.410  -1.556  1.00  0.00     0.166 HD
BRANCH  13  15
HETATM   15  C9  UNL     1       3.881  -0.994  -0.802  1.00  0.00     0.033 A 
HETATM   16  C10 UNL     1       4.567  -2.181  -1.006  1.00  0.00     0.032 A 
HETATM   17  C11 UNL     1       5.930  -2.354  -1.084  1.00  0.00     0.045 A 
HETATM   18  C12 UNL     1       6.606  -1.160  -0.931  1.00  0.00     0.122 A 
HETATM   19  F1  UNL     1       7.979  -1.197  -0.990  1.00  0.00    -0.206 F 
HETATM   20  C13 UNL     1       6.046   0.079  -0.725  1.00  0.00    -0.021 A 
HETATM   21  C14 UNL     1       6.895   1.308  -0.576  1.00  0.00     0.051 C 
HETATM   22  C15 UNL     1       4.649   0.153  -0.661  1.00  0.00     0.039 A 
ENDBRANCH  13  15
ENDBRANCH   6  13
BRANCH   1  23
HETATM   23  C3  UNL     1      -2.475  -0.374   1.867  1.00  0.00     0.032 C 
BRANCH  23  24
HETATM   24  C2  UNL     1      -3.910  -0.531   2.123  1.00  0.00    -0.002 C 
HETATM   25  C1  UNL     1      -4.650   0.693   2.538  1.00  0.00     0.005 C 
ENDBRANCH  23  24
ENDBRANCH   1  23
BRANCH  11  26
HETATM   26  C20 UNL     1      -5.143   0.911  -0.948  1.00  0.00     0.099 C 
HETATM   27  C21 UNL     1      -5.913   0.647  -2.223  1.00  0.00     0.014 C 
ENDBRANCH  11  26
TORSDOF 5
