REMARK  8 active torsions:
REMARK  status: ('A' for Active; 'I' for Inactive)
REMARK    1  A    between atoms: C1_2  and  C2_5 
REMARK    2  A    between atoms: C6_9  and  C7_10 
REMARK    3  A    between atoms: C7_10  and  O1_12 
REMARK    4  A    between atoms: O1_12  and  C8_13 
REMARK    5  A    between atoms: C8_13  and  C9_14 
REMARK    6  A    between atoms: C10_15  and  S1_16 
REMARK    7  A    between atoms: S1_16  and  C11_17 
REMARK    8  A    between atoms: C11_17  and  C12_18 
ROOT
HETATM    1  C7  UNL     1      -0.892  -1.077   1.370  1.00  0.00     0.228 C 
HETATM    2 CL1  UNL     1      -0.491  -0.521   3.032  1.00  0.00    -0.094 Cl
ENDROOT
BRANCH   1   3
HETATM    3  C6  UNL     1      -2.385  -0.993   1.133  1.00  0.00     0.074 C 
HETATM    4  C5  UNL     1      -2.736  -1.450  -0.240  1.00  0.00    -0.014 C 
HETATM    5  C4  UNL     1      -3.729  -1.176  -1.053  1.00  0.00    -0.002 C 
HETATM    6  C3  UNL     1      -4.866  -0.273  -0.825  1.00  0.00     0.016 C 
HETATM    7  C2  UNL     1      -4.856   0.745   0.046  1.00  0.00     0.047 C 
HETATM    8  C15 UNL     1      -3.784   1.197   0.938  1.00  0.00     0.013 C 
HETATM    9  C14 UNL     1      -2.774   0.420   1.359  1.00  0.00    -0.014 C 
BRANCH   7  10
HETATM   10  C1  UNL     1      -6.104   1.543   0.132  1.00  0.00     0.417 C 
HETATM   11  F1  UNL     1      -6.557   1.450   1.433  1.00  0.00    -0.166 F 
HETATM   12  F2  UNL     1      -7.054   1.052  -0.729  1.00  0.00    -0.166 F 
HETATM   13  F3  UNL     1      -5.805   2.853  -0.174  1.00  0.00    -0.166 F 
ENDBRANCH   7  10
ENDBRANCH   1   3
BRANCH   1  14
HETATM   14  O1  UNL     1      -0.277  -0.216   0.456  1.00  0.00    -0.364 OA
BRANCH  14  15
HETATM   15  C8  UNL     1       0.673  -0.862  -0.299  1.00  0.00     0.229 C 
BRANCH  15  16
HETATM   16  C9  UNL     1       1.297   0.111  -1.260  1.00  0.00     0.068 A 
HETATM   17  C10 UNL     1       2.490   0.713  -1.656  1.00  0.00     0.095 A 
HETATM   18  N3  UNL     1       1.327   1.049  -2.327  1.00  0.00    -0.348 N 
HETATM   19  H11 UNL     1       0.785   1.569  -3.056  1.00  0.00     0.166 HD
BRANCH  17  20
HETATM   20  S1  UNL     1       4.253   0.951  -1.495  1.00  0.00    -0.102 SA
BRANCH  20  21
HETATM   21  C11 UNL     1       4.862  -0.081  -0.164  1.00  0.00     0.169 C 
BRANCH  21  22
HETATM   22  C12 UNL     1       6.336   0.047   0.052  1.00  0.00     0.181 A 
HETATM   23  N1  UNL     1       7.348  -0.652  -0.498  1.00  0.00    -0.217 NA
HETATM   24  C13 UNL     1       8.498  -0.178   0.004  1.00  0.00     0.265 A 
HETATM   25  N2  UNL     1       8.167   0.797   0.846  1.00  0.00    -0.120 NA
HETATM   26  O2  UNL     1       6.870   0.930   0.874  1.00  0.00    -0.196 OA
ENDBRANCH  21  22
ENDBRANCH  20  21
ENDBRANCH  17  20
ENDBRANCH  15  16
ENDBRANCH  14  15
ENDBRANCH   1  14
TORSDOF 8
