REMARK  9 active torsions:
REMARK  status: ('A' for Active; 'I' for Inactive)
REMARK    1  A    between atoms: C3_3  and  C4_4 
REMARK    2  A    between atoms: C3_3  and  C17_24 
REMARK    3  A    between atoms: C4_4  and  N1_5 
REMARK    4  A    between atoms: N1_5  and  C6_7 
REMARK    5  A    between atoms: C6_7  and  C7_8 
REMARK    6  A    between atoms: C7_8  and  C8_9 
REMARK    7  A    between atoms: C9_11  and  C10_12 
REMARK    8  A    between atoms: C10_12  and  O1_13 
REMARK    9  A    between atoms: O1_13  and  C11_14 
ROOT
HETATM    1  C8  UNL     1      -0.039   1.029  -0.089  1.00  0.00     0.174 A 
HETATM    2  N2  UNL     1       1.059   0.602   0.586  1.00  0.00    -0.206 NA
HETATM    3  C9  UNL     1       1.946   0.121  -0.303  1.00  0.00     0.180 A 
HETATM    4  N3  UNL     1       1.386   0.255  -1.517  1.00  0.00    -0.109 NA
HETATM    5  O2  UNL     1       0.222   0.790  -1.360  1.00  0.00    -0.196 OA
ENDROOT
BRANCH   1   6
HETATM    6  C7  UNL     1      -1.242   1.626   0.549  1.00  0.00     0.108 C 
BRANCH   6   7
HETATM    7  C6  UNL     1      -2.206   0.507   0.870  1.00  0.00     0.124 C 
BRANCH   7   8
HETATM    8  N1  UNL     1      -2.637  -0.227  -0.253  1.00  0.00    -0.412 N 
HETATM    9  C5  UNL     1      -2.649  -1.638  -0.188  1.00  0.00     0.143 C 
BRANCH   8  10
HETATM   10  C4  UNL     1      -3.474   0.408  -1.202  1.00  0.00     0.159 C 
BRANCH  10  11
HETATM   11  C3  UNL     1      -4.893   0.240  -0.800  1.00  0.00     0.039 C 
HETATM   12  C2  UNL     1      -5.577  -0.322   0.203  1.00  0.00    -0.018 C 
HETATM   13  C1  UNL     1      -5.563  -1.070   1.460  1.00  0.00     0.036 C 
BRANCH  11  14
HETATM   14  C17 UNL     1      -5.641   0.935  -1.888  1.00  0.00     0.415 C 
HETATM   15  F1  UNL     1      -6.986   0.804  -1.627  1.00  0.00    -0.166 F 
HETATM   16  F2  UNL     1      -5.309   0.533  -3.143  1.00  0.00    -0.166 F 
HETATM   17  F3  UNL     1      -5.331   2.274  -1.769  1.00  0.00    -0.166 F 
ENDBRANCH  11  14
ENDBRANCH  10  11
ENDBRANCH   8  10
ENDBRANCH   7   8
ENDBRANCH   6   7
ENDBRANCH   1   6
BRANCH   3  18
HETATM   18  C10 UNL     1       3.293  -0.463  -0.134  1.00  0.00     0.258 C 
BRANCH  18  19
HETATM   19  O1  UNL     1       4.235   0.589  -0.220  1.00  0.00    -0.340 OA
BRANCH  19  20
HETATM   20  C11 UNL     1       5.579   0.266  -0.089  1.00  0.00     0.112 A 
HETATM   21  C12 UNL     1       6.124  -0.032  -1.326  1.00  0.00     0.069 A 
HETATM   22 CL1  UNL     1       5.264  -0.014  -2.873  1.00  0.00    -0.081 Cl
HETATM   23  C13 UNL     1       7.463  -0.387  -1.454  1.00  0.00     0.027 A 
HETATM   24  C14 UNL     1       8.260  -0.444  -0.335  1.00  0.00     0.003 A 
HETATM   25  C15 UNL     1       7.706  -0.145   0.895  1.00  0.00     0.027 A 
HETATM   26  C16 UNL     1       6.389   0.204   1.017  1.00  0.00     0.069 A 
HETATM   27 CL2  UNL     1       5.560   0.609   2.511  1.00  0.00    -0.081 Cl
ENDBRANCH  19  20
ENDBRANCH  18  19
ENDBRANCH   3  18
TORSDOF 9
