REMARK  7 active torsions:
REMARK  status: ('A' for Active; 'I' for Inactive)
REMARK    1  A    between atoms: C6_8  and  O1_9 
REMARK    2  A    between atoms: O1_9  and  C7_10 
REMARK    3  A    between atoms: C7_10  and  C8_11 
REMARK    4  A    between atoms: C9_14  and  C10_15 
REMARK    5  A    between atoms: C10_15  and  S1_16 
REMARK    6  A    between atoms: S1_16  and  C11_17 
REMARK    7  A    between atoms: C11_17  and  N2_18 
ROOT
HETATM    1  C8  UNL     1      -0.451   0.621   0.097  1.00  0.00     0.180 A 
HETATM    2  N1  UNL     1       0.417   1.182   0.955  1.00  0.00    -0.109 NA
HETATM    3  O2  UNL     1       1.516   0.491   1.032  1.00  0.00    -0.195 OA
HETATM    4  C9  UNL     1       1.384  -0.536   0.224  1.00  0.00     0.182 A 
HETATM    5  N4  UNL     1       0.177  -0.481  -0.367  1.00  0.00    -0.206 NA
ENDROOT
BRANCH   1   6
HETATM    6  C7  UNL     1      -1.817   0.956  -0.378  1.00  0.00     0.258 C 
BRANCH   6   7
HETATM    7  O1  UNL     1      -2.761   0.341   0.467  1.00  0.00    -0.340 OA
BRANCH   7   8
HETATM    8  C6  UNL     1      -4.126   0.445   0.307  1.00  0.00     0.112 A 
HETATM    9  C1  UNL     1      -5.018   1.367   0.825  1.00  0.00     0.069 A 
HETATM   10 CL1  UNL     1      -4.286   2.573   1.833  1.00  0.00    -0.081 Cl
HETATM   11  C2  UNL     1      -6.361   1.275   0.525  1.00  0.00     0.027 A 
HETATM   12  C3  UNL     1      -6.869   0.277  -0.291  1.00  0.00     0.003 A 
HETATM   13  C4  UNL     1      -5.991  -0.631  -0.801  1.00  0.00     0.027 A 
HETATM   14  C5  UNL     1      -4.627  -0.568  -0.519  1.00  0.00     0.069 A 
HETATM   15 CL2  UNL     1      -3.659  -1.816  -1.261  1.00  0.00    -0.081 Cl
ENDBRANCH   7   8
ENDBRANCH   6   7
ENDBRANCH   1   6
BRANCH   4  16
HETATM   16  C10 UNL     1       2.379  -1.614  -0.033  1.00  0.00     0.164 C 
BRANCH  16  17
HETATM   17  S1  UNL     1       3.493  -1.267  -1.389  1.00  0.00    -0.141 SA
BRANCH  17  18
HETATM   18  C11 UNL     1       4.607   0.107  -1.111  1.00  0.00     0.199 C 
BRANCH  18  19
HETATM   19  N2  UNL     1       5.538  -0.193  -0.064  1.00  0.00    -0.349 N 
HETATM   20  C12 UNL     1       6.602   0.552   0.522  1.00  0.00     0.202 A 
HETATM   21  N3  UNL     1       6.909  -0.376   1.333  1.00  0.00    -0.265 NA
HETATM   22  C13 UNL     1       5.877  -1.250   0.851  1.00  0.00     0.276 A 
ENDBRANCH  18  19
ENDBRANCH  17  18
ENDBRANCH  16  17
ENDBRANCH   4  16
TORSDOF 7
