REMARK  4 active torsions:
REMARK  status: ('A' for Active; 'I' for Inactive)
REMARK    1  A    between atoms: C2_4  and  C3_5 
REMARK    2  A    between atoms: C4_7  and  C5_8 
REMARK    3  A    between atoms: C5_8  and  O1_9 
REMARK    4  A    between atoms: O1_9  and  C6_10 
ROOT
HETATM    1  F1  UNL     1      -3.870  -3.496   0.187  1.00  0.00    -0.332 F 
HETATM    2  B1  UNL     1      -3.572  -2.153  -0.137  1.00  0.00     0.414 B 
HETATM    3  C1  UNL     1      -2.035  -1.671   0.013  1.00  0.00     0.067 C 
HETATM    4  C2  UNL     1      -1.939  -0.171  -0.019  1.00  0.00     0.098 C 
HETATM    5  N3  UNL     1      -2.828   0.665  -0.140  1.00  0.00    -0.205 NA
HETATM    6  N4  UNL     1      -3.015   2.005  -0.199  1.00  0.00    -0.196 NA
HETATM    7  C12 UNL     1      -4.253   2.523  -0.264  1.00  0.00     0.352 C 
HETATM    8  N5  UNL     1      -5.698   2.191  -0.305  1.00  0.00    -0.354 N 
HETATM    9  C13 UNL     1      -5.356   0.780  -0.283  1.00  0.00     0.028 A 
HETATM   10  C14 UNL     1      -5.107   0.277  -1.535  1.00  0.00     0.005 A 
HETATM   11  C15 UNL     1      -4.581  -0.993  -1.484  1.00  0.00     0.040 A 
HETATM   12  C16 UNL     1      -4.638  -0.966  -0.143  1.00  0.00    -0.073 A 
HETATM   13  C17 UNL     1      -4.723  -0.874   1.193  1.00  0.00    -0.003 A 
HETATM   14  C18 UNL     1      -5.240   0.385   1.025  1.00  0.00     0.028 A 
HETATM   15  H9  UNL     1      -5.843   3.220  -0.318  1.00  0.00     0.166 HD
ENDROOT
BRANCH   4  16
HETATM   16  C3  UNL     1      -0.596   0.381   0.110  1.00  0.00     0.221 A 
HETATM   17  N1  UNL     1       0.538  -0.131  -0.431  1.00  0.00    -0.201 NA
HETATM   18  C4  UNL     1       1.579   0.650  -0.096  1.00  0.00     0.180 A 
HETATM   19  N2  UNL     1       1.065   1.639   0.654  1.00  0.00    -0.108 NA
HETATM   20  O2  UNL     1      -0.206   1.462   0.761  1.00  0.00    -0.189 OA
BRANCH  18  21
HETATM   21  C5  UNL     1       3.023   0.533  -0.429  1.00  0.00     0.258 C 
BRANCH  21  22
HETATM   22  O1  UNL     1       3.737  -0.216   0.513  1.00  0.00    -0.340 OA
BRANCH  22  23
HETATM   23  C6  UNL     1       5.118  -0.447   0.386  1.00  0.00     0.112 A 
HETATM   24  C7  UNL     1       5.864   0.538   1.009  1.00  0.00     0.069 A 
HETATM   25 CL1  UNL     1       5.189   1.919   1.861  1.00  0.00    -0.081 Cl
HETATM   26  C8  UNL     1       7.244   0.501   1.003  1.00  0.00     0.027 A 
HETATM   27  C9  UNL     1       7.874  -0.550   0.356  1.00  0.00     0.003 A 
HETATM   28  C10 UNL     1       7.125  -1.531  -0.265  1.00  0.00     0.027 A 
HETATM   29  C11 UNL     1       5.743  -1.492  -0.258  1.00  0.00     0.069 A 
HETATM   30 CL2  UNL     1       4.679  -2.660  -0.998  1.00  0.00    -0.081 Cl
ENDBRANCH  22  23
ENDBRANCH  21  22
ENDBRANCH  18  21
ENDBRANCH   4  16
TORSDOF 4
