REMARK  8 active torsions:
REMARK  status: ('A' for Active; 'I' for Inactive)
REMARK    1  A    between atoms: C2_2  and  N1_10 
REMARK    2  A    between atoms: C3_3  and  C4_4 
REMARK    3  A    between atoms: C5_5  and  C6_6 
REMARK    4  A    between atoms: N1_10  and  C7_11 
REMARK    5  A    between atoms: C7_11  and  C8_12 
REMARK    6  A    between atoms: C9_14  and  C10_15 
REMARK    7  A    between atoms: C10_15  and  O1_16 
REMARK    8  A    between atoms: O1_16  and  C11_17 
ROOT
HETATM    1  C8  UNL     1      -0.471   0.683  -1.633  1.00  0.00     0.190 A 
HETATM    2  N2  UNL     1       0.544  -0.122  -1.207  1.00  0.00    -0.205 NA
HETATM    3  C9  UNL     1       1.169   0.495  -0.170  1.00  0.00     0.180 A 
HETATM    4  N3  UNL     1       0.517   1.651   0.001  1.00  0.00    -0.109 NA
HETATM    5  O2  UNL     1      -0.443   1.731  -0.876  1.00  0.00    -0.194 OA
ENDROOT
BRANCH   1   6
HETATM    6  C7  UNL     1      -1.382   0.319  -2.771  1.00  0.00     0.208 C 
BRANCH   6   7
HETATM    7  N1  UNL     1      -2.506  -0.399  -2.239  1.00  0.00    -0.386 N 
HETATM    8  H7  UNL     1      -2.719  -1.368  -2.538  1.00  0.00     0.159 HD
BRANCH   7   9
HETATM    9  C2  UNL     1      -3.373   0.162  -1.294  1.00  0.00     0.001 C 
HETATM   10  C1  UNL     1      -3.495   1.646  -1.251  1.00  0.00     0.068 C 
HETATM   11  C3  UNL     1      -4.111  -0.495  -0.416  1.00  0.00     0.024 C 
BRANCH  11  12
HETATM   12  C4  UNL     1      -4.971   0.214   0.511  1.00  0.00     0.007 C 
HETATM   13  C5  UNL     1      -5.737  -0.353   1.415  1.00  0.00     0.088 C 
BRANCH  13  14
HETATM   14  C6  UNL     1      -5.984  -1.766   1.785  1.00  0.00     0.408 C 
HETATM   15  F1  UNL     1      -7.352  -2.013   1.649  1.00  0.00    -0.167 F 
HETATM   16  F2  UNL     1      -5.265  -2.670   1.044  1.00  0.00    -0.167 F 
HETATM   17  F3  UNL     1      -5.676  -1.927   3.122  1.00  0.00    -0.167 F 
ENDBRANCH  13  14
ENDBRANCH  11  12
ENDBRANCH   7   9
ENDBRANCH   6   7
ENDBRANCH   1   6
BRANCH   3  18
HETATM   18  C10 UNL     1       2.347  -0.034   0.606  1.00  0.00     0.258 C 
BRANCH  18  19
HETATM   19  O1  UNL     1       3.526   0.387   0.005  1.00  0.00    -0.340 OA
BRANCH  19  20
HETATM   20  C11 UNL     1       4.814   0.135   0.381  1.00  0.00     0.112 A 
HETATM   21  C12 UNL     1       5.434  -0.985  -0.130  1.00  0.00     0.069 A 
HETATM   22 CL1  UNL     1       4.583  -2.050  -1.231  1.00  0.00    -0.081 Cl
HETATM   23  C13 UNL     1       6.740  -1.309   0.203  1.00  0.00     0.027 A 
HETATM   24  C14 UNL     1       7.461  -0.493   1.076  1.00  0.00     0.003 A 
HETATM   25  C15 UNL     1       6.851   0.638   1.599  1.00  0.00     0.027 A 
HETATM   26  C16 UNL     1       5.548   0.928   1.244  1.00  0.00     0.069 A 
HETATM   27 CL2  UNL     1       4.809   2.352   1.915  1.00  0.00    -0.081 Cl
ENDBRANCH  19  20
ENDBRANCH  18  19
ENDBRANCH   3  18
TORSDOF 8
