REMARK  5 active torsions:
REMARK  status: ('A' for Active; 'I' for Inactive)
REMARK    1  A    between atoms: C3_3  and  C4_4 
REMARK       I    between atoms: C4_4  and  N1_6 
REMARK    2  A    between atoms: N1_6  and  C5_7 
REMARK    3  A    between atoms: C5_7  and  C6_8 
REMARK    4  A    between atoms: C11_14  and  N3_15 
REMARK    5  A    between atoms: N3_15  and  C12_16 
ROOT
HETATM    1  C6  UNL     1       1.503  -1.005   1.076  1.00  0.00    -0.057 C 
HETATM    2  C7  UNL     1       1.113  -2.145   0.485  1.00  0.00     0.037 C 
HETATM    3  C8  UNL     1      -0.211  -2.321  -0.103  1.00  0.00     0.069 A 
HETATM    4  N2  UNL     1      -0.260  -3.273  -1.053  1.00  0.00    -0.260 NA
HETATM    5  C9  UNL     1      -1.361  -3.618  -1.737  1.00  0.00     0.119 A 
HETATM    6  C10 UNL     1      -2.503  -2.939  -1.429  1.00  0.00     0.049 A 
HETATM    7  C11 UNL     1      -2.580  -1.931  -0.465  1.00  0.00     0.046 A 
HETATM    8  C18 UNL     1      -1.386  -1.634   0.203  1.00  0.00     0.019 A 
HETATM    9  C19 UNL     1      -1.558  -0.578   1.193  1.00  0.00     0.012 C 
HETATM   10  C20 UNL     1      -0.600   0.216   1.639  1.00  0.00    -0.021 C 
HETATM   11  C21 UNL     1       0.820   0.269   1.295  1.00  0.00     0.063 C 
ENDROOT
BRANCH   7  12
HETATM   12  N3  UNL     1      -3.781  -1.248  -0.168  1.00  0.00    -0.355 N 
HETATM   13  H12 UNL     1      -4.416  -2.018   0.162  1.00  0.00     0.166 HD
BRANCH  12  14
HETATM   14  C12 UNL     1      -4.244   0.092  -0.217  1.00  0.00     0.034 A 
HETATM   15  C13 UNL     1      -5.505   0.387   0.250  1.00  0.00     0.032 A 
HETATM   16  C14 UNL     1      -5.884   1.690   0.167  1.00  0.00     0.046 A 
HETATM   17  C15 UNL     1      -5.112   2.737  -0.343  1.00  0.00     0.138 A 
HETATM   18  F1  UNL     1      -5.621   4.003  -0.365  1.00  0.00    -0.204 F 
HETATM   19  C16 UNL     1      -3.855   2.393  -0.799  1.00  0.00     0.074 A 
HETATM   20 CL1  UNL     1      -2.845   3.675  -1.451  1.00  0.00    -0.081 Cl
HETATM   21  C17 UNL     1      -3.433   1.082  -0.733  1.00  0.00     0.056 A 
ENDBRANCH  12  14
ENDBRANCH   7  12
BRANCH   1  22
HETATM   22  C5  UNL     1       2.905  -1.101   1.590  1.00  0.00     0.157 C 
BRANCH  22  23
HETATM   23  N1  UNL     1       3.779  -0.130   0.998  1.00  0.00    -0.354 N 
HETATM   24  C4  UNL     1       3.978  -0.127  -0.425  1.00  0.00     0.241 C 
HETATM   25  O1  UNL     1       3.323  -1.031  -1.015  1.00  0.00    -0.269 OA
HETATM   26  H6  UNL     1       4.291   0.596   1.573  1.00  0.00     0.163 HD
BRANCH  24  27
HETATM   27  C3  UNL     1       4.851   0.838  -1.055  1.00  0.00     0.070 C 
HETATM   28  C2  UNL     1       5.559   1.806  -0.462  1.00  0.00    -0.026 C 
HETATM   29  C1  UNL     1       6.415   2.720  -1.267  1.00  0.00     0.036 C 
ENDBRANCH  24  27
ENDBRANCH  22  23
ENDBRANCH   1  22
TORSDOF 5
