REMARK  6 active torsions:
REMARK  status: ('A' for Active; 'I' for Inactive)
REMARK    1  A    between atoms: N3_9  and  C7_10 
REMARK    2  A    between atoms: C14_19  and  O1_20 
REMARK    3  A    between atoms: O1_20  and  C15_21 
REMARK    4  A    between atoms: C15_21  and  C16_22 
REMARK    5  A    between atoms: C16_22  and  C17_23 
REMARK    6  A    between atoms: C17_23  and  N4_24 
ROOT
HETATM    1  C1  UNL     1      -0.517  -2.637  -2.912  1.00  0.00     0.047 C 
HETATM    2  C2  UNL     1      -1.582  -1.972  -2.157  1.00  0.00    -0.039 C 
HETATM    3  C3  UNL     1      -2.560  -2.888  -2.376  1.00  0.00     0.071 C 
HETATM    4  C4  UNL     1      -3.941  -3.375  -2.189  1.00  0.00     0.101 C 
HETATM    5  N1  UNL     1      -5.131  -3.129  -1.594  1.00  0.00    -0.258 NA
HETATM    6  C5  UNL     1      -4.953  -1.887  -0.841  1.00  0.00     0.227 C 
HETATM    7  N2  UNL     1      -4.697  -0.691  -1.259  1.00  0.00    -0.263 NA
HETATM    8  C6  UNL     1      -4.547   0.434  -0.351  1.00  0.00     0.279 C 
HETATM    9  N3  UNL     1      -3.121   0.810  -0.278  1.00  0.00    -0.336 N 
HETATM   10  C13 UNL     1      -1.915   0.276  -0.878  1.00  0.00     0.130 C 
HETATM   11  C14 UNL     1      -1.254  -0.649  -1.543  1.00  0.00     0.087 C 
ENDROOT
BRANCH  11  12
HETATM   12  O1  UNL     1       0.124  -0.321  -1.725  1.00  0.00    -0.349 OA
BRANCH  12  13
HETATM   13  C15 UNL     1       0.959  -0.383  -0.573  1.00  0.00     0.177 C 
BRANCH  13  14
HETATM   14  C16 UNL     1       2.131   0.552  -0.714  1.00  0.00     0.057 C 
BRANCH  14  15
HETATM   15  C17 UNL     1       2.995   0.499   0.531  1.00  0.00     0.274 C 
BRANCH  15  16
HETATM   16  N4  UNL     1       3.548  -0.808   0.810  1.00  0.00     0.092 N 
HETATM   17  C18 UNL     1       4.232  -0.728   2.129  1.00  0.00     0.298 C 
HETATM   18  C19 UNL     1       5.235   0.414   2.098  1.00  0.00     0.198 C 
HETATM   19  O2  UNL     1       5.954   0.427   0.918  1.00  0.00    -0.388 OA
HETATM   20  C20 UNL     1       5.952  -0.823   0.349  1.00  0.00     0.198 C 
HETATM   21  C21 UNL     1       4.563  -1.143  -0.196  1.00  0.00     0.298 C 
ENDBRANCH  15  16
ENDBRANCH  14  15
ENDBRANCH  13  14
ENDBRANCH  12  13
ENDBRANCH  11  12
BRANCH   9  22
HETATM   22  C7  UNL     1      -3.026   1.924   0.611  1.00  0.00     0.037 A 
HETATM   23  C8  UNL     1      -2.200   2.982   0.287  1.00  0.00     0.033 A 
HETATM   24  C9  UNL     1      -1.929   4.147   1.013  1.00  0.00     0.046 A 
HETATM   25  C10 UNL     1      -2.629   4.177   2.230  1.00  0.00     0.138 A 
HETATM   26  F1  UNL     1      -2.438   5.255   3.016  1.00  0.00    -0.204 F 
HETATM   27  C11 UNL     1      -3.458   3.165   2.605  1.00  0.00     0.074 A 
HETATM   28 CL1  UNL     1      -4.284   3.304   4.160  1.00  0.00    -0.081 Cl
HETATM   29  C12 UNL     1      -3.670   2.041   1.820  1.00  0.00     0.056 A 
ENDBRANCH   9  22
TORSDOF 6
