REMARK  11 active torsions:
REMARK  status: ('A' for Active; 'I' for Inactive)
REMARK    1  A    between atoms: N1_7  and  C6_8 
REMARK    2  A    between atoms: C6_8  and  C7_9 
REMARK    3  A    between atoms: C7_9  and  C8_10 
REMARK    4  A    between atoms: C8_10  and  O2_11 
REMARK    5  A    between atoms: O2_11  and  C9_12 
REMARK    6  A    between atoms: N3_19  and  C15_20 
REMARK    7  A    between atoms: C15_20  and  C16_21 
REMARK    8  A    between atoms: C15_20  and  C18_24 
REMARK    9  A    between atoms: C16_21  and  C17_22 
REMARK   10  A    between atoms: C18_24  and  C19_25 
REMARK   11  A    between atoms: C21_28  and  O3_29 
ROOT
HETATM    1  C9  UNL     1       0.639  -0.274  -0.145  1.00  0.00     0.100 A 
HETATM    2  C10 UNL     1       1.877   0.194  -0.090  1.00  0.00     0.053 A 
HETATM    3  C11 UNL     1       3.091  -0.576  -0.436  1.00  0.00     0.287 A 
HETATM    4  C12 UNL     1       2.750  -1.959  -0.861  1.00  0.00     0.012 A 
HETATM    5  C13 UNL     1       3.726  -2.754  -1.199  1.00  0.00     0.090 C 
HETATM    6  N2  UNL     1       4.792  -2.602  -0.489  1.00  0.00    -0.257 NA
HETATM    7  C14 UNL     1       4.703  -1.884   0.770  1.00  0.00     0.423 C 
HETATM    8  N3  UNL     1       4.097  -0.569   0.608  1.00  0.00     0.129 N 
HETATM    9  C20 UNL     1       1.372  -2.431  -0.906  1.00  0.00     0.051 A 
HETATM   10  C21 UNL     1       0.366  -1.641  -0.570  1.00  0.00     0.102 A 
ENDROOT
BRANCH   1  11
HETATM   11  O2  UNL     1      -0.237   0.723   0.248  1.00  0.00    -0.348 OA
BRANCH  11  12
HETATM   12  C8  UNL     1      -1.577   0.564   0.589  1.00  0.00     0.177 C 
BRANCH  12  13
HETATM   13  C7  UNL     1      -2.253   1.868   0.957  1.00  0.00     0.046 C 
BRANCH  13  14
HETATM   14  C6  UNL     1      -3.675   1.616   1.307  1.00  0.00     0.125 C 
BRANCH  14  15
HETATM   15  N1  UNL     1      -4.474   1.036   0.281  1.00  0.00    -0.381 N 
HETATM   16  C2  UNL     1      -5.020  -0.304   0.321  1.00  0.00     0.021 C 
HETATM   17  C1  UNL     1      -4.485  -1.139   1.198  1.00  0.00     0.040 C 
HETATM   18  C3  UNL     1      -6.127  -0.451  -0.694  1.00  0.00     0.223 C 
HETATM   19  O1  UNL     1      -6.914   0.687  -0.548  1.00  0.00    -0.384 OA
HETATM   20  C4  UNL     1      -6.305   1.845  -0.986  1.00  0.00     0.187 C 
HETATM   21  C5  UNL     1      -4.799   1.791  -0.910  1.00  0.00     0.149 C 
ENDBRANCH  14  15
ENDBRANCH  13  14
ENDBRANCH  12  13
ENDBRANCH  11  12
ENDBRANCH   1  11
BRANCH  10  22
HETATM   22  O3  UNL     1      -0.983  -1.963  -0.568  1.00  0.00    -0.353 OA
HETATM   23  C22 UNL     1      -1.362  -3.322  -0.540  1.00  0.00     0.210 C 
ENDBRANCH  10  22
BRANCH   8  24
HETATM   24  C15 UNL     1       5.151   0.382   0.343  1.00  0.00     0.257 C 
BRANCH  24  25
HETATM   25  C16 UNL     1       5.913   0.061  -0.884  1.00  0.00     0.038 C 
BRANCH  25  26
HETATM   26  C17 UNL     1       6.051   0.735  -2.021  1.00  0.00     0.186 C 
HETATM   27  F1  UNL     1       6.569   0.843  -3.264  1.00  0.00    -0.220 F 
ENDBRANCH  25  26
ENDBRANCH  24  25
BRANCH  24  28
HETATM   28  C18 UNL     1       4.667   1.771   0.393  1.00  0.00     0.093 C 
BRANCH  28  29
HETATM   29  C19 UNL     1       5.066   2.857   1.085  1.00  0.00     0.204 C 
HETATM   30 CL1  UNL     1       5.944   3.940   2.178  1.00  0.00    -0.261 Cl
ENDBRANCH  28  29
ENDBRANCH  24  28
ENDBRANCH   8  24
TORSDOF 11
