REMARK  6 active torsions:
REMARK  status: ('A' for Active; 'I' for Inactive)
REMARK    1  A    between atoms: O1_2  and  N1_3 
REMARK    2  A    between atoms: N1_3  and  C2_4 
REMARK    3  A    between atoms: N2_8  and  C6_9 
REMARK    4  A    between atoms: C6_9  and  C7_10 
REMARK    5  A    between atoms: C7_10  and  C8_11 
REMARK    6  A    between atoms: C8_11  and  C9_12 
ROOT
HETATM    1  C2  UNL     1      -0.188   3.159   0.645  1.00  0.00     0.040 A 
HETATM    2  C3  UNL     1       0.617   2.236   0.177  1.00  0.00     0.073 A 
HETATM    3  C4  UNL     1       1.520   1.298  -0.274  1.00  0.00     0.035 C 
HETATM    4  C5  UNL     1       2.390   0.464  -0.655  1.00  0.00     0.122 C 
HETATM    5  N2  UNL     1       3.243  -0.485  -1.128  1.00  0.00    -0.368 N 
HETATM    6  N3  UNL     1       1.294  -0.572  -1.058  1.00  0.00    -0.225 NA
HETATM    7  C11 UNL     1       0.775  -1.106   0.049  1.00  0.00     0.235 C 
HETATM    8  N4  UNL     1       0.169  -1.724   1.160  1.00  0.00    -0.249 NA
HETATM    9  C12 UNL     1      -0.971  -2.245   1.146  1.00  0.00     0.045 C 
HETATM   10  C13 UNL     1      -1.084  -2.743   2.545  1.00  0.00     0.068 C 
HETATM   11  C14 UNL     1      -1.818  -2.176  -0.089  1.00  0.00     0.293 C 
HETATM   12  C15 UNL     1      -2.072  -3.547  -0.569  1.00  0.00     0.209 C 
HETATM   13  O2  UNL     1      -3.288  -3.846  -1.075  1.00  0.00    -0.387 OA
HETATM   14  C16 UNL     1      -4.374  -3.124  -0.719  1.00  0.00     0.198 C 
HETATM   15  C17 UNL     1      -4.155  -2.237   0.470  1.00  0.00     0.299 C 
HETATM   16  N5  UNL     1      -2.991  -1.403   0.269  1.00  0.00     0.102 N 
HETATM   17  C18 UNL     1      -3.341  -0.415  -0.718  1.00  0.00     0.273 C 
HETATM   18  C19 UNL     1      -2.341   0.606  -1.023  1.00  0.00     0.030 C 
HETATM   19  C20 UNL     1      -2.027   1.523   0.137  1.00  0.00     0.002 C 
HETATM   20  O3  UNL     1      -0.940   2.361  -0.186  1.00  0.00     0.000 OA
HETATM   21  H7  UNL     1       3.109  -0.080  -2.097  1.00  0.00     0.161 HD
ENDROOT
BRANCH   5  22
HETATM   22  C6  UNL     1       3.396  -1.009   0.249  1.00  0.00     0.141 C 
BRANCH  22  23
HETATM   23  C7  UNL     1       4.724  -0.347   0.212  1.00  0.00     0.024 C 
BRANCH  23  24
HETATM   24  C8  UNL     1       5.609   0.520  -0.813  1.00  0.00     0.013 C 
BRANCH  24  25
HETATM   25  C9  UNL     1       6.420   1.232  -1.543  1.00  0.00     0.086 C 
HETATM   26  C10 UNL     1       5.937   1.536  -2.977  1.00  0.00     0.081 C 
HETATM   27  F1  UNL     1       7.251   1.266  -0.495  1.00  0.00    -0.212 F 
ENDBRANCH  24  25
ENDBRANCH  23  24
ENDBRANCH  22  23
ENDBRANCH   5  22
BRANCH   1  28
HETATM   28  N1  UNL     1       0.076   4.257   1.553  1.00  0.00    -0.173 NA
HETATM   29  H4  UNL     1       0.616   4.779   0.789  1.00  0.00     0.160 HD
BRANCH  28  30
HETATM   30  O1  UNL     1      -0.652   3.404   2.351  1.00  0.00    -0.306 OA
HETATM   31  C1  UNL     1      -1.946   3.948   2.478  1.00  0.00     0.230 C 
ENDBRANCH  28  30
ENDBRANCH   1  28
TORSDOF 6
