REMARK  6 active torsions:
REMARK  status: ('A' for Active; 'I' for Inactive)
REMARK    1  A    between atoms: O1_2  and  C2_3 
REMARK    2  A    between atoms: C5_6  and  N1_7 
REMARK    3  A    between atoms: N1_7  and  C6_8 
REMARK    4  A    between atoms: C7_9  and  C8_10 
REMARK    5  A    between atoms: C9_11  and  C10_12 
REMARK    6  A    between atoms: C10_12  and  O2_14 
ROOT
HETATM    1  C2  UNL     1      -3.967   0.142   0.884  1.00  0.00     0.075 A 
HETATM    2  C3  UNL     1      -2.647  -0.129   0.637  1.00  0.00     0.055 A 
HETATM    3  C4  UNL     1      -1.996   0.524  -0.390  1.00  0.00     0.041 A 
HETATM    4  C5  UNL     1      -0.670   0.185  -0.562  1.00  0.00     0.141 A 
HETATM    5  N2  UNL     1       0.029   0.778  -1.541  1.00  0.00    -0.224 NA
HETATM    6  C12 UNL     1      -0.582   1.687  -2.329  1.00  0.00     0.236 A 
HETATM    7  N3  UNL     1      -1.876   2.039  -2.185  1.00  0.00    -0.241 NA
HETATM    8  C13 UNL     1      -2.603   1.456  -1.206  1.00  0.00     0.072 A 
HETATM    9  C14 UNL     1      -3.932   1.719  -0.946  1.00  0.00     0.042 A 
HETATM   10  C15 UNL     1      -4.607   1.077   0.080  1.00  0.00    -0.026 A 
HETATM   11  C16 UNL     1      -6.041   1.498   0.202  1.00  0.00     0.051 C 
ENDROOT
BRANCH   4  12
HETATM   12  N1  UNL     1       0.064  -0.757   0.212  1.00  0.00    -0.350 N 
HETATM   13  H5  UNL     1      -0.222  -1.350   1.016  1.00  0.00     0.166 HD
BRANCH  12  14
HETATM   14  C6  UNL     1       1.447  -1.087   0.005  1.00  0.00     0.090 C 
HETATM   15  C7  UNL     1       2.417  -0.182   0.131  1.00  0.00     0.017 C 
BRANCH  15  16
HETATM   16  C8  UNL     1       3.833  -0.449  -0.063  1.00  0.00    -0.000 C 
HETATM   17  C9  UNL     1       4.729   0.514   0.083  1.00  0.00     0.004 C 
BRANCH  17  18
HETATM   18  C10 UNL     1       6.172   0.190  -0.127  1.00  0.00     0.137 C 
HETATM   19  C11 UNL     1       6.289  -0.411  -1.506  1.00  0.00     0.043 C 
BRANCH  18  20
HETATM   20  O2  UNL     1       6.546  -0.695   0.872  1.00  0.00    -0.392 OA
HETATM   21  H14 UNL     1       6.130  -0.525   1.736  1.00  0.00     0.210 HD
ENDBRANCH  18  20
ENDBRANCH  17  18
ENDBRANCH  15  16
ENDBRANCH  12  14
ENDBRANCH   4  12
BRANCH   1  22
HETATM   22  O1  UNL     1      -4.769  -0.419   1.870  1.00  0.00    -0.355 OA
HETATM   23  C1  UNL     1      -4.161  -1.378   2.716  1.00  0.00     0.210 C 
ENDBRANCH   1  22
TORSDOF 6
