REMARK  4 active torsions:
REMARK  status: ('A' for Active; 'I' for Inactive)
REMARK    1  A    between atoms: C2_2  and  O1_3 
REMARK    2  A    between atoms: O1_3  and  C3_4 
REMARK    3  A    between atoms: C8_11  and  N3_12 
REMARK    4  A    between atoms: P1_21  and  O2_22 
ROOT
HETATM    1  C3  UNL     1       2.148  -0.496   0.763  1.00  0.00     0.095 C 
HETATM    2  C4  UNL     1       0.833  -0.540   0.616  1.00  0.00     0.057 C 
HETATM    3  C5  UNL     1       0.143  -1.765   0.300  1.00  0.00     0.042 A 
HETATM    4  C6  UNL     1       0.599  -3.037  -0.027  1.00  0.00     0.073 A 
HETATM    5  N1  UNL     1      -0.269  -4.014  -0.320  1.00  0.00    -0.241 NA
HETATM    6  C7  UNL     1      -1.591  -3.740  -0.291  1.00  0.00     0.236 A 
HETATM    7  N2  UNL     1      -2.083  -2.505   0.026  1.00  0.00    -0.223 NA
HETATM    8  C8  UNL     1      -1.207  -1.500   0.327  1.00  0.00     0.144 A 
HETATM    9  C15 UNL     1       2.004  -3.487  -0.087  1.00  0.00     0.047 C 
HETATM   10  C16 UNL     1       2.919  -3.123   0.798  1.00  0.00     0.008 C 
HETATM   11  P1  UNL     1       3.504  -1.648   0.674  1.00  0.00     0.050 P 
HETATM   12  H17 UNL     1       4.408  -1.443   1.730  1.00  0.00     0.092 HD
ENDROOT
BRANCH   8  13
HETATM   13  N3  UNL     1      -1.873  -0.300   0.675  1.00  0.00    -0.337 N 
HETATM   14  C9  UNL     1      -2.391   0.290  -0.539  1.00  0.00     0.099 A 
HETATM   15  C10 UNL     1      -3.022   1.461  -0.606  1.00  0.00    -0.047 A 
HETATM   16  C11 UNL     1      -3.580   2.126  -1.832  1.00  0.00     0.049 C 
HETATM   17  C12 UNL     1      -3.254   2.236   0.616  1.00  0.00     0.006 A 
HETATM   18  C13 UNL     1      -2.798   1.675   1.733  1.00  0.00    -0.006 A 
HETATM   19  C14 UNL     1      -2.103   0.401   1.914  1.00  0.00     0.157 A 
ENDBRANCH   8  13
BRANCH   1  20
HETATM   20  O1  UNL     1       2.629   0.780   1.068  1.00  0.00    -0.349 OA
BRANCH  20  21
HETATM   21  C2  UNL     1       2.509   1.824   0.131  1.00  0.00     0.171 C 
HETATM   22  C1  UNL     1       3.107   3.111   0.700  1.00  0.00     0.034 C 
ENDBRANCH  20  21
ENDBRANCH   1  20
BRANCH  11  23
HETATM   23  O2  UNL     1       4.302  -1.561  -0.811  1.00  0.00    -0.371 OA
HETATM   24  H18 UNL     1       4.836  -2.394  -0.910  1.00  0.00     0.215 HD
ENDBRANCH  11  23
TORSDOF 4
