REMARK  3 active torsions:
REMARK  status: ('A' for Active; 'I' for Inactive)
REMARK    1  A    between atoms: O1_2  and  C2_3 
REMARK    2  A    between atoms: C6_7  and  N1_8 
REMARK    3  A    between atoms: N1_8  and  C7_9 
ROOT
HETATM    1  C2  UNL     1      -4.256  -0.090  -0.105  1.00  0.00     0.070 A 
HETATM    2  C3  UNL     1      -3.472   0.824   0.569  1.00  0.00     0.038 A 
HETATM    3  C4  UNL     1      -2.103   0.707   0.463  1.00  0.00     0.020 A 
HETATM    4  C5  UNL     1      -1.426  -0.237  -0.253  1.00  0.00     0.039 A 
HETATM    5  C6  UNL     1      -0.060  -0.347  -0.351  1.00  0.00     0.142 A 
HETATM    6  N2  UNL     1       0.451  -1.333  -1.093  1.00  0.00    -0.224 NA
HETATM    7  C14 UNL     1      -0.332  -2.204  -1.735  1.00  0.00     0.236 A 
HETATM    8  N3  UNL     1      -1.691  -2.115  -1.653  1.00  0.00    -0.241 NA
HETATM    9  C15 UNL     1      -2.249  -1.126  -0.907  1.00  0.00     0.074 A 
HETATM   10  C16 UNL     1      -3.620  -1.074  -0.850  1.00  0.00     0.069 A 
ENDROOT
BRANCH   5  11
HETATM   11  N1  UNL     1       0.744   0.598   0.328  1.00  0.00    -0.340 N 
HETATM   12  H6  UNL     1       0.339   1.388   0.860  1.00  0.00     0.167 HD
BRANCH  11  13
HETATM   13  C7  UNL     1       2.157   0.681   0.434  1.00  0.00     0.034 A 
HETATM   14  C8  UNL     1       2.873   1.777   0.925  1.00  0.00     0.029 A 
HETATM   15  C9  UNL     1       4.223   1.825   1.024  1.00  0.00     0.003 A 
HETATM   16  C10 UNL     1       4.992   0.761   0.632  1.00  0.00     0.007 A 
HETATM   17  C11 UNL     1       4.356  -0.359   0.135  1.00  0.00    -0.060 A 
HETATM   18  C12 UNL     1       5.216  -1.496  -0.280  1.00  0.00     0.048 C 
HETATM   19  C13 UNL     1       2.979  -0.357   0.056  1.00  0.00     0.036 A 
ENDBRANCH  11  13
ENDBRANCH   5  11
BRANCH   1  20
HETATM   20  O1  UNL     1      -5.644  -0.091  -0.087  1.00  0.00    -0.356 OA
HETATM   21  C1  UNL     1      -6.303   0.898   0.665  1.00  0.00     0.210 C 
ENDBRANCH   1  20
TORSDOF 3
