REMARK  2 active torsions:
REMARK  status: ('A' for Active; 'I' for Inactive)
REMARK    1  A    between atoms: C1_2  and  O2_3 
REMARK    2  A    between atoms: C1_2  and  C2_4 
ROOT
HETATM    1  C2  UNL     1      -0.981   2.061  -0.413  1.00  0.00     0.022 C 
HETATM    2  C3  UNL     1       0.165   1.955  -0.992  1.00  0.00     0.039 C 
HETATM    3  C4  UNL     1       1.443   1.654  -1.538  1.00  0.00     0.050 C 
HETATM    4  C5  UNL     1       2.264   0.551  -0.986  1.00  0.00    -0.036 A 
HETATM    5  C6  UNL     1       3.552   0.750  -1.446  1.00  0.00     0.010 A 
HETATM    6  C7  UNL     1       4.681   0.002  -1.182  1.00  0.00     0.020 A 
HETATM    7  C8  UNL     1       4.596  -1.095  -0.367  1.00  0.00     0.012 A 
HETATM    8 BR1  UNL     1       6.074  -2.184   0.062  1.00  0.00    -0.051 Br
HETATM    9  C9  UNL     1       3.285  -1.304   0.104  1.00  0.00     0.043 A 
HETATM   10  C10 UNL     1       2.108  -0.555  -0.149  1.00  0.00     0.021 A 
HETATM   11  N1  UNL     1       1.091  -1.223   0.575  1.00  0.00    -0.241 NA
HETATM   12  C11 UNL     1       0.009  -2.119   0.659  1.00  0.00     0.138 A 
HETATM   13  N2  UNL     1      -0.140  -3.468   0.527  1.00  0.00    -0.227 NA
HETATM   14  C12 UNL     1      -1.329  -4.089   0.617  1.00  0.00     0.235 A 
HETATM   15  N3  UNL     1      -2.501  -3.434   0.847  1.00  0.00    -0.244 NA
HETATM   16  C13 UNL     1      -2.468  -2.075   0.997  1.00  0.00     0.066 A 
HETATM   17  C14 UNL     1      -1.223  -1.493   0.897  1.00  0.00     0.098 A 
HETATM   18  N4  UNL     1      -1.338  -0.085   0.980  1.00  0.00    -0.355 N 
HETATM   19  C15 UNL     1      -2.436   0.775   1.112  1.00  0.00     0.011 C 
HETATM   20  C16 UNL     1      -2.122   1.797   0.369  1.00  0.00     0.039 C 
HETATM   21  C17 UNL     1      -3.301  -0.008   1.986  1.00  0.00     0.063 C 
HETATM   22  C18 UNL     1      -3.717  -1.322   1.289  1.00  0.00     0.068 C 
HETATM   23  H8  UNL     1       0.963  -1.520  -0.452  1.00  0.00     0.135 HD
HETATM   24  H10 UNL     1      -0.343   0.218   1.060  1.00  0.00     0.166 HD
ENDROOT
BRANCH   1  25
HETATM   25  C1  UNL     1      -1.068   3.357  -1.076  1.00  0.00     0.172 C 
HETATM   26  O1  UNL     1      -0.078   3.616  -1.769  1.00  0.00    -0.646 OA
BRANCH  25  27
HETATM   27  O2  UNL     1      -1.862   4.475  -1.248  1.00  0.00    -0.773 OA
HETATM   28  H1  UNL     1      -1.585   5.414  -0.957  1.00  0.00     0.167 HD
ENDBRANCH  25  27
ENDBRANCH   1  25
TORSDOF 2
