REMARK  6 active torsions:
REMARK  status: ('A' for Active; 'I' for Inactive)
REMARK    1  A    between atoms: O1_2  and  C2_3 
REMARK    2  A    between atoms: C5_6  and  C6_7 
REMARK    3  A    between atoms: C6_7  and  N1_8 
REMARK    4  A    between atoms: C6_7  and  N2_9 
REMARK    5  A    between atoms: N2_9  and  C7_10 
REMARK    6  A    between atoms: C15_18  and  O2_19 
ROOT
HETATM    1  C6  UNL     1       0.189  -1.442   1.553  1.00  0.00     0.087 C 
ENDROOT
BRANCH   1   2
HETATM    2  C5  UNL     1      -1.022  -1.130   1.013  1.00  0.00     0.056 A 
HETATM    3  C4  UNL     1      -2.285  -1.400   1.281  1.00  0.00     0.004 A 
HETATM    4  C3  UNL     1      -3.526  -0.941   0.666  1.00  0.00     0.046 A 
HETATM    5  N3  UNL     1      -2.388  -0.658   0.378  1.00  0.00     0.000 N 
HETATM    6  C2  UNL     1      -3.862  -0.013  -0.476  1.00  0.00     0.135 A 
HETATM    7  C15 UNL     1      -2.421   0.252  -0.730  1.00  0.00     0.140 A 
HETATM    8  C14 UNL     1      -1.290  -0.291  -0.017  1.00  0.00     0.039 A 
BRANCH   6   9
HETATM    9  O1  UNL     1      -4.849   0.597  -1.250  1.00  0.00    -0.378 OA
HETATM   10  C1  UNL     1      -6.202   0.403  -1.032  1.00  0.00     0.202 C 
ENDBRANCH   6   9
BRANCH   7  11
HETATM   11  O2  UNL     1      -2.310   1.172  -1.855  1.00  0.00    -0.378 OA
HETATM   12  C16 UNL     1      -2.341   2.538  -1.605  1.00  0.00     0.202 C 
ENDBRANCH   7  11
ENDBRANCH   1   2
BRANCH   1  13
HETATM   13  N1  UNL     1       0.053  -2.279   2.731  1.00  0.00    -0.388 N 
HETATM   14  H5  UNL     1       0.928  -2.906   2.779  1.00  0.00     0.157 HD
HETATM   15  H6  UNL     1      -0.477  -2.559   3.560  1.00  0.00     0.157 HD
ENDBRANCH   1  13
BRANCH   1  16
HETATM   16  N2  UNL     1       1.398  -1.055   1.014  1.00  0.00    -0.345 N 
HETATM   17  H7  UNL     1       1.164  -0.228   1.664  1.00  0.00     0.167 HD
BRANCH  16  18
HETATM   18  C7  UNL     1       2.604  -0.657   0.483  1.00  0.00     0.033 A 
HETATM   19  C8  UNL     1       3.000  -1.630  -0.426  1.00  0.00     0.029 A 
HETATM   20  C9  UNL     1       4.195  -1.507  -1.147  1.00  0.00     0.003 A 
HETATM   21  C10 UNL     1       4.920  -0.345  -0.869  1.00  0.00     0.007 A 
HETATM   22  C11 UNL     1       4.554   0.644   0.028  1.00  0.00    -0.060 A 
HETATM   23  C12 UNL     1       5.372   1.862   0.246  1.00  0.00     0.048 C 
HETATM   24  C13 UNL     1       3.386   0.438   0.677  1.00  0.00     0.036 A 
ENDBRANCH  16  18
ENDBRANCH   1  16
TORSDOF 6
