REMARK  5 active torsions:
REMARK  status: ('A' for Active; 'I' for Inactive)
REMARK    1  A    between atoms: O1_2  and  C2_3 
REMARK    2  A    between atoms: C2_3  and  O2_20 
REMARK    3  A    between atoms: C3_4  and  C4_5 
REMARK    4  A    between atoms: C8_11  and  N3_12 
REMARK    5  A    between atoms: N3_12  and  C9_13 
ROOT
HETATM    1  C4  UNL     1      -1.033  -0.185   0.794  1.00  0.00     0.039 A 
HETATM    2  C5  UNL     1      -1.846  -0.877   1.656  1.00  0.00     0.046 A 
HETATM    3  C6  UNL     1      -3.300  -0.659   1.833  1.00  0.00     0.071 C 
HETATM    4  N1  UNL     1      -1.344  -1.844   2.457  1.00  0.00    -0.246 NA
HETATM    5  C7  UNL     1      -0.035  -2.142   2.420  1.00  0.00     0.235 A 
HETATM    6  N2  UNL     1       0.741  -1.456   1.575  1.00  0.00    -0.224 NA
HETATM    7  C8  UNL     1       0.329  -0.494   0.756  1.00  0.00     0.141 A 
ENDROOT
BRANCH   7   8
HETATM    8  N3  UNL     1       1.149   0.217  -0.138  1.00  0.00    -0.340 N 
HETATM    9  H9  UNL     1       0.715   0.951  -0.744  1.00  0.00     0.167 HD
BRANCH   8  10
HETATM   10  C9  UNL     1       2.545   0.105  -0.376  1.00  0.00     0.034 A 
HETATM   11  C10 UNL     1       3.217   0.844  -1.355  1.00  0.00     0.029 A 
HETATM   12  C11 UNL     1       4.562   0.724  -1.572  1.00  0.00     0.003 A 
HETATM   13  C12 UNL     1       5.330  -0.141  -0.829  1.00  0.00     0.007 A 
HETATM   14  C13 UNL     1       4.720  -0.884   0.140  1.00  0.00    -0.060 A 
HETATM   15  C14 UNL     1       5.588  -1.799   0.912  1.00  0.00     0.048 C 
HETATM   16  C15 UNL     1       3.379  -0.741   0.330  1.00  0.00     0.036 A 
ENDBRANCH   8  10
ENDBRANCH   7   8
BRANCH   1  17
HETATM   17  C3  UNL     1      -1.611   0.826  -0.080  1.00  0.00     0.081 C 
HETATM   18  C2  UNL     1      -2.651   0.902  -0.897  1.00  0.00     0.180 C 
BRANCH  18  19
HETATM   19  O1  UNL     1      -2.898   2.076  -1.588  1.00  0.00    -0.336 OA
HETATM   20  C1  UNL     1      -3.920   2.999  -1.300  1.00  0.00     0.212 C 
ENDBRANCH  18  19
BRANCH  18  21
HETATM   21  O2  UNL     1      -3.491  -0.159  -1.077  1.00  0.00    -0.336 OA
HETATM   22  C16 UNL     1      -4.824  -0.103  -1.506  1.00  0.00     0.212 C 
ENDBRANCH  18  21
ENDBRANCH   1  17
TORSDOF 5
