REMARK  6 active torsions:
REMARK  status: ('A' for Active; 'I' for Inactive)
REMARK    1  A    between atoms: C2_2  and  O1_3 
REMARK    2  A    between atoms: O1_3  and  C3_4 
REMARK    3  A    between atoms: C3_4  and  C4_6 
REMARK    4  A    between atoms: C10_14  and  N2_15 
REMARK    5  A    between atoms: N2_15  and  S1_16 
REMARK    6  A    between atoms: S1_16  and  C11_18 
ROOT
HETATM    1  C4  UNL     1      -2.186  -0.338   0.167  1.00  0.00     0.056 C 
HETATM    2  C5  UNL     1      -2.238  -1.604   0.443  1.00  0.00     0.018 C 
HETATM    3  C6  UNL     1      -1.229  -2.408   0.248  1.00  0.00     0.049 C 
HETATM    4  C7  UNL     1      -1.418  -3.867   0.055  1.00  0.00     0.225 C 
HETATM    5  O3  UNL     1      -0.318  -4.489   0.689  1.00  0.00    -0.384 OA
HETATM    6  C8  UNL     1       0.857  -4.173   0.026  1.00  0.00     0.188 C 
HETATM    7  C9  UNL     1       1.284  -2.739   0.247  1.00  0.00     0.156 C 
HETATM    8  N1  UNL     1       0.098  -1.875   0.218  1.00  0.00    -0.331 N 
HETATM    9  C10 UNL     1       0.255  -0.458   0.158  1.00  0.00     0.116 C 
HETATM   10  C15 UNL     1      -0.858   0.254   0.135  1.00  0.00     0.068 C 
ENDROOT
BRANCH   9  11
HETATM   11  N2  UNL     1       1.577   0.042   0.130  1.00  0.00    -0.287 N 
HETATM   12  H12 UNL     1       2.305  -0.416   0.750  1.00  0.00     0.178 HD
BRANCH  11  13
HETATM   13  S1  UNL     1       2.066   1.373  -0.874  1.00  0.00     0.159 S 
HETATM   14  O4  UNL     1       1.885   1.105  -2.348  1.00  0.00    -0.229 OA
BRANCH  13  15
HETATM   15  C11 UNL     1       3.680   1.900  -0.497  1.00  0.00     0.096 A 
HETATM   16  C12 UNL     1       4.361   2.825   0.314  1.00  0.00     0.051 A 
HETATM   17  C13 UNL     1       5.711   2.936   0.325  1.00  0.00     0.041 A 
HETATM   18 BR1  UNL     1       6.499   4.231   1.473  1.00  0.00    -0.049 Br
HETATM   19  C14 UNL     1       6.425   1.973  -0.620  1.00  0.00     0.093 A 
HETATM   20 CL1  UNL     1       8.288   2.161  -0.574  1.00  0.00    -0.075 Cl
HETATM   21  S2  UNL     1       4.999   1.018  -1.408  1.00  0.00    -0.065 SA
ENDBRANCH  13  15
ENDBRANCH  11  13
ENDBRANCH   9  11
BRANCH   1  22
HETATM   22  C3  UNL     1      -3.386   0.422  -0.089  1.00  0.00     0.294 C 
HETATM   23  O2  UNL     1      -4.504  -0.146  -0.046  1.00  0.00    -0.259 OA
BRANCH  22  24
HETATM   24  O1  UNL     1      -3.307   1.767  -0.380  1.00  0.00    -0.318 OA
BRANCH  24  25
HETATM   25  C2  UNL     1      -4.474   2.539  -0.636  1.00  0.00     0.174 C 
HETATM   26  C1  UNL     1      -5.419   2.532   0.544  1.00  0.00     0.034 C 
ENDBRANCH  24  25
ENDBRANCH  22  24
ENDBRANCH   1  22
TORSDOF 6
