REMARK  8 active torsions:
REMARK  status: ('A' for Active; 'I' for Inactive)
REMARK    1  A    between atoms: C2_2  and  C4_4 
REMARK    2  A    between atoms: C5_5  and  N1_6 
REMARK    3  A    between atoms: C11_13  and  O1_14 
REMARK    4  A    between atoms: O1_14  and  C12_15 
REMARK    5  A    between atoms: C16_20  and  O3_21 
REMARK    6  A    between atoms: O3_21  and  C17_22 
REMARK    7  A    between atoms: C17_22  and  C18_23 
REMARK    8  A    between atoms: C18_23  and  O4_24 
ROOT
HETATM    1  N1  UNL     1       3.136   1.249   0.221  1.00  0.00    -0.352 N 
HETATM    2  C6  UNL     1       4.028   2.260  -0.336  1.00  0.00     0.093 C 
HETATM    3  C7  UNL     1       3.374   3.285  -0.937  1.00  0.00     0.047 C 
HETATM    4  C8  UNL     1       1.933   2.964  -0.782  1.00  0.00     0.064 A 
HETATM    5  N2  UNL     1       0.689   3.282  -0.689  1.00  0.00    -0.250 NA
HETATM    6  C9  UNL     1      -0.095   2.080  -0.527  1.00  0.00     0.068 A 
HETATM    7  C10 UNL     1      -1.456   1.925  -0.354  1.00  0.00     0.072 A 
HETATM    8  C11 UNL     1      -1.975   0.637  -0.175  1.00  0.00     0.104 A 
HETATM    9  C16 UNL     1      -1.086  -0.419  -0.181  1.00  0.00     0.102 A 
HETATM   10  C19 UNL     1       0.270  -0.270  -0.353  1.00  0.00     0.051 A 
HETATM   11  C20 UNL     1       0.784   0.989  -0.530  1.00  0.00     0.003 A 
HETATM   12  C21 UNL     1       2.138   1.462  -0.772  1.00  0.00     0.176 A 
ENDROOT
BRANCH   8  13
HETATM   13  O1  UNL     1      -3.305   0.342   0.006  1.00  0.00    -0.341 OA
BRANCH  13  14
HETATM   14  C12 UNL     1      -4.387   1.206   0.051  1.00  0.00     0.154 C 
HETATM   15  C13 UNL     1      -5.322   0.988   1.216  1.00  0.00     0.061 C 
HETATM   16  C14 UNL     1      -6.690   1.116   0.563  1.00  0.00     0.170 C 
HETATM   17  O2  UNL     1      -6.495   0.419  -0.605  1.00  0.00    -0.389 OA
HETATM   18  C15 UNL     1      -5.288   0.825  -1.132  1.00  0.00     0.200 C 
ENDBRANCH  13  14
ENDBRANCH   8  13
BRANCH   9  19
HETATM   19  O3  UNL     1      -1.549  -1.718  -0.007  1.00  0.00    -0.346 OA
BRANCH  19  20
HETATM   20  C17 UNL     1      -0.720  -2.844   0.001  1.00  0.00     0.201 C 
BRANCH  20  21
HETATM   21  C18 UNL     1      -1.571  -4.084   0.214  1.00  0.00     0.190 C 
BRANCH  21  22
HETATM   22  O4  UNL     1      -2.511  -4.237  -0.786  1.00  0.00    -0.399 OA
HETATM   23  H22 UNL     1      -2.175  -3.845  -1.635  1.00  0.00     0.209 HD
ENDBRANCH  21  22
ENDBRANCH  20  21
ENDBRANCH  19  20
ENDBRANCH   9  19
BRANCH   1  24
HETATM   24  C5  UNL     1       3.531   0.529   1.379  1.00  0.00     0.092 C 
HETATM   25  C4  UNL     1       4.399  -0.445   1.551  1.00  0.00     0.023 C 
BRANCH  25  26
HETATM   26  C2  UNL     1       5.210  -1.048   0.513  1.00  0.00    -0.070 C 
HETATM   27  C1  UNL     1       6.033  -2.015   0.865  1.00  0.00     0.018 C 
HETATM   28  C3  UNL     1       5.222  -0.704  -0.921  1.00  0.00     0.047 C 
ENDBRANCH  25  26
ENDBRANCH   1  24
TORSDOF 8
