REMARK  4 active torsions:
REMARK  status: ('A' for Active; 'I' for Inactive)
REMARK    1  A    between atoms: C7_7  and  N1_8 
REMARK    2  A    between atoms: N1_8  and  C8_9 
REMARK    3  A    between atoms: C12_15  and  O1_16 
REMARK    4  A    between atoms: O1_16  and  C13_17 
ROOT
HETATM    1  C1  UNL     1       7.866  -0.647   2.854  1.00  0.00     0.018 C 
HETATM    2  C2  UNL     1       7.163  -0.341   1.911  1.00  0.00    -0.078 C 
HETATM    3  C3  UNL     1       6.312   0.015   0.803  1.00  0.00     0.019 A 
HETATM    4  C4  UNL     1       6.798   0.524  -0.376  1.00  0.00     0.021 A 
HETATM    5  C5  UNL     1       5.928   0.844  -1.396  1.00  0.00     0.004 A 
HETATM    6  C6  UNL     1       4.584   0.644  -1.201  1.00  0.00     0.029 A 
HETATM    7  C7  UNL     1       3.999   0.144  -0.069  1.00  0.00     0.035 A 
HETATM    8  C21 UNL     1       4.957  -0.151   0.907  1.00  0.00     0.050 A 
ENDROOT
BRANCH   7   9
HETATM    9  N1  UNL     1       2.609  -0.024   0.086  1.00  0.00    -0.340 N 
HETATM   10  H5  UNL     1       2.474  -0.709   0.848  1.00  0.00     0.167 HD
BRANCH   9  11
HETATM   11  C8  UNL     1       1.610   0.622  -0.662  1.00  0.00     0.144 A 
HETATM   12  N2  UNL     1       1.869   1.538  -1.599  1.00  0.00    -0.223 NA
HETATM   13  C9  UNL     1       0.946   2.175  -2.329  1.00  0.00     0.236 A 
HETATM   14  N3  UNL     1      -0.349   1.881  -2.116  1.00  0.00    -0.241 NA
HETATM   15  C10 UNL     1      -0.704   0.963  -1.184  1.00  0.00     0.077 A 
HETATM   16  C11 UNL     1      -2.048   0.736  -1.045  1.00  0.00     0.072 A 
HETATM   17  C19 UNL     1       0.284   0.332  -0.456  1.00  0.00     0.075 A 
HETATM   18  C12 UNL     1      -2.500  -0.182  -0.122  1.00  0.00     0.107 A 
HETATM   19  C17 UNL     1      -1.525  -0.838   0.631  1.00  0.00     0.139 A 
HETATM   20  C18 UNL     1      -0.170  -0.582   0.462  1.00  0.00     0.124 A 
HETATM   21  O4  UNL     1      -1.709  -1.811   1.631  1.00  0.00    -0.320 OA
HETATM   22  O3  UNL     1       0.485  -1.394   1.354  1.00  0.00    -0.322 OA
HETATM   23  C20 UNL     1      -0.434  -1.925   2.286  1.00  0.00     0.352 C 
BRANCH  18  24
HETATM   24  O1  UNL     1      -3.811  -0.488   0.102  1.00  0.00    -0.341 OA
BRANCH  24  25
HETATM   25  C13 UNL     1      -4.951   0.010  -0.496  1.00  0.00     0.154 C 
HETATM   26  C14 UNL     1      -5.902   0.674   0.483  1.00  0.00     0.061 C 
HETATM   27  C15 UNL     1      -7.152  -0.164   0.328  1.00  0.00     0.170 C 
HETATM   28  O2  UNL     1      -6.745  -1.392  -0.173  1.00  0.00    -0.389 OA
HETATM   29  C16 UNL     1      -5.810  -1.044  -1.154  1.00  0.00     0.200 C 
ENDBRANCH  24  25
ENDBRANCH  18  24
ENDBRANCH   9  11
ENDBRANCH   7   9
TORSDOF 4
