REMARK  2 active torsions:
REMARK  status: ('A' for Active; 'I' for Inactive)
REMARK    1  A    between atoms: C6_8  and  O1_9 
REMARK    2  A    between atoms: O1_9  and  C7_10 
ROOT
HETATM    1  C1  UNL     1      -4.290   0.479  -1.803  1.00  0.00    -0.017 C 
HETATM    2  C2  UNL     1      -4.544   1.736  -1.485  1.00  0.00     0.094 C 
HETATM    3  N1  UNL     1      -4.446   1.699  -0.138  1.00  0.00    -0.238 NA
HETATM    4  C3  UNL     1      -3.366   2.447   0.270  1.00  0.00     0.244 C 
HETATM    5  N2  UNL     1      -2.155   2.866   0.639  1.00  0.00    -0.191 NA
HETATM    6  C4  UNL     1      -1.239   1.863   0.637  1.00  0.00     0.043 C 
HETATM    7  C5  UNL     1      -0.494   1.016   0.634  1.00  0.00    -0.014 C 
HETATM    8  C6  UNL     1       0.394  -0.031   0.633  1.00  0.00     0.161 C 
HETATM    9  C11 UNL     1      -0.485  -0.921   0.225  1.00  0.00     0.140 C 
HETATM   10  O3  UNL     1       0.501  -1.869   0.277  1.00  0.00    -0.343 OA
HETATM   11  C12 UNL     1       0.281  -3.283   0.302  1.00  0.00     0.202 C 
HETATM   12  C13 UNL     1      -1.230  -3.528   0.355  1.00  0.00     0.202 C 
HETATM   13  O4  UNL     1      -1.832  -2.498  -0.438  1.00  0.00    -0.350 OA
HETATM   14  C14 UNL     1      -1.832  -1.145  -0.163  1.00  0.00     0.088 C 
HETATM   15  C15 UNL     1      -2.761  -0.208  -0.212  1.00  0.00     0.094 C 
HETATM   16  C16 UNL     1      -4.156  -0.112  -0.549  1.00  0.00     0.019 C 
ENDROOT
BRANCH   8  17
HETATM   17  O1  UNL     1       1.477   0.620   1.040  1.00  0.00    -0.332 OA
BRANCH  17  18
HETATM   18  C7  UNL     1       2.509   1.147   0.247  1.00  0.00     0.155 C 
HETATM   19  C8  UNL     1       3.650   1.671   1.029  1.00  0.00     0.061 C 
HETATM   20  C9  UNL     1       4.748   1.649  -0.046  1.00  0.00     0.170 C 
HETATM   21  O2  UNL     1       4.538   0.416  -0.624  1.00  0.00    -0.389 OA
HETATM   22  C10 UNL     1       3.162   0.183  -0.683  1.00  0.00     0.200 C 
ENDBRANCH  17  18
ENDBRANCH   8  17
TORSDOF 2
