REMARK  6 active torsions:
REMARK  status: ('A' for Active; 'I' for Inactive)
REMARK    1  A    between atoms: N1_1  and  C1_2 
REMARK    2  A    between atoms: C1_2  and  N2_3 
REMARK    3  A    between atoms: N3_7  and  C5_8 
REMARK    4  A    between atoms: C11_15  and  N4_16 
REMARK    5  A    between atoms: C13_18  and  C14_19 
REMARK    6  A    between atoms: C14_19  and  O2_21 
ROOT
HETATM    1  N2  UNL     1       2.856  -0.670   1.832  1.00  0.00    -0.218 NA
HETATM    2  C2  UNL     1       1.655  -0.563   1.380  1.00  0.00     0.171 C 
HETATM    3  C3  UNL     1       0.738  -1.538   1.922  1.00  0.00     0.076 C 
HETATM    4  C4  UNL     1      -0.493  -1.385   1.469  1.00  0.00     0.103 C 
HETATM    5  N3  UNL     1      -0.910  -0.413   0.583  1.00  0.00    -0.309 N 
HETATM    6  C11 UNL     1      -1.234   0.887   0.244  1.00  0.00     0.106 C 
HETATM    7  C12 UNL     1      -1.213   2.147  -0.120  1.00  0.00     0.066 C 
HETATM    8  C13 UNL     1       0.096   2.836  -0.446  1.00  0.00     0.041 C 
HETATM    9  C15 UNL     1       1.244   3.229  -0.659  1.00  0.00     0.020 C 
HETATM   10  C16 UNL     1       2.489   2.441  -0.448  1.00  0.00     0.026 C 
HETATM   11  C17 UNL     1       2.595   1.217   0.038  1.00  0.00     0.144 C 
HETATM   12  O3  UNL     1       1.475   0.461   0.455  1.00  0.00    -0.304 OA
ENDROOT
BRANCH   5  13
HETATM   13  C5  UNL     1      -1.052  -1.341  -0.522  1.00  0.00     0.041 A 
HETATM   14  C6  UNL     1      -0.137  -1.705  -1.472  1.00  0.00     0.030 A 
HETATM   15  C7  UNL     1      -0.319  -2.586  -2.493  1.00  0.00     0.004 A 
HETATM   16  C8  UNL     1      -1.552  -3.188  -2.602  1.00  0.00     0.019 A 
HETATM   17  C9  UNL     1      -2.581  -2.915  -1.706  1.00  0.00     0.013 A 
HETATM   18 BR1  UNL     1      -4.293  -3.727  -1.825  1.00  0.00    -0.051 Br
HETATM   19  C10 UNL     1      -2.265  -2.009  -0.724  1.00  0.00     0.049 A 
ENDBRANCH   5  13
BRANCH   6  20
HETATM   20  N4  UNL     1      -2.602   0.549   0.589  1.00  0.00    -0.385 N 
HETATM   21  H9  UNL     1      -3.470   0.685  -0.012  1.00  0.00     0.157 HD
HETATM   22  H10 UNL     1      -3.559   0.305   0.848  1.00  0.00     0.157 HD
ENDBRANCH   6  20
BRANCH   8  23
HETATM   23  C14 UNL     1      -0.507   4.198  -0.880  1.00  0.00     0.176 C 
HETATM   24  O1  UNL     1      -0.085   5.338  -1.315  1.00  0.00    -0.646 OA
BRANCH  23  25
HETATM   25  O2  UNL     1      -1.700   4.866  -1.022  1.00  0.00    -0.773 OA
HETATM   26  H12 UNL     1      -2.059   5.586  -0.383  1.00  0.00     0.167 HD
ENDBRANCH  23  25
ENDBRANCH   8  23
BRANCH   1  27
HETATM   27  C1  UNL     1       3.277  -1.620   2.757  1.00  0.00     0.226 C 
BRANCH  27  28
HETATM   28  N1  UNL     1       3.662  -2.665   3.384  1.00  0.00    -0.293 NA
HETATM   29  H1  UNL     1       3.772  -3.546   2.843  1.00  0.00     0.187 HD
ENDBRANCH  27  28
ENDBRANCH   1  27
TORSDOF 6
