REMARK  2 active torsions:
REMARK  status: ('A' for Active; 'I' for Inactive)
REMARK    1  A    between atoms: C3_4  and  N1_5 
REMARK    2  A    between atoms: N1_5  and  C4_6 
ROOT
HETATM    1  C4  UNL     1      -0.537  -1.432   0.277  1.00  0.00     0.144 A 
HETATM    2  N2  UNL     1      -0.895  -2.380   1.158  1.00  0.00    -0.223 NA
HETATM    3  C5  UNL     1       0.061  -2.946   1.878  1.00  0.00     0.235 A 
HETATM    4  N3  UNL     1       1.288  -2.545   1.682  1.00  0.00    -0.245 NA
HETATM    5  C6  UNL     1       1.686  -1.606   0.817  1.00  0.00     0.058 A 
HETATM    6  C7  UNL     1       0.763  -0.963   0.026  1.00  0.00     0.069 A 
HETATM    7  C8  UNL     1       0.569  -0.051  -0.928  1.00  0.00     0.117 C 
HETATM    8  O1  UNL     1      -0.595   0.343  -1.523  1.00  0.00    -0.347 OA
HETATM    9  C9  UNL     1      -0.768   1.648  -2.012  1.00  0.00     0.201 C 
HETATM   10  C10 UNL     1       0.095   1.794  -3.249  1.00  0.00     0.198 C 
HETATM   11  O2  UNL     1       1.148   0.872  -3.060  1.00  0.00    -0.353 OA
HETATM   12  C11 UNL     1       1.454   0.854  -1.696  1.00  0.00     0.318 C 
HETATM   13  O3  UNL     1       2.774   0.484  -1.595  1.00  0.00    -0.353 OA
HETATM   14  C12 UNL     1       3.481   1.426  -0.839  1.00  0.00     0.197 C 
HETATM   15  C13 UNL     1       4.884   0.832  -0.581  1.00  0.00     0.194 C 
HETATM   16  O4  UNL     1       4.694  -0.379   0.096  1.00  0.00    -0.381 OA
HETATM   17  C14 UNL     1       5.451  -1.102   0.945  1.00  0.00     0.151 C 
HETATM   18  C15 UNL     1       4.199  -1.556   1.190  1.00  0.00     0.014 C 
HETATM   19  C16 UNL     1       2.919  -1.131   0.551  1.00  0.00     0.082 C 
ENDROOT
BRANCH   1  20
HETATM   20  N1  UNL     1      -1.797  -1.047  -0.308  1.00  0.00    -0.339 N 
HETATM   21  H4  UNL     1      -2.124  -1.515  -1.174  1.00  0.00     0.167 HD
BRANCH  20  22
HETATM   22  C3  UNL     1      -2.580  -0.018   0.328  1.00  0.00     0.051 C 
HETATM   23  C2  UNL     1      -3.654   0.395  -0.284  1.00  0.00     0.036 C 
HETATM   24  S1  UNL     1      -4.959   0.399   0.666  1.00  0.00    -0.183 SA
HETATM   25  C1  UNL     1      -6.054  -1.055   0.467  1.00  0.00     0.084 C 
HETATM   26  C19 UNL     1      -4.554   0.857   2.390  1.00  0.00     0.095 C 
HETATM   27  C18 UNL     1      -3.089   0.907   2.478  1.00  0.00    -0.015 C 
HETATM   28  C17 UNL     1      -2.178   0.537   1.604  1.00  0.00     0.027 C 
ENDBRANCH  20  22
ENDBRANCH   1  20
TORSDOF 2
