REMARK  5 active torsions:
REMARK  status: ('A' for Active; 'I' for Inactive)
REMARK    1  A    between atoms: C4_4  and  C5_5 
REMARK    2  A    between atoms: C5_5  and  N1_6 
REMARK    3  A    between atoms: N1_6  and  C6_7 
REMARK    4  A    between atoms: C10_13  and  O1_14 
REMARK    5  A    between atoms: O1_14  and  C11_15 
ROOT
HETATM    1  C1  UNL     1       5.732   4.144  -0.098  1.00  0.00     0.017 C 
HETATM    2  C2  UNL     1       5.694   3.008  -0.504  1.00  0.00    -0.090 C 
HETATM    3  C3  UNL     1       5.658   1.667  -1.008  1.00  0.00     0.061 C 
HETATM    4  C4  UNL     1       5.183   0.638  -0.351  1.00  0.00     0.001 C 
ENDROOT
BRANCH   4   5
HETATM    5  C5  UNL     1       4.581   0.510   0.998  1.00  0.00     0.149 C 
BRANCH   5   6
HETATM    6  N1  UNL     1       3.228  -0.015   0.976  1.00  0.00    -0.370 N 
HETATM    7  H6  UNL     1       3.223  -0.898   1.515  1.00  0.00     0.161 HD
BRANCH   6   8
HETATM    8  C6  UNL     1       2.251   0.755   0.256  1.00  0.00     0.140 A 
HETATM    9  N2  UNL     1       2.625   1.874  -0.337  1.00  0.00    -0.224 NA
HETATM   10  C7  UNL     1       1.755   2.625  -1.020  1.00  0.00     0.236 A 
HETATM   11  N3  UNL     1       0.457   2.294  -1.148  1.00  0.00    -0.241 NA
HETATM   12  C8  UNL     1      -0.012   1.154  -0.567  1.00  0.00     0.077 A 
HETATM   13  C9  UNL     1      -1.315   0.788  -0.674  1.00  0.00     0.072 A 
HETATM   14  C17 UNL     1       0.923   0.417   0.125  1.00  0.00     0.075 A 
HETATM   15  C10 UNL     1      -1.820  -0.351  -0.104  1.00  0.00     0.107 A 
HETATM   16  C15 UNL     1      -0.872  -1.095   0.596  1.00  0.00     0.136 A 
HETATM   17  C16 UNL     1       0.453  -0.727   0.708  1.00  0.00     0.121 A 
HETATM   18  O4  UNL     1      -1.219  -2.278   1.233  1.00  0.00    -0.344 OA
HETATM   19  O3  UNL     1       1.230  -1.577   1.430  1.00  0.00    -0.345 OA
HETATM   20  C18 UNL     1       1.090  -2.987   1.458  1.00  0.00     0.202 C 
HETATM   21  C19 UNL     1      -0.358  -3.399   1.313  1.00  0.00     0.202 C 
BRANCH  15  22
HETATM   22  O1  UNL     1      -3.109  -0.776  -0.172  1.00  0.00    -0.341 OA
BRANCH  22  23
HETATM   23  C11 UNL     1      -4.141  -0.129  -0.832  1.00  0.00     0.154 C 
HETATM   24  C12 UNL     1      -5.293   0.209   0.080  1.00  0.00     0.061 C 
HETATM   25  C13 UNL     1      -6.490  -0.289  -0.638  1.00  0.00     0.170 C 
HETATM   26  O2  UNL     1      -6.110  -1.107  -1.660  1.00  0.00    -0.389 OA
HETATM   27  C14 UNL     1      -4.766  -1.050  -1.843  1.00  0.00     0.200 C 
ENDBRANCH  22  23
ENDBRANCH  15  22
ENDBRANCH   6   8
ENDBRANCH   5   6
ENDBRANCH   4   5
TORSDOF 5
