REMARK  3 active torsions:
REMARK  status: ('A' for Active; 'I' for Inactive)
REMARK    1  A    between atoms: N1_8  and  C7_9 
REMARK    2  A    between atoms: C11_15  and  O1_16 
REMARK    3  A    between atoms: O1_16  and  C12_17 
ROOT
HETATM    1  C7  UNL     1       1.482   0.227  -2.517  1.00  0.00     0.265 A 
HETATM    2  N2  UNL     1       1.700   1.096  -3.547  1.00  0.00    -0.215 NA
HETATM    3  C8  UNL     1       0.725   2.003  -3.844  1.00  0.00     0.236 A 
HETATM    4  N3  UNL     1      -0.393   1.998  -3.115  1.00  0.00    -0.241 NA
HETATM    5  C9  UNL     1      -0.665   1.174  -2.094  1.00  0.00     0.077 A 
HETATM    6  C10 UNL     1      -1.855   1.233  -1.387  1.00  0.00     0.072 A 
HETATM    7  C11 UNL     1      -2.115   0.355  -0.325  1.00  0.00     0.107 A 
HETATM    8  C16 UNL     1      -1.114  -0.547  -0.051  1.00  0.00     0.136 A 
HETATM    9  C17 UNL     1       0.065  -0.601  -0.756  1.00  0.00     0.121 A 
HETATM   10  C18 UNL     1       0.308   0.254  -1.782  1.00  0.00     0.085 A 
HETATM   11  O3  UNL     1       0.989  -1.541  -0.394  1.00  0.00    -0.345 OA
HETATM   12  C19 UNL     1       0.862  -2.254   0.822  1.00  0.00     0.202 C 
HETATM   13  C20 UNL     1      -0.591  -2.561   1.137  1.00  0.00     0.202 C 
HETATM   14  O4  UNL     1      -1.390  -1.402   0.998  1.00  0.00    -0.344 OA
ENDROOT
BRANCH   1  15
HETATM   15  N1  UNL     1       2.442  -0.728  -2.276  1.00  0.00     0.072 N 
HETATM   16  C2  UNL     1       3.271   0.524  -1.130  1.00  0.00     0.229 A 
HETATM   17  C1  UNL     1       2.726   2.042  -0.802  1.00  0.00     0.066 C 
HETATM   18  C3  UNL     1       4.650   0.646  -0.122  1.00  0.00     0.120 A 
HETATM   19  C6  UNL     1       3.255  -0.857  -1.774  1.00  0.00     0.220 A 
HETATM   20  S1  UNL     1       4.141  -0.973  -1.218  1.00  0.00    -0.013 SA
HETATM   21  C4  UNL     1       5.465  -1.105  -0.368  1.00  0.00     0.069 A 
HETATM   22  C5  UNL     1       5.490  -1.197   1.168  1.00  0.00     0.022 C 
ENDBRANCH   1  15
BRANCH   7  23
HETATM   23  O1  UNL     1      -3.343   0.596   0.221  1.00  0.00    -0.341 OA
BRANCH  23  24
HETATM   24  C12 UNL     1      -4.010  -0.010   1.267  1.00  0.00     0.154 C 
HETATM   25  C13 UNL     1      -4.404   0.972   2.364  1.00  0.00     0.061 C 
HETATM   26  C14 UNL     1      -5.869   0.783   2.569  1.00  0.00     0.170 C 
HETATM   27  O2  UNL     1      -6.208  -0.379   1.917  1.00  0.00    -0.389 OA
HETATM   28  C15 UNL     1      -5.382  -0.469   0.797  1.00  0.00     0.200 C 
ENDBRANCH  23  24
ENDBRANCH   7  23
TORSDOF 3
