REMARK  4 active torsions:
REMARK  status: ('A' for Active; 'I' for Inactive)
REMARK    1  A    between atoms: C4_5  and  N1_6 
REMARK    2  A    between atoms: N1_6  and  C5_7 
REMARK    3  A    between atoms: C9_13  and  P1_14 
REMARK    4  A    between atoms: P1_14  and  C10_15 
ROOT
HETATM    1  C5  UNL     1       2.314  -0.047   0.936  1.00  0.00     0.144 A 
HETATM    2  N2  UNL     1       2.895   0.318   2.087  1.00  0.00    -0.223 NA
HETATM    3  C6  UNL     1       2.129   0.345   3.217  1.00  0.00     0.236 A 
HETATM    4  N3  UNL     1       0.829   0.012   3.159  1.00  0.00    -0.241 NA
HETATM    5  C7  UNL     1       0.212  -0.357   2.031  1.00  0.00     0.076 A 
HETATM    6  C8  UNL     1      -1.131  -0.700   1.975  1.00  0.00     0.047 A 
HETATM    7  C9  UNL     1      -1.717  -1.075   0.775  1.00  0.00     0.005 A 
HETATM    8  C14 UNL     1      -0.905  -1.089  -0.344  1.00  0.00     0.114 A 
HETATM    9  C15 UNL     1       0.428  -0.746  -0.276  1.00  0.00     0.119 A 
HETATM   10  C16 UNL     1       1.000  -0.379   0.901  1.00  0.00     0.075 A 
HETATM   11  O2  UNL     1       1.132  -0.796  -1.443  1.00  0.00    -0.345 OA
HETATM   12  C17 UNL     1       0.576  -0.636  -2.726  1.00  0.00     0.202 C 
HETATM   13  C18 UNL     1      -0.858  -1.052  -2.798  1.00  0.00     0.202 C 
HETATM   14  O3  UNL     1      -1.419  -1.453  -1.576  1.00  0.00    -0.345 OA
ENDROOT
BRANCH   1  15
HETATM   15  N1  UNL     1       3.182  -0.046  -0.181  1.00  0.00    -0.343 N 
HETATM   16  H3  UNL     1       3.307  -0.208  -1.197  1.00  0.00     0.167 HD
BRANCH  15  17
HETATM   17  C4  UNL     1       4.561   0.331   0.015  1.00  0.00     0.017 A 
HETATM   18  C3  UNL     1       5.524  -0.442   0.520  1.00  0.00     0.028 A 
HETATM   19  C2  UNL     1       6.849   0.184   0.616  1.00  0.00     0.040 A 
HETATM   20  C1  UNL     1       6.630   1.392   0.135  1.00  0.00     0.099 A 
HETATM   21  F1  UNL     1       7.616   2.330   0.039  1.00  0.00    -0.210 F 
HETATM   22  C19 UNL     1       5.240   1.620  -0.278  1.00  0.00     0.127 A 
ENDBRANCH  15  17
ENDBRANCH   1  15
BRANCH   7  23
HETATM   23  P1  UNL     1      -3.493  -1.535   0.668  1.00  0.00    -0.085 P 
HETATM   24  H6  UNL     1      -3.927  -2.216   1.879  1.00  0.00     0.063 HD
BRANCH  23  25
HETATM   25  C10 UNL     1      -4.424   0.032   0.394  1.00  0.00     0.042 C 
HETATM   26  C11 UNL     1      -5.941  -0.163   0.447  1.00  0.00     0.037 C 
HETATM   27  C12 UNL     1      -6.344   1.060  -0.354  1.00  0.00     0.168 C 
HETATM   28  O1  UNL     1      -5.401   1.216  -1.356  1.00  0.00    -0.390 OA
HETATM   29  C13 UNL     1      -4.288   0.455  -1.054  1.00  0.00     0.177 C 
ENDBRANCH  23  25
ENDBRANCH   7  23
TORSDOF 4
