REMARK  6 active torsions:
REMARK  status: ('A' for Active; 'I' for Inactive)
REMARK    1  A    between atoms: C13_14  and  O1_15 
REMARK    2  A    between atoms: O1_15  and  C14_16 
REMARK    3  A    between atoms: C18_21  and  O3_22 
REMARK    4  A    between atoms: O3_22  and  C19_23 
REMARK    5  A    between atoms: C19_23  and  C20_24 
REMARK    6  A    between atoms: C20_24  and  O4_25 
ROOT
HETATM    1  C1  UNL     1      -4.036  -2.560   0.270  1.00  0.00     0.012 C 
HETATM    2  C2  UNL     1      -3.786  -1.612  -0.428  1.00  0.00    -0.110 C 
HETATM    3  C3  UNL     1      -3.510  -0.465  -1.272  1.00  0.00     0.033 C 
HETATM    4  C4  UNL     1      -3.732   0.679  -0.608  1.00  0.00     0.089 C 
HETATM    5  C5  UNL     1      -3.659   2.108  -0.914  1.00  0.00    -0.022 C 
HETATM    6  C6  UNL     1      -3.969   2.182   0.357  1.00  0.00    -0.001 C 
HETATM    7  C7  UNL     1      -4.257   1.617   1.627  1.00  0.00     0.297 C 
HETATM    8  N1  UNL     1      -3.811   0.252   1.906  1.00  0.00     0.090 NA
HETATM    9  C8  UNL     1      -2.382   0.285   2.179  1.00  0.00     0.298 C 
HETATM   10  C9  UNL     1      -1.404  -0.156   1.242  1.00  0.00     0.019 C 
HETATM   11  C10 UNL     1      -0.633  -0.632   0.254  1.00  0.00     0.025 A 
HETATM   12  C11 UNL     1      -0.861  -1.329  -1.047  1.00  0.00     0.043 A 
HETATM   13  C12 UNL     1       0.319  -1.419  -1.604  1.00  0.00     0.069 A 
HETATM   14  C13 UNL     1       1.422  -0.853  -0.840  1.00  0.00     0.105 A 
HETATM   15  C18 UNL     1       0.849  -0.402   0.239  1.00  0.00     0.114 A 
HETATM   16  N2  UNL     1      -1.905  -1.967  -1.836  1.00  0.00    -0.388 N 
HETATM   17  C21 UNL     1      -2.916  -1.129  -2.560  1.00  0.00     0.138 C 
HETATM   18  H7  UNL     1      -4.325  -0.166   2.678  1.00  0.00     0.316 HD
HETATM   19  H24 UNL     1      -1.942  -3.006  -1.897  1.00  0.00     0.159 HD
ENDROOT
BRANCH  15  20
HETATM   20  O3  UNL     1       1.752   0.200   1.150  1.00  0.00    -0.345 OA
BRANCH  20  21
HETATM   21  C19 UNL     1       2.486  -0.509   2.113  1.00  0.00     0.201 C 
BRANCH  21  22
HETATM   22  C20 UNL     1       2.778   0.355   3.337  1.00  0.00     0.190 C 
BRANCH  22  23
HETATM   23  O4  UNL     1       1.518   0.718   3.845  1.00  0.00    -0.399 OA
HETATM   24  H23 UNL     1       1.012  -0.124   3.963  1.00  0.00     0.209 HD
ENDBRANCH  22  23
ENDBRANCH  21  22
ENDBRANCH  20  21
ENDBRANCH  15  20
BRANCH  14  25
HETATM   25  O1  UNL     1       2.733  -0.856  -1.271  1.00  0.00    -0.341 OA
BRANCH  25  26
HETATM   26  C14 UNL     1       3.552   0.260  -1.448  1.00  0.00     0.154 C 
HETATM   27  C15 UNL     1       4.075   0.250  -2.903  1.00  0.00     0.061 C 
HETATM   28  C16 UNL     1       5.375   1.006  -2.686  1.00  0.00     0.170 C 
HETATM   29  O2  UNL     1       5.890   0.548  -1.491  1.00  0.00    -0.389 OA
HETATM   30  C17 UNL     1       4.869   0.040  -0.734  1.00  0.00     0.200 C 
ENDBRANCH  25  26
ENDBRANCH  14  25
TORSDOF 6
