REMARK  4 active torsions:
REMARK  status: ('A' for Active; 'I' for Inactive)
REMARK    1  A    between atoms: C7_7  and  N1_8 
REMARK    2  A    between atoms: N1_8  and  C8_9 
REMARK    3  A    between atoms: C12_15  and  O1_16 
REMARK    4  A    between atoms: O1_16  and  C13_17 
ROOT
HETATM    1  C1  UNL     1       6.398  -0.040   3.570  1.00  0.00     0.018 C 
HETATM    2  C2  UNL     1       6.041   0.014   2.433  1.00  0.00    -0.078 C 
HETATM    3  C3  UNL     1       5.601   0.103   1.072  1.00  0.00     0.019 A 
HETATM    4  C4  UNL     1       6.565   0.136   0.085  1.00  0.00     0.021 A 
HETATM    5  C5  UNL     1       6.158   0.220  -1.221  1.00  0.00     0.004 A 
HETATM    6  C6  UNL     1       4.834   0.270  -1.560  1.00  0.00     0.029 A 
HETATM    7  C7  UNL     1       3.812   0.240  -0.634  1.00  0.00     0.035 A 
HETATM    8  C21 UNL     1       4.258   0.156   0.687  1.00  0.00     0.050 A 
ENDROOT
BRANCH   7   9
HETATM    9  N1  UNL     1       2.401   0.309  -0.870  1.00  0.00    -0.340 N 
HETATM   10  H5  UNL     1       2.366   0.983  -1.651  1.00  0.00     0.167 HD
BRANCH   9  11
HETATM   11  C8  UNL     1       1.557  -0.468  -0.068  1.00  0.00     0.144 A 
HETATM   12  N2  UNL     1       2.095  -1.351   0.764  1.00  0.00    -0.223 NA
HETATM   13  C9  UNL     1       1.402  -2.145   1.590  1.00  0.00     0.236 A 
HETATM   14  N3  UNL     1       0.061  -2.064   1.600  1.00  0.00    -0.241 NA
HETATM   15  C10 UNL     1      -0.575  -1.200   0.794  1.00  0.00     0.077 A 
HETATM   16  C11 UNL     1      -1.946  -1.096   0.796  1.00  0.00     0.072 A 
HETATM   17  C18 UNL     1       0.184  -0.410  -0.032  1.00  0.00     0.075 A 
HETATM   18  C12 UNL     1      -2.645  -0.220  -0.005  1.00  0.00     0.108 A 
HETATM   19  C16 UNL     1      -1.831   0.569  -0.837  1.00  0.00     0.136 A 
HETATM   20  C17 UNL     1      -0.445   0.489  -0.862  1.00  0.00     0.121 A 
HETATM   21  O4  UNL     1      -2.378   1.506  -1.710  1.00  0.00    -0.344 OA
HETATM   22  O3  UNL     1       0.216   1.329  -1.730  1.00  0.00    -0.345 OA
HETATM   23  C19 UNL     1      -0.299   1.894  -2.896  1.00  0.00     0.202 C 
HETATM   24  C20 UNL     1      -1.799   1.746  -3.005  1.00  0.00     0.202 C 
BRANCH  18  25
HETATM   25  O1  UNL     1      -3.998  -0.027  -0.088  1.00  0.00    -0.330 OA
BRANCH  25  26
HETATM   26  C13 UNL     1      -4.884  -0.759   0.681  1.00  0.00     0.216 C 
HETATM   27  C14 UNL     1      -5.580   0.172   1.713  1.00  0.00     0.212 C 
HETATM   28  O2  UNL     1      -6.727  -0.491   2.110  1.00  0.00    -0.378 OA
HETATM   29  C15 UNL     1      -7.576  -0.498   0.975  1.00  0.00     0.244 C 
HETATM   30  S1  UNL     1      -6.389  -1.256  -0.215  1.00  0.00    -0.109 SA
ENDBRANCH  25  26
ENDBRANCH  18  25
ENDBRANCH   9  11
ENDBRANCH   7   9
TORSDOF 4
