REMARK  0 active torsions:
REMARK  status: ('A' for Active; 'I' for Inactive)
ROOT
HETATM    1  C1  UNL     1      -1.331  -3.486  -1.377  1.00  0.00     0.005 C 
HETATM    2  C2  UNL     1      -1.905  -2.947  -0.286  1.00  0.00    -0.070 C 
HETATM    3  C3  UNL     1      -2.978  -2.044   0.207  1.00  0.00     0.070 C 
HETATM    4  C4  UNL     1      -2.265  -0.648   0.404  1.00  0.00    -0.060 C 
HETATM    5  C5  UNL     1      -2.984   0.365  -0.146  1.00  0.00     0.004 C 
HETATM    6  C6  UNL     1      -2.852   1.868  -0.301  1.00  0.00     0.195 C 
HETATM    7  O1  UNL     1      -1.673   2.218   0.278  1.00  0.00    -0.387 OA
HETATM    8  C7  UNL     1      -1.269   3.511   0.254  1.00  0.00     0.170 C 
HETATM    9  C8  UNL     1       0.080   3.672   0.922  1.00  0.00     0.052 C 
HETATM   10  C9  UNL     1       1.185   2.885   0.284  1.00  0.00     0.173 C 
HETATM   11  O2  UNL     1       0.935   1.551   0.311  1.00  0.00    -0.357 OA
HETATM   12  C10 UNL     1       1.930   0.749  -0.248  1.00  0.00     0.308 C 
HETATM   13  O3  UNL     1       3.157   0.915   0.320  1.00  0.00    -0.355 OA
HETATM   14  C11 UNL     1       4.062   0.083  -0.386  1.00  0.00     0.197 C 
HETATM   15  C12 UNL     1       3.707  -1.372  -0.119  1.00  0.00     0.197 C 
HETATM   16  O4  UNL     1       2.413  -1.468   0.390  1.00  0.00    -0.359 OA
HETATM   17  C13 UNL     1       1.517  -0.684  -0.293  1.00  0.00     0.279 C 
HETATM   18  N1  UNL     1       0.223  -0.924   0.311  1.00  0.00    -0.349 N 
HETATM   19  C14 UNL     1      -0.947  -0.429   1.089  1.00  0.00     0.160 C 
HETATM   20  C15 UNL     1      -0.018  -2.292  -0.102  1.00  0.00     0.013 C 
HETATM   21  C16 UNL     1       0.144  -3.000  -1.275  1.00  0.00     0.025 C 
HETATM   22  C17 UNL     1      -0.798  -3.397   0.703  1.00  0.00     0.091 C 
ENDROOT
TORSDOF 0
