REMARK  0 active torsions:
REMARK  status: ('A' for Active; 'I' for Inactive)
ROOT
HETATM    1  F1  UNL     1       0.961  -3.484   2.955  1.00  0.00    -0.204 F 
HETATM    2  C1  UNL     1       1.385  -2.418   2.328  1.00  0.00     0.137 C 
HETATM    3  C2  UNL     1       2.171  -1.341   2.124  1.00  0.00     0.043 C 
HETATM    4  C3  UNL     1       2.747  -0.159   1.551  1.00  0.00     0.198 C 
HETATM    5  O1  UNL     1       2.199   0.306   0.338  1.00  0.00    -0.385 OA
HETATM    6  C4  UNL     1       2.899   1.481   0.114  1.00  0.00     0.194 C 
HETATM    7  C5  UNL     1       2.797   2.168  -1.165  1.00  0.00     0.201 C 
HETATM    8  O2  UNL     1       1.542   2.572  -1.574  1.00  0.00    -0.357 OA
HETATM    9  C6  UNL     1       0.577   1.563  -1.821  1.00  0.00     0.034 A 
HETATM   10  C7  UNL     1       1.231   0.523  -2.427  1.00  0.00     0.065 A 
HETATM   11  C8  UNL     1       0.036  -0.378  -2.522  1.00  0.00    -0.058 A 
HETATM   12  C9  UNL     1      -1.150   0.405  -1.933  1.00  0.00    -0.038 A 
HETATM   13  C10 UNL     1      -2.178   1.240  -1.357  1.00  0.00     0.049 A 
HETATM   14  C11 UNL     1      -0.823   1.713  -1.443  1.00  0.00    -0.005 A 
HETATM   15  C12 UNL     1      -1.354   2.425  -0.182  1.00  0.00     0.011 C 
HETATM   16  C13 UNL     1      -1.846   1.418   0.804  1.00  0.00     0.001 C 
HETATM   17  C14 UNL     1      -2.983   0.512   0.652  1.00  0.00     0.000 C 
HETATM   18  O3  UNL     1      -3.245  -0.327  -0.384  1.00  0.00     0.000 OA
HETATM   19  N1  UNL     1      -2.657  -1.430  -0.649  1.00  0.00    -0.103 NA
HETATM   20  N2  UNL     1      -2.276  -0.163  -1.123  1.00  0.00     0.000 N 
HETATM   21  C15 UNL     1      -1.677  -2.459  -1.105  1.00  0.00     0.035 C 
HETATM   22  B1  UNL     1      -0.874  -2.125  -2.820  1.00  0.00     0.232 B 
HETATM   23  N3  UNL     1      -1.960  -3.180   0.168  1.00  0.00    -0.366 N 
HETATM   24  C16 UNL     1      -0.979  -3.379   1.130  1.00  0.00     0.115 C 
HETATM   25  C17 UNL     1       0.130  -2.902   1.671  1.00  0.00     0.087 C 
HETATM   26 CL1  UNL     1       0.188  -1.698   0.452  1.00  0.00    -0.080 Cl
HETATM   27  H16 UNL     1      -1.558  -0.548  -1.710  1.00  0.00     0.030 HD
HETATM   28  H17 UNL     1      -2.905  -3.483   0.334  1.00  0.00     0.165 HD
ENDROOT
TORSDOF 0
