REMARK  9 active torsions:
REMARK  status: ('A' for Active; 'I' for Inactive)
REMARK    1  A    between atoms: C2_2  and  C3_4 
REMARK    2  A    between atoms: C3_4  and  C4_5 
REMARK    3  A    between atoms: C4_5  and  C5_6 
REMARK    4  A    between atoms: C5_6  and  C6_7 
REMARK    5  A    between atoms: C6_7  and  N1_8 
REMARK    6  A    between atoms: N1_8  and  C7_9 
REMARK    7  A    between atoms: C11_14  and  N3_15 
REMARK    8  A    between atoms: C12_16  and  O1_17 
REMARK    9  A    between atoms: O1_17  and  C13_18 
ROOT
HETATM    1  C7  UNL     1       1.883  -0.334  -1.484  1.00  0.00     0.149 C 
HETATM    2  N2  UNL     1       0.980  -1.181  -1.566  1.00  0.00    -0.238 NA
HETATM    3  C8  UNL     1      -0.181  -1.657  -1.146  1.00  0.00     0.120 C 
HETATM    4  C9  UNL     1      -1.303  -1.629  -0.485  1.00  0.00     0.034 C 
HETATM    5  C10 UNL     1      -2.151  -0.885   0.385  1.00  0.00     0.011 C 
HETATM    6  C11 UNL     1      -3.115  -1.824   0.447  1.00  0.00     0.068 C 
HETATM    7  C12 UNL     1      -2.450   0.342   1.105  1.00  0.00     0.116 C 
HETATM    8  C17 UNL     1      -1.659   1.418   1.267  1.00  0.00     0.133 C 
HETATM    9  O3  UNL     1      -2.322   2.388   2.000  1.00  0.00    -0.344 OA
HETATM   10  C18 UNL     1      -2.162   3.788   1.988  1.00  0.00     0.202 C 
HETATM   11  C19 UNL     1      -0.728   4.018   2.463  1.00  0.00     0.202 C 
HETATM   12  O4  UNL     1       0.053   3.364   1.433  1.00  0.00    -0.349 OA
HETATM   13  C20 UNL     1      -0.383   2.123   1.054  1.00  0.00     0.098 C 
HETATM   14  C21 UNL     1       0.568   1.452   0.388  1.00  0.00     0.240 C 
HETATM   15  S1  UNL     1       2.144   1.055  -0.412  1.00  0.00    -0.164 SA
ENDROOT
BRANCH   1  16
HETATM   16  N1  UNL     1       2.853  -0.667  -2.445  1.00  0.00    -0.346 N 
HETATM   17  H9  UNL     1       3.292   0.165  -2.964  1.00  0.00     0.167 HD
BRANCH  16  18
HETATM   18  C6  UNL     1       3.467  -1.817  -2.956  1.00  0.00     0.090 C 
BRANCH  18  19
HETATM   19  C5  UNL     1       4.700  -1.977  -2.668  1.00  0.00     0.013 C 
BRANCH  19  20
HETATM   20  C4  UNL     1       5.990  -2.555  -2.619  1.00  0.00    -0.017 C 
BRANCH  20  21
HETATM   21  C3  UNL     1       7.234  -2.736  -2.346  1.00  0.00     0.052 C 
BRANCH  21  22
HETATM   22  C2  UNL     1       8.512  -2.355  -1.731  1.00  0.00     0.174 C 
HETATM   23  C1  UNL     1       8.937  -0.911  -1.973  1.00  0.00     0.045 C 
HETATM   24  F1  UNL     1       8.570  -2.676  -0.390  1.00  0.00    -0.249 F 
ENDBRANCH  21  22
ENDBRANCH  20  21
ENDBRANCH  19  20
ENDBRANCH  18  19
ENDBRANCH  16  18
ENDBRANCH   1  16
BRANCH   6  25
HETATM   25  N3  UNL     1      -4.352  -1.969   1.091  1.00  0.00    -0.311 NA
HETATM   26  H13 UNL     1      -4.975  -1.846   1.908  1.00  0.00     0.123 HD
HETATM   27  H14 UNL     1      -4.711  -1.738   2.048  1.00  0.00     0.123 HD
ENDBRANCH   6  25
BRANCH   7  28
HETATM   28  O1  UNL     1      -3.752   0.319   1.671  1.00  0.00    -0.340 OA
BRANCH  28  29
HETATM   29  C13 UNL     1      -4.743   1.248   1.477  1.00  0.00     0.154 C 
HETATM   30  C14 UNL     1      -5.832   1.294   2.529  1.00  0.00     0.061 C 
HETATM   31  C15 UNL     1      -7.041   1.685   1.737  1.00  0.00     0.170 C 
HETATM   32  O2  UNL     1      -6.608   1.900   0.418  1.00  0.00    -0.389 OA
HETATM   33  C16 UNL     1      -5.637   0.849   0.277  1.00  0.00     0.200 C 
ENDBRANCH  28  29
ENDBRANCH   7  28
TORSDOF 9
