REMARK  5 active torsions:
REMARK  status: ('A' for Active; 'I' for Inactive)
REMARK    1  A    between atoms: C4_5  and  N1_6 
REMARK    2  A    between atoms: N1_6  and  C5_7 
REMARK    3  A    between atoms: C8_13  and  C9_14 
REMARK    4  A    between atoms: C9_14  and  O1_15 
REMARK    5  A    between atoms: O1_15  and  C10_16 
ROOT
HETATM    1  C5  UNL     1       3.193   0.184  -1.190  1.00  0.00     0.091 A 
HETATM    2  N2  UNL     1       2.538  -0.415  -0.321  1.00  0.00    -0.403 N 
HETATM    3  B1  UNL     1       2.409  -0.522   1.153  1.00  0.00     0.332 B 
HETATM    4  C6  UNL     1       0.960  -0.204   1.810  1.00  0.00     0.121 C 
HETATM    5  N3  UNL     1      -0.041  -0.158   1.140  1.00  0.00    -0.444 NA
HETATM    6  C7  UNL     1      -0.992  -0.156   0.238  1.00  0.00     0.187 C 
HETATM    7  C8  UNL     1      -1.559  -0.310  -0.966  1.00  0.00     0.004 C 
HETATM    8  C14 UNL     1      -0.641  -0.775  -2.137  1.00  0.00     0.195 C 
HETATM    9  O3  UNL     1      -1.048  -2.066  -2.394  1.00  0.00    -0.376 OA
HETATM   10  C15 UNL     1      -1.269  -2.758  -1.219  1.00  0.00     0.195 C 
HETATM   11  C16 UNL     1       0.006  -2.996  -0.488  1.00  0.00     0.195 C 
HETATM   12  O4  UNL     1       0.907  -1.933  -0.678  1.00  0.00    -0.369 OA
HETATM   13  C17 UNL     1       0.690  -0.888  -1.511  1.00  0.00     0.153 C 
HETATM   14  C18 UNL     1       1.858  -0.306  -1.422  1.00  0.00     0.178 A 
HETATM   15  H4  UNL     1       2.944  -1.399   1.740  1.00  0.00     0.007 HD
ENDROOT
BRANCH   1  16
HETATM   16  N1  UNL     1       4.187   1.090  -1.563  1.00  0.00    -0.345 N 
HETATM   17  H3  UNL     1       3.862   1.386  -2.509  1.00  0.00     0.167 HD
BRANCH  16  18
HETATM   18  C4  UNL     1       5.070   1.079  -0.426  1.00  0.00     0.035 A 
HETATM   19  C3  UNL     1       4.885   1.956   0.616  1.00  0.00     0.032 A 
HETATM   20  C2  UNL     1       5.797   1.849   1.640  1.00  0.00     0.046 A 
HETATM   21  C1  UNL     1       6.796   0.910   1.559  1.00  0.00     0.138 A 
HETATM   22  F1  UNL     1       7.707   0.796   2.569  1.00  0.00    -0.204 F 
HETATM   23  C20 UNL     1       6.971   0.039   0.513  1.00  0.00     0.074 A 
HETATM   24  C19 UNL     1       6.069   0.121  -0.535  1.00  0.00     0.056 A 
HETATM   25 CL1  UNL     1       8.264  -1.126   0.480  1.00  0.00    -0.081 Cl
ENDBRANCH  16  18
ENDBRANCH   1  16
BRANCH   7  26
HETATM   26  C9  UNL     1      -3.007  -0.020  -1.108  1.00  0.00     0.207 C 
BRANCH  26  27
HETATM   27  O1  UNL     1      -3.557   0.382   0.105  1.00  0.00    -0.379 OA
BRANCH  27  28
HETATM   28  C10 UNL     1      -4.909   0.642  -0.082  1.00  0.00     0.147 C 
HETATM   29  C11 UNL     1      -5.247   2.067   0.296  1.00  0.00     0.060 C 
HETATM   30  C12 UNL     1      -6.339   1.941   1.327  1.00  0.00     0.170 C 
HETATM   31  O2  UNL     1      -6.900   0.688   1.091  1.00  0.00    -0.389 OA
HETATM   32  C13 UNL     1      -5.771  -0.135   0.910  1.00  0.00     0.199 C 
ENDBRANCH  27  28
ENDBRANCH  26  27
ENDBRANCH   7  26
TORSDOF 5
