REMARK  5 active torsions:
REMARK  status: ('A' for Active; 'I' for Inactive)
REMARK    1  A    between atoms: N1_12  and  C9_13 
REMARK    2  A    between atoms: N2_14  and  C10_15 
REMARK    3  A    between atoms: C11_16  and  C12_17 
REMARK    4  A    between atoms: C12_17  and  O3_18 
REMARK    5  A    between atoms: O3_18  and  C13_19 
ROOT
HETATM    1  F1  UNL     1       2.615  -0.268  -2.799  1.00  0.00    -0.204 F 
HETATM    2  C1  UNL     1       3.227  -0.327  -1.598  1.00  0.00     0.143 C 
HETATM    3  C2  UNL     1       4.599  -0.199  -1.508  1.00  0.00     0.047 C 
HETATM    4  C3  UNL     1       5.679  -0.100  -0.442  1.00  0.00     0.037 C 
HETATM    5  C4  UNL     1       5.069  -0.247   0.776  1.00  0.00     0.070 C 
HETATM    6  C5  UNL     1       4.679  -1.419   1.634  1.00  0.00     0.233 C 
HETATM    7  O1  UNL     1       3.287  -1.586   1.548  1.00  0.00    -0.371 OA
HETATM    8  C6  UNL     1       2.580  -0.474   1.157  1.00  0.00     0.201 C 
HETATM    9  C7  UNL     1       3.145   0.838   1.637  1.00  0.00     0.213 C 
HETATM   10  O2  UNL     1       4.584   0.827   1.629  1.00  0.00    -0.350 OA
HETATM   11  C8  UNL     1       2.424  -0.531  -0.345  1.00  0.00     0.105 C 
HETATM   12  N1  UNL     1       1.236  -0.854  -0.713  1.00  0.00    -0.241 NA
ENDROOT
BRANCH  12  13
HETATM   13  C9  UNL     1       0.208  -1.121   0.195  1.00  0.00     0.232 C 
HETATM   14  N2  UNL     1      -0.221   0.039  -0.165  1.00  0.00    -0.254 NA
BRANCH  14  15
HETATM   15  C10 UNL     1      -1.378   0.678   0.312  1.00  0.00     0.116 C 
HETATM   16  C11 UNL     1      -2.078   1.399  -0.571  1.00  0.00     0.018 C 
BRANCH  16  17
HETATM   17  C12 UNL     1      -3.325   2.136  -0.228  1.00  0.00     0.200 C 
BRANCH  17  18
HETATM   18  O3  UNL     1      -4.408   1.711  -0.961  1.00  0.00    -0.358 OA
BRANCH  18  19
HETATM   19  C13 UNL     1      -4.620   0.357  -0.709  1.00  0.00     0.261 C 
HETATM   20  C14 UNL     1      -6.067   0.149  -0.289  1.00  0.00     0.087 C 
HETATM   21  C15 UNL     1      -5.862  -1.087  -1.106  1.00  0.00     0.175 C 
HETATM   22  O4  UNL     1      -4.870  -0.428  -1.827  1.00  0.00    -0.361 OA
ENDBRANCH  18  19
ENDBRANCH  17  18
ENDBRANCH  16  17
ENDBRANCH  14  15
ENDBRANCH  12  13
TORSDOF 5
