REMARK  3 active torsions:
REMARK  status: ('A' for Active; 'I' for Inactive)
REMARK    1  A    between atoms: C2_2  and  C3_3 
REMARK    2  A    between atoms: N1_6  and  C6_7 
REMARK    3  A    between atoms: C8_11  and  O1_12 
ROOT
HETATM    1  C6  UNL     1       0.345  -1.346   0.443  1.00  0.00     0.149 A 
HETATM    2  N2  UNL     1       0.333  -2.652   0.320  1.00  0.00    -0.223 NA
HETATM    3  C7  UNL     1      -0.905  -3.370   0.348  1.00  0.00     0.233 A 
HETATM    4  N3  UNL     1      -2.036  -2.790   0.494  1.00  0.00    -0.239 NA
HETATM    5  C8  UNL     1      -2.222  -1.367   0.650  1.00  0.00     0.194 A 
HETATM    6  C9  UNL     1      -0.898  -0.692   0.576  1.00  0.00     0.082 A 
HETATM    7  C10 UNL     1      -0.553   0.565   0.606  1.00  0.00     0.119 C 
HETATM    8  O2  UNL     1       0.812   0.693   0.505  1.00  0.00    -0.345 OA
HETATM    9  C11 UNL     1       1.359   1.983   0.840  1.00  0.00     0.202 C 
HETATM   10  C12 UNL     1       0.581   3.075   0.189  1.00  0.00     0.202 C 
HETATM   11  O3  UNL     1      -0.767   3.065   0.723  1.00  0.00    -0.344 OA
HETATM   12  C13 UNL     1      -1.362   1.775   0.719  1.00  0.00     0.124 C 
HETATM   13  C14 UNL     1      -2.665   1.978   0.829  1.00  0.00     0.174 C 
HETATM   14  O4  UNL     1      -3.723   1.121   0.878  1.00  0.00    -0.355 OA
HETATM   15  C15 UNL     1      -4.238   0.035   0.170  1.00  0.00     0.132 C 
HETATM   16  C16 UNL     1      -5.153   0.565  -0.920  1.00  0.00     0.040 C 
HETATM   17  C17 UNL     1      -3.176  -0.863  -0.372  1.00  0.00     0.073 C 
HETATM   18  C18 UNL     1      -3.893  -2.055  -0.989  1.00  0.00     0.018 C 
ENDROOT
BRANCH   1  19
HETATM   19  N1  UNL     1       1.694  -0.948   0.378  1.00  0.00    -0.311 N 
HETATM   20  C5  UNL     1       2.426  -0.913   1.659  1.00  0.00     0.095 A 
HETATM   21  C4  UNL     1       3.715  -0.626   1.625  1.00  0.00     0.003 A 
HETATM   22  C3  UNL     1       4.495  -0.335   0.413  1.00  0.00     0.056 A 
HETATM   23  C21 UNL     1       3.676  -0.397  -0.800  1.00  0.00     0.011 A 
HETATM   24  C19 UNL     1       2.389  -0.671  -0.894  1.00  0.00     0.011 A 
HETATM   25  C20 UNL     1       1.641  -0.732  -2.178  1.00  0.00     0.068 C 
BRANCH  22  26
HETATM   26  C2  UNL     1       5.269   0.931   0.518  1.00  0.00    -0.024 C 
HETATM   27  C1  UNL     1       5.445   2.062  -0.186  1.00  0.00     0.008 C 
ENDBRANCH  22  26
ENDBRANCH   1  19
BRANCH   5  28
HETATM   28  O1  UNL     1      -2.807  -1.183   1.912  1.00  0.00    -0.365 OA
HETATM   29  H8  UNL     1      -2.214  -1.534   2.634  1.00  0.00     0.213 HD
ENDBRANCH   5  28
TORSDOF 3
