REMARK  5 active torsions:
REMARK  status: ('A' for Active; 'I' for Inactive)
REMARK    1  A    between atoms: C2_2  and  C3_3 
REMARK    2  A    between atoms: N1_6  and  C6_7 
REMARK    3  A    between atoms: C10_13  and  C11_14 
REMARK    4  A    between atoms: C11_14  and  C13_16 
REMARK    5  A    between atoms: C13_16  and  O1_17 
ROOT
HETATM    1  C6  UNL     1       1.800  -0.190   0.494  1.00  0.00     0.113 C 
HETATM    2  N2  UNL     1       1.660   1.076   0.092  1.00  0.00    -0.228 NA
HETATM    3  C7  UNL     1       0.335   1.595  -0.084  1.00  0.00     0.234 C 
HETATM    4  N3  UNL     1      -0.542   1.580  -0.994  1.00  0.00    -0.257 NA
HETATM    5  C8  UNL     1      -1.829   2.120  -1.062  1.00  0.00     0.101 C 
HETATM    6  C9  UNL     1      -2.249   1.019  -0.473  1.00  0.00     0.070 C 
HETATM    7  C10 UNL     1      -3.296   0.199   0.072  1.00  0.00    -0.042 C 
HETATM    8  C15 UNL     1      -2.709  -0.922   0.541  1.00  0.00     0.138 C 
HETATM    9  O2  UNL     1      -1.555  -1.761   0.796  1.00  0.00    -0.362 OA
HETATM   10  C16 UNL     1      -0.408  -0.989   0.599  1.00  0.00     0.182 C 
HETATM   11  C17 UNL     1       0.956  -1.430   0.884  1.00  0.00     0.105 C 
ENDROOT
BRANCH   1  12
HETATM   12  N1  UNL     1       3.214  -0.335   0.553  1.00  0.00    -0.315 N 
HETATM   13  C5  UNL     1       3.860   0.048   1.762  1.00  0.00     0.095 A 
HETATM   14  C4  UNL     1       5.171  -0.102   1.775  1.00  0.00     0.003 A 
HETATM   15  C3  UNL     1       6.049  -0.615   0.698  1.00  0.00     0.056 A 
HETATM   16  C20 UNL     1       5.192  -0.956  -0.464  1.00  0.00     0.011 A 
HETATM   17  C18 UNL     1       3.881  -0.850  -0.593  1.00  0.00     0.011 A 
HETATM   18  C19 UNL     1       3.203  -1.244  -1.841  1.00  0.00     0.068 C 
BRANCH  15  19
HETATM   19  C2  UNL     1       7.109   0.363   0.328  1.00  0.00    -0.024 C 
HETATM   20  C1  UNL     1       7.281   0.877  -0.887  1.00  0.00     0.008 C 
ENDBRANCH  15  19
ENDBRANCH   1  12
BRANCH   7  21
HETATM   21  C11 UNL     1      -4.795   0.184   0.286  1.00  0.00     0.037 C 
HETATM   22  C12 UNL     1      -5.220  -0.994   1.069  1.00  0.00     0.017 C 
BRANCH  21  23
HETATM   23  C13 UNL     1      -5.499   0.270  -1.022  1.00  0.00     0.175 C 
BRANCH  23  24
HETATM   24  O1  UNL     1      -6.867   0.263  -0.870  1.00  0.00    -0.395 OA
HETATM   25  C14 UNL     1      -7.367   1.332  -0.152  1.00  0.00     0.201 C 
ENDBRANCH  23  24
ENDBRANCH  21  23
ENDBRANCH   7  21
TORSDOF 5
