REMARK  4 active torsions:
REMARK  status: ('A' for Active; 'I' for Inactive)
REMARK    1  A    between atoms: C9_9  and  O1_10 
REMARK    2  A    between atoms: C13_15  and  C14_16 
REMARK    3  A    between atoms: C14_16  and  O2_17 
REMARK    4  A    between atoms: O2_17  and  C15_18 
ROOT
HETATM    1  C1  UNL     1      -2.129   3.135   1.877  1.00  0.00     0.018 C 
HETATM    2  C2  UNL     1      -2.782   2.273   1.296  1.00  0.00    -0.077 C 
HETATM    3  C3  UNL     1      -3.554   1.266   0.641  1.00  0.00     0.030 A 
HETATM    4  C4  UNL     1      -4.927   1.414   0.753  1.00  0.00     0.021 A 
HETATM    5  C5  UNL     1      -5.765   0.492   0.208  1.00  0.00     0.004 A 
HETATM    6  C6  UNL     1      -5.242  -0.594  -0.457  1.00  0.00     0.030 A 
HETATM    7  C7  UNL     1      -3.878  -0.756  -0.577  1.00  0.00     0.046 A 
HETATM    8  C8  UNL     1      -3.009   0.192  -0.019  1.00  0.00     0.049 A 
HETATM    9  C9  UNL     1      -1.474   0.414   0.072  1.00  0.00     0.201 C 
HETATM   10  C10 UNL     1      -0.870  -0.176  -1.178  1.00  0.00     0.154 C 
HETATM   11  C11 UNL     1      -0.414  -1.570  -1.087  1.00  0.00     0.127 C 
HETATM   12  N1  UNL     1       0.746  -2.183  -1.260  1.00  0.00    -0.272 NA
HETATM   13  C12 UNL     1       1.929  -1.436  -1.628  1.00  0.00     0.185 C 
HETATM   14  C13 UNL     1       2.562  -0.954  -0.313  1.00  0.00     0.165 C 
HETATM   15  O3  UNL     1       1.526  -0.215   0.277  1.00  0.00    -0.380 OA
HETATM   16  C17 UNL     1       1.151  -0.743   1.485  1.00  0.00     0.194 C 
HETATM   17  C18 UNL     1      -0.056   0.013   1.979  1.00  0.00     0.198 C 
HETATM   18  O4  UNL     1      -1.153   0.002   1.263  1.00  0.00    -0.348 OA
HETATM   19  N2  UNL     1      -1.300  -2.684  -0.772  1.00  0.00    -0.229 NA
HETATM   20  C19 UNL     1      -2.532  -2.955  -1.188  1.00  0.00     0.209 C 
HETATM   21  N3  UNL     1      -3.622  -1.997  -1.282  1.00  0.00    -0.350 N 
HETATM   22  H23 UNL     1      -4.433  -2.138  -1.950  1.00  0.00     0.166 HD
ENDROOT
BRANCH   9  23
HETATM   23  O1  UNL     1      -1.321   1.813  -0.181  1.00  0.00    -0.361 OA
HETATM   24  H5  UNL     1      -1.857   2.015  -0.981  1.00  0.00     0.213 HD
ENDBRANCH   9  23
BRANCH  14  25
HETATM   25  C14 UNL     1       3.659   0.031  -0.651  1.00  0.00     0.201 C 
BRANCH  25  26
HETATM   26  O2  UNL     1       4.055   0.618   0.526  1.00  0.00    -0.389 OA
BRANCH  26  27
HETATM   27  C15 UNL     1       5.060   1.554   0.409  1.00  0.00     0.163 C 
HETATM   28  C16 UNL     1       6.281   0.918  -0.173  1.00  0.00     0.033 C 
ENDBRANCH  26  27
ENDBRANCH  25  26
ENDBRANCH  14  25
TORSDOF 4
