REMARK  8 active torsions:
REMARK  status: ('A' for Active; 'I' for Inactive)
REMARK    1  A    between atoms: N1_1  and  C1_2 
REMARK    2  A    between atoms: C1_2  and  N2_3 
REMARK    3  A    between atoms: C4_6  and  C5_7 
REMARK    4  A    between atoms: C5_7  and  O2_9 
REMARK    5  A    between atoms: C8_12  and  O3_13 
REMARK    6  A    between atoms: O3_13  and  C9_14 
REMARK    7  A    between atoms: C12_19  and  N5_20 
REMARK    8  A    between atoms: N5_20  and  C13_21 
ROOT
HETATM    1  O3  UNL     1      -0.502  -0.744  -0.906  1.00  0.00    -0.300 OA
ENDROOT
BRANCH   1   2
HETATM    2  C8  UNL     1      -1.712  -1.290  -0.513  1.00  0.00     0.174 C 
HETATM    3  C7  UNL     1      -2.892  -0.695  -0.408  1.00  0.00     0.059 A 
HETATM    4  N2  UNL     1      -3.959  -1.510   0.021  1.00  0.00    -0.339 N 
HETATM    5  C6  UNL     1      -3.082   0.706  -0.717  1.00  0.00     0.050 A 
HETATM    6  C2  UNL     1      -5.232  -0.845   0.126  1.00  0.00     0.094 A 
HETATM    7  C3  UNL     1      -5.366   0.457  -0.170  1.00  0.00     0.035 A 
HETATM    8  C4  UNL     1      -4.249   1.296  -0.616  1.00  0.00     0.041 A 
BRANCH   4   9
HETATM    9  C1  UNL     1      -4.010  -2.906   0.377  1.00  0.00     0.243 C 
BRANCH   9  10
HETATM   10  N1  UNL     1      -4.471  -3.140   1.693  1.00  0.00    -0.415 N 
HETATM   11  H1  UNL     1      -3.838  -3.040   2.468  1.00  0.00     0.151 HD
HETATM   12  H2  UNL     1      -5.382  -3.557   1.851  1.00  0.00     0.151 HD
ENDBRANCH   9  10
ENDBRANCH   4   9
BRANCH   8  13
HETATM   13  C5  UNL     1      -4.442   2.704  -0.921  1.00  0.00     0.176 C 
HETATM   14  O1  UNL     1      -3.470   3.434  -1.312  1.00  0.00    -0.646 OA
BRANCH  13  15
HETATM   15  O2  UNL     1      -5.699   3.274  -0.787  1.00  0.00    -0.773 OA
HETATM   16  H7  UNL     1      -5.782   4.273  -0.861  1.00  0.00     0.167 HD
ENDBRANCH  13  15
ENDBRANCH   8  13
ENDBRANCH   1   2
BRANCH   1  17
HETATM   17  C9  UNL     1       0.316  -0.066  -0.018  1.00  0.00     0.201 A 
HETATM   18  N3  UNL     1      -0.168   0.787   0.817  1.00  0.00    -0.215 NA
HETATM   19  C10 UNL     1       0.851   1.359   1.629  1.00  0.00     0.236 A 
HETATM   20  N4  UNL     1       2.007   0.838   1.278  1.00  0.00    -0.236 NA
HETATM   21  C11 UNL     1       1.768  -0.089   0.226  1.00  0.00     0.126 A 
HETATM   22  C12 UNL     1       2.581  -0.859  -0.463  1.00  0.00     0.124 C 
BRANCH  22  23
HETATM   23  N5  UNL     1       3.986  -1.022  -0.378  1.00  0.00    -0.363 N 
HETATM   24  H12 UNL     1       4.541  -1.876  -0.465  1.00  0.00     0.165 HD
BRANCH  23  25
HETATM   25  C13 UNL     1       5.061  -0.122  -0.152  1.00  0.00     0.033 A 
HETATM   26  C14 UNL     1       5.467   0.538  -1.316  1.00  0.00     0.029 A 
HETATM   27  C15 UNL     1       6.526   1.446  -1.238  1.00  0.00     0.004 A 
HETATM   28  C16 UNL     1       7.121   1.648  -0.018  1.00  0.00     0.019 A 
HETATM   29  C17 UNL     1       6.717   0.995   1.123  1.00  0.00     0.013 A 
HETATM   30 BR1  UNL     1       7.552   1.283   2.792  1.00  0.00    -0.051 Br
HETATM   31  C18 UNL     1       5.673   0.097   1.057  1.00  0.00     0.048 A 
ENDBRANCH  23  25
ENDBRANCH  22  23
ENDBRANCH   1  17
TORSDOF 8
