REMARK  7 active torsions:
REMARK  status: ('A' for Active; 'I' for Inactive)
REMARK    1  A    between atoms: C4_4  and  C7_7 
REMARK    2  A    between atoms: C8_8  and  N1_9 
REMARK    3  A    between atoms: N1_9  and  C9_10 
REMARK    4  A    between atoms: C13_16  and  O1_17 
REMARK    5  A    between atoms: O1_17  and  C14_18 
REMARK    6  A    between atoms: C14_18  and  C16_20 
REMARK    7  A    between atoms: C16_20  and  O2_21 
ROOT
HETATM    1  C1  UNL     1       7.872   2.532   0.075  1.00  0.00     0.017 C 
HETATM    2  C2  UNL     1       7.752   1.337   0.181  1.00  0.00    -0.088 C 
HETATM    3  C3  UNL     1       7.583  -0.100   0.313  1.00  0.00     0.084 C 
HETATM    4  C4  UNL     1       6.421  -0.720   0.283  1.00  0.00     0.026 C 
HETATM    5  C5  UNL     1       6.363  -2.162   0.425  1.00  0.00    -0.077 C 
HETATM    6  C6  UNL     1       6.311  -3.354   0.562  1.00  0.00     0.018 C 
ENDROOT
BRANCH   4   7
HETATM    7  C7  UNL     1       5.169   0.003   0.120  1.00  0.00     0.038 C 
HETATM    8  C8  UNL     1       3.905  -0.427   0.061  1.00  0.00     0.091 C 
BRANCH   8   9
HETATM    9  N1  UNL     1       2.775   0.426  -0.103  1.00  0.00    -0.350 N 
HETATM   10  H6  UNL     1       2.871   1.020   0.765  1.00  0.00     0.166 HD
BRANCH   9  11
HETATM   11  C9  UNL     1       1.858   0.393  -1.198  1.00  0.00     0.144 A 
HETATM   12  N2  UNL     1       2.295   0.409  -2.467  1.00  0.00    -0.223 NA
HETATM   13  C10 UNL     1       1.432   0.378  -3.510  1.00  0.00     0.236 A 
HETATM   14  N3  UNL     1       0.100   0.330  -3.330  1.00  0.00    -0.241 NA
HETATM   15  C11 UNL     1      -0.412   0.310  -2.073  1.00  0.00     0.077 A 
HETATM   16  C12 UNL     1      -1.793   0.258  -1.846  1.00  0.00     0.072 A 
HETATM   17  C20 UNL     1       0.482   0.343  -1.004  1.00  0.00     0.075 A 
HETATM   18  C13 UNL     1      -2.314   0.238  -0.542  1.00  0.00     0.107 A 
HETATM   19  C18 UNL     1      -1.377   0.274   0.451  1.00  0.00     0.136 A 
HETATM   20  C19 UNL     1      -0.014   0.324   0.301  1.00  0.00     0.121 A 
HETATM   21  O4  UNL     1      -1.784   0.261   1.750  1.00  0.00    -0.344 OA
HETATM   22  O3  UNL     1       0.781   0.350   1.433  1.00  0.00    -0.345 OA
HETATM   23  C21 UNL     1       0.397  -0.531   2.499  1.00  0.00     0.202 C 
HETATM   24  C22 UNL     1      -1.097  -0.475   2.772  1.00  0.00     0.202 C 
BRANCH  18  25
HETATM   25  O1  UNL     1      -3.667   0.191  -0.562  1.00  0.00    -0.341 OA
BRANCH  25  26
HETATM   26  C14 UNL     1      -4.501   0.129   0.539  1.00  0.00     0.148 C 
HETATM   27  C15 UNL     1      -5.204   1.438   0.862  1.00  0.00     0.042 C 
BRANCH  26  28
HETATM   28  C16 UNL     1      -5.520  -0.976   0.401  1.00  0.00     0.199 C 
BRANCH  28  29
HETATM   29  O2  UNL     1      -6.297  -0.960  -0.688  1.00  0.00    -0.393 OA
HETATM   30  C17 UNL     1      -7.109   0.071  -1.000  1.00  0.00     0.201 C 
ENDBRANCH  28  29
ENDBRANCH  26  28
ENDBRANCH  25  26
ENDBRANCH  18  25
ENDBRANCH   9  11
ENDBRANCH   8   9
ENDBRANCH   4   7
TORSDOF 7
