REMARK  8 active torsions:
REMARK  status: ('A' for Active; 'I' for Inactive)
REMARK    1  A    between atoms: C3_3  and  C5_5 
REMARK    2  A    between atoms: C5_5  and  C6_6 
REMARK    3  A    between atoms: C6_6  and  N1_7 
REMARK    4  A    between atoms: N1_7  and  C7_8 
REMARK    5  A    between atoms: C15_21  and  C17_23 
REMARK    6  A    between atoms: C17_23  and  O4_24 
REMARK    7  A    between atoms: O4_24  and  C18_25 
REMARK    8  A    between atoms: C18_25  and  P1_26 
ROOT
HETATM    1  C1  UNL     1       6.809   0.831   1.462  1.00  0.00     0.012 C 
HETATM    2  C2  UNL     1       6.003   0.060   1.051  1.00  0.00    -0.109 C 
HETATM    3  C3  UNL     1       5.015  -0.893   0.534  1.00  0.00     0.084 C 
HETATM    4  C4  UNL     1       5.674  -1.855  -0.451  1.00  0.00     0.027 C 
ENDROOT
BRANCH   3   5
HETATM    5  C5  UNL     1       3.947  -0.200  -0.158  1.00  0.00     0.007 C 
BRANCH   5   6
HETATM    6  C6  UNL     1       2.993   0.391  -0.853  1.00  0.00     0.087 C 
BRANCH   6   7
HETATM    7  N1  UNL     1       1.953   1.078  -1.494  1.00  0.00    -0.350 N 
HETATM    8  H8  UNL     1       2.318   2.078  -1.548  1.00  0.00     0.166 HD
BRANCH   7   9
HETATM    9  C7  UNL     1       0.807   0.329  -1.875  1.00  0.00     0.144 A 
HETATM   10  N2  UNL     1       0.994  -0.317  -3.047  1.00  0.00    -0.223 NA
HETATM   11  C8  UNL     1      -0.019  -1.072  -3.530  1.00  0.00     0.236 A 
HETATM   12  N3  UNL     1      -1.209  -1.208  -2.890  1.00  0.00    -0.241 NA
HETATM   13  C9  UNL     1      -1.439  -0.584  -1.723  1.00  0.00     0.074 A 
HETATM   14  C10 UNL     1      -0.402   0.180  -1.245  1.00  0.00     0.073 A 
HETATM   15  C19 UNL     1      -2.603  -0.753  -1.122  1.00  0.00     0.045 C 
HETATM   16  C11 UNL     1      -0.366   0.909  -0.148  1.00  0.00     0.117 C 
HETATM   17  O1  UNL     1       0.828   1.624   0.111  1.00  0.00    -0.347 OA
HETATM   18  C14 UNL     1      -1.365   1.158   0.935  1.00  0.00     0.320 C 
HETATM   19  C12 UNL     1       0.961   2.010   1.497  1.00  0.00     0.201 C 
HETATM   20  C13 UNL     1       0.332   1.029   2.433  1.00  0.00     0.198 C 
HETATM   21  O2  UNL     1      -0.874   0.480   2.027  1.00  0.00    -0.353 OA
HETATM   22  O3  UNL     1      -2.638   0.977   0.563  1.00  0.00    -0.338 OA
HETATM   23  C15 UNL     1      -3.124  -0.204   0.149  1.00  0.00     0.102 C 
HETATM   24  C16 UNL     1      -3.111  -1.239   1.262  1.00  0.00     0.053 C 
BRANCH  23  25
HETATM   25  C17 UNL     1      -4.617   0.050  -0.148  1.00  0.00     0.216 C 
BRANCH  25  26
HETATM   26  O4  UNL     1      -5.269  -1.096  -0.596  1.00  0.00    -0.359 OA
BRANCH  26  27
HETATM   27  C18 UNL     1      -6.636  -1.027  -0.830  1.00  0.00     0.141 C 
BRANCH  27  28
HETATM   28  P1  UNL     1      -7.458   0.388  -0.772  1.00  0.00    -0.050 P 
HETATM   29  H21 UNL     1      -6.861   1.666  -0.481  1.00  0.00     0.068 HD
ENDBRANCH  27  28
ENDBRANCH  26  27
ENDBRANCH  25  26
ENDBRANCH  23  25
ENDBRANCH   7   9
ENDBRANCH   6   7
ENDBRANCH   5   6
ENDBRANCH   3   5
TORSDOF 8
