REMARK  2 active torsions:
REMARK  status: ('A' for Active; 'I' for Inactive)
REMARK    1  A    between atoms: C15_20  and  C16_21 
REMARK    2  A    between atoms: C17_22  and  C18_23 
ROOT
HETATM    1  C1  UNL     1      -3.209   0.342  -1.594  1.00  0.00     0.039 C 
HETATM    2  C2  UNL     1      -1.876  -0.105  -1.129  1.00  0.00     0.133 C 
HETATM    3  C3  UNL     1      -1.841  -0.216   0.411  1.00  0.00     0.032 C 
HETATM    4  C4  UNL     1      -2.205  -1.380   0.911  1.00  0.00     0.001 C 
HETATM    5  C5  UNL     1      -2.242  -1.720   2.315  1.00  0.00     0.029 C 
HETATM    6  C6  UNL     1      -3.548  -2.023   2.949  1.00  0.00     0.009 C 
HETATM    7  C7  UNL     1      -4.416  -0.835   2.957  1.00  0.00    -0.001 C 
HETATM    8  C8  UNL     1      -3.588   0.018   2.311  1.00  0.00     0.022 C 
HETATM    9  C9  UNL     1      -3.704   1.441   1.916  1.00  0.00    -0.004 C 
HETATM   10  C10 UNL     1      -2.591   1.708   1.301  1.00  0.00     0.090 C 
HETATM   11  N1  UNL     1      -1.393   1.082   0.926  1.00  0.00    -0.332 N 
HETATM   12  C11 UNL     1      -0.035   1.696   1.024  1.00  0.00     0.237 C 
HETATM   13  N2  UNL     1      -0.292   2.904   0.171  1.00  0.00    -0.285 N 
HETATM   14  N3  UNL     1      -0.740   3.065  -1.186  1.00  0.00    -0.172 NA
HETATM   15  C12 UNL     1      -1.339   2.023  -1.776  1.00  0.00     0.229 C 
HETATM   16  N4  UNL     1      -0.744   0.712  -1.524  1.00  0.00    -0.339 N 
HETATM   17  C13 UNL     1       0.628   0.454  -1.547  1.00  0.00     0.217 C 
HETATM   18  N5  UNL     1       1.291  -0.731  -1.710  1.00  0.00    -0.368 N 
HETATM   19  C14 UNL     1       2.653  -0.567  -1.220  1.00  0.00     0.011 C 
HETATM   20  C15 UNL     1       3.799  -1.080  -1.708  1.00  0.00     0.025 C 
HETATM   21  C19 UNL     1       2.691   0.324   0.028  1.00  0.00     0.098 C 
HETATM   22  P1  UNL     1       0.999   0.456   0.351  1.00  0.00    -0.020 P 
HETATM   23  H15 UNL     1      -0.111   3.840   0.664  1.00  0.00     0.185 HD
HETATM   24  H18 UNL     1       1.004  -1.658  -2.097  1.00  0.00     0.161 HD
ENDROOT
BRANCH  20  25
HETATM   25  C16 UNL     1       5.100  -0.823  -1.102  1.00  0.00    -0.001 C 
HETATM   26  C17 UNL     1       6.202  -1.344  -1.612  1.00  0.00    -0.012 C 
BRANCH  26  27
HETATM   27  C18 UNL     1       7.479  -1.035  -0.939  1.00  0.00     0.141 C 
HETATM   28 CL1  UNL     1       7.198   0.015   0.468  1.00  0.00    -0.126 Cl
ENDBRANCH  26  27
ENDBRANCH  20  25
TORSDOF 2
