REMARK  5 active torsions:
REMARK  status: ('A' for Active; 'I' for Inactive)
REMARK    1  A    between atoms: C1_2  and  O2_3 
REMARK    2  A    between atoms: C1_2  and  C2_4 
REMARK    3  A    between atoms: C2_4  and  P1_5 
REMARK    4  A    between atoms: C7_11  and  N2_12 
REMARK    5  A    between atoms: N2_12  and  C8_13 
ROOT
HETATM    1  P1  UNL     1       3.271   2.606   1.712  1.00  0.00    -0.076 P 
HETATM    2  C3  UNL     1       3.137   1.949   1.500  1.00  0.00     0.116 C 
HETATM    3  C4  UNL     1       2.455   0.914   0.390  1.00  0.00     0.006 C 
HETATM    4  C5  UNL     1       1.564   1.023  -1.069  1.00  0.00     0.129 C 
HETATM    5  N1  UNL     1       0.540   0.074  -0.804  1.00  0.00    -0.383 N 
HETATM    6  C6  UNL     1       0.374  -1.326  -0.696  1.00  0.00     0.128 A 
HETATM    7  C7  UNL     1      -0.925  -1.667  -0.968  1.00  0.00     0.160 A 
HETATM    8  N3  UNL     1      -1.215  -2.970  -0.845  1.00  0.00    -0.222 NA
HETATM    9  C14 UNL     1      -0.293  -3.875  -0.483  1.00  0.00     0.238 A 
HETATM   10  N4  UNL     1       1.004  -3.486  -0.221  1.00  0.00    -0.216 NA
HETATM   11  C15 UNL     1       1.358  -2.249  -0.316  1.00  0.00     0.197 A 
HETATM   12  O3  UNL     1       2.717  -1.898  -0.021  1.00  0.00    -0.320 OA
HETATM   13  C16 UNL     1       2.977  -0.591   0.702  1.00  0.00     0.084 A 
HETATM   14  C17 UNL     1       3.745  -0.270   1.823  1.00  0.00     0.036 A 
HETATM   15  C18 UNL     1       2.894   0.330   1.082  1.00  0.00     0.117 A 
HETATM   16  H5  UNL     1      -0.352   0.624  -0.618  1.00  0.00     0.159 HD
ENDROOT
BRANCH   7  17
HETATM   17  N2  UNL     1      -1.920  -0.740  -1.348  1.00  0.00    -0.339 N 
HETATM   18  H6  UNL     1      -1.895   0.274  -1.554  1.00  0.00     0.167 HD
BRANCH  17  19
HETATM   19  C8  UNL     1      -3.285  -1.060  -1.572  1.00  0.00     0.035 A 
HETATM   20  C9  UNL     1      -3.641  -2.304  -2.034  1.00  0.00     0.029 A 
HETATM   21  C10 UNL     1      -4.932  -2.666  -2.238  1.00  0.00     0.004 A 
HETATM   22  C11 UNL     1      -6.001  -1.821  -2.002  1.00  0.00     0.019 A 
HETATM   23  C12 UNL     1      -5.700  -0.557  -1.537  1.00  0.00     0.013 A 
HETATM   24 BR1  UNL     1      -7.008   0.768  -1.147  1.00  0.00    -0.051 Br
HETATM   25  C13 UNL     1      -4.377  -0.210  -1.336  1.00  0.00     0.048 A 
ENDBRANCH  17  19
ENDBRANCH   7  17
BRANCH   1  26
HETATM   26  C2  UNL     1       3.525   3.982   2.128  1.00  0.00    -0.057 C 
BRANCH  26  27
HETATM   27  C1  UNL     1       3.781   5.281   2.543  1.00  0.00     0.216 C 
HETATM   28  O1  UNL     1       3.085   6.027   1.860  1.00  0.00    -0.640 OA
BRANCH  27  29
HETATM   29  O2  UNL     1       4.738   5.191   3.577  1.00  0.00    -0.767 OA
HETATM   30  H1  UNL     1       5.352   6.029   3.676  1.00  0.00     0.168 HD
ENDBRANCH  27  29
ENDBRANCH  26  27
ENDBRANCH   1  26
TORSDOF 5
