REMARK  6 active torsions:
REMARK  status: ('A' for Active; 'I' for Inactive)
REMARK    1  A    between atoms: O1_2  and  C2_3 
REMARK    2  A    between atoms: C2_3  and  C3_4 
REMARK    3  A    between atoms: C3_4  and  O2_5 
REMARK    4  A    between atoms: C5_7  and  C6_8 
REMARK    5  A    between atoms: C10_14  and  N3_15 
REMARK    6  A    between atoms: N3_15  and  C11_16 
ROOT
HETATM    1  C6  UNL     1       0.509  -1.472  -1.013  1.00  0.00     0.067 A 
HETATM    2  C7  UNL     1       0.720  -2.657  -1.736  1.00  0.00     0.049 A 
HETATM    3  C8  UNL     1      -0.432  -3.428  -2.308  1.00  0.00     0.071 C 
HETATM    4  N1  UNL     1       1.961  -3.110  -1.931  1.00  0.00    -0.246 NA
HETATM    5  C9  UNL     1       3.069  -2.518  -1.483  1.00  0.00     0.235 A 
HETATM    6  N2  UNL     1       2.871  -1.397  -0.797  1.00  0.00    -0.223 NA
HETATM    7  C10 UNL     1       1.657  -0.890  -0.566  1.00  0.00     0.144 A 
ENDROOT
BRANCH   1   8
HETATM    8  C5  UNL     1      -0.862  -1.078  -0.826  1.00  0.00     0.084 C 
HETATM    9  C4  UNL     1      -1.406   0.042  -0.445  1.00  0.00     0.050 C 
HETATM   10  C3  UNL     1      -2.846   0.240  -0.311  1.00  0.00     0.101 C 
HETATM   11  C18 UNL     1      -3.450  -0.905   0.523  1.00  0.00     0.071 C 
HETATM   12  C17 UNL     1      -2.992  -2.161  -0.173  1.00  0.00     0.179 C 
HETATM   13  O3  UNL     1      -1.922  -1.941  -1.048  1.00  0.00    -0.350 OA
BRANCH  10  14
HETATM   14  C2  UNL     1      -3.240   1.582   0.185  1.00  0.00     0.209 C 
BRANCH  14  15
HETATM   15  O1  UNL     1      -2.717   1.967   1.399  1.00  0.00    -0.393 OA
HETATM   16  C1  UNL     1      -3.253   3.258   1.634  1.00  0.00     0.201 C 
ENDBRANCH  14  15
ENDBRANCH  10  14
BRANCH  10  17
HETATM   17  O2  UNL     1      -3.488   0.077  -1.565  1.00  0.00    -0.383 OA
HETATM   18  H6  UNL     1      -3.216   0.852  -2.112  1.00  0.00     0.211 HD
ENDBRANCH  10  17
ENDBRANCH   1   8
BRANCH   7  19
HETATM   19  N3  UNL     1       1.556   0.254   0.256  1.00  0.00    -0.340 N 
HETATM   20  H12 UNL     1       0.980   0.911   0.784  1.00  0.00     0.167 HD
BRANCH  19  21
HETATM   21  C11 UNL     1       2.766   0.913   0.621  1.00  0.00     0.035 A 
HETATM   22  C12 UNL     1       3.672   0.998  -0.442  1.00  0.00     0.032 A 
HETATM   23  C13 UNL     1       4.935   1.567  -0.304  1.00  0.00     0.046 A 
HETATM   24  C14 UNL     1       5.308   2.066   0.932  1.00  0.00     0.138 A 
HETATM   25  F1  UNL     1       6.480   2.652   1.265  1.00  0.00    -0.204 F 
HETATM   26  C15 UNL     1       4.428   1.991   1.989  1.00  0.00     0.074 A 
HETATM   27 CL1  UNL     1       4.741   2.576   3.617  1.00  0.00    -0.081 Cl
HETATM   28  C16 UNL     1       3.184   1.425   1.830  1.00  0.00     0.056 A 
ENDBRANCH  19  21
ENDBRANCH   7  19
TORSDOF 6
