REMARK  7 active torsions:
REMARK  status: ('A' for Active; 'I' for Inactive)
REMARK    1  A    between atoms: C7_7  and  N1_8 
REMARK    2  A    between atoms: N1_8  and  C8_9 
REMARK    3  A    between atoms: C12_15  and  C13_16 
REMARK    4  A    between atoms: C16_21  and  C17_22 
REMARK    5  A    between atoms: C17_22  and  O3_23 
REMARK    6  A    between atoms: O3_23  and  C18_24 
REMARK    7  A    between atoms: C18_24  and  C20_26 
ROOT
HETATM    1  C1  UNL     1       5.508   0.522   4.401  1.00  0.00     0.018 C 
HETATM    2  C2  UNL     1       4.664  -0.188   3.910  1.00  0.00    -0.078 C 
HETATM    3  C3  UNL     1       3.669  -1.044   3.347  1.00  0.00     0.019 A 
HETATM    4  C4  UNL     1       3.475  -2.353   3.720  1.00  0.00     0.021 A 
HETATM    5  C5  UNL     1       2.512  -3.152   3.166  1.00  0.00     0.004 A 
HETATM    6  C6  UNL     1       1.740  -2.516   2.184  1.00  0.00     0.029 A 
HETATM    7  C7  UNL     1       1.845  -1.197   1.723  1.00  0.00     0.035 A 
HETATM    8  C22 UNL     1       2.859  -0.479   2.359  1.00  0.00     0.050 A 
ENDROOT
BRANCH   7   9
HETATM    9  N1  UNL     1       0.972  -0.765   0.659  1.00  0.00    -0.340 N 
HETATM   10  H5  UNL     1       0.488  -0.323   1.455  1.00  0.00     0.167 HD
BRANCH   9  11
HETATM   11  C8  UNL     1       1.657  -1.382  -0.422  1.00  0.00     0.144 A 
HETATM   12  N2  UNL     1       2.735  -2.145  -0.286  1.00  0.00    -0.223 NA
HETATM   13  C9  UNL     1       3.424  -2.592  -1.368  1.00  0.00     0.235 A 
HETATM   14  N3  UNL     1       2.922  -2.196  -2.524  1.00  0.00    -0.245 NA
HETATM   15  C10 UNL     1       1.854  -1.443  -2.626  1.00  0.00     0.053 A 
HETATM   16  C11 UNL     1       1.618  -1.231  -3.935  1.00  0.00     0.066 C 
HETATM   17  C12 UNL     1       1.070  -0.934  -1.569  1.00  0.00     0.071 A 
BRANCH  17  18
HETATM   18  C13 UNL     1       0.045  -0.402  -2.162  1.00  0.00     0.120 C 
HETATM   19  O1  UNL     1      -0.180  -0.051  -3.482  1.00  0.00    -0.345 OA
HETATM   20  C14 UNL     1      -0.611   1.248  -3.846  1.00  0.00     0.202 C 
HETATM   21  C15 UNL     1      -2.074   1.324  -3.477  1.00  0.00     0.202 C 
HETATM   22  O2  UNL     1      -2.274   0.545  -2.338  1.00  0.00    -0.344 OA
HETATM   23  C16 UNL     1      -1.238  -0.008  -1.635  1.00  0.00     0.125 C 
BRANCH  23  24
HETATM   24  C17 UNL     1      -1.527  -0.176  -0.375  1.00  0.00     0.174 C 
BRANCH  24  25
HETATM   25  O3  UNL     1      -2.662   0.137   0.268  1.00  0.00    -0.355 OA
BRANCH  25  26
HETATM   26  C18 UNL     1      -3.182   1.290   0.817  1.00  0.00     0.123 C 
HETATM   27  C19 UNL     1      -4.373   1.018   1.705  1.00  0.00     0.040 C 
BRANCH  26  28
HETATM   28  C20 UNL     1      -3.427   2.343  -0.193  1.00  0.00     0.027 C 
HETATM   29  C21 UNL     1      -4.002   3.615   0.419  1.00  0.00     0.007 C 
ENDBRANCH  26  28
ENDBRANCH  25  26
ENDBRANCH  24  25
ENDBRANCH  23  24
ENDBRANCH  17  18
ENDBRANCH   9  11
ENDBRANCH   7   9
TORSDOF 7
