REMARK  5 active torsions:
REMARK  status: ('A' for Active; 'I' for Inactive)
REMARK    1  A    between atoms: O1_2  and  C2_3 
REMARK    2  A    between atoms: C2_3  and  C3_4 
REMARK    3  A    between atoms: C3_4  and  O2_6 
REMARK    4  A    between atoms: O2_6  and  C5_7 
REMARK    5  A    between atoms: C9_13  and  C10_14 
ROOT
HETATM    1  C5  UNL     1       1.435  -0.310  -0.643  1.00  0.00     0.107 A 
HETATM    2  C6  UNL     1       1.111   0.832  -1.343  1.00  0.00     0.072 A 
HETATM    3  C7  UNL     1      -0.162   1.352  -1.406  1.00  0.00     0.076 A 
HETATM    4  N1  UNL     1      -0.430   2.465  -2.124  1.00  0.00    -0.241 NA
HETATM    5  C8  UNL     1      -1.705   2.911  -2.161  1.00  0.00     0.234 A 
HETATM    6  N2  UNL     1      -2.656   2.265  -1.505  1.00  0.00    -0.240 NA
HETATM    7  C9  UNL     1      -2.427   1.138  -0.767  1.00  0.00     0.084 A 
HETATM    8  C16 UNL     1      -1.144   0.689  -0.734  1.00  0.00     0.059 A 
HETATM    9  C17 UNL     1      -0.924  -0.449  -0.017  1.00  0.00     0.119 A 
HETATM   10  C18 UNL     1       0.375  -0.939   0.021  1.00  0.00     0.136 A 
HETATM   11  O3  UNL     1       0.554  -2.117   0.778  1.00  0.00    -0.344 OA
HETATM   12  C19 UNL     1      -0.210  -2.234   1.989  1.00  0.00     0.202 C 
HETATM   13  C20 UNL     1      -1.659  -1.943   1.777  1.00  0.00     0.202 C 
HETATM   14  O4  UNL     1      -1.906  -1.131   0.657  1.00  0.00    -0.345 OA
ENDROOT
BRANCH   7  15
HETATM   15  C10 UNL     1      -3.635   0.632  -0.147  1.00  0.00    -0.004 A 
HETATM   16  C11 UNL     1      -4.647   0.321  -1.065  1.00  0.00     0.017 A 
HETATM   17  C12 UNL     1      -5.907  -0.132  -0.735  1.00  0.00     0.045 A 
HETATM   18  C13 UNL     1      -6.210  -0.296   0.596  1.00  0.00     0.138 A 
HETATM   19  F1  UNL     1      -7.400  -0.732   1.073  1.00  0.00    -0.204 F 
HETATM   20  C14 UNL     1      -5.253  -0.006   1.545  1.00  0.00     0.073 A 
HETATM   21 CL1  UNL     1      -5.524  -0.177   3.265  1.00  0.00    -0.081 Cl
HETATM   22  C15 UNL     1      -4.013   0.443   1.166  1.00  0.00     0.041 A 
ENDBRANCH   7  15
BRANCH   1  23
HETATM   23  O2  UNL     1       2.680  -0.882  -0.538  1.00  0.00    -0.341 OA
BRANCH  23  24
HETATM   24  C3  UNL     1       3.843  -0.384  -1.138  1.00  0.00     0.148 C 
HETATM   25  C4  UNL     1       4.525  -1.453  -1.999  1.00  0.00     0.042 C 
BRANCH  24  26
HETATM   26  C2  UNL     1       4.864  -0.043  -0.053  1.00  0.00     0.199 C 
BRANCH  26  27
HETATM   27  O1  UNL     1       4.374   0.906   0.812  1.00  0.00    -0.393 OA
HETATM   28  C1  UNL     1       5.301   1.232   1.818  1.00  0.00     0.201 C 
ENDBRANCH  26  27
ENDBRANCH  24  26
ENDBRANCH  23  24
ENDBRANCH   1  23
TORSDOF 5
