REMARK  7 active torsions:
REMARK  status: ('A' for Active; 'I' for Inactive)
REMARK    1  A    between atoms: C6_7  and  C7_8 
REMARK    2  A    between atoms: C8_10  and  N1_11 
REMARK    3  A    between atoms: N1_11  and  C9_12 
REMARK    4  A    between atoms: C10_13  and  C11_14 
REMARK    5  A    between atoms: C12_15  and  C13_17 
REMARK    6  A    between atoms: C13_17  and  C14_18 
REMARK    7  A    between atoms: C16_22  and  O2_23 
ROOT
HETATM    1  C1  UNL     1      -3.422   2.130  -0.871  1.00  0.00     0.029 C 
HETATM    2  C2  UNL     1      -2.529   1.494  -0.125  1.00  0.00     0.021 C 
HETATM    3  O1  UNL     1      -3.669   0.802  -0.313  1.00  0.00     0.000 OA
HETATM    4  C3  UNL     1      -4.000  -0.533  -0.299  1.00  0.00    -0.011 C 
HETATM    5  C4  UNL     1      -5.380  -0.758   0.338  1.00  0.00     0.010 C 
HETATM    6  C5  UNL     1      -2.987  -1.454   0.287  1.00  0.00     0.042 C 
HETATM    7  C6  UNL     1      -1.692  -1.521  -0.376  1.00  0.00    -0.042 C 
HETATM    8  C8  UNL     1      -0.733  -0.903   0.251  1.00  0.00     0.032 C 
HETATM    9  C15 UNL     1      -0.750  -0.064   1.475  1.00  0.00     0.208 C 
HETATM   10  N3  UNL     1      -0.296   1.263   1.034  1.00  0.00    -0.260 NA
HETATM   11  C16 UNL     1      -1.147   1.956   0.295  1.00  0.00     0.170 C 
ENDROOT
BRANCH   8  12
HETATM   12  N1  UNL     1       0.654  -0.761  -0.073  1.00  0.00    -0.368 N 
HETATM   13  H11 UNL     1       1.076   0.071  -0.542  1.00  0.00     0.165 HD
BRANCH  12  14
HETATM   14  C9  UNL     1       1.538  -1.847   0.363  1.00  0.00     0.086 C 
HETATM   15  C10 UNL     1       2.844  -1.793   0.433  1.00  0.00     0.029 C 
BRANCH  15  16
HETATM   16  C11 UNL     1       3.313  -0.530   0.034  1.00  0.00     0.273 A 
HETATM   17  C12 UNL     1       4.465   0.061  -0.104  1.00  0.00     0.147 A 
HETATM   18  N2  UNL     1       4.729  -1.296   0.361  1.00  0.00    -0.033 N 
HETATM   19  H15 UNL     1       5.644  -1.654   0.806  1.00  0.00     0.284 HD
HETATM   20  H16 UNL     1       5.207  -2.167   0.774  1.00  0.00     0.284 HD
BRANCH  17  21
HETATM   21  C13 UNL     1       5.693   0.769  -0.272  1.00  0.00     0.064 C 
BRANCH  21  22
HETATM   22  C14 UNL     1       7.028   0.700  -0.239  1.00  0.00     0.190 C 
HETATM   23  F1  UNL     1       7.718  -0.392   0.048  1.00  0.00    -0.219 F 
ENDBRANCH  21  22
ENDBRANCH  17  21
ENDBRANCH  15  16
ENDBRANCH  12  14
ENDBRANCH   8  12
BRANCH   7  24
HETATM   24  C7  UNL     1      -1.411  -2.163  -1.668  1.00  0.00     0.150 C 
HETATM   25 CL1  UNL     1       0.242  -1.944  -2.223  1.00  0.00    -0.126 Cl
ENDBRANCH   7  24
BRANCH  11  26
HETATM   26  O2  UNL     1      -0.836   3.219  -0.173  1.00  0.00    -0.339 OA
HETATM   27  C17 UNL     1      -0.142   4.133   0.655  1.00  0.00     0.211 C 
ENDBRANCH  11  26
TORSDOF 7
