REMARK  2 active torsions:
REMARK  status: ('A' for Active; 'I' for Inactive)
REMARK    1  A    between atoms: C7_7  and  C8_8 
REMARK    2  A    between atoms: C13_15  and  C14_16 
ROOT
HETATM    1  C1  UNL     1       6.799  -1.309  -0.662  1.00  0.00     0.018 C 
HETATM    2  C2  UNL     1       5.622  -0.903  -0.570  1.00  0.00    -0.076 C 
HETATM    3  C3  UNL     1       4.223  -0.415  -0.434  1.00  0.00     0.039 C 
HETATM    4  C4  UNL     1       3.968  -0.087   0.811  1.00  0.00     0.022 C 
HETATM    5  C5  UNL     1       2.628   0.385   1.226  1.00  0.00    -0.001 C 
HETATM    6  C6  UNL     1       1.362   0.603   0.780  1.00  0.00    -0.005 C 
HETATM    7  C7  UNL     1       0.680   0.409  -0.539  1.00  0.00     0.058 C 
HETATM    8  C17 UNL     1       0.921   1.574  -1.393  1.00  0.00     0.143 C 
HETATM    9  N1  UNL     1       2.325   1.863  -1.506  1.00  0.00    -0.396 N 
HETATM   10  C18 UNL     1       3.042   0.885  -2.183  1.00  0.00     0.108 C 
HETATM   11  C19 UNL     1       3.866  -0.109  -1.809  1.00  0.00     0.047 C 
HETATM   12  N2  UNL     1       4.217  -0.896  -2.941  1.00  0.00    -0.252 NA
HETATM   13  C20 UNL     1       2.900  -1.488  -2.821  1.00  0.00     0.181 C 
HETATM   14  N3  UNL     1       1.806  -1.557  -2.261  1.00  0.00    -0.253 NA
HETATM   15  C21 UNL     1       1.264  -0.842  -1.167  1.00  0.00     0.049 C 
HETATM   16  C22 UNL     1       1.166  -1.825  -0.181  1.00  0.00    -0.002 C 
HETATM   17  C23 UNL     1       0.702  -2.028   1.182  1.00  0.00     0.038 C 
HETATM   18  H18 UNL     1       2.990   2.622  -1.217  1.00  0.00     0.159 HD
HETATM   19  H20 UNL     1       5.108  -0.403  -2.903  1.00  0.00     0.134 HD
ENDROOT
BRANCH   7  20
HETATM   20  C8  UNL     1      -0.772   0.178  -0.264  1.00  0.00     0.034 C 
HETATM   21  C9  UNL     1      -1.545   1.022   0.350  1.00  0.00     0.099 C 
HETATM   22  O1  UNL     1      -1.093   2.240   0.820  1.00  0.00    -0.346 OA
HETATM   23  C12 UNL     1      -2.953   0.730   0.583  1.00  0.00     0.098 C 
HETATM   24  C10 UNL     1      -2.028   3.283   0.980  1.00  0.00     0.202 C 
HETATM   25  C11 UNL     1      -3.061   2.741   1.983  1.00  0.00     0.202 C 
HETATM   26  O2  UNL     1      -3.705   1.688   1.250  1.00  0.00    -0.346 OA
HETATM   27  C13 UNL     1      -3.565  -0.376   0.204  1.00  0.00     0.022 C 
BRANCH  27  28
HETATM   28  C14 UNL     1      -4.866  -1.051   0.223  1.00  0.00     0.058 C 
HETATM   29  C15 UNL     1      -5.721  -0.602   1.387  1.00  0.00     0.178 C 
HETATM   30  O3  UNL     1      -5.346  -1.776   2.054  1.00  0.00    -0.390 OA
HETATM   31  C16 UNL     1      -4.923  -2.401   0.906  1.00  0.00     0.178 C 
ENDBRANCH  27  28
ENDBRANCH   7  20
TORSDOF 2
