REMARK  7 active torsions:
REMARK  status: ('A' for Active; 'I' for Inactive)
REMARK    1  A    between atoms: B1_1  and  C1_2 
REMARK    2  A    between atoms: C1_2  and  O1_3 
REMARK    3  A    between atoms: C1_2  and  C3_5 
REMARK    4  A    between atoms: C3_5  and  O2_7 
REMARK    5  A    between atoms: O2_7  and  C5_8 
REMARK    6  A    between atoms: C9_14  and  N3_15 
REMARK    7  A    between atoms: N3_15  and  C10_16 
ROOT
HETATM    1  C5  UNL     1      -1.734  -0.707   0.032  1.00  0.00     0.107 A 
HETATM    2  C6  UNL     1      -1.207  -0.845  -1.236  1.00  0.00     0.072 A 
HETATM    3  C7  UNL     1       0.130  -0.714  -1.504  1.00  0.00     0.077 A 
HETATM    4  N1  UNL     1       0.658  -0.843  -2.730  1.00  0.00    -0.241 NA
HETATM    5  C8  UNL     1       1.975  -0.707  -2.961  1.00  0.00     0.236 A 
HETATM    6  N2  UNL     1       2.819  -0.433  -1.955  1.00  0.00    -0.223 NA
HETATM    7  C9  UNL     1       2.392  -0.289  -0.716  1.00  0.00     0.144 A 
HETATM    8  C16 UNL     1       1.040  -0.435  -0.519  1.00  0.00     0.075 A 
HETATM    9  C17 UNL     1       0.554  -0.290   0.765  1.00  0.00     0.121 A 
HETATM   10  C18 UNL     1      -0.802  -0.425   1.018  1.00  0.00     0.136 A 
HETATM   11  O3  UNL     1      -1.162  -0.253   2.361  1.00  0.00    -0.344 OA
HETATM   12  C19 UNL     1      -0.569   0.753   3.183  1.00  0.00     0.202 C 
HETATM   13  C20 UNL     1       0.912   0.873   2.919  1.00  0.00     0.202 C 
HETATM   14  O4  UNL     1       1.324  -0.009   1.874  1.00  0.00    -0.345 OA
ENDROOT
BRANCH   7  15
HETATM   15  N3  UNL     1       3.346  -0.003   0.291  1.00  0.00    -0.340 N 
HETATM   16  H13 UNL     1       3.431   0.131   1.314  1.00  0.00     0.167 HD
BRANCH  15  17
HETATM   17  C10 UNL     1       4.706   0.197  -0.089  1.00  0.00     0.035 A 
HETATM   18  C11 UNL     1       5.865  -0.225   0.569  1.00  0.00     0.032 A 
HETATM   19  C12 UNL     1       7.139   0.015   0.166  1.00  0.00     0.046 A 
HETATM   20  C13 UNL     1       7.346   0.742  -1.001  1.00  0.00     0.138 A 
HETATM   21  F1  UNL     1       8.639   0.943  -1.342  1.00  0.00    -0.204 F 
HETATM   22  C14 UNL     1       6.227   1.181  -1.685  1.00  0.00     0.074 A 
HETATM   23 CL1  UNL     1       6.652   2.087  -3.137  1.00  0.00    -0.081 Cl
HETATM   24  C15 UNL     1       4.960   0.919  -1.246  1.00  0.00     0.056 A 
ENDBRANCH  15  17
ENDBRANCH   7  15
BRANCH   1  25
HETATM   25  O2  UNL     1      -3.054  -0.826   0.359  1.00  0.00    -0.342 OA
BRANCH  25  26
HETATM   26  C3  UNL     1      -4.134  -1.108  -0.463  1.00  0.00     0.143 C 
HETATM   27  C4  UNL     1      -4.828  -2.376   0.008  1.00  0.00     0.042 C 
BRANCH  26  28
HETATM   28  C1  UNL     1      -5.108   0.058  -0.413  1.00  0.00     0.094 C 
BRANCH  28  29
HETATM   29  B1  UNL     1      -5.524   0.272   1.091  1.00  0.00     0.175 B 
HETATM   30  H1  UNL     1      -6.489  -0.308   1.501  1.00  0.00    -0.029 HD
HETATM   31  H2  UNL     1      -4.684   0.605   1.843  1.00  0.00    -0.029 HD
ENDBRANCH  28  29
BRANCH  28  32
HETATM   32  O1  UNL     1      -4.440   1.203  -0.859  1.00  0.00    -0.399 OA
HETATM   33  C2  UNL     1      -5.105   1.734  -1.984  1.00  0.00     0.200 C 
ENDBRANCH  28  32
ENDBRANCH  26  28
ENDBRANCH  25  26
ENDBRANCH   1  25
TORSDOF 7
