REMARK  6 active torsions:
REMARK  status: ('A' for Active; 'I' for Inactive)
REMARK    1  A    between atoms: O1_2  and  C2_3 
REMARK    2  A    between atoms: C3_4  and  C4_5 
REMARK    3  A    between atoms: C4_5  and  C5_6 
REMARK    4  A    between atoms: C5_6  and  O2_7 
REMARK    5  A    between atoms: C8_12  and  N3_13 
REMARK    6  A    between atoms: N3_13  and  C9_14 
ROOT
HETATM    1  C2  UNL     1      -2.592  -0.145  -0.085  1.00  0.00     0.083 C 
HETATM    2  C3  UNL     1      -1.760   0.871   0.206  1.00  0.00     0.005 C 
HETATM    3  C6  UNL     1      -0.520   0.834   0.970  1.00  0.00     0.077 A 
HETATM    4  N1  UNL     1      -0.287   2.063   1.290  1.00  0.00    -0.241 NA
HETATM    5  C7  UNL     1       0.891   2.282   2.050  1.00  0.00     0.230 A 
HETATM    6  N2  UNL     1       1.744   1.447   2.457  1.00  0.00    -0.252 NA
HETATM    7  C8  UNL     1       1.646   0.055   2.197  1.00  0.00     0.243 A 
HETATM    8  C15 UNL     1       0.410  -0.198   1.418  1.00  0.00     0.013 A 
HETATM    9  C16 UNL     1       0.338  -1.526   1.239  1.00  0.00     0.012 C 
HETATM   10  C17 UNL     1      -0.500  -2.569   0.635  1.00  0.00     0.197 C 
HETATM   11  O3  UNL     1      -1.416  -2.165  -0.283  1.00  0.00    -0.376 OA
HETATM   12  C18 UNL     1      -2.595  -1.620   0.209  1.00  0.00     0.174 C 
HETATM   13  C19 UNL     1      -2.810  -1.805   1.673  1.00  0.00     0.046 C 
ENDROOT
BRANCH   7  14
HETATM   14  N3  UNL     1       2.795  -0.596   1.673  1.00  0.00    -0.363 N 
HETATM   15  H11 UNL     1       3.269  -1.374   2.232  1.00  0.00     0.162 HD
BRANCH  14  16
HETATM   16  C9  UNL     1       3.441  -0.343   0.434  1.00  0.00     0.031 A 
HETATM   17  C10 UNL     1       3.019   0.602  -0.476  1.00  0.00     0.032 A 
HETATM   18  C11 UNL     1       3.619   0.880  -1.685  1.00  0.00     0.046 A 
HETATM   19  C12 UNL     1       4.743   0.163  -2.037  1.00  0.00     0.138 A 
HETATM   20  F1  UNL     1       5.395   0.366  -3.196  1.00  0.00    -0.204 F 
HETATM   21  C13 UNL     1       5.214  -0.796  -1.167  1.00  0.00     0.074 A 
HETATM   22 CL1  UNL     1       6.628  -1.706  -1.599  1.00  0.00    -0.081 Cl
HETATM   23  C14 UNL     1       4.564  -1.015   0.015  1.00  0.00     0.056 A 
ENDBRANCH  14  16
ENDBRANCH   7  14
BRANCH   2  24
HETATM   24  C4  UNL     1      -2.148   2.198  -0.292  1.00  0.00     0.070 C 
BRANCH  24  25
HETATM   25  C5  UNL     1      -1.141   2.698  -1.291  1.00  0.00     0.168 C 
BRANCH  25  26
HETATM   26  O2  UNL     1      -1.050   1.820  -2.392  1.00  0.00    -0.401 OA
HETATM   27  H8  UNL     1      -1.878   1.968  -2.916  1.00  0.00     0.209 HD
ENDBRANCH  25  26
ENDBRANCH  24  25
ENDBRANCH   2  24
BRANCH   1  28
HETATM   28  O1  UNL     1      -3.655   0.350  -0.815  1.00  0.00    -0.357 OA
HETATM   29  C1  UNL     1      -4.647  -0.438  -1.427  1.00  0.00     0.209 C 
ENDBRANCH   1  28
TORSDOF 6
