REMARK  4 active torsions:
REMARK  status: ('A' for Active; 'I' for Inactive)
REMARK    1  A    between atoms: C2_2  and  C3_3 
REMARK    2  A    between atoms: C9_11  and  N1_12 
REMARK    3  A    between atoms: N1_12  and  C10_13 
REMARK    4  A    between atoms: C17_21  and  O3_22 
ROOT
HETATM    1  C10 UNL     1       3.359  -0.889   0.447  1.00  0.00     0.065 A 
HETATM    2  C11 UNL     1       3.254   0.257  -0.301  1.00  0.00     0.055 A 
HETATM    3  C12 UNL     1       4.302   0.967  -0.844  1.00  0.00     0.052 A 
HETATM    4  C13 UNL     1       4.130   2.161  -1.620  1.00  0.00     0.100 C 
HETATM    5  N2  UNL     1       3.989   3.130  -2.228  1.00  0.00    -0.191 NA
HETATM    6  C14 UNL     1       5.576   0.495  -0.624  1.00  0.00    -0.038 A 
HETATM    7  C15 UNL     1       6.740   1.220  -1.185  1.00  0.00     0.050 C 
HETATM    8  C16 UNL     1       5.759  -0.636   0.110  1.00  0.00     0.047 A 
HETATM    9  C17 UNL     1       4.663  -1.289   0.619  1.00  0.00     0.092 A 
ENDROOT
BRANCH   1  10
HETATM   10  N1  UNL     1       2.275  -1.612   0.982  1.00  0.00    -0.356 N 
HETATM   11  H14 UNL     1       2.590  -2.438   1.563  1.00  0.00     0.162 HD
BRANCH  10  12
HETATM   12  C9  UNL     1       0.883  -1.495   0.931  1.00  0.00     0.153 C 
HETATM   13  C8  UNL     1       0.421  -0.100   1.301  1.00  0.00     0.068 C 
HETATM   14  C7  UNL     1      -0.714   0.541   0.945  1.00  0.00     0.104 C 
HETATM   15  O2  UNL     1      -0.835   1.854   1.350  1.00  0.00    -0.346 OA
HETATM   16  C20 UNL     1      -1.708  -0.244   0.154  1.00  0.00     0.128 C 
HETATM   17  C6  UNL     1      -1.980   2.668   1.570  1.00  0.00     0.202 C 
HETATM   18  C5  UNL     1      -3.273   1.857   1.416  1.00  0.00     0.198 C 
HETATM   19  O1  UNL     1      -3.700   1.717   0.133  1.00  0.00    -0.353 OA
HETATM   20  C3  UNL     1      -4.078   0.468  -0.282  1.00  0.00     0.166 C 
HETATM   21  C4  UNL     1      -4.979  -0.273   0.679  1.00  0.00     0.079 C 
HETATM   22  O4  UNL     1      -2.944  -0.406  -0.524  1.00  0.00    -0.310 OA
HETATM   23  C19 UNL     1      -1.160  -1.472  -0.016  1.00  0.00     0.051 C 
HETATM   24  C18 UNL     1       0.295  -1.589  -0.523  1.00  0.00     0.120 C 
HETATM   25  N3  UNL     1      -1.881  -2.682   0.348  1.00  0.00    -0.352 N 
HETATM   26  C21 UNL     1      -0.885  -3.193   1.319  1.00  0.00     0.204 C 
HETATM   27  H23 UNL     1      -2.777  -2.706  -0.170  1.00  0.00     0.166 HD
HETATM   28  N4  UNL     1       0.209  -2.563   1.594  1.00  0.00    -0.248 NA
BRANCH  20  29
HETATM   29  C2  UNL     1      -4.856   0.528  -1.601  1.00  0.00     0.064 C 
HETATM   30  C1  UNL     1      -4.065   1.255  -2.677  1.00  0.00     0.010 C 
ENDBRANCH  20  29
ENDBRANCH  10  12
ENDBRANCH   1  10
BRANCH   9  31
HETATM   31  O3  UNL     1       4.947  -2.446   1.362  1.00  0.00    -0.358 OA
HETATM   32  H20 UNL     1       4.795  -3.311   0.847  1.00  0.00     0.217 HD
ENDBRANCH   9  31
TORSDOF 4
