REMARK  6 active torsions:
REMARK  status: ('A' for Active; 'I' for Inactive)
REMARK    1  A    between atoms: C2_2  and  O1_3 
REMARK    2  A    between atoms: O1_3  and  C3_4 
REMARK    3  A    between atoms: C3_4  and  C4_5 
REMARK    4  A    between atoms: C3_4  and  O2_7 
REMARK    5  A    between atoms: O2_7  and  C6_8 
REMARK    6  A    between atoms: N2_14  and  C11_15 
ROOT
HETATM    1  C11 UNL     1      -3.578  -0.446  -0.196  1.00  0.00     0.034 A 
HETATM    2  C12 UNL     1      -4.193  -1.456  -0.819  1.00  0.00     0.027 A 
HETATM    3  C13 UNL     1      -4.821  -2.287   0.209  1.00  0.00     0.006 A 
HETATM    4  C14 UNL     1      -4.572  -1.763   1.414  1.00  0.00    -0.060 A 
HETATM    5  C15 UNL     1      -5.043  -2.322   2.710  1.00  0.00     0.045 C 
HETATM    6  C16 UNL     1      -3.749  -0.526   1.293  1.00  0.00     0.171 A 
HETATM    7  C17 UNL     1      -4.377   0.650   1.854  1.00  0.00     0.074 C 
HETATM    8  N3  UNL     1      -4.858   1.588   2.302  1.00  0.00    -0.196 NA
ENDROOT
BRANCH   1   9
HETATM    9  N2  UNL     1      -2.844   0.596  -0.827  1.00  0.00    -0.340 N 
HETATM   10  C10 UNL     1      -3.602   1.763  -1.117  1.00  0.00     0.111 C 
HETATM   11  C9  UNL     1      -3.035   2.905  -1.467  1.00  0.00     0.134 C 
HETATM   12  N1  UNL     1      -1.624   2.966  -1.576  1.00  0.00    -0.262 NA
HETATM   13  C8  UNL     1      -0.893   1.904  -1.368  1.00  0.00     0.066 C 
HETATM   14  C7  UNL     1       0.544   2.176  -1.488  1.00  0.00     0.069 C 
HETATM   15  C18 UNL     1      -1.487   0.587  -1.183  1.00  0.00     0.201 C 
HETATM   16  C6  UNL     1       1.336   1.165  -1.077  1.00  0.00     0.110 C 
HETATM   17  C20 UNL     1       0.745  -0.108  -0.648  1.00  0.00     0.134 C 
HETATM   18  C19 UNL     1      -0.566  -0.404  -0.666  1.00  0.00     0.111 C 
HETATM   19  O3  UNL     1       1.563  -1.142  -0.169  1.00  0.00    -0.344 OA
HETATM   20  O4  UNL     1      -1.085  -1.586  -0.227  1.00  0.00    -0.348 OA
HETATM   21  C22 UNL     1      -0.227  -2.547   0.367  1.00  0.00     0.202 C 
HETATM   22  C21 UNL     1       1.101  -2.460  -0.393  1.00  0.00     0.202 C 
BRANCH  16  23
HETATM   23  O2  UNL     1       2.676   1.342  -1.113  1.00  0.00    -0.318 OA
BRANCH  23  24
HETATM   24  C3  UNL     1       3.665   1.020  -0.207  1.00  0.00     0.266 C 
BRANCH  24  25
HETATM   25  O1  UNL     1       4.946   1.133  -0.803  1.00  0.00    -0.361 OA
BRANCH  25  26
HETATM   26  C2  UNL     1       5.604  -0.071  -0.801  1.00  0.00     0.166 C 
HETATM   27  C1  UNL     1       6.966   0.142  -1.456  1.00  0.00     0.033 C 
ENDBRANCH  25  26
ENDBRANCH  24  25
BRANCH  24  28
HETATM   28  C4  UNL     1       3.574   1.872   1.015  1.00  0.00     0.056 C 
HETATM   29  C5  UNL     1       2.235   1.774   1.694  1.00  0.00     0.010 C 
ENDBRANCH  24  28
ENDBRANCH  23  24
ENDBRANCH  16  23
ENDBRANCH   1   9
TORSDOF 6
