REMARK  3 active torsions:
REMARK  status: ('A' for Active; 'I' for Inactive)
REMARK    1  A    between atoms: O1_2  and  C2_3 
REMARK    2  A    between atoms: C11_16  and  N3_17 
REMARK    3  A    between atoms: N3_17  and  C12_18 
ROOT
HETATM    1  C2  UNL     1       3.655   0.269   1.001  1.00  0.00     0.287 C 
HETATM    2  O2  UNL     1       2.585   0.579   1.602  1.00  0.00    -0.357 OA
HETATM    3  C3  UNL     1       1.544   0.927   2.185  1.00  0.00     0.197 C 
HETATM    4  C4  UNL     1       0.354   1.601   1.540  1.00  0.00     0.202 C 
HETATM    5  O3  UNL     1      -0.380   0.923   0.592  1.00  0.00    -0.348 OA
HETATM    6  C5  UNL     1       0.009   0.328  -0.559  1.00  0.00     0.087 A 
HETATM    7  C6  UNL     1       1.308   0.243  -0.953  1.00  0.00     0.074 A 
HETATM    8  C7  UNL     1       2.012  -0.291  -2.001  1.00  0.00     0.074 A 
HETATM    9  C8  UNL     1       1.089  -0.862  -2.830  1.00  0.00     0.069 A 
HETATM   10  C9  UNL     1      -0.253  -0.852  -2.572  1.00  0.00     0.077 A 
HETATM   11  N1  UNL     1      -0.962  -1.494  -3.551  1.00  0.00    -0.241 NA
HETATM   12  C10 UNL     1      -2.316  -1.516  -3.330  1.00  0.00     0.236 A 
HETATM   13  N2  UNL     1      -2.871  -0.952  -2.244  1.00  0.00    -0.223 NA
HETATM   14  C11 UNL     1      -2.174  -0.331  -1.299  1.00  0.00     0.144 A 
HETATM   15  C18 UNL     1      -0.821  -0.275  -1.461  1.00  0.00     0.072 A 
HETATM   16  O4  UNL     1       3.138   0.182  -1.372  1.00  0.00    -0.341 OA
HETATM   17  C19 UNL     1       3.743  -0.482  -0.280  1.00  0.00     0.180 C 
HETATM   18  C20 UNL     1       5.125  -0.999  -0.581  1.00  0.00     0.045 C 
ENDROOT
BRANCH  14  19
HETATM   19  N3  UNL     1      -2.784   0.247  -0.162  1.00  0.00    -0.340 N 
HETATM   20  H12 UNL     1      -2.455   0.809   0.631  1.00  0.00     0.167 HD
BRANCH  19  21
HETATM   21  C12 UNL     1      -4.169   0.142   0.140  1.00  0.00     0.035 A 
HETATM   22  C13 UNL     1      -4.870  -0.940  -0.349  1.00  0.00     0.032 A 
HETATM   23  C14 UNL     1      -6.235  -1.106  -0.113  1.00  0.00     0.046 A 
HETATM   24  C15 UNL     1      -6.961  -0.203   0.619  1.00  0.00     0.138 A 
HETATM   25  F1  UNL     1      -8.274  -0.293   0.888  1.00  0.00    -0.204 F 
HETATM   26  C16 UNL     1      -6.299   0.894   1.126  1.00  0.00     0.074 A 
HETATM   27 CL1  UNL     1      -7.124   2.093   2.068  1.00  0.00    -0.081 Cl
HETATM   28  C17 UNL     1      -4.956   1.007   0.863  1.00  0.00     0.056 A 
ENDBRANCH  19  21
ENDBRANCH  14  19
BRANCH   1  29
HETATM   29  O1  UNL     1       4.556  -0.419   1.939  1.00  0.00    -0.363 OA
HETATM   30  C1  UNL     1       5.626   0.472   2.108  1.00  0.00     0.204 C 
ENDBRANCH   1  29
TORSDOF 3
