REMARK  10 active torsions:
REMARK  status: ('A' for Active; 'I' for Inactive)
REMARK    1  A    between atoms: C2_2  and  C4_4 
REMARK    2  A    between atoms: C4_4  and  C6_7 
REMARK    3  A    between atoms: C6_7  and  N2_9 
REMARK    4  A    between atoms: N2_9  and  C8_10 
REMARK    5  A    between atoms: C12_16  and  C13_17 
REMARK    6  A    between atoms: C13_17  and  C14_18 
REMARK    7  A    between atoms: C13_17  and  O1_20 
REMARK    8  A    between atoms: O1_20  and  C16_21 
REMARK    9  A    between atoms: C19_24  and  C20_25 
REMARK   10  A    between atoms: C22_28  and  O2_29 
ROOT
HETATM    1  C4  UNL     1       4.993  -0.113  -1.045  1.00  0.00     0.166 C 
HETATM    2  C5  UNL     1       4.609  -1.322  -1.746  1.00  0.00     0.074 C 
HETATM    3  N1  UNL     1       4.295  -2.292  -2.287  1.00  0.00    -0.196 NA
ENDROOT
BRANCH   1   4
HETATM    4  C2  UNL     1       6.292  -0.221  -0.337  1.00  0.00    -0.070 C 
HETATM    5  C1  UNL     1       7.096  -1.251  -0.143  1.00  0.00     0.015 C 
HETATM    6  C3  UNL     1       6.721   1.089   0.234  1.00  0.00     0.044 C 
ENDBRANCH   1   4
BRANCH   1   7
HETATM    7  C6  UNL     1       3.888   0.340  -0.134  1.00  0.00     0.010 C 
HETATM    8  C7  UNL     1       3.405   1.561  -0.349  1.00  0.00     0.060 C 
BRANCH   7   9
HETATM    9  N2  UNL     1       3.224  -0.335   0.927  1.00  0.00    -0.344 N 
HETATM   10  H9  UNL     1       3.453  -0.639   1.915  1.00  0.00     0.167 HD
BRANCH   9  11
HETATM   11  C8  UNL     1       1.876  -0.762   0.661  1.00  0.00     0.163 C 
HETATM   12  N3  UNL     1       1.429  -1.879   0.057  1.00  0.00    -0.222 NA
HETATM   13  C9  UNL     1       0.431  -1.864  -0.856  1.00  0.00     0.235 C 
HETATM   14  N4  UNL     1      -0.189  -2.469   0.171  1.00  0.00    -0.254 NA
HETATM   15  C10 UNL     1      -1.511  -2.562   0.295  1.00  0.00     0.118 C 
HETATM   16  C11 UNL     1      -2.543  -1.715   0.645  1.00  0.00     0.029 C 
HETATM   17  C12 UNL     1      -2.746  -0.468   0.139  1.00  0.00    -0.028 C 
HETATM   18  C18 UNL     1      -1.629   0.186   0.575  1.00  0.00     0.021 C 
HETATM   19  C19 UNL     1      -0.383   0.695   0.799  1.00  0.00    -0.007 C 
HETATM   20  C22 UNL     1       0.760  -0.046   1.022  1.00  0.00     0.119 C 
BRANCH  17  21
HETATM   21  C13 UNL     1      -3.886  -0.007  -0.641  1.00  0.00     0.154 C 
BRANCH  21  22
HETATM   22  C14 UNL     1      -4.077  -0.893  -1.894  1.00  0.00     0.032 C 
HETATM   23  C15 UNL     1      -4.336  -2.316  -1.539  1.00  0.00     0.008 C 
ENDBRANCH  21  22
BRANCH  21  24
HETATM   24  O1  UNL     1      -5.061  -0.058   0.106  1.00  0.00    -0.382 OA
BRANCH  24  25
HETATM   25  C16 UNL     1      -5.786   1.098   0.112  1.00  0.00     0.164 C 
HETATM   26  C17 UNL     1      -5.120   2.316   0.654  1.00  0.00     0.033 C 
ENDBRANCH  24  25
ENDBRANCH  21  24
ENDBRANCH  17  21
BRANCH  19  27
HETATM   27  C20 UNL     1      -0.093   2.144   0.838  1.00  0.00     0.165 C 
HETATM   28  C21 UNL     1      -1.250   2.970   1.076  1.00  0.00     0.063 C 
HETATM   29  N5  UNL     1      -2.151   3.628   1.249  1.00  0.00    -0.197 NA
ENDBRANCH  19  27
BRANCH  20  30
HETATM   30  O2  UNL     1       0.819  -0.104   2.415  1.00  0.00    -0.357 OA
HETATM   31  H27 UNL     1       0.604  -0.973   2.868  1.00  0.00     0.218 HD
ENDBRANCH  20  30
ENDBRANCH   9  11
ENDBRANCH   7   9
ENDBRANCH   1   7
TORSDOF 10
