REMARK  4 active torsions:
REMARK  status: ('A' for Active; 'I' for Inactive)
REMARK    1  A    between atoms: O1_2  and  C2_3 
REMARK    2  A    between atoms: C8_11  and  C9_12 
REMARK    3  A    between atoms: C12_15  and  C13_16 
REMARK    4  A    between atoms: C13_16  and  N1_17 
ROOT
HETATM    1  C9  UNL     1      -2.264  -0.294  -0.302  1.00  0.00    -0.024 A 
HETATM    2  C10 UNL     1      -2.943   0.149  -1.441  1.00  0.00     0.013 A 
HETATM    3  C11 UNL     1      -4.308   0.454  -1.367  1.00  0.00     0.011 A 
HETATM    4  C12 UNL     1      -5.010   0.325  -0.178  1.00  0.00    -0.010 A 
HETATM    5  C14 UNL     1      -4.306  -0.115   0.922  1.00  0.00     0.053 A 
HETATM    6  C15 UNL     1      -4.934  -0.281   2.193  1.00  0.00     0.100 C 
HETATM    7  N2  UNL     1      -5.455  -0.417   3.236  1.00  0.00    -0.191 NA
HETATM    8  C16 UNL     1      -2.966  -0.414   0.849  1.00  0.00     0.035 A 
ENDROOT
BRANCH   4   9
HETATM    9  C13 UNL     1      -6.466   0.648  -0.082  1.00  0.00     0.306 C 
BRANCH   9  10
HETATM   10  N1  UNL     1      -6.942   1.084  -1.365  1.00  0.00     0.082 N 
HETATM   11  H13 UNL     1      -7.922   0.857  -1.551  1.00  0.00     0.313 HD
HETATM   12  H14 UNL     1      -6.843   2.119  -1.428  1.00  0.00     0.313 HD
ENDBRANCH   9  10
ENDBRANCH   4   9
BRANCH   1  13
HETATM   13  C8  UNL     1      -0.882  -0.532  -0.691  1.00  0.00    -0.001 C 
HETATM   14  C7  UNL     1       0.040  -0.143   0.163  1.00  0.00     0.063 C 
HETATM   15  O3  UNL     1       0.041  -0.057   1.535  1.00  0.00    -0.328 OA
HETATM   16  C20 UNL     1       1.339   0.285  -0.484  1.00  0.00     0.124 C 
HETATM   17  C6  UNL     1       0.331  -1.257   2.276  1.00  0.00     0.363 C 
HETATM   18  O2  UNL     1       1.508  -1.098   3.052  1.00  0.00    -0.277 OA
HETATM   19  C5  UNL     1       2.698  -0.861   2.557  1.00  0.00     0.056 C 
HETATM   20  C4  UNL     1       3.739  -0.673   2.130  1.00  0.00    -0.071 C 
HETATM   21  C3  UNL     1       5.038  -0.460   1.612  1.00  0.00     0.157 C 
HETATM   22  C2  UNL     1       5.012   0.063   0.181  1.00  0.00     0.275 C 
HETATM   23  O4  UNL     1       4.490  -0.943  -0.651  1.00  0.00    -0.330 OA
HETATM   24  C19 UNL     1       3.161  -1.128  -0.917  1.00  0.00     0.163 C 
HETATM   25  C18 UNL     1       1.871  -1.022  -1.044  1.00  0.00     0.033 C 
HETATM   26  N3  UNL     1       0.882  -1.887  -1.580  1.00  0.00    -0.387 N 
HETATM   27  C17 UNL     1      -0.351  -1.168  -1.923  1.00  0.00     0.161 C 
HETATM   28  H18 UNL     1       1.246  -2.885  -1.623  1.00  0.00     0.159 HD
BRANCH  22  29
HETATM   29  O1  UNL     1       6.334   0.268  -0.256  1.00  0.00    -0.365 OA
HETATM   30  C1  UNL     1       6.483   1.616  -0.629  1.00  0.00     0.204 C 
ENDBRANCH  22  29
ENDBRANCH   1  13
TORSDOF 4
