REMARK  5 active torsions:
REMARK  status: ('A' for Active; 'I' for Inactive)
REMARK    1  A    between atoms: C5_5  and  N1_6 
REMARK    2  A    between atoms: N1_6  and  C6_7 
REMARK    3  A    between atoms: C10_13  and  O1_14 
REMARK    4  A    between atoms: O1_14  and  C11_15 
REMARK    5  A    between atoms: C11_15  and  O2_17 
ROOT
HETATM    1  C1  UNL     1      -7.312  -0.271   0.280  1.00  0.00     0.049 C 
HETATM    2  C2  UNL     1      -5.820  -0.267   0.233  1.00  0.00    -0.041 A 
HETATM    3  C3  UNL     1      -5.217  -1.180   1.039  1.00  0.00     0.010 A 
HETATM    4  C4  UNL     1      -3.850  -1.220   1.037  1.00  0.00     0.030 A 
HETATM    5  C5  UNL     1      -2.988  -0.415   0.287  1.00  0.00     0.035 A 
HETATM    6  C18 UNL     1      -3.686   0.485  -0.505  1.00  0.00     0.052 A 
HETATM    7  C19 UNL     1      -5.060   0.576  -0.549  1.00  0.00     0.052 A 
HETATM    8  C20 UNL     1      -5.791   1.499  -1.363  1.00  0.00     0.100 C 
HETATM    9  N4  UNL     1      -6.377   2.256  -2.015  1.00  0.00    -0.191 NA
ENDROOT
BRANCH   5  10
HETATM   10  N1  UNL     1      -1.562  -0.471   0.272  1.00  0.00    -0.340 N 
HETATM   11  H6  UNL     1      -1.411  -1.493   0.347  1.00  0.00     0.167 HD
BRANCH  10  12
HETATM   12  C6  UNL     1      -0.821   0.712   0.170  1.00  0.00     0.144 A 
HETATM   13  N2  UNL     1      -1.474   1.869   0.135  1.00  0.00    -0.223 NA
HETATM   14  C7  UNL     1      -0.872   3.066   0.046  1.00  0.00     0.236 A 
HETATM   15  N3  UNL     1       0.467   3.123  -0.010  1.00  0.00    -0.241 NA
HETATM   16  C8  UNL     1       1.240   2.030   0.016  1.00  0.00     0.077 A 
HETATM   17  C9  UNL     1       2.632   2.035  -0.039  1.00  0.00     0.072 A 
HETATM   18  C15 UNL     1       0.542   0.848   0.107  1.00  0.00     0.075 A 
HETATM   19  C10 UNL     1       3.406   0.859  -0.006  1.00  0.00     0.110 A 
HETATM   20  C13 UNL     1       2.658  -0.294   0.084  1.00  0.00     0.136 A 
HETATM   21  C14 UNL     1       1.283  -0.314   0.139  1.00  0.00     0.121 A 
HETATM   22  O4  UNL     1       3.451  -1.427   0.113  1.00  0.00    -0.344 OA
HETATM   23  O3  UNL     1       0.737  -1.577   0.227  1.00  0.00    -0.345 OA
HETATM   24  C16 UNL     1       1.444  -2.757  -0.103  1.00  0.00     0.202 C 
HETATM   25  C17 UNL     1       2.862  -2.667   0.452  1.00  0.00     0.202 C 
BRANCH  19  26
HETATM   26  O1  UNL     1       4.706   1.196  -0.074  1.00  0.00    -0.315 OA
BRANCH  26  27
HETATM   27  C11 UNL     1       5.798   0.374  -0.077  1.00  0.00     0.304 C 
HETATM   28  C12 UNL     1       6.635   0.734   1.173  1.00  0.00     0.074 C 
BRANCH  27  29
HETATM   29  O2  UNL     1       6.652   0.606  -1.179  1.00  0.00    -0.166 OA
HETATM   30  F1  UNL     1       6.837  -0.551  -1.786  1.00  0.00    -0.045 F 
ENDBRANCH  27  29
ENDBRANCH  26  27
ENDBRANCH  19  26
ENDBRANCH  10  12
ENDBRANCH   5  10
TORSDOF 5
