REMARK  4 active torsions:
REMARK  status: ('A' for Active; 'I' for Inactive)
REMARK    1  A    between atoms: C2_2  and  C3_3 
REMARK    2  A    between atoms: C3_3  and  O1_5 
REMARK    3  A    between atoms: O1_5  and  C5_6 
REMARK    4  A    between atoms: C7_8  and  N1_9 
ROOT
HETATM    1  C5  UNL     1      -1.173   0.290   0.424  1.00  0.00     0.104 C 
HETATM    2  C6  UNL     1      -0.146  -0.479   0.107  1.00  0.00     0.064 C 
HETATM    3  C7  UNL     1       1.014   0.198  -0.466  1.00  0.00     0.236 A 
HETATM    4  C8  UNL     1       0.953   1.646  -0.284  1.00  0.00     0.040 A 
HETATM    5  C9  UNL     1       2.116   2.327  -0.178  1.00  0.00     0.101 A 
HETATM    6  N2  UNL     1       3.412   1.740  -0.197  1.00  0.00    -0.365 N 
HETATM    7  C10 UNL     1       3.439   0.312  -0.314  1.00  0.00     0.043 A 
HETATM    8  C11 UNL     1       4.664  -0.321  -0.298  1.00  0.00     0.053 A 
HETATM    9  C12 UNL     1       4.711  -1.717  -0.362  1.00  0.00     0.052 A 
HETATM   10  C13 UNL     1       5.985  -2.394  -0.346  1.00  0.00     0.100 C 
HETATM   11  N3  UNL     1       7.015  -2.960  -0.334  1.00  0.00    -0.191 NA
HETATM   12  C14 UNL     1       3.542  -2.484  -0.442  1.00  0.00    -0.041 A 
HETATM   13  C15 UNL     1       3.694  -3.961  -0.505  1.00  0.00     0.050 C 
HETATM   14  C16 UNL     1       2.306  -1.826  -0.458  1.00  0.00     0.021 A 
HETATM   15  C17 UNL     1       2.293  -0.455  -0.395  1.00  0.00     0.016 A 
HETATM   16  C18 UNL     1      -0.218   2.466  -0.023  1.00  0.00     0.115 C 
HETATM   17  C19 UNL     1      -1.294   1.742   0.362  1.00  0.00     0.136 C 
HETATM   18  O2  UNL     1      -2.442   2.461   0.671  1.00  0.00    -0.344 OA
HETATM   19  C20 UNL     1      -2.603   3.812   0.250  1.00  0.00     0.202 C 
HETATM   20  C21 UNL     1      -1.311   4.534   0.532  1.00  0.00     0.202 C 
HETATM   21  O3  UNL     1      -0.251   3.842  -0.150  1.00  0.00    -0.345 OA
HETATM   22  H14 UNL     1       4.277   2.280  -0.134  1.00  0.00     0.165 HD
ENDROOT
BRANCH   3  23
HETATM   23  N1  UNL     1       0.629   0.114  -1.988  1.00  0.00     0.101 N 
HETATM   24  H11 UNL     1       1.373   0.652  -2.475  1.00  0.00     0.315 HD
HETATM   25  H12 UNL     1       0.627  -0.891  -2.211  1.00  0.00     0.315 HD
ENDBRANCH   3  23
BRANCH   1  26
HETATM   26  O1  UNL     1      -2.347  -0.290   0.947  1.00  0.00    -0.344 OA
BRANCH  26  27
HETATM   27  C3  UNL     1      -3.347  -0.868   0.157  1.00  0.00     0.124 C 
HETATM   28  C4  UNL     1      -4.004   0.096  -0.780  1.00  0.00     0.040 C 
BRANCH  27  29
HETATM   29  C2  UNL     1      -4.424  -1.368   1.128  1.00  0.00     0.027 C 
HETATM   30  C1  UNL     1      -3.738  -2.348   2.075  1.00  0.00     0.007 C 
ENDBRANCH  27  29
ENDBRANCH  26  27
ENDBRANCH   1  26
TORSDOF 4
