REMARK  3 active torsions:
REMARK  status: ('A' for Active; 'I' for Inactive)
REMARK    1  A    between atoms: C2_2  and  O1_3 
REMARK    2  A    between atoms: C2_2  and  O2_6 
REMARK    3  A    between atoms: O2_6  and  C4_7 
ROOT
HETATM    1  C4  UNL     1       0.891  -0.677  -0.425  1.00  0.00     0.144 A 
HETATM    2  C5  UNL     1       0.029  -0.405  -1.677  1.00  0.00     0.092 A 
HETATM    3  C6  UNL     1      -0.634   0.526  -2.267  1.00  0.00     0.033 A 
HETATM    4  C7  UNL     1       0.722   0.605  -2.907  1.00  0.00     0.097 C 
HETATM    5  N1  UNL     1       1.688  -0.202  -2.558  1.00  0.00    -0.290 NA
HETATM    6  C8  UNL     1       2.086  -0.105  -1.164  1.00  0.00     0.194 C 
HETATM    7  P2  UNL     1       2.117   1.775  -0.870  1.00  0.00    -0.005 P 
HETATM    8  N2  UNL     1       0.753   2.509   0.020  1.00  0.00    -0.384 N 
HETATM    9  C9  UNL     1      -0.754   2.536   0.045  1.00  0.00     0.067 A 
HETATM   10  C10 UNL     1      -1.280   1.853   1.094  1.00  0.00     0.057 A 
HETATM   11  C11 UNL     1      -2.441   1.156   0.830  1.00  0.00    -0.027 A 
HETATM   12  C12 UNL     1      -2.076   1.774  -0.328  1.00  0.00     0.038 A 
HETATM   13  C13 UNL     1      -1.638   2.428  -1.444  1.00  0.00     0.109 A 
HETATM   14  C14 UNL     1      -2.317   2.499  -2.736  1.00  0.00     0.077 C 
HETATM   15  N3  UNL     1      -2.863   2.563  -3.744  1.00  0.00    -0.196 NA
HETATM   16  C15 UNL     1      -0.444   3.125  -1.142  1.00  0.00     0.007 A 
HETATM   17  C16 UNL     1      -2.610   0.488  -1.017  1.00  0.00    -0.021 C 
HETATM   18  C17 UNL     1      -1.426  -0.179  -1.153  1.00  0.00     0.038 A 
HETATM   19  C18 UNL     1      -0.717  -1.321  -0.395  1.00  0.00     0.131 A 
HETATM   20  C19 UNL     1       0.485  -2.052  -0.295  1.00  0.00     0.098 A 
HETATM   21  O3  UNL     1       0.355  -3.364  -0.165  1.00  0.00    -0.351 OA
HETATM   22  C20 UNL     1      -0.966  -3.932  -0.183  1.00  0.00     0.201 C 
HETATM   23  C21 UNL     1      -1.784  -3.133   0.798  1.00  0.00     0.196 C 
HETATM   24  O4  UNL     1      -1.635  -1.759   0.514  1.00  0.00    -0.370 OA
HETATM   25  H10 UNL     1       2.445   2.470  -2.085  1.00  0.00     0.082 HD
HETATM   26  H11 UNL     1       1.536   2.962   0.584  1.00  0.00     0.159 HD
ENDROOT
BRANCH   1  27
HETATM   27  O2  UNL     1       0.690   0.071   0.691  1.00  0.00    -0.363 OA
BRANCH  27  28
HETATM   28  C2  UNL     1       1.513  -0.423   1.707  1.00  0.00     0.147 C 
HETATM   29  C1  UNL     1       0.561  -1.023   2.778  1.00  0.00     0.042 C 
BRANCH  28  30
HETATM   30  O1  UNL     1       2.307   0.500   2.364  1.00  0.00     0.000 OA
HETATM   31  C3  UNL     1       3.659   0.626   2.094  1.00  0.00     0.009 A 
HETATM   32  P1  UNL     1       2.910   1.713   3.139  1.00  0.00    -0.076 P 
HETATM   33  H6  UNL     1       1.486   1.504   3.364  1.00  0.00     0.066 HD
ENDBRANCH  28  30
ENDBRANCH  27  28
ENDBRANCH   1  27
TORSDOF 3
