REMARK  7 active torsions:
REMARK  status: ('A' for Active; 'I' for Inactive)
REMARK    1  A    between atoms: C2_2  and  C3_3 
REMARK    2  A    between atoms: C4_4  and  N1_5 
REMARK    3  A    between atoms: N1_5  and  C5_6 
REMARK    4  A    between atoms: C9_12  and  O1_13 
REMARK    5  A    between atoms: O1_13  and  C10_14 
REMARK    6  A    between atoms: C10_14  and  O2_16 
REMARK    7  A    between atoms: O2_16  and  C12_17 
ROOT
HETATM    1  C5  UNL     1       2.046   1.565  -1.485  1.00  0.00     0.144 A 
HETATM    2  N2  UNL     1       1.927   2.405  -2.537  1.00  0.00    -0.223 NA
HETATM    3  C6  UNL     1       0.750   2.733  -3.068  1.00  0.00     0.236 A 
HETATM    4  N3  UNL     1      -0.307   2.168  -2.482  1.00  0.00    -0.241 NA
HETATM    5  C7  UNL     1      -0.268   1.344  -1.458  1.00  0.00     0.077 A 
HETATM    6  C8  UNL     1      -1.486   0.881  -1.012  1.00  0.00     0.072 A 
HETATM    7  C9  UNL     1      -1.501   0.009   0.070  1.00  0.00     0.110 A 
HETATM    8  C14 UNL     1      -0.266  -0.339   0.633  1.00  0.00     0.136 A 
HETATM    9  C15 UNL     1       0.936   0.142   0.162  1.00  0.00     0.121 A 
HETATM   10  C16 UNL     1       0.942   0.999  -0.902  1.00  0.00     0.075 A 
HETATM   11  O3  UNL     1       2.136  -0.204   0.718  1.00  0.00    -0.345 OA
HETATM   12  C17 UNL     1       2.258  -0.648   2.040  1.00  0.00     0.202 C 
HETATM   13  C18 UNL     1       0.911  -0.798   2.695  1.00  0.00     0.202 C 
HETATM   14  O4  UNL     1      -0.048  -1.195   1.723  1.00  0.00    -0.344 OA
ENDROOT
BRANCH   1  15
HETATM   15  N1  UNL     1       3.326   1.264  -0.982  1.00  0.00    -0.350 N 
HETATM   16  H6  UNL     1       4.108   1.786  -1.486  1.00  0.00     0.166 HD
BRANCH  15  17
HETATM   17  C4  UNL     1       4.385   0.724  -0.225  1.00  0.00     0.090 C 
HETATM   18  C3  UNL     1       5.056  -0.367  -0.646  1.00  0.00     0.016 C 
BRANCH  18  19
HETATM   19  C2  UNL     1       6.126  -0.907   0.126  1.00  0.00    -0.009 C 
HETATM   20  C1  UNL     1       6.774  -1.997  -0.324  1.00  0.00     0.011 C 
ENDBRANCH  18  19
ENDBRANCH  15  17
ENDBRANCH   1  15
BRANCH   7  21
HETATM   21  O1  UNL     1      -2.604  -0.547   0.643  1.00  0.00    -0.318 OA
BRANCH  21  22
HETATM   22  C10 UNL     1      -3.941  -0.397   0.314  1.00  0.00     0.262 C 
HETATM   23  C11 UNL     1      -4.617  -1.683  -0.100  1.00  0.00     0.071 C 
BRANCH  22  24
HETATM   24  O2  UNL     1      -4.602   0.197   1.402  1.00  0.00    -0.362 OA
BRANCH  24  25
HETATM   25  C12 UNL     1      -5.099   1.431   0.949  1.00  0.00     0.166 C 
HETATM   26  C13 UNL     1      -6.063   1.289  -0.197  1.00  0.00     0.033 C 
ENDBRANCH  24  25
ENDBRANCH  22  24
ENDBRANCH  21  22
ENDBRANCH   7  21
TORSDOF 7
