REMARK  7 active torsions:
REMARK  status: ('A' for Active; 'I' for Inactive)
REMARK    1  A    between atoms: C2_2  and  O1_3 
REMARK    2  A    between atoms: O1_3  and  C3_4 
REMARK    3  A    between atoms: C3_4  and  O2_6 
REMARK    4  A    between atoms: O2_6  and  C5_7 
REMARK    5  A    between atoms: N2_12  and  C9_13 
REMARK    6  A    between atoms: C9_13  and  N3_14 
REMARK    7  A    between atoms: N3_14  and  C10_15 
ROOT
HETATM    1  C10 UNL     1       5.438   1.374  -0.468  1.00  0.00     0.030 A 
HETATM    2  C11 UNL     1       6.094   0.177  -0.269  1.00  0.00     0.032 A 
HETATM    3  C12 UNL     1       7.481   0.112  -0.406  1.00  0.00     0.046 A 
HETATM    4  C13 UNL     1       8.219   1.249  -0.745  1.00  0.00     0.137 A 
HETATM    5  F1  UNL     1       9.580   1.169  -0.876  1.00  0.00    -0.204 F 
HETATM    6  C14 UNL     1       7.549   2.455  -0.945  1.00  0.00     0.085 A 
HETATM    7  C15 UNL     1       8.292   3.647  -1.296  1.00  0.00     0.102 C 
HETATM    8  N4  UNL     1       8.903   4.592  -1.574  1.00  0.00    -0.191 NA
HETATM    9  C16 UNL     1       6.175   2.495  -0.803  1.00  0.00     0.055 A 
ENDROOT
BRANCH   1  10
HETATM   10  N3  UNL     1       4.014   1.412  -0.320  1.00  0.00    -0.372 N 
HETATM   11  H14 UNL     1       3.525   2.341  -0.478  1.00  0.00     0.161 HD
BRANCH  10  12
HETATM   12  C9  UNL     1       3.359   0.167   0.037  1.00  0.00     0.272 C 
BRANCH  12  13
HETATM   13  N2  UNL     1       1.927   0.469   0.127  1.00  0.00    -0.255 NA
HETATM   14  C8  UNL     1       1.191  -0.486   0.639  1.00  0.00     0.124 C 
HETATM   15  N1  UNL     1      -0.186  -0.281   0.761  1.00  0.00    -0.246 NA
HETATM   16  C17 UNL     1       1.265  -1.854   1.201  1.00  0.00     0.106 C 
HETATM   17  C7  UNL     1      -0.838   0.790   0.954  1.00  0.00     0.121 C 
HETATM   18  C6  UNL     1      -2.285   0.723   1.041  1.00  0.00     0.056 C 
HETATM   19  C5  UNL     1      -3.158  -0.265   0.971  1.00  0.00     0.075 C 
HETATM   20  C20 UNL     1      -2.688  -1.595   0.776  1.00  0.00     0.061 C 
HETATM   21  C19 UNL     1      -2.188  -2.784   0.597  1.00  0.00     0.137 C 
HETATM   22  O3  UNL     1      -0.970  -2.189   0.619  1.00  0.00    -0.363 OA
HETATM   23  C18 UNL     1       0.289  -2.764   0.436  1.00  0.00     0.182 C 
BRANCH  19  24
HETATM   24  O2  UNL     1      -4.453   0.207   1.113  1.00  0.00    -0.321 OA
BRANCH  24  25
HETATM   25  C3  UNL     1      -5.622  -0.347   0.613  1.00  0.00     0.262 C 
HETATM   26  C4  UNL     1      -6.048  -1.634   1.271  1.00  0.00     0.071 C 
BRANCH  25  27
HETATM   27  O1  UNL     1      -6.670   0.563   0.783  1.00  0.00    -0.362 OA
BRANCH  27  28
HETATM   28  C2  UNL     1      -7.161   0.895  -0.462  1.00  0.00     0.166 C 
HETATM   29  C1  UNL     1      -6.078   1.536  -1.290  1.00  0.00     0.033 C 
ENDBRANCH  27  28
ENDBRANCH  25  27
ENDBRANCH  24  25
ENDBRANCH  19  24
ENDBRANCH  12  13
ENDBRANCH  10  12
ENDBRANCH   1  10
TORSDOF 7
