REMARK  9 active torsions:
REMARK  status: ('A' for Active; 'I' for Inactive)
REMARK    1  A    between atoms: C2_2  and  O1_3 
REMARK    2  A    between atoms: O1_3  and  C3_4 
REMARK    3  A    between atoms: C3_4  and  C4_6 
REMARK    4  A    between atoms: C8_12  and  N3_13 
REMARK    5  A    between atoms: N3_13  and  C9_14 
REMARK    6  A    between atoms: C16_23  and  O3_24 
REMARK    7  A    between atoms: O3_24  and  C17_25 
REMARK    8  A    between atoms: C17_25  and  C18_26 
REMARK    9  A    between atoms: C18_26  and  O4_27 
ROOT
HETATM    1  C9  UNL     1      -3.183   0.483  -0.018  1.00  0.00     0.031 A 
HETATM    2  C10 UNL     1      -3.977   1.634   0.039  1.00  0.00     0.032 A 
HETATM    3  C11 UNL     1      -5.259   1.569   0.499  1.00  0.00     0.046 A 
HETATM    4  C12 UNL     1      -5.859   0.405   0.931  1.00  0.00     0.137 A 
HETATM    5  F1  UNL     1      -7.138   0.469   1.366  1.00  0.00    -0.204 F 
HETATM    6  C13 UNL     1      -5.102  -0.747   0.887  1.00  0.00     0.085 A 
HETATM    7  C14 UNL     1      -5.699  -1.974   1.330  1.00  0.00     0.102 C 
HETATM    8  N4  UNL     1      -6.196  -2.964   1.675  1.00  0.00    -0.191 NA
HETATM    9  C15 UNL     1      -3.807  -0.667   0.419  1.00  0.00     0.055 A 
ENDROOT
BRANCH   1  10
HETATM   10  N3  UNL     1      -1.862   0.508  -0.481  1.00  0.00    -0.362 N 
HETATM   11  H10 UNL     1      -1.496   1.460  -0.781  1.00  0.00     0.162 HD
BRANCH  10  12
HETATM   12  C8  UNL     1      -0.925  -0.658  -0.595  1.00  0.00     0.264 C 
HETATM   13  N2  UNL     1      -1.436  -1.603  -1.496  1.00  0.00    -0.251 NA
HETATM   14  C7  UNL     1      -1.356  -2.902  -1.268  1.00  0.00     0.224 C 
HETATM   15  N1  UNL     1      -0.756  -3.498  -0.120  1.00  0.00    -0.272 NA
HETATM   16  C6  UNL     1       0.376  -3.199   0.364  1.00  0.00     0.161 C 
HETATM   17  C5  UNL     1       1.723  -2.629   0.690  1.00  0.00     0.020 C 
HETATM   18  C4  UNL     1       2.333  -1.563   0.133  1.00  0.00     0.040 C 
HETATM   19  C19 UNL     1       1.700  -0.465  -0.621  1.00  0.00     0.053 C 
HETATM   20  C16 UNL     1       0.409  -0.148  -0.893  1.00  0.00     0.091 C 
BRANCH  18  21
HETATM   21  C3  UNL     1       3.649  -1.329   0.671  1.00  0.00     0.293 C 
HETATM   22  O2  UNL     1       4.164  -2.046   1.565  1.00  0.00    -0.259 OA
BRANCH  21  23
HETATM   23  O1  UNL     1       4.434  -0.297   0.236  1.00  0.00    -0.318 OA
BRANCH  23  24
HETATM   24  C2  UNL     1       5.715  -0.007   0.706  1.00  0.00     0.174 C 
HETATM   25  C1  UNL     1       5.764   0.295   2.171  1.00  0.00     0.034 C 
ENDBRANCH  23  24
ENDBRANCH  21  23
ENDBRANCH  18  21
BRANCH  20  26
HETATM   26  O3  UNL     1       0.315   1.004  -1.704  1.00  0.00    -0.349 OA
BRANCH  26  27
HETATM   27  C17 UNL     1       0.892   2.234  -1.410  1.00  0.00     0.201 C 
BRANCH  27  28
HETATM   28  C18 UNL     1       0.501   3.204  -2.535  1.00  0.00     0.190 C 
BRANCH  28  29
HETATM   29  O4  UNL     1      -0.857   3.365  -2.649  1.00  0.00    -0.399 OA
HETATM   30  H18 UNL     1      -1.246   3.866  -1.893  1.00  0.00     0.209 HD
ENDBRANCH  28  29
ENDBRANCH  27  28
ENDBRANCH  26  27
ENDBRANCH  20  26
ENDBRANCH  10  12
ENDBRANCH   1  10
TORSDOF 9
