REMARK  6 active torsions:
REMARK  status: ('A' for Active; 'I' for Inactive)
REMARK    1  A    between atoms: N1_1  and  C1_2 
REMARK    2  A    between atoms: C2_3  and  S1_4 
REMARK    3  A    between atoms: S1_4  and  C3_5 
REMARK    4  A    between atoms: C3_5  and  C4_6 
REMARK    5  A    between atoms: C8_10  and  N2_11 
REMARK    6  A    between atoms: N2_11  and  C9_12 
ROOT
HETATM    1  C1  UNL     1       0.620  -2.416  -1.415  1.00  0.00     0.025 A 
HETATM    2  C2  UNL     1       0.574  -1.293  -0.734  1.00  0.00     0.077 A 
HETATM    3  C8  UNL     1      -0.753  -0.775  -0.496  1.00  0.00     0.142 A 
HETATM    4  N3  UNL     1      -1.514  -1.633  -1.063  1.00  0.00    -0.266 NA
HETATM    5  C15 UNL     1      -0.802  -2.715  -1.680  1.00  0.00     0.203 A 
ENDROOT
BRANCH   3   6
HETATM    6  N2  UNL     1      -1.136   0.406   0.190  1.00  0.00    -0.340 N 
HETATM    7  H6  UNL     1      -0.420   1.083   0.520  1.00  0.00     0.167 HD
BRANCH   6   8
HETATM    8  C9  UNL     1      -2.485   0.726   0.464  1.00  0.00     0.035 A 
HETATM    9  C10 UNL     1      -3.151   0.442   1.638  1.00  0.00     0.032 A 
HETATM   10  C11 UNL     1      -4.469   0.754   1.906  1.00  0.00     0.046 A 
HETATM   11  C12 UNL     1      -5.113   1.400   0.875  1.00  0.00     0.138 A 
HETATM   12  F1  UNL     1      -6.430   1.743   1.071  1.00  0.00    -0.204 F 
HETATM   13  C13 UNL     1      -4.548   1.732  -0.337  1.00  0.00     0.074 A 
HETATM   14 CL1  UNL     1      -5.508   2.556  -1.548  1.00  0.00    -0.081 Cl
HETATM   15  C14 UNL     1      -3.226   1.384  -0.522  1.00  0.00     0.056 A 
ENDBRANCH   6   8
ENDBRANCH   3   6
BRANCH   2  16
HETATM   16  S1  UNL     1       2.016  -0.553  -0.196  1.00  0.00    -0.041 SA
BRANCH  16  17
HETATM   17  C3  UNL     1       3.247   0.059   0.242  1.00  0.00    -0.067 C 
BRANCH  17  18
HETATM   18  C4  UNL     1       4.422   0.631   0.680  1.00  0.00     0.017 A 
HETATM   19  C5  UNL     1       5.284   1.455   0.055  1.00  0.00     0.020 A 
HETATM   20  C6  UNL     1       6.021   1.402   1.299  1.00  0.00     0.003 A 
HETATM   21  C7  UNL     1       5.188   0.597   1.923  1.00  0.00     0.020 A 
ENDBRANCH  17  18
ENDBRANCH  16  17
ENDBRANCH   2  16
BRANCH   1  22
HETATM   22  N1  UNL     1       1.882  -3.006  -1.698  1.00  0.00    -0.303 NA
HETATM   23  H1  UNL     1       2.577  -2.574  -2.318  1.00  0.00     0.124 HD
HETATM   24  H2  UNL     1       2.575  -2.532  -2.343  1.00  0.00     0.124 HD
ENDBRANCH   1  22
TORSDOF 6
