REMARK  0 active torsions:
REMARK  status: ('A' for Active; 'I' for Inactive)
ROOT
HETATM    1  C1  UNL     1      -3.467   2.794  -0.063  1.00  0.00     0.071 C 
HETATM    2  C2  UNL     1      -2.743   1.398  -0.038  1.00  0.00     0.264 C 
HETATM    3  O1  UNL     1      -3.355   0.602   0.816  1.00  0.00    -0.358 OA
HETATM    4  C3  UNL     1      -4.119  -0.446   0.535  1.00  0.00     0.198 C 
HETATM    5  C4  UNL     1      -3.680  -1.585  -0.213  1.00  0.00    -0.001 C 
HETATM    6  C5  UNL     1      -3.118  -2.561  -0.920  1.00  0.00     0.001 C 
HETATM    7  C6  UNL     1      -1.786  -2.347  -1.278  1.00  0.00     0.044 C 
HETATM    8  C7  UNL     1      -0.557  -2.217  -1.643  1.00  0.00     0.139 C 
HETATM    9  F1  UNL     1      -0.894  -3.455  -2.165  1.00  0.00    -0.204 F 
HETATM   10  C8  UNL     1       0.784  -1.897  -1.915  1.00  0.00     0.108 C 
HETATM   11  C9  UNL     1       1.776  -2.471  -2.685  1.00  0.00     0.104 C 
HETATM   12  N1  UNL     1       2.592  -2.931  -3.333  1.00  0.00    -0.191 NA
HETATM   13  C10 UNL     1       1.102  -0.818  -1.250  1.00  0.00     0.071 C 
HETATM   14  C11 UNL     1       2.262   0.041  -1.083  1.00  0.00     0.193 C 
HETATM   15  N2  UNL     1       1.692   1.348  -1.665  1.00  0.00    -0.380 N 
HETATM   16  C12 UNL     1       0.170   1.535  -1.726  1.00  0.00     0.141 C 
HETATM   17  C13 UNL     1      -0.438   1.182  -0.559  1.00  0.00     0.166 C 
HETATM   18  O2  UNL     1      -1.365   1.768   0.255  1.00  0.00    -0.303 OA
HETATM   19  N3  UNL     1       0.185  -0.171  -0.334  1.00  0.00    -0.301 N 
HETATM   20  C14 UNL     1      -0.062  -0.402   1.076  1.00  0.00     0.102 C 
HETATM   21  C15 UNL     1       1.055  -0.633   1.870  1.00  0.00     0.057 C 
HETATM   22  C16 UNL     1       2.451  -0.155   1.556  1.00  0.00     0.101 C 
HETATM   23  C17 UNL     1       2.795   0.204   0.267  1.00  0.00     0.108 C 
HETATM   24  O3  UNL     1       3.996   0.927   0.287  1.00  0.00    -0.348 OA
HETATM   25  C18 UNL     1       4.979   0.725   1.280  1.00  0.00     0.202 C 
HETATM   26  C19 UNL     1       4.281   0.987   2.630  1.00  0.00     0.202 C 
HETATM   27  O4  UNL     1       3.321  -0.108   2.670  1.00  0.00    -0.346 OA
HETATM   28  H11 UNL     1       2.127   2.233  -2.094  1.00  0.00     0.160 HD
ENDROOT
TORSDOF 0
