REMARK  4 active torsions:
REMARK  status: ('A' for Active; 'I' for Inactive)
REMARK    1  A    between atoms: P1_2  and  O1_3 
REMARK    2  A    between atoms: O1_3  and  C2_4 
REMARK    3  A    between atoms: C2_4  and  O2_6 
REMARK    4  A    between atoms: O2_6  and  C4_7 
ROOT
HETATM    1  C4  UNL     1       1.532  -0.387   0.649  1.00  0.00     0.110 A 
HETATM    2  C5  UNL     1       0.425  -0.255   1.490  1.00  0.00     0.072 A 
HETATM    3  C6  UNL     1      -0.874  -0.196   0.964  1.00  0.00     0.070 A 
HETATM    4  C7  UNL     1      -1.041  -0.271  -0.402  1.00  0.00     0.029 A 
HETATM    5  C8  UNL     1       0.027  -0.400  -1.256  1.00  0.00     0.117 A 
HETATM    6  C9  UNL     1       1.282  -0.455  -0.700  1.00  0.00     0.136 A 
HETATM    7  O3  UNL     1       2.416  -0.584  -1.468  1.00  0.00    -0.344 OA
HETATM    8  C10 UNL     1       2.393  -0.480  -2.878  1.00  0.00     0.202 C 
HETATM    9  C11 UNL     1       1.092   0.152  -3.325  1.00  0.00     0.202 C 
HETATM   10  O4  UNL     1       0.030  -0.488  -2.640  1.00  0.00    -0.345 OA
HETATM   11  C12 UNL     1      -2.315  -0.202  -0.751  1.00  0.00     0.055 A 
HETATM   12  C13 UNL     1      -3.083  -0.068   0.511  1.00  0.00     0.272 A 
HETATM   13  C14 UNL     1      -3.957  -1.274   0.728  1.00  0.00     0.101 C 
HETATM   14  C15 UNL     1      -5.025  -1.091   1.722  1.00  0.00     0.020 C 
HETATM   15  C16 UNL     1      -6.109  -0.317   1.831  1.00  0.00     0.112 C 
HETATM   16  F1  UNL     1      -6.849  -0.480   2.962  1.00  0.00    -0.206 F 
HETATM   17  C17 UNL     1      -6.655   0.710   0.915  1.00  0.00     0.039 C 
HETATM   18  C18 UNL     1      -6.062   1.426  -0.059  1.00  0.00     0.006 C 
HETATM   19  C19 UNL     1      -4.641   1.443  -0.567  1.00  0.00     0.301 C 
HETATM   20  N1  UNL     1      -3.796   1.191   0.575  1.00  0.00     0.121 N 
HETATM   21  N2  UNL     1      -2.037  -0.079   1.507  1.00  0.00    -0.243 NA
HETATM   22  H22 UNL     1      -3.106   1.948   0.664  1.00  0.00     0.320 HD
ENDROOT
BRANCH   1  23
HETATM   23  O2  UNL     1       2.680  -0.422   1.395  1.00  0.00    -0.318 OA
BRANCH  23  24
HETATM   24  C2  UNL     1       3.999  -0.541   0.999  1.00  0.00     0.266 C 
HETATM   25  C3  UNL     1       4.664  -1.778   1.629  1.00  0.00     0.071 C 
BRANCH  24  26
HETATM   26  O1  UNL     1       4.793   0.541   1.447  1.00  0.00    -0.337 OA
BRANCH  26  27
HETATM   27  P1  UNL     1       5.716   1.224   0.132  1.00  0.00     0.011 P 
HETATM   28  C1  UNL     1       7.527   1.274   0.542  1.00  0.00     0.072 C 
HETATM   29  H4  UNL     1       5.221   2.543  -0.202  1.00  0.00     0.087 HD
ENDBRANCH  26  27
ENDBRANCH  24  26
ENDBRANCH  23  24
ENDBRANCH   1  23
TORSDOF 4
