REMARK  6 active torsions:
REMARK  status: ('A' for Active; 'I' for Inactive)
REMARK    1  A    between atoms: O1_2  and  C2_3 
REMARK    2  A    between atoms: C2_3  and  O2_5 
REMARK    3  A    between atoms: O2_5  and  C4_6 
REMARK    4  A    between atoms: C4_6  and  C5_7 
REMARK    5  A    between atoms: C6_8  and  C7_9 
REMARK    6  A    between atoms: C7_9  and  C8_10 
ROOT
HETATM    1  C5  UNL     1       0.904  -1.048  -0.182  1.00  0.00     0.099 C 
HETATM    2  C6  UNL     1      -0.346  -1.250   0.274  1.00  0.00     0.079 C 
HETATM    3  O3  UNL     1      -0.992  -2.423  -0.025  1.00  0.00    -0.351 OA
HETATM    4  C13 UNL     1      -0.247  -3.525  -0.486  1.00  0.00     0.202 C 
HETATM    5  C14 UNL     1       0.818  -3.127  -1.457  1.00  0.00     0.202 C 
HETATM    6  O4  UNL     1       1.533  -2.017  -0.947  1.00  0.00    -0.349 OA
ENDROOT
BRANCH   2   7
HETATM    7  C7  UNL     1      -1.177  -0.335   1.101  1.00  0.00     0.094 C 
BRANCH   7   8
HETATM    8  C8  UNL     1      -2.466   0.036   0.393  1.00  0.00     0.104 C 
HETATM    9  C9  UNL     1      -3.227   0.951   1.298  1.00  0.00     0.145 C 
HETATM   10  N1  UNL     1      -4.662   0.818   1.146  1.00  0.00    -0.383 N 
HETATM   11  C10 UNL     1      -5.490   1.018   0.006  1.00  0.00     0.202 C 
HETATM   12  H15 UNL     1      -5.133   0.531   2.019  1.00  0.00     0.160 HD
HETATM   13  N2  UNL     1      -5.384   1.211  -1.274  1.00  0.00    -0.255 NA
HETATM   14  C11 UNL     1      -4.224   1.305  -2.128  1.00  0.00     0.134 C 
HETATM   15  C12 UNL     1      -2.936   1.060  -1.938  1.00  0.00     0.102 C 
HETATM   16  N3  UNL     1      -2.099   0.612  -0.877  1.00  0.00    -0.391 N 
HETATM   17  H19 UNL     1      -1.107   0.792  -1.214  1.00  0.00     0.159 HD
ENDBRANCH   7   8
ENDBRANCH   2   7
BRANCH   1  18
HETATM   18  C4  UNL     1       1.820   0.119  -0.007  1.00  0.00     0.238 C 
BRANCH  18  19
HETATM   19  O2  UNL     1       2.980  -0.307   0.635  1.00  0.00    -0.355 OA
BRANCH  19  20
HETATM   20  C2  UNL     1       3.869   0.735   0.824  1.00  0.00     0.255 C 
HETATM   21  C3  UNL     1       4.176   0.989   2.278  1.00  0.00     0.070 C 
BRANCH  20  22
HETATM   22  O1  UNL     1       5.056   0.492   0.138  1.00  0.00    -0.366 OA
HETATM   23  C1  UNL     1       5.328   1.458  -0.814  1.00  0.00     0.204 C 
ENDBRANCH  20  22
ENDBRANCH  19  20
ENDBRANCH  18  19
ENDBRANCH   1  18
TORSDOF 6
