REMARK  0 active torsions:
REMARK  status: ('A' for Active; 'I' for Inactive)
ROOT
HETATM    1  B1  UNL     1      -3.946  -0.365  -0.452  1.00  0.00     0.162 B 
HETATM    2  C1  UNL     1      -3.563   1.053   0.112  1.00  0.00    -0.027 C 
HETATM    3  C2  UNL     1      -3.250   1.952  -1.026  1.00  0.00    -0.034 C 
HETATM    4  C3  UNL     1      -2.015   2.460  -1.133  1.00  0.00     0.027 C 
HETATM    5  C4  UNL     1      -0.909   2.189  -0.191  1.00  0.00     0.060 A 
HETATM    6  C5  UNL     1       0.105   1.296  -0.544  1.00  0.00     0.066 A 
HETATM    7  C6  UNL     1       1.135   0.993   0.307  1.00  0.00     0.096 A 
HETATM    8  N1  UNL     1       1.058   1.636   1.484  1.00  0.00    -0.239 NA
HETATM    9  C7  UNL     1       0.114   2.489   1.852  1.00  0.00     0.234 A 
HETATM   10  N2  UNL     1      -0.893   2.780   1.011  1.00  0.00    -0.242 NA
HETATM   11  C8  UNL     1       2.230   0.070   0.049  1.00  0.00     0.127 C 
HETATM   12  C9  UNL     1       2.266  -1.227  -0.267  1.00  0.00     0.084 C 
HETATM   13  C10 UNL     1       0.887  -1.844  -0.375  1.00  0.00     0.093 C 
HETATM   14  C11 UNL     1       0.263  -2.002   0.963  1.00  0.00     0.174 C 
HETATM   15  O1  UNL     1      -1.062  -2.399   0.893  1.00  0.00    -0.392 OA
HETATM   16  C12 UNL     1      -1.806  -1.399   0.319  1.00  0.00     0.157 C 
HETATM   17  C13 UNL     1      -3.302  -1.650   0.273  1.00  0.00    -0.027 C 
HETATM   18  O2  UNL     1       3.500  -1.811  -0.446  1.00  0.00    -0.350 OA
HETATM   19  C14 UNL     1       4.670  -1.094  -0.784  1.00  0.00     0.202 C 
HETATM   20  C15 UNL     1       4.700   0.274  -0.157  1.00  0.00     0.202 C 
HETATM   21  O3  UNL     1       3.409   0.749   0.177  1.00  0.00    -0.344 OA
HETATM   22  H1  UNL     1      -4.474  -0.505  -1.515  1.00  0.00    -0.026 HD
ENDROOT
TORSDOF 0
