REMARK  2 active torsions:
REMARK  status: ('A' for Active; 'I' for Inactive)
REMARK    1  A    between atoms: O1_2  and  C2_3 
REMARK    2  A    between atoms: C6_9  and  C7_10 
ROOT
HETATM    1  C2  UNL     1       3.238   0.427   0.684  1.00  0.00     0.160 C 
HETATM    2  C3  UNL     1       2.264   1.312   0.696  1.00  0.00    -0.014 C 
HETATM    3  C4  UNL     1       1.388   2.082   0.700  1.00  0.00     0.043 C 
HETATM    4  N1  UNL     1       0.414   2.911   0.698  1.00  0.00    -0.191 NA
HETATM    5  C5  UNL     1      -0.783   2.534   0.161  1.00  0.00     0.244 C 
HETATM    6  N2  UNL     1      -0.888   1.391  -0.519  1.00  0.00    -0.245 NA
HETATM    7  C6  UNL     1      -0.497   0.232  -0.016  1.00  0.00     0.051 C 
HETATM    8  C17 UNL     1       0.537  -0.620   0.128  1.00  0.00     0.068 C 
HETATM    9  C18 UNL     1       1.695  -1.126  -0.397  1.00  0.00     0.107 C 
HETATM   10  C19 UNL     1       2.958  -0.639  -0.138  1.00  0.00     0.144 C 
HETATM   11  O2  UNL     1       4.054  -1.241  -0.733  1.00  0.00    -0.343 OA
HETATM   12  C20 UNL     1       3.907  -2.542  -1.273  1.00  0.00     0.202 C 
HETATM   13  C21 UNL     1       2.676  -2.511  -2.165  1.00  0.00     0.202 C 
HETATM   14  O3  UNL     1       1.603  -2.213  -1.255  1.00  0.00    -0.346 OA
ENDROOT
BRANCH   7  15
HETATM   15  C7  UNL     1      -1.791  -0.160   0.597  1.00  0.00     0.023 A 
HETATM   16  C8  UNL     1      -1.586  -1.240   1.630  1.00  0.00     0.027 C 
HETATM   17  C9  UNL     1      -2.332   1.047   1.353  1.00  0.00     0.019 A 
HETATM   18  C10 UNL     1      -3.219   2.044   1.652  1.00  0.00     0.092 A 
HETATM   19  C11 UNL     1      -4.207   1.769   0.664  1.00  0.00    -0.088 A 
HETATM   20  C12 UNL     1      -5.046   1.515  -0.191  1.00  0.00    -0.069 A 
HETATM   21  C13 UNL     1      -5.983   1.207  -1.166  1.00  0.00     0.036 A 
HETATM   22  C14 UNL     1      -5.057   0.291  -1.354  1.00  0.00     0.046 A 
HETATM   23  C15 UNL     1      -3.842  -0.470  -1.184  1.00  0.00    -0.020 A 
HETATM   24  C16 UNL     1      -2.735  -0.556  -0.460  1.00  0.00    -0.014 A 
ENDBRANCH   7  15
BRANCH   1  25
HETATM   25  O1  UNL     1       4.389   0.578   1.418  1.00  0.00    -0.345 OA
HETATM   26  C1  UNL     1       5.541   1.238   0.907  1.00  0.00     0.211 C 
ENDBRANCH   1  25
TORSDOF 2
