REMARK  4 active torsions:
REMARK  status: ('A' for Active; 'I' for Inactive)
REMARK    1  A    between atoms: C2_2  and  C3_3 
REMARK    2  A    between atoms: C3_3  and  C4_4 
REMARK    3  A    between atoms: C10_11  and  N2_12 
REMARK    4  A    between atoms: N2_12  and  C11_13 
ROOT
HETATM    1  C4  UNL     1      -1.986  -0.180   0.905  1.00  0.00     0.049 C 
HETATM    2  C5  UNL     1      -3.115   0.158   1.506  1.00  0.00     0.013 C 
HETATM    3  C6  UNL     1      -3.037   1.380   1.977  1.00  0.00    -0.014 C 
HETATM    4  C7  UNL     1      -2.542   2.167   1.027  1.00  0.00     0.016 C 
HETATM    5  C8  UNL     1      -2.221   2.111  -0.433  1.00  0.00     0.298 C 
HETATM    6  N1  UNL     1      -0.904   1.571  -0.666  1.00  0.00     0.089 N 
HETATM    7  C9  UNL     1       0.095   2.463  -0.113  1.00  0.00     0.300 C 
HETATM    8  C10 UNL     1       1.187   1.446   0.336  1.00  0.00     0.150 C 
HETATM    9  C17 UNL     1       0.415   0.431   1.212  1.00  0.00     0.116 C 
HETATM   10  N3  UNL     1      -0.732   0.303   0.870  1.00  0.00    -0.266 NA
HETATM   11  H9  UNL     1      -0.803   1.455  -1.696  1.00  0.00     0.316 HD
ENDROOT
BRANCH   8  12
HETATM   12  N2  UNL     1       1.608   0.777  -0.864  1.00  0.00    -0.379 N 
HETATM   13  H13 UNL     1       1.219   0.972  -1.823  1.00  0.00     0.160 HD
BRANCH  12  14
HETATM   14  C11 UNL     1       2.616  -0.220  -0.771  1.00  0.00     0.030 A 
HETATM   15  C12 UNL     1       3.081  -0.912  -1.876  1.00  0.00     0.029 A 
HETATM   16  C13 UNL     1       4.074  -1.892  -1.781  1.00  0.00     0.004 A 
HETATM   17  C14 UNL     1       4.601  -2.170  -0.538  1.00  0.00     0.024 A 
HETATM   18  C15 UNL     1       4.174  -1.506   0.615  1.00  0.00     0.036 A 
HETATM   19 CL1  UNL     1       4.837  -1.851   2.203  1.00  0.00    -0.084 Cl
HETATM   20  C16 UNL     1       3.193  -0.556   0.429  1.00  0.00     0.052 A 
ENDBRANCH  12  14
ENDBRANCH   8  12
BRANCH   1  21
HETATM   21  C3  UNL     1      -2.031  -1.397   0.039  1.00  0.00     0.086 C 
BRANCH  21  22
HETATM   22  C2  UNL     1      -3.413  -1.930   0.048  1.00  0.00    -0.031 C 
HETATM   23  C1  UNL     1      -4.388  -2.182  -0.809  1.00  0.00     0.007 C 
ENDBRANCH  21  22
ENDBRANCH   1  21
TORSDOF 4
