REMARK  2 active torsions:
REMARK  status: ('A' for Active; 'I' for Inactive)
REMARK    1  A    between atoms: C11_14  and  C12_15 
REMARK    2  A    between atoms: C18_21  and  N3_22 
ROOT
HETATM    1  C1  UNL     1       5.899   2.680   2.733  1.00  0.00     0.025 C 
HETATM    2  C2  UNL     1       5.417   1.852   2.006  1.00  0.00    -0.045 C 
HETATM    3  S1  UNL     1       4.710   0.652   0.912  1.00  0.00    -0.067 SA
HETATM    4  C3  UNL     1       5.572  -0.107  -0.280  1.00  0.00     0.054 A 
HETATM    5  C4  UNL     1       4.740  -1.044  -1.025  1.00  0.00     0.008 A 
HETATM    6  C5  UNL     1       3.473  -1.285  -0.814  1.00  0.00     0.013 A 
HETATM    7  C6  UNL     1       2.488  -0.792   0.123  1.00  0.00     0.013 A 
HETATM    8  C7  UNL     1       2.991   0.125   0.973  1.00  0.00     0.085 A 
HETATM    9  N1  UNL     1       2.521   0.911   2.062  1.00  0.00    -0.345 N 
HETATM   10  C8  UNL     1       1.276   0.944   2.777  1.00  0.00     0.208 C 
HETATM   11  N2  UNL     1       0.060   0.660   2.451  1.00  0.00    -0.243 NA
HETATM   12  C9  UNL     1      -0.547   0.191   1.227  1.00  0.00     0.070 A 
HETATM   13  C10 UNL     1      -1.804   0.757   1.209  1.00  0.00     0.043 A 
HETATM   14  C11 UNL     1      -2.646   0.497   0.152  1.00  0.00    -0.016 A 
HETATM   15  C15 UNL     1      -2.186  -0.327  -0.852  1.00  0.00     0.109 A 
HETATM   16  C16 UNL     1      -0.922  -0.864  -0.782  1.00  0.00     0.113 A 
HETATM   17  C17 UNL     1       0.002  -0.655   0.254  1.00  0.00     0.044 A 
HETATM   18  C18 UNL     1       1.194  -1.436  -0.112  1.00  0.00     0.291 C 
HETATM   19  O1  UNL     1      -0.673  -1.647  -1.876  1.00  0.00    -0.345 OA
HETATM   20  C19 UNL     1      -1.571  -2.363  -2.656  1.00  0.00     0.202 C 
HETATM   21  C20 UNL     1      -2.979  -1.821  -2.629  1.00  0.00     0.202 C 
HETATM   22  O2  UNL     1      -3.033  -0.582  -1.907  1.00  0.00    -0.346 OA
HETATM   23  H5  UNL     1       3.204   1.615   2.436  1.00  0.00     0.167 HD
ENDROOT
BRANCH  18  24
HETATM   24  N3  UNL     1       1.081  -1.741  -1.521  1.00  0.00     0.091 N 
HETATM   25  H16 UNL     1       1.555  -1.011  -2.080  1.00  0.00     0.314 HD
HETATM   26  H17 UNL     1       1.353  -2.678  -1.807  1.00  0.00     0.314 HD
ENDBRANCH  18  24
BRANCH  14  27
HETATM   27  C12 UNL     1      -3.970   1.138   0.206  1.00  0.00     0.013 C 
HETATM   28  C13 UNL     1      -3.999   2.492  -0.441  1.00  0.00     0.015 C 
HETATM   29  C14 UNL     1      -4.516   1.142   1.618  1.00  0.00     0.015 C 
ENDBRANCH  14  27
TORSDOF 2
