REMARK  5 active torsions:
REMARK  status: ('A' for Active; 'I' for Inactive)
REMARK    1  A    between atoms: C7_7  and  N1_8 
REMARK    2  A    between atoms: N1_8  and  P1_9 
REMARK    3  A    between atoms: P1_9  and  C8_10 
REMARK    4  A    between atoms: C12_16  and  O1_17 
REMARK    5  A    between atoms: O1_17  and  C13_18 
ROOT
HETATM    1  C1  UNL     1      -7.811   2.353  -0.171  1.00  0.00     0.017 C 
HETATM    2  C2  UNL     1      -7.395   1.260   0.123  1.00  0.00    -0.089 C 
HETATM    3  C3  UNL     1      -6.893  -0.036   0.493  1.00  0.00     0.075 C 
HETATM    4  C4  UNL     1      -5.662  -0.405   0.181  1.00  0.00    -0.029 A 
HETATM    5  C5  UNL     1      -4.804   0.517  -0.549  1.00  0.00     0.010 A 
HETATM    6  C6  UNL     1      -3.570   0.119  -0.850  1.00  0.00     0.005 A 
HETATM    7  C7  UNL     1      -2.995  -1.208  -0.494  1.00  0.00     0.153 A 
HETATM    8  C20 UNL     1      -3.972  -2.033   0.240  1.00  0.00     0.005 A 
HETATM    9  C21 UNL     1      -5.199  -1.727   0.578  1.00  0.00     0.010 A 
ENDROOT
BRANCH   7  10
HETATM   10  N1  UNL     1      -1.815  -0.966   0.284  1.00  0.00    -0.275 NA
BRANCH  10  11
HETATM   11  P1  UNL     1      -1.260   0.504   0.659  1.00  0.00     0.114 P 
BRANCH  11  12
HETATM   12  C8  UNL     1       0.275   0.554   1.668  1.00  0.00     0.106 A 
HETATM   13  N2  UNL     1       0.202   0.781   3.002  1.00  0.00    -0.238 NA
HETATM   14  C9  UNL     1       1.339   0.814   3.720  1.00  0.00     0.234 A 
HETATM   15  N3  UNL     1       2.555   0.625   3.140  1.00  0.00    -0.241 NA
HETATM   16  C10 UNL     1       2.606   0.401   1.809  1.00  0.00     0.076 A 
HETATM   17  C11 UNL     1       3.830   0.210   1.223  1.00  0.00     0.072 A 
HETATM   18  C17 UNL     1       1.477   0.356   1.023  1.00  0.00     0.061 A 
HETATM   19  C12 UNL     1       3.981  -0.025  -0.126  1.00  0.00     0.107 A 
HETATM   20  C15 UNL     1       2.850  -0.071  -0.927  1.00  0.00     0.136 A 
HETATM   21  C16 UNL     1       1.599   0.122  -0.335  1.00  0.00     0.120 A 
HETATM   22  O3  UNL     1       2.770  -0.292  -2.296  1.00  0.00    -0.344 OA
HETATM   23  O2  UNL     1       0.372   0.105  -0.995  1.00  0.00    -0.345 OA
HETATM   24  C18 UNL     1       0.329  -0.254  -2.371  1.00  0.00     0.202 C 
HETATM   25  C19 UNL     1       1.614  -0.908  -2.811  1.00  0.00     0.202 C 
BRANCH  19  26
HETATM   26  O1  UNL     1       5.144  -0.230  -0.834  1.00  0.00    -0.348 OA
BRANCH  26  27
HETATM   27  C13 UNL     1       6.442  -0.228  -0.231  1.00  0.00     0.171 C 
HETATM   28  C14 UNL     1       6.724   1.103   0.421  1.00  0.00     0.034 C 
ENDBRANCH  26  27
ENDBRANCH  19  26
ENDBRANCH  11  12
ENDBRANCH  10  11
ENDBRANCH   7  10
TORSDOF 5
