REMARK  2 active torsions:
REMARK  status: ('A' for Active; 'I' for Inactive)
REMARK    1  A    between atoms: C4_5  and  N1_6 
REMARK    2  A    between atoms: N1_6  and  C5_7 
ROOT
HETATM    1  C5  UNL     1      -0.794  -0.195  -0.931  1.00  0.00     0.160 A 
HETATM    2  N2  UNL     1      -1.280  -0.773  -2.070  1.00  0.00    -0.222 NA
HETATM    3  C6  UNL     1      -0.456  -1.602  -2.781  1.00  0.00     0.238 A 
HETATM    4  N3  UNL     1       0.800  -1.832  -2.358  1.00  0.00    -0.215 NA
HETATM    5  C7  UNL     1       1.277  -1.255  -1.224  1.00  0.00     0.202 A 
HETATM    6  C8  UNL     1       0.476  -0.416  -0.484  1.00  0.00     0.129 A 
HETATM    7  N4  UNL     1       0.627   0.336   0.699  1.00  0.00    -0.379 N 
HETATM    8  C9  UNL     1       1.775   0.315   1.572  1.00  0.00     0.161 C 
HETATM    9  C10 UNL     1       3.060   0.084   0.898  1.00  0.00    -0.007 A 
HETATM   10  C11 UNL     1       4.073   0.843   1.469  1.00  0.00     0.011 A 
HETATM   11  C12 UNL     1       5.398   0.850   1.061  1.00  0.00     0.001 A 
HETATM   12  C13 UNL     1       5.744   0.032  -0.011  1.00  0.00     0.003 A 
HETATM   13  C14 UNL     1       4.797  -0.759  -0.642  1.00  0.00     0.038 A 
HETATM   14  C15 UNL     1       3.495  -0.696  -0.155  1.00  0.00     0.086 A 
HETATM   15  O1  UNL     1       2.586  -1.532  -0.842  1.00  0.00    -0.289 OA
HETATM   16  H5  UNL     1      -0.176   0.969   0.956  1.00  0.00     0.160 HD
ENDROOT
BRANCH   1  17
HETATM   17  N1  UNL     1      -1.841   0.618  -0.427  1.00  0.00    -0.339 N 
HETATM   18  H3  UNL     1      -1.655   1.663  -0.437  1.00  0.00     0.167 HD
BRANCH  17  19
HETATM   19  C4  UNL     1      -3.108   0.195   0.095  1.00  0.00     0.035 A 
HETATM   20  C3  UNL     1      -3.526  -0.602   1.130  1.00  0.00     0.032 A 
HETATM   21  C2  UNL     1      -4.875  -0.834   1.305  1.00  0.00     0.046 A 
HETATM   22  C1  UNL     1      -5.822  -0.291   0.471  1.00  0.00     0.138 A 
HETATM   23  F1  UNL     1      -7.124  -0.569   0.717  1.00  0.00    -0.204 F 
HETATM   24  C17 UNL     1      -5.443   0.526  -0.596  1.00  0.00     0.074 A 
HETATM   25  C16 UNL     1      -4.083   0.749  -0.756  1.00  0.00     0.056 A 
HETATM   26 CL1  UNL     1      -6.715   1.171  -1.612  1.00  0.00    -0.081 Cl
ENDBRANCH  17  19
ENDBRANCH   1  17
TORSDOF 2
