REMARK  4 active torsions:
REMARK  status: ('A' for Active; 'I' for Inactive)
REMARK    1  A    between atoms: C7_7  and  N1_8 
REMARK    2  A    between atoms: N1_8  and  C8_9 
REMARK    3  A    between atoms: C12_15  and  O1_16 
REMARK    4  A    between atoms: O1_16  and  C13_17 
ROOT
HETATM    1  C1  UNL     1       8.386   1.123  -0.755  1.00  0.00     0.018 C 
HETATM    2  C2  UNL     1       7.309   0.560  -0.865  1.00  0.00    -0.078 C 
HETATM    3  C3  UNL     1       6.040  -0.117  -0.988  1.00  0.00     0.019 A 
HETATM    4  C4  UNL     1       5.889  -1.217  -1.828  1.00  0.00     0.021 A 
HETATM    5  C5  UNL     1       4.655  -1.825  -1.904  1.00  0.00     0.004 A 
HETATM    6  C6  UNL     1       3.598  -1.352  -1.163  1.00  0.00     0.029 A 
HETATM    7  C7  UNL     1       3.690  -0.263  -0.314  1.00  0.00     0.035 A 
HETATM    8  C22 UNL     1       4.949   0.301  -0.282  1.00  0.00     0.050 A 
ENDROOT
BRANCH   7   9
HETATM    9  N1  UNL     1       2.624   0.254   0.468  1.00  0.00    -0.340 N 
HETATM   10  H5  UNL     1       2.829   1.105   1.018  1.00  0.00     0.167 HD
BRANCH   9  11
HETATM   11  C8  UNL     1       1.342  -0.300   0.544  1.00  0.00     0.138 C 
HETATM   12  N2  UNL     1       0.739  -1.356   0.007  1.00  0.00    -0.224 NA
HETATM   13  C9  UNL     1      -0.309  -1.170  -0.811  1.00  0.00     0.234 C 
HETATM   14  N3  UNL     1      -0.684  -2.428  -0.635  1.00  0.00    -0.254 NA
HETATM   15  C10 UNL     1      -1.451  -2.850   0.385  1.00  0.00     0.121 C 
HETATM   16  C11 UNL     1      -2.196  -1.924   1.093  1.00  0.00     0.059 C 
HETATM   17  C12 UNL     1      -2.498  -0.631   0.725  1.00  0.00     0.106 C 
HETATM   18  C16 UNL     1      -2.087   0.634   0.984  1.00  0.00     0.136 C 
HETATM   19  C17 UNL     1      -0.807   1.043   1.260  1.00  0.00     0.114 C 
HETATM   20  O3  UNL     1      -3.084   1.573   0.960  1.00  0.00    -0.344 OA
HETATM   21  C18 UNL     1       0.376   0.320   1.349  1.00  0.00     0.020 C 
HETATM   22  O2  UNL     1      -0.484   2.364   1.514  1.00  0.00    -0.345 OA
HETATM   23  C19 UNL     1       0.832   0.093   2.745  1.00  0.00     0.055 C 
HETATM   24  C20 UNL     1      -1.532   3.318   1.592  1.00  0.00     0.202 C 
HETATM   25  C21 UNL     1      -2.719   2.943   0.734  1.00  0.00     0.202 C 
BRANCH  17  26
HETATM   26  O1  UNL     1      -3.478  -1.063  -0.101  1.00  0.00    -0.344 OA
BRANCH  26  27
HETATM   27  C13 UNL     1      -4.354  -0.399  -0.929  1.00  0.00     0.121 C 
HETATM   28  C14 UNL     1      -4.153  -0.780  -2.402  1.00  0.00     0.040 C 
HETATM   29  C15 UNL     1      -5.814  -0.589  -0.576  1.00  0.00     0.040 C 
ENDBRANCH  26  27
ENDBRANCH  17  26
ENDBRANCH   9  11
ENDBRANCH   7   9
TORSDOF 4
