REMARK  3 active torsions:
REMARK  status: ('A' for Active; 'I' for Inactive)
REMARK    1  A    between atoms: C10_12  and  O1_13 
REMARK    2  A    between atoms: C14_18  and  C16_20 
REMARK    3  A    between atoms: C16_20  and  N3_21 
ROOT
HETATM    1  C1  UNL     1       3.456   1.315   2.398  1.00  0.00     0.013 C 
HETATM    2  C2  UNL     1       2.934   1.549   1.338  1.00  0.00    -0.100 C 
HETATM    3  C3  UNL     1       2.335   1.837   0.072  1.00  0.00     0.144 C 
HETATM    4  C4  UNL     1       0.987   2.228   0.081  1.00  0.00    -0.086 C 
HETATM    5  C5  UNL     1      -0.079   2.516   0.078  1.00  0.00    -0.066 C 
HETATM    6  C6  UNL     1      -1.431   2.854   0.060  1.00  0.00     0.171 A 
HETATM    7  N1  UNL     1      -2.499   2.227  -0.300  1.00  0.00    -0.336 N 
HETATM    8  C7  UNL     1      -3.723   2.862  -0.186  1.00  0.00     0.666 C 
HETATM    9  N2  UNL     1      -4.177   1.739   0.177  1.00  0.00    -0.108 NA
HETATM   10  C8  UNL     1      -3.622   0.490   0.351  1.00  0.00     0.525 C 
HETATM   11  C9  UNL     1      -3.178  -0.722   0.541  1.00  0.00     0.061 C 
HETATM   12  C10 UNL     1      -2.027  -1.608   0.499  1.00  0.00     0.065 C 
HETATM   13  C11 UNL     1      -0.731  -1.615   0.215  1.00  0.00     0.042 C 
HETATM   14  C12 UNL     1      -0.026  -0.414  -0.229  1.00  0.00     0.159 C 
HETATM   15  O2  UNL     1      -0.970   0.337  -0.922  1.00  0.00    -0.362 OA
HETATM   16  C13 UNL     1      -1.119   1.478  -0.412  1.00  0.00     0.298 A 
HETATM   17  C14 UNL     1       1.411  -0.513  -0.545  1.00  0.00     0.003 C 
HETATM   18  C15 UNL     1       2.021  -1.156   0.693  1.00  0.00     0.020 C 
HETATM   19  C17 UNL     1       2.324   0.568  -0.877  1.00  0.00     0.043 C 
ENDROOT
BRANCH  17  20
HETATM   20  C16 UNL     1       1.574  -1.471  -1.680  1.00  0.00     0.123 C 
BRANCH  20  21
HETATM   21  N3  UNL     1       1.141  -2.807  -1.510  1.00  0.00    -0.429 N 
HETATM   22  H16 UNL     1       0.551  -3.205  -2.244  1.00  0.00     0.149 HD
HETATM   23  H17 UNL     1       1.810  -3.440  -1.044  1.00  0.00     0.149 HD
ENDBRANCH  20  21
ENDBRANCH  17  20
BRANCH  12  24
HETATM   24  O1  UNL     1      -2.350  -2.913   0.882  1.00  0.00    -0.361 OA
HETATM   25  H6  UNL     1      -2.468  -3.029   1.891  1.00  0.00     0.217 HD
ENDBRANCH  12  24
TORSDOF 3
