REMARK  7 active torsions:
REMARK  status: ('A' for Active; 'I' for Inactive)
REMARK    1  A    between atoms: C2_3  and  S2_4 
REMARK    2  A    between atoms: S2_4  and  C3_5 
REMARK    3  A    between atoms: C3_5  and  C4_6 
REMARK    4  A    between atoms: C5_7  and  N1_8 
REMARK    5  A    between atoms: N1_8  and  C6_9 
REMARK    6  A    between atoms: C10_15  and  O1_16 
REMARK    7  A    between atoms: O1_16  and  C11_17 
ROOT
HETATM    1  C1  UNL     1       8.573  -1.678  -2.049  1.00  0.00     0.019 C 
HETATM    2  S1  UNL     1       7.854  -0.397  -0.835  1.00  0.00    -0.012 SA
HETATM    3  C2  UNL     1       7.187   0.826   0.284  1.00  0.00    -0.028 C 
ENDROOT
BRANCH   3   4
HETATM    4  S2  UNL     1       6.534   2.026   1.366  1.00  0.00    -0.075 SA
BRANCH   4   5
HETATM    5  C3  UNL     1       4.876   2.516   0.841  1.00  0.00     0.116 C 
BRANCH   5   6
HETATM    6  C4  UNL     1       3.941   1.396   1.039  1.00  0.00     0.001 C 
HETATM    7  C5  UNL     1       2.840   1.020   1.649  1.00  0.00     0.086 C 
BRANCH   7   8
HETATM    8  N1  UNL     1       1.854   0.058   1.946  1.00  0.00    -0.350 N 
HETATM    9  H6  UNL     1       1.313   0.179   2.826  1.00  0.00     0.166 HD
BRANCH   8  10
HETATM   10  C6  UNL     1       1.394  -1.120   1.299  1.00  0.00     0.144 A 
HETATM   11  N2  UNL     1       2.177  -2.222   1.205  1.00  0.00    -0.223 NA
HETATM   12  C7  UNL     1       1.767  -3.345   0.595  1.00  0.00     0.236 A 
HETATM   13  N3  UNL     1       0.533  -3.384   0.057  1.00  0.00    -0.241 NA
HETATM   14  C8  UNL     1      -0.330  -2.355   0.089  1.00  0.00     0.077 A 
HETATM   15  C9  UNL     1      -1.612  -2.384  -0.439  1.00  0.00     0.072 A 
HETATM   16  C16 UNL     1       0.125  -1.218   0.723  1.00  0.00     0.075 A 
HETATM   17  C10 UNL     1      -2.467  -1.266  -0.342  1.00  0.00     0.107 A 
HETATM   18  C14 UNL     1      -1.921  -0.186   0.304  1.00  0.00     0.136 A 
HETATM   19  C15 UNL     1      -0.653  -0.093   0.854  1.00  0.00     0.121 A 
HETATM   20  O3  UNL     1      -2.752   0.894   0.395  1.00  0.00    -0.344 OA
HETATM   21  O2  UNL     1      -0.322   1.109   1.462  1.00  0.00    -0.345 OA
HETATM   22  C17 UNL     1      -0.938   2.326   1.116  1.00  0.00     0.202 C 
HETATM   23  C18 UNL     1      -2.424   2.165   0.885  1.00  0.00     0.202 C 
BRANCH  17  24
HETATM   24  O1  UNL     1      -3.633  -1.544  -0.921  1.00  0.00    -0.344 OA
BRANCH  24  25
HETATM   25  C11 UNL     1      -4.835  -0.933  -1.140  1.00  0.00     0.121 C 
HETATM   26  C12 UNL     1      -5.680  -0.795   0.121  1.00  0.00     0.040 C 
HETATM   27  C13 UNL     1      -4.699   0.418  -1.764  1.00  0.00     0.040 C 
ENDBRANCH  24  25
ENDBRANCH  17  24
ENDBRANCH   8  10
ENDBRANCH   7   8
ENDBRANCH   5   6
ENDBRANCH   4   5
ENDBRANCH   3   4
TORSDOF 7
