REMARK  6 active torsions:
REMARK  status: ('A' for Active; 'I' for Inactive)
REMARK    1  A    between atoms: C2_3  and  C3_4 
REMARK    2  A    between atoms: C3_4  and  C4_5 
REMARK    3  A    between atoms: N2_11  and  C8_12 
REMARK    4  A    between atoms: N3_13  and  C9_14 
REMARK    5  A    between atoms: C9_14  and  N4_15 
REMARK    6  A    between atoms: N4_15  and  C10_16 
ROOT
HETATM    1  N1  UNL     1      -2.401  -3.041  -0.273  1.00  0.00    -0.190 NA
HETATM    2  C1  UNL     1      -2.175  -1.933  -0.517  1.00  0.00     0.115 C 
HETATM    3  C2  UNL     1      -1.878  -0.564  -0.832  1.00  0.00     0.121 C 
HETATM    4  N2  UNL     1      -0.779   0.033  -0.515  1.00  0.00    -0.235 NA
ENDROOT
BRANCH   3   5
HETATM    5  C3  UNL     1      -2.897   0.225  -1.573  1.00  0.00     0.137 C 
BRANCH   5   6
HETATM    6  C4  UNL     1      -4.117   0.218  -0.692  1.00  0.00     0.074 C 
HETATM    7  C5  UNL     1      -5.292  -0.273  -1.046  1.00  0.00     0.167 C 
HETATM    8  O1  UNL     1      -6.375  -0.252  -0.198  1.00  0.00    -0.358 OA
HETATM    9  C6  UNL     1      -6.350   0.345   1.068  1.00  0.00     0.201 C 
HETATM   10  C7  UNL     1      -4.946   0.367   1.592  1.00  0.00     0.202 C 
HETATM   11  O2  UNL     1      -4.041   0.751   0.576  1.00  0.00    -0.351 OA
ENDBRANCH   5   6
ENDBRANCH   3   5
BRANCH   4  12
HETATM   12  C8  UNL     1       0.268  -0.626   0.195  1.00  0.00     0.229 C 
HETATM   13  N3  UNL     1       1.515  -0.782  -0.078  1.00  0.00    -0.263 NA
BRANCH  13  14
HETATM   14  C9  UNL     1       2.088  -0.236  -1.302  1.00  0.00     0.272 C 
BRANCH  14  15
HETATM   15  N4  UNL     1       3.474  -0.584  -1.401  1.00  0.00    -0.372 N 
HETATM   16  H11 UNL     1       3.832  -1.149  -2.213  1.00  0.00     0.161 HD
BRANCH  15  17
HETATM   17  C10 UNL     1       4.402  -0.176  -0.407  1.00  0.00     0.031 A 
HETATM   18  C11 UNL     1       3.992   0.567   0.680  1.00  0.00     0.032 A 
HETATM   19  C12 UNL     1       4.845   0.992   1.677  1.00  0.00     0.046 A 
HETATM   20  C13 UNL     1       6.199   0.654   1.583  1.00  0.00     0.138 A 
HETATM   21  F1  UNL     1       7.034   1.076   2.569  1.00  0.00    -0.204 F 
HETATM   22  C14 UNL     1       6.609  -0.089   0.496  1.00  0.00     0.074 A 
HETATM   23 CL1  UNL     1       8.319  -0.494   0.413  1.00  0.00    -0.081 Cl
HETATM   24  C15 UNL     1       5.738  -0.503  -0.489  1.00  0.00     0.056 A 
ENDBRANCH  15  17
ENDBRANCH  14  15
ENDBRANCH  13  14
ENDBRANCH   4  12
TORSDOF 6
