REMARK  4 active torsions:
REMARK  status: ('A' for Active; 'I' for Inactive)
REMARK    1  A    between atoms: C2_2  and  O1_4 
REMARK    2  A    between atoms: O1_4  and  C4_5 
REMARK    3  A    between atoms: C8_11  and  N3_12 
REMARK    4  A    between atoms: N3_12  and  C9_13 
ROOT
HETATM    1  C4  UNL     1       2.433   0.200   0.730  1.00  0.00     0.107 A 
HETATM    2  C5  UNL     1       1.732   0.832   1.765  1.00  0.00     0.072 A 
HETATM    3  C6  UNL     1       0.345   0.833   1.794  1.00  0.00     0.077 A 
HETATM    4  N1  UNL     1      -0.365   1.433   2.775  1.00  0.00    -0.241 NA
HETATM    5  C7  UNL     1      -1.710   1.421   2.779  1.00  0.00     0.236 A 
HETATM    6  N2  UNL     1      -2.368   0.810   1.802  1.00  0.00    -0.223 NA
HETATM    7  C8  UNL     1      -1.776   0.182   0.778  1.00  0.00     0.144 A 
HETATM    8  C15 UNL     1      -0.412   0.216   0.810  1.00  0.00     0.075 A 
HETATM    9  C16 UNL     1       0.286  -0.399  -0.198  1.00  0.00     0.121 A 
HETATM   10  C17 UNL     1       1.661  -0.395  -0.218  1.00  0.00     0.136 A 
HETATM   11  O2  UNL     1       2.318  -1.018  -1.241  1.00  0.00    -0.344 OA
HETATM   12  C18 UNL     1       1.754  -1.150  -2.552  1.00  0.00     0.202 C 
HETATM   13  C19 UNL     1       0.263  -0.999  -2.560  1.00  0.00     0.202 C 
HETATM   14  O3  UNL     1      -0.289  -1.063  -1.260  1.00  0.00    -0.345 OA
ENDROOT
BRANCH   7  15
HETATM   15  N3  UNL     1      -2.563  -0.441  -0.218  1.00  0.00    -0.340 N 
HETATM   16  H10 UNL     1      -2.426  -1.015  -1.062  1.00  0.00     0.167 HD
BRANCH  15  17
HETATM   17  C9  UNL     1      -3.981  -0.342  -0.196  1.00  0.00     0.035 A 
HETATM   18  C10 UNL     1      -4.592   0.813   0.270  1.00  0.00     0.032 A 
HETATM   19  C11 UNL     1      -5.957   0.968   0.341  1.00  0.00     0.046 A 
HETATM   20  C12 UNL     1      -6.806  -0.044  -0.057  1.00  0.00     0.138 A 
HETATM   21  F1  UNL     1      -8.154   0.027  -0.019  1.00  0.00    -0.204 F 
HETATM   22  C13 UNL     1      -6.270  -1.218  -0.530  1.00  0.00     0.074 A 
HETATM   23 CL1  UNL     1      -7.253  -2.563  -1.062  1.00  0.00    -0.081 Cl
HETATM   24  C14 UNL     1      -4.907  -1.322  -0.581  1.00  0.00     0.056 A 
ENDBRANCH  15  17
ENDBRANCH   7  15
BRANCH   1  25
HETATM   25  O1  UNL     1       3.780   0.313   0.885  1.00  0.00    -0.344 OA
BRANCH  25  26
HETATM   26  C2  UNL     1       4.825  -0.150   0.115  1.00  0.00     0.121 C 
HETATM   27  C1  UNL     1       5.743   1.022  -0.257  1.00  0.00     0.040 C 
HETATM   28  C3  UNL     1       5.671  -1.067   1.010  1.00  0.00     0.040 C 
ENDBRANCH  25  26
ENDBRANCH   1  25
TORSDOF 4
