REMARK  2 active torsions:
REMARK  status: ('A' for Active; 'I' for Inactive)
REMARK    1  A    between atoms: C8_11  and  N3_12 
REMARK    2  A    between atoms: N3_12  and  C9_13 
ROOT
HETATM    1  C1  UNL     1      -2.047   0.054   3.327  1.00  0.00     0.053 C 
HETATM    2  C2  UNL     1      -2.429  -0.378   1.936  1.00  0.00    -0.005 C 
HETATM    3  C3  UNL     1      -3.457   0.076   1.276  1.00  0.00     0.145 C 
HETATM    4  O1  UNL     1      -4.413   0.296   0.277  1.00  0.00    -0.352 OA
HETATM    5  C4  UNL     1      -4.078   1.179  -0.823  1.00  0.00     0.163 C 
HETATM    6  C5  UNL     1      -5.021   1.073  -1.958  1.00  0.00     0.046 C 
HETATM    7  C6  UNL     1      -2.706   0.853  -1.246  1.00  0.00     0.118 C 
HETATM    8  N1  UNL     1      -1.551   1.518  -1.214  1.00  0.00    -0.272 NA
HETATM    9  C7  UNL     1      -0.459   0.734  -1.759  1.00  0.00     0.276 C 
HETATM   10  N2  UNL     1       0.655   0.016  -1.733  1.00  0.00    -0.238 NA
HETATM   11  C8  UNL     1       1.323  -0.250  -0.488  1.00  0.00     0.157 C 
HETATM   12  C15 UNL     1       0.517  -1.279  -0.181  1.00  0.00     0.122 C 
HETATM   13  C16 UNL     1      -0.637  -1.975  -0.799  1.00  0.00     0.244 C 
HETATM   14  O2  UNL     1      -1.713  -1.902   0.136  1.00  0.00    -0.342 OA
HETATM   15  C17 UNL     1      -1.500  -1.373   1.423  1.00  0.00     0.099 C 
HETATM   16  C18 UNL     1      -0.413  -1.960   1.898  1.00  0.00     0.179 C 
HETATM   17  O3  UNL     1       0.742  -1.944   1.057  1.00  0.00    -0.318 OA
ENDROOT
BRANCH  11  18
HETATM   18  N3  UNL     1       2.357   0.109   0.406  1.00  0.00    -0.339 N 
HETATM   19  H11 UNL     1       2.011   0.243   1.383  1.00  0.00     0.167 HD
BRANCH  18  20
HETATM   20  C9  UNL     1       3.706   0.252  -0.057  1.00  0.00     0.035 A 
HETATM   21  C10 UNL     1       3.906   0.013  -1.394  1.00  0.00     0.032 A 
HETATM   22  C11 UNL     1       5.220   0.153  -1.849  1.00  0.00     0.046 A 
HETATM   23  C12 UNL     1       6.258   0.511  -1.007  1.00  0.00     0.138 A 
HETATM   24  F1  UNL     1       7.538   0.652  -1.429  1.00  0.00    -0.204 F 
HETATM   25  C13 UNL     1       5.992   0.741   0.341  1.00  0.00     0.074 A 
HETATM   26 CL1  UNL     1       7.221   1.200   1.512  1.00  0.00    -0.081 Cl
HETATM   27  C14 UNL     1       4.705   0.610   0.817  1.00  0.00     0.056 A 
ENDBRANCH  18  20
ENDBRANCH  11  18
TORSDOF 2
