REMARK  4 active torsions:
REMARK  status: ('A' for Active; 'I' for Inactive)
REMARK    1  A    between atoms: C2_2  and  C3_3 
REMARK    2  A    between atoms: C7_8  and  C8_9 
REMARK    3  A    between atoms: C8_9  and  N2_10 
REMARK    4  A    between atoms: N2_10  and  C9_11 
ROOT
HETATM    1  C3  UNL     1      -3.766  -0.477  -0.494  1.00  0.00    -0.055 C 
HETATM    2  C4  UNL     1      -2.741  -0.947  -1.178  1.00  0.00     0.036 C 
HETATM    3  C5  UNL     1      -1.351  -0.595  -1.399  1.00  0.00     0.060 A 
HETATM    4  N1  UNL     1      -0.639  -0.531  -2.464  1.00  0.00    -0.285 NA
HETATM    5  C6  UNL     1       0.722  -0.129  -2.211  1.00  0.00     0.186 A 
HETATM    6  C7  UNL     1       0.730   0.055  -0.739  1.00  0.00    -0.032 A 
HETATM    7  C15 UNL     1      -0.485  -0.223  -0.304  1.00  0.00    -0.001 A 
HETATM    8  C16 UNL     1      -0.738  -0.091   1.165  1.00  0.00     0.209 C 
HETATM    9  O1  UNL     1      -0.435   1.162   1.611  1.00  0.00    -0.384 OA
HETATM   10  C17 UNL     1      -1.086   2.220   1.078  1.00  0.00     0.194 C 
HETATM   11  C18 UNL     1      -2.588   2.274   1.280  1.00  0.00     0.194 C 
HETATM   12  O2  UNL     1      -3.404   1.435   0.877  1.00  0.00    -0.385 OA
HETATM   13  C19 UNL     1      -4.232   0.584   0.469  1.00  0.00     0.202 C 
ENDROOT
BRANCH   6  14
HETATM   14  C8  UNL     1       2.032   0.482  -0.166  1.00  0.00     0.156 C 
BRANCH  14  15
HETATM   15  N2  UNL     1       2.985  -0.560  -0.500  1.00  0.00    -0.386 N 
HETATM   16  H11 UNL     1       2.753  -1.413  -1.033  1.00  0.00     0.160 HD
BRANCH  15  17
HETATM   17  C9  UNL     1       4.358  -0.436  -0.080  1.00  0.00     0.029 A 
HETATM   18  C10 UNL     1       5.326  -1.404  -0.368  1.00  0.00     0.032 A 
HETATM   19  C11 UNL     1       6.625  -1.236   0.057  1.00  0.00     0.046 A 
HETATM   20  C12 UNL     1       6.993  -0.123   0.767  1.00  0.00     0.138 A 
HETATM   21  F1  UNL     1       8.277   0.050   1.191  1.00  0.00    -0.204 F 
HETATM   22  C13 UNL     1       6.060   0.874   1.081  1.00  0.00     0.074 A 
HETATM   23 CL1  UNL     1       6.519   2.303   1.989  1.00  0.00    -0.081 Cl
HETATM   24  C14 UNL     1       4.740   0.699   0.647  1.00  0.00     0.056 A 
ENDBRANCH  15  17
ENDBRANCH  14  15
ENDBRANCH   6  14
BRANCH   1  25
HETATM   25  C2  UNL     1      -5.023  -1.323  -0.679  1.00  0.00     0.032 C 
HETATM   26  C1  UNL     1      -5.500  -1.875   0.644  1.00  0.00     0.010 C 
ENDBRANCH   1  25
TORSDOF 4
