REMARK  5 active torsions:
REMARK  status: ('A' for Active; 'I' for Inactive)
REMARK    1  A    between atoms: C2_2  and  O1_4 
REMARK    2  A    between atoms: O1_4  and  C4_5 
REMARK    3  A    between atoms: C8_11  and  N3_12 
REMARK    4  A    between atoms: N3_12  and  C9_13 
REMARK    5  A    between atoms: C12_16  and  C13_17 
ROOT
HETATM    1  C13 UNL     1       6.890   0.928   0.439  1.00  0.00     0.162 C 
HETATM    2  C14 UNL     1       7.845  -0.041  -0.142  1.00  0.00     0.063 C 
HETATM    3  N4  UNL     1       8.603  -0.802  -0.585  1.00  0.00    -0.197 NA
ENDROOT
BRANCH   1   4
HETATM    4  C12 UNL     1       5.530   0.322   0.267  1.00  0.00    -0.045 A 
HETATM    5  C11 UNL     1       5.092  -0.494   1.306  1.00  0.00     0.010 A 
HETATM    6  C10 UNL     1       3.851  -1.049   1.137  1.00  0.00     0.030 A 
HETATM    7  C9  UNL     1       3.029  -0.878   0.070  1.00  0.00     0.033 A 
HETATM    8  C16 UNL     1       3.532  -0.057  -0.917  1.00  0.00     0.030 A 
HETATM    9  C15 UNL     1       4.762   0.551  -0.852  1.00  0.00     0.010 A 
BRANCH   7  10
HETATM   10  N3  UNL     1       1.757  -1.510  -0.028  1.00  0.00    -0.340 N 
HETATM   11  H10 UNL     1       1.501  -2.181   0.752  1.00  0.00     0.167 HD
BRANCH  10  12
HETATM   12  C8  UNL     1       0.824  -1.312  -1.080  1.00  0.00     0.144 A 
HETATM   13  N2  UNL     1       1.237  -1.687  -2.301  1.00  0.00    -0.223 NA
HETATM   14  C7  UNL     1       0.396  -1.544  -3.368  1.00  0.00     0.236 A 
HETATM   15  N1  UNL     1      -0.854  -1.027  -3.211  1.00  0.00    -0.241 NA
HETATM   16  C6  UNL     1      -1.296  -0.645  -2.022  1.00  0.00     0.077 A 
HETATM   17  C5  UNL     1      -2.569  -0.112  -1.784  1.00  0.00     0.072 A 
HETATM   18  C17 UNL     1      -0.436  -0.796  -0.957  1.00  0.00     0.075 A 
HETATM   19  C4  UNL     1      -2.983   0.267  -0.500  1.00  0.00     0.107 A 
HETATM   20  C19 UNL     1      -2.071   0.088   0.510  1.00  0.00     0.136 A 
HETATM   21  C18 UNL     1      -0.813  -0.432   0.317  1.00  0.00     0.121 A 
HETATM   22  O2  UNL     1      -2.501   0.471   1.766  1.00  0.00    -0.344 OA
HETATM   23  O3  UNL     1      -0.008  -0.551   1.440  1.00  0.00    -0.345 OA
HETATM   24  C21 UNL     1      -0.548  -0.647   2.732  1.00  0.00     0.202 C 
HETATM   25  C20 UNL     1      -1.857   0.020   2.942  1.00  0.00     0.202 C 
BRANCH  19  26
HETATM   26  O1  UNL     1      -4.246   0.752  -0.512  1.00  0.00    -0.344 OA
BRANCH  26  27
HETATM   27  C2  UNL     1      -5.056   1.236   0.495  1.00  0.00     0.121 C 
HETATM   28  C1  UNL     1      -6.229   0.241   0.613  1.00  0.00     0.040 C 
HETATM   29  C3  UNL     1      -5.711   2.570   0.225  1.00  0.00     0.040 C 
ENDBRANCH  26  27
ENDBRANCH  19  26
ENDBRANCH  10  12
ENDBRANCH   7  10
ENDBRANCH   1   4
TORSDOF 5
