REMARK  3 active torsions:
REMARK  status: ('A' for Active; 'I' for Inactive)
REMARK    1  A    between atoms: C5_5  and  O1_6 
REMARK    2  A    between atoms: C9_11  and  C10_12 
REMARK    3  A    between atoms: C12_14  and  C13_15 
ROOT
HETATM    1  C10 UNL     1       0.772   0.391  -0.573  1.00  0.00     0.060 A 
HETATM    2  C11 UNL     1       1.971  -0.221  -0.276  1.00  0.00     0.064 A 
HETATM    3  C12 UNL     1       3.040   0.631  -0.172  1.00  0.00     0.070 A 
HETATM    4  N1  UNL     1       2.867   1.953  -0.357  1.00  0.00    -0.241 NA
HETATM    5  C19 UNL     1       1.692   2.533  -0.646  1.00  0.00     0.234 A 
HETATM    6  N2  UNL     1       0.608   1.709  -0.756  1.00  0.00    -0.242 NA
ENDROOT
BRANCH   1   7
HETATM    7  C9  UNL     1      -0.464  -0.371  -0.717  1.00  0.00     0.035 C 
HETATM    8  C8  UNL     1      -1.746  -0.169  -0.407  1.00  0.00    -0.071 C 
HETATM    9  C2  UNL     1      -2.785  -1.215  -0.716  1.00  0.00     0.017 C 
HETATM   10  C7  UNL     1      -2.228   1.069   0.246  1.00  0.00     0.061 C 
HETATM   11  C1  UNL     1      -2.117  -2.521  -1.098  1.00  0.00     0.015 C 
HETATM   12  C3  UNL     1      -3.725  -1.433   0.431  1.00  0.00     0.075 C 
HETATM   13  C4  UNL     1      -4.754  -0.343   0.459  1.00  0.00     0.068 C 
HETATM   14  C5  UNL     1      -5.896  -0.560   1.100  1.00  0.00     0.163 C 
HETATM   15  O2  UNL     1      -4.615   0.907  -0.144  1.00  0.00    -0.353 OA
HETATM   16  C6  UNL     1      -3.449   1.638  -0.484  1.00  0.00     0.179 C 
BRANCH  14  17
HETATM   17  O1  UNL     1      -6.850   0.433   1.133  1.00  0.00    -0.370 OA
HETATM   18  H8  UNL     1      -7.676   0.428   1.683  1.00  0.00     0.216 HD
ENDBRANCH  14  17
ENDBRANCH   1   7
BRANCH   3  19
HETATM   19  C13 UNL     1       4.371   0.125   0.140  1.00  0.00    -0.005 A 
HETATM   20  C14 UNL     1       4.670  -1.201   0.349  1.00  0.00     0.017 A 
HETATM   21  C15 UNL     1       5.925  -1.673   0.641  1.00  0.00     0.045 A 
HETATM   22  C16 UNL     1       6.973  -0.776   0.736  1.00  0.00     0.138 A 
HETATM   23  F1  UNL     1       8.257  -1.138   1.020  1.00  0.00    -0.204 F 
HETATM   24  C17 UNL     1       6.740   0.592   0.534  1.00  0.00     0.073 A 
HETATM   25 CL1  UNL     1       8.008   1.801   0.637  1.00  0.00    -0.081 Cl
HETATM   26  C18 UNL     1       5.445   0.992   0.243  1.00  0.00     0.040 A 
ENDBRANCH   3  19
TORSDOF 3
