REMARK  3 active torsions:
REMARK  status: ('A' for Active; 'I' for Inactive)
REMARK    1  A    between atoms: C4_4  and  C15_20 
REMARK    2  A    between atoms: C5_5  and  N1_6 
REMARK    3  A    between atoms: N1_6  and  C6_7 
ROOT
HETATM    1  C1  UNL     1      -1.848  -1.144  -0.501  1.00  0.00     0.012 C 
HETATM    2  C2  UNL     1      -1.249   0.106   0.048  1.00  0.00     0.017 A 
HETATM    3  C3  UNL     1      -1.477   0.079   1.525  1.00  0.00     0.012 C 
HETATM    4  C4  UNL     1       0.228   0.384  -0.394  1.00  0.00     0.035 A 
HETATM    5  C5  UNL     1      -0.493   1.240  -0.899  1.00  0.00     0.060 A 
HETATM    6  C7  UNL     1       0.226  -0.018  -1.411  1.00  0.00     0.047 A 
HETATM    7  C8  UNL     1       0.883  -1.150  -1.851  1.00  0.00    -0.021 A 
HETATM    8  C9  UNL     1       1.835  -1.394  -0.812  1.00  0.00     0.051 A 
HETATM    9  C10 UNL     1       2.909  -2.067  -0.092  1.00  0.00     0.083 A 
HETATM   10 CL1  UNL     1       3.165  -3.415  -1.102  1.00  0.00    -0.115 Cl
HETATM   11  C11 UNL     1       2.317  -0.885   0.218  1.00  0.00     0.067 A 
HETATM   12  C12 UNL     1       1.271   0.053  -0.192  1.00  0.00     0.091 A 
HETATM   13  O1  UNL     1       1.277   1.302   0.694  1.00  0.00    -0.376 OA
HETATM   14  C13 UNL     1       2.120   1.104   1.841  1.00  0.00     0.195 C 
HETATM   15  C14 UNL     1       1.332  -0.064   2.531  1.00  0.00     0.194 C 
HETATM   16  O2  UNL     1       1.180  -0.963   1.534  1.00  0.00    -0.381 OA
HETATM   17  C15 UNL     1       0.717  -0.852   0.368  1.00  0.00     0.156 A 
ENDROOT
BRANCH   5  18
HETATM   18  N1  UNL     1      -1.264   2.262  -1.305  1.00  0.00    -0.373 N 
HETATM   19  H8  UNL     1      -0.927   3.016  -0.670  1.00  0.00     0.161 HD
BRANCH  18  20
HETATM   20  C6  UNL     1      -2.234   2.209  -2.328  1.00  0.00     0.193 C 
HETATM   21  N2  UNL     1      -2.253   1.186  -3.154  1.00  0.00    -0.296 NA
HETATM   22  H10 UNL     1      -2.998   1.171  -3.906  1.00  0.00     0.187 HD
ENDBRANCH  18  20
ENDBRANCH   5  18
TORSDOF 3
