REMARK  2 active torsions:
REMARK  status: ('A' for Active; 'I' for Inactive)
REMARK    1  A    between atoms: C4_5  and  N1_6 
REMARK    2  A    between atoms: N1_6  and  C5_7 
ROOT
HETATM    1  C5  UNL     1       1.342  -0.053   0.030  1.00  0.00     0.134 C 
HETATM    2  N2  UNL     1       1.518  -1.278  -0.449  1.00  0.00    -0.227 NA
HETATM    3  C6  UNL     1       0.590  -1.696  -1.454  1.00  0.00     0.231 C 
HETATM    4  N3  UNL     1      -0.272  -1.724  -0.605  1.00  0.00    -0.257 NA
HETATM    5  C7  UNL     1      -1.646  -1.994  -0.391  1.00  0.00     0.325 C 
HETATM    6  O1  UNL     1      -2.399  -0.843  -0.426  1.00  0.00    -0.330 OA
HETATM    7  C8  UNL     1      -3.641  -0.477  -0.264  1.00  0.00     0.079 A 
HETATM    8  C9  UNL     1      -4.930  -0.918  -0.232  1.00  0.00     0.037 A 
HETATM    9  C10 UNL     1      -5.965  -0.052   0.003  1.00  0.00     0.003 A 
HETATM   10  C11 UNL     1      -5.677   1.300   0.209  1.00  0.00     0.001 A 
HETATM   11  C12 UNL     1      -4.370   1.719   0.171  1.00  0.00     0.012 A 
HETATM   12  C13 UNL     1      -3.292   0.876  -0.063  1.00  0.00     0.003 A 
HETATM   13  C14 UNL     1      -1.980   1.603  -0.062  1.00  0.00     0.311 C 
HETATM   14  N4  UNL     1      -0.984   0.633   0.337  1.00  0.00     0.094 N 
HETATM   15  C15 UNL     1       0.234   0.868  -0.391  1.00  0.00     0.347 C 
HETATM   16  H13 UNL     1      -0.779   0.671   1.366  1.00  0.00     0.316 HD
ENDROOT
BRANCH   1  17
HETATM   17  N1  UNL     1       2.284   0.323   1.033  1.00  0.00    -0.343 N 
HETATM   18  H3  UNL     1       1.862   0.787   1.902  1.00  0.00     0.167 HD
BRANCH  17  19
HETATM   19  C4  UNL     1       3.664   0.024   0.711  1.00  0.00     0.035 A 
HETATM   20  C3  UNL     1       4.162  -1.229   0.838  1.00  0.00     0.032 A 
HETATM   21  C2  UNL     1       5.505  -1.449   0.505  1.00  0.00     0.046 A 
HETATM   22  C1  UNL     1       6.256  -0.364   0.059  1.00  0.00     0.138 A 
HETATM   23  F1  UNL     1       7.572  -0.522  -0.284  1.00  0.00    -0.204 F 
HETATM   24  C17 UNL     1       5.715   0.911  -0.060  1.00  0.00     0.074 A 
HETATM   25  C16 UNL     1       4.401   1.134   0.264  1.00  0.00     0.056 A 
HETATM   26 CL1  UNL     1       6.637   2.315  -0.613  1.00  0.00    -0.081 Cl
ENDBRANCH  17  19
ENDBRANCH   1  17
TORSDOF 2
