REMARK  6 active torsions:
REMARK  status: ('A' for Active; 'I' for Inactive)
REMARK    1  A    between atoms: C4_6  and  N3_7 
REMARK    2  A    between atoms: N3_7  and  C5_8 
REMARK    3  A    between atoms: C13_17  and  C14_18 
REMARK    4  A    between atoms: C14_18  and  C15_19 
REMARK    5  A    between atoms: C19_25  and  O3_26 
REMARK    6  A    between atoms: O3_26  and  C20_27 
ROOT
HETATM    1  C5  UNL     1       3.221   1.345   0.378  1.00  0.00     0.035 A 
HETATM    2  C6  UNL     1       3.854   0.450   1.229  1.00  0.00     0.030 A 
HETATM    3  C7  UNL     1       5.209   0.246   1.056  1.00  0.00     0.010 A 
HETATM    4  C8  UNL     1       5.986   0.861   0.103  1.00  0.00    -0.041 A 
HETATM    5  C9  UNL     1       7.439   0.625  -0.046  1.00  0.00     0.049 C 
HETATM    6  C10 UNL     1       5.342   1.747  -0.736  1.00  0.00     0.052 A 
HETATM    7  C11 UNL     1       6.024   2.469  -1.783  1.00  0.00     0.100 C 
HETATM    8  N4  UNL     1       6.582   3.031  -2.623  1.00  0.00    -0.191 NA
HETATM    9  C12 UNL     1       3.991   1.965  -0.580  1.00  0.00     0.052 A 
ENDROOT
BRANCH   1  10
HETATM   10  N3  UNL     1       1.834   1.645   0.485  1.00  0.00    -0.340 N 
HETATM   11  H4  UNL     1       1.392   2.272  -0.189  1.00  0.00     0.167 HD
BRANCH  10  12
HETATM   12  C4  UNL     1       1.026   1.095   1.515  1.00  0.00     0.141 A 
HETATM   13  N2  UNL     1       1.292   1.736   2.661  1.00  0.00    -0.224 NA
HETATM   14  C3  UNL     1       0.649   1.416   3.815  1.00  0.00     0.235 A 
HETATM   15  N1  UNL     1      -0.263   0.432   3.750  1.00  0.00    -0.245 NA
HETATM   16  C2  UNL     1      -0.505  -0.190   2.580  1.00  0.00     0.050 A 
HETATM   17  C1  UNL     1      -1.451  -1.132   2.627  1.00  0.00     0.066 C 
HETATM   18  C13 UNL     1       0.108   0.085   1.395  1.00  0.00     0.034 A 
BRANCH  18  19
HETATM   19  C14 UNL     1      -0.081  -0.494   0.253  1.00  0.00     0.029 C 
BRANCH  19  20
HETATM   20  C15 UNL     1      -0.939  -1.589  -0.236  1.00  0.00     0.204 C 
HETATM   21  O1  UNL     1      -0.206  -2.352  -1.144  1.00  0.00    -0.373 OA
HETATM   22  C16 UNL     1      -1.001  -2.820  -2.184  1.00  0.00     0.195 C 
HETATM   23  C17 UNL     1      -2.320  -3.378  -1.648  1.00  0.00     0.201 C 
HETATM   24  O2  UNL     1      -3.018  -2.205  -1.212  1.00  0.00    -0.348 OA
HETATM   25  C18 UNL     1      -2.212  -1.097  -0.865  1.00  0.00     0.100 C 
HETATM   26  C19 UNL     1      -2.726   0.111  -1.157  1.00  0.00     0.170 C 
BRANCH  26  27
HETATM   27  O3  UNL     1      -3.942   0.441  -1.753  1.00  0.00    -0.356 OA
BRANCH  27  28
HETATM   28  C20 UNL     1      -5.072   0.816  -0.982  1.00  0.00     0.119 C 
HETATM   29  C21 UNL     1      -6.151   1.224  -1.963  1.00  0.00     0.039 C 
HETATM   30  C22 UNL     1      -5.639  -0.397  -0.240  1.00  0.00     0.039 C 
ENDBRANCH  27  28
ENDBRANCH  26  27
ENDBRANCH  19  20
ENDBRANCH  18  19
ENDBRANCH  10  12
ENDBRANCH   1  10
TORSDOF 6
