REMARK  5 active torsions:
REMARK  status: ('A' for Active; 'I' for Inactive)
REMARK    1  A    between atoms: C3_4  and  N2_5 
REMARK    2  A    between atoms: C4_6  and  C5_7 
REMARK    3  A    between atoms: C4_6  and  C14_18 
REMARK    4  A    between atoms: C5_7  and  N3_8 
REMARK    5  A    between atoms: N3_8  and  C6_9 
ROOT
HETATM    1  C1  UNL     1       3.497   5.138   1.413  1.00  0.00     0.039 C 
HETATM    2  C2  UNL     1       3.653   4.384   0.471  1.00  0.00     0.025 C 
HETATM    3  N1  UNL     1       3.848   3.531  -0.621  1.00  0.00    -0.192 NA
HETATM    4  C3  UNL     1       2.965   2.647  -0.942  1.00  0.00     0.244 C 
ENDROOT
BRANCH   4   5
HETATM    5  N2  UNL     1       1.710   2.305  -0.383  1.00  0.00    -0.246 NA
HETATM    6  C4  UNL     1       1.410   1.033  -0.232  1.00  0.00     0.062 C 
BRANCH   6   7
HETATM    7  C5  UNL     1       0.083   0.727   0.359  1.00  0.00     0.177 C 
BRANCH   7   8
HETATM    8  N3  UNL     1      -0.734   0.143  -0.663  1.00  0.00    -0.384 N 
HETATM    9  H5  UNL     1      -0.544  -0.043  -1.672  1.00  0.00     0.160 HD
BRANCH   8  10
HETATM   10  C6  UNL     1      -2.069  -0.282  -0.329  1.00  0.00     0.029 A 
HETATM   11  C7  UNL     1      -2.994  -0.867  -1.202  1.00  0.00     0.030 A 
HETATM   12  C8  UNL     1      -4.244  -1.230  -0.753  1.00  0.00     0.010 A 
HETATM   13  C9  UNL     1      -4.639  -1.038   0.554  1.00  0.00    -0.041 A 
HETATM   14  C10 UNL     1      -5.992  -1.435   1.021  1.00  0.00     0.049 C 
HETATM   15  C11 UNL     1      -3.775  -0.466   1.465  1.00  0.00     0.052 A 
HETATM   16  C12 UNL     1      -4.099  -0.228   2.843  1.00  0.00     0.100 C 
HETATM   17  C13 UNL     1      -2.537  -0.119   0.974  1.00  0.00     0.052 A 
HETATM   18  N4  UNL     1      -4.380  -0.040   3.954  1.00  0.00    -0.191 NA
ENDBRANCH   8  10
ENDBRANCH   7   8
ENDBRANCH   6   7
BRANCH   6  19
HETATM   19  C14 UNL     1       2.366   0.009  -0.640  1.00  0.00     0.194 C 
HETATM   20  C15 UNL     1       1.938  -0.968  -1.670  1.00  0.00     0.205 C 
HETATM   21  O1  UNL     1       3.035  -1.773  -2.013  1.00  0.00    -0.386 OA
HETATM   22  C16 UNL     1       3.584  -2.385  -0.895  1.00  0.00     0.193 C 
HETATM   23  C17 UNL     1       3.933  -1.442   0.217  1.00  0.00     0.195 C 
HETATM   24  O2  UNL     1       2.839  -0.634   0.529  1.00  0.00    -0.376 OA
ENDBRANCH   6  19
ENDBRANCH   4   5
TORSDOF 5
