REMARK  1 active torsions:
REMARK  status: ('A' for Active; 'I' for Inactive)
REMARK    1  A    between atoms: N2_7  and  C6_8 
ROOT
HETATM    1  C1  UNL     1       5.248   0.965   0.229  1.00  0.00     0.043 C 
HETATM    2  C2  UNL     1       3.772   0.811  -0.011  1.00  0.00    -0.083 C 
HETATM    3  C3  UNL     1       3.025   0.317   1.005  1.00  0.00     0.014 C 
HETATM    4  C4  UNL     1       1.522   0.126   0.854  1.00  0.00     0.202 C 
HETATM    5  C5  UNL     1       1.118  -1.147   1.366  1.00  0.00     0.009 C 
HETATM    6  N1  UNL     1       0.752  -2.227   1.797  1.00  0.00    -0.099 N 
HETATM    7  N2  UNL     1       1.218   0.171  -0.570  1.00  0.00    -0.345 N 
HETATM    8  C19 UNL     1       1.754   1.374  -1.241  1.00  0.00     0.130 C 
HETATM    9  C20 UNL     1       3.277   1.213  -1.366  1.00  0.00     0.053 C 
ENDROOT
BRANCH   7  10
HETATM   10  C6  UNL     1       0.579  -0.831  -1.417  1.00  0.00     0.138 C 
HETATM   11  N3  UNL     1       0.957  -1.459  -2.468  1.00  0.00    -0.224 NA
HETATM   12  C7  UNL     1       0.241  -2.456  -3.252  1.00  0.00     0.229 C 
HETATM   13  N4  UNL     1      -0.625  -3.336  -2.830  1.00  0.00    -0.278 NA
HETATM   14  C8  UNL     1      -1.143  -3.607  -1.460  1.00  0.00     0.189 C 
HETATM   15  C9  UNL     1      -1.493  -2.335  -0.853  1.00  0.00    -0.025 A 
HETATM   16  C10 UNL     1      -2.760  -2.437  -0.197  1.00  0.00     0.018 A 
HETATM   17  C14 UNL     1      -0.746  -1.161  -0.881  1.00  0.00     0.035 A 
HETATM   18  C11 UNL     1      -2.945  -1.172   0.311  1.00  0.00    -0.036 A 
HETATM   19  C12 UNL     1      -2.580  -0.049   0.479  1.00  0.00     0.051 A 
HETATM   20  O2  UNL     1      -3.987  -0.507   1.120  1.00  0.00     0.000 OA
HETATM   21  C13 UNL     1      -1.265   0.015  -0.225  1.00  0.00     0.142 A 
HETATM   22  O3  UNL     1      -2.064   1.153   0.590  1.00  0.00     0.000 OA
HETATM   23  C17 UNL     1      -3.604   0.909   1.376  1.00  0.00    -0.007 A 
HETATM   24  O1  UNL     1      -0.750   1.338  -0.110  1.00  0.00    -0.369 OA
HETATM   25  C15 UNL     1      -1.511   2.305   0.655  1.00  0.00     0.181 A 
HETATM   26  C16 UNL     1      -2.767   2.032   1.273  1.00  0.00     0.013 A 
HETATM   27  C18 UNL     1      -4.546   1.757   2.217  1.00  0.00     0.018 C 
ENDBRANCH   7  10
TORSDOF 1
