REMARK  3 active torsions:
REMARK  status: ('A' for Active; 'I' for Inactive)
REMARK    1  A    between atoms: C5_5  and  N1_6 
REMARK    2  A    between atoms: C12_15  and  O3_16 
REMARK    3  A    between atoms: O3_16  and  C13_17 
ROOT
HETATM    1  C1  UNL     1       7.100   0.742   0.038  1.00  0.00     0.049 C 
HETATM    2  C2  UNL     1       5.647   0.488  -0.049  1.00  0.00    -0.041 A 
HETATM    3  C3  UNL     1       4.757   1.440   0.401  1.00  0.00     0.010 A 
HETATM    4  C4  UNL     1       3.397   1.240   0.344  1.00  0.00     0.032 A 
HETATM    5  C5  UNL     1       2.847   0.076  -0.165  1.00  0.00     0.061 A 
HETATM    6  C18 UNL     1       3.776  -0.873  -0.614  1.00  0.00     0.054 A 
HETATM    7  C19 UNL     1       5.152  -0.684  -0.563  1.00  0.00     0.052 A 
HETATM    8  C20 UNL     1       6.058  -1.718  -1.051  1.00  0.00     0.100 C 
HETATM    9  N4  UNL     1       6.782  -2.514  -1.438  1.00  0.00    -0.191 NA
ENDROOT
BRANCH   5  10
HETATM   10  N1  UNL     1       1.453  -0.304  -0.289  1.00  0.00    -0.189 N 
HETATM   11  C6  UNL     1       1.174  -0.443  -1.708  1.00  0.00     0.188 C 
HETATM   12  C7  UNL     1      -0.212  -0.696  -2.014  1.00  0.00     0.034 C 
HETATM   13  C8  UNL     1      -1.509  -0.834  -1.796  1.00  0.00     0.103 C 
HETATM   14  O1  UNL     1      -2.359  -1.185  -2.873  1.00  0.00    -0.346 OA
HETATM   15  C11 UNL     1      -2.425  -0.729  -0.703  1.00  0.00     0.143 C 
HETATM   16  C9  UNL     1      -3.643  -0.552  -3.015  1.00  0.00     0.202 C 
HETATM   17  C10 UNL     1      -4.470  -1.197  -1.921  1.00  0.00     0.202 C 
HETATM   18  O2  UNL     1      -3.768  -0.941  -0.712  1.00  0.00    -0.343 OA
HETATM   19  C12 UNL     1      -2.623  -0.434   0.594  1.00  0.00     0.151 C 
HETATM   20  C16 UNL     1      -1.363  -0.017   1.006  1.00  0.00    -0.050 C 
HETATM   21  C17 UNL     1      -0.319   0.352   1.345  1.00  0.00     0.369 A 
HETATM   22  N2  UNL     1       0.904   0.795   1.721  1.00  0.00    -0.074 NA
HETATM   23  N3  UNL     1       1.184  -0.352   1.058  1.00  0.00     0.122 N 
HETATM   24  H20 UNL     1       0.292   1.530   2.110  1.00  0.00     0.160 HD
HETATM   25  H21 UNL     1       1.591  -1.138   1.567  1.00  0.00     0.337 HD
BRANCH  19  26
HETATM   26  O3  UNL     1      -2.923  -0.167   1.874  1.00  0.00    -0.336 OA
BRANCH  26  27
HETATM   27  C13 UNL     1      -4.265   0.140   2.294  1.00  0.00     0.121 C 
HETATM   28  C14 UNL     1      -4.213   0.939   3.577  1.00  0.00     0.040 C 
HETATM   29  C15 UNL     1      -4.933   1.009   1.270  1.00  0.00     0.040 C 
ENDBRANCH  26  27
ENDBRANCH  19  26
ENDBRANCH   5  10
TORSDOF 3
