REMARK  0 active torsions:
REMARK  status: ('A' for Active; 'I' for Inactive)
ROOT
HETATM    1  C1  UNL     1       1.111   1.143   2.196  1.00  0.00     0.044 C 
HETATM    2  C2  UNL     1       1.652   1.218   0.834  1.00  0.00     0.148 C 
HETATM    3  C3  UNL     1       0.599   1.334  -0.245  1.00  0.00     0.038 C 
HETATM    4  C4  UNL     1       0.641   0.403  -1.243  1.00  0.00     0.064 C 
HETATM    5  O1  UNL     1       1.543   0.834  -2.301  1.00  0.00    -0.329 OA
HETATM    6  C5  UNL     1       2.970   0.811  -2.428  1.00  0.00     0.350 C 
HETATM    7  O2  UNL     1       3.538  -0.070  -1.362  1.00  0.00    -0.305 OA
HETATM    8  C6  UNL     1       2.529  -0.795  -0.576  1.00  0.00     0.385 A 
HETATM    9  C7  UNL     1       2.364  -1.795  -1.471  1.00  0.00     0.332 A 
HETATM   10  C8  UNL     1       1.464  -2.931  -1.436  1.00  0.00     0.279 A 
HETATM   11  N1  UNL     1       1.413  -1.867  -0.749  1.00  0.00     0.059 N 
HETATM   12  C9  UNL     1       0.424  -1.559   0.193  1.00  0.00     0.226 C 
HETATM   13  N2  UNL     1       0.295  -1.994   1.361  1.00  0.00    -0.249 NA
HETATM   14  C10 UNL     1      -0.647  -1.750   2.362  1.00  0.00     0.272 C 
HETATM   15  N3  UNL     1      -1.668  -0.789   2.168  1.00  0.00    -0.371 N 
HETATM   16  C11 UNL     1      -2.182  -0.054   1.066  1.00  0.00     0.038 A 
HETATM   17  C12 UNL     1      -3.350   0.588   1.377  1.00  0.00     0.030 A 
HETATM   18  C13 UNL     1      -3.955   1.330   0.382  1.00  0.00     0.004 A 
HETATM   19  C14 UNL     1      -3.350   1.379  -0.856  1.00  0.00     0.023 A 
HETATM   20  C15 UNL     1      -2.154   0.708  -1.136  1.00  0.00     0.054 A 
HETATM   21  C16 UNL     1      -1.676   0.859  -2.478  1.00  0.00     0.100 C 
HETATM   22  N4  UNL     1      -1.300   0.965  -3.566  1.00  0.00    -0.191 NA
HETATM   23  C17 UNL     1      -1.532  -0.041  -0.152  1.00  0.00     0.007 A 
HETATM   24  C18 UNL     1      -0.311  -0.633  -0.699  1.00  0.00     0.157 C 
HETATM   25  O3  UNL     1       2.469   0.076   0.539  1.00  0.00    -0.321 OA
HETATM   26  H12 UNL     1      -2.133  -0.606   3.095  1.00  0.00     0.161 HD
ENDROOT
TORSDOF 0
