REMARK  4 active torsions:
REMARK  status: ('A' for Active; 'I' for Inactive)
REMARK    1  A    between atoms: N1_2  and  C2_3 
REMARK    2  A    between atoms: C2_3  and  B1_5 
REMARK    3  A    between atoms: C5_7  and  O1_8 
REMARK    4  A    between atoms: C10_15  and  C11_16 
ROOT
HETATM    1  C11 UNL     1      -3.664   0.767  -0.647  1.00  0.00     0.044 C 
HETATM    2  C12 UNL     1      -3.193   0.474   0.729  1.00  0.00    -0.021 C 
HETATM    3  C13 UNL     1      -3.700   0.918   1.900  1.00  0.00    -0.030 C 
HETATM    4  C14 UNL     1      -4.829   1.798   2.273  1.00  0.00     0.032 C 
HETATM    5  C15 UNL     1      -5.790   1.943   1.114  1.00  0.00     0.053 C 
HETATM    6  C16 UNL     1      -5.145   2.687   0.005  1.00  0.00     0.019 C 
HETATM    7  C17 UNL     1      -5.550   4.031  -0.229  1.00  0.00     0.095 C 
HETATM    8  N2  UNL     1      -5.883   5.126  -0.406  1.00  0.00    -0.192 NA
HETATM    9  C18 UNL     1      -4.192   2.140  -0.778  1.00  0.00     0.001 C 
ENDROOT
BRANCH   1  10
HETATM   10  C10 UNL     1      -2.518   0.635  -1.657  1.00  0.00     0.063 A 
HETATM   11  C9  UNL     1      -1.936  -0.712  -1.678  1.00  0.00     0.023 A 
HETATM   12  C8  UNL     1      -0.687  -0.998  -1.466  1.00  0.00     0.094 A 
HETATM   13  O3  UNL     1      -0.673  -2.395  -1.601  1.00  0.00    -0.347 OA
HETATM   14  C20 UNL     1       0.279   0.038  -1.174  1.00  0.00     0.088 A 
HETATM   15  C7  UNL     1      -0.400  -3.156  -0.404  1.00  0.00     0.202 C 
HETATM   16  C6  UNL     1       1.005  -3.739  -0.757  1.00  0.00     0.197 C 
HETATM   17  O2  UNL     1       1.744  -2.580  -0.972  1.00  0.00    -0.359 OA
HETATM   18  C5  UNL     1       3.017  -2.237  -0.864  1.00  0.00     0.148 A 
HETATM   19  C4  UNL     1       2.548  -1.008  -0.843  1.00  0.00    -0.054 A 
HETATM   20  B1  UNL     1       4.075  -0.603  -0.695  1.00  0.00     0.323 B 
HETATM   21  C21 UNL     1       1.572   0.057  -0.927  1.00  0.00     0.030 C 
HETATM   22  H9  UNL     1       4.639  -0.160  -1.671  1.00  0.00    -0.005 HD
HETATM   23  N3  UNL     1      -0.254   1.346  -1.146  1.00  0.00    -0.262 NA
HETATM   24  C19 UNL     1      -1.478   1.645  -1.352  1.00  0.00     0.100 A 
BRANCH  18  25
HETATM   25  O1  UNL     1       4.279  -2.735  -0.790  1.00  0.00    -0.371 OA
HETATM   26  H10 UNL     1       4.797  -2.724   0.064  1.00  0.00     0.212 HD
ENDBRANCH  18  25
BRANCH  20  27
HETATM   27  C2  UNL     1       4.543   0.141   0.655  1.00  0.00     0.188 C 
HETATM   28  C3  UNL     1       3.956  -0.640   1.814  1.00  0.00     0.032 C 
BRANCH  27  29
HETATM   29  N1  UNL     1       5.987   0.135   0.634  1.00  0.00     0.075 N 
HETATM   30  C1  UNL     1       6.595   0.678   1.813  1.00  0.00     0.306 C 
HETATM   31  H4  UNL     1       6.279  -0.845   0.418  1.00  0.00     0.314 HD
ENDBRANCH  27  29
ENDBRANCH  20  27
ENDBRANCH   1  10
TORSDOF 4
