REMARK  6 active torsions:
REMARK  status: ('A' for Active; 'I' for Inactive)
REMARK    1  A    between atoms: C2_2  and  O1_4 
REMARK    2  A    between atoms: O1_4  and  C4_5 
REMARK    3  A    between atoms: C12_15  and  C13_16 
REMARK    4  A    between atoms: C14_17  and  P1_18 
REMARK    5  A    between atoms: P1_18  and  C15_19 
REMARK    6  A    between atoms: C18_22  and  N1_23 
ROOT
HETATM    1  C4  UNL     1       3.019   0.434   0.262  1.00  0.00     0.108 A 
HETATM    2  C5  UNL     1       2.141   0.634  -0.788  1.00  0.00     0.072 A 
HETATM    3  C6  UNL     1       0.955  -0.069  -0.905  1.00  0.00     0.071 A 
HETATM    4  C7  UNL     1       0.617  -1.021   0.065  1.00  0.00     0.022 A 
HETATM    5  C8  UNL     1       1.494  -1.227   1.122  1.00  0.00     0.114 A 
HETATM    6  C9  UNL     1       2.677  -0.517   1.227  1.00  0.00     0.136 A 
HETATM    7  O2  UNL     1       3.438  -0.843   2.342  1.00  0.00    -0.344 OA
HETATM    8  C10 UNL     1       3.526  -2.180   2.829  1.00  0.00     0.202 C 
HETATM    9  C11 UNL     1       2.214  -2.888   2.808  1.00  0.00     0.202 C 
HETATM   10  O3  UNL     1       1.206  -2.168   2.122  1.00  0.00    -0.345 OA
HETATM   11  C12 UNL     1      -0.700  -1.628  -0.298  1.00  0.00     0.116 A 
HETATM   12  C18 UNL     1      -1.009  -0.893  -1.555  1.00  0.00     0.112 A 
HETATM   13  N2  UNL     1      -0.093  -0.033  -1.889  1.00  0.00    -0.234 NA
ENDROOT
BRANCH  11  14
HETATM   14  C13 UNL     1      -1.769  -1.277   0.691  1.00  0.00    -0.009 C 
HETATM   15  C14 UNL     1      -2.352  -0.086   0.596  1.00  0.00     0.005 C 
BRANCH  15  16
HETATM   16  P1  UNL     1      -3.667   0.587   1.659  1.00  0.00    -0.081 P 
HETATM   17  H14 UNL     1      -3.141   1.768   2.347  1.00  0.00     0.066 HD
BRANCH  16  18
HETATM   18  C15 UNL     1      -5.160   1.033   0.682  1.00  0.00    -0.077 C 
HETATM   19  C16 UNL     1      -5.847  -0.109   0.614  1.00  0.00     0.039 C 
HETATM   20  C17 UNL     1      -5.773   2.195   0.003  1.00  0.00     0.044 C 
ENDBRANCH  16  18
ENDBRANCH  15  16
ENDBRANCH  11  14
BRANCH  12  21
HETATM   21  N1  UNL     1      -2.199  -1.119  -2.314  1.00  0.00    -0.382 N 
HETATM   22  C19 UNL     1      -2.194  -0.957  -3.766  1.00  0.00     0.147 C 
HETATM   23  H20 UNL     1      -3.099  -1.400  -1.891  1.00  0.00     0.160 HD
ENDBRANCH  12  21
BRANCH   1  24
HETATM   24  O1  UNL     1       4.213   1.098   0.438  1.00  0.00    -0.334 OA
BRANCH  24  25
HETATM   25  C2  UNL     1       4.643   2.063  -0.467  1.00  0.00     0.095 C 
HETATM   26  C1  UNL     1       3.917   3.143  -0.681  1.00  0.00     0.044 C 
HETATM   27  C3  UNL     1       5.873   2.094  -1.300  1.00  0.00     0.050 C 
ENDBRANCH  24  25
ENDBRANCH   1  24
TORSDOF 6
