REMARK  5 active torsions:
REMARK  status: ('A' for Active; 'I' for Inactive)
REMARK    1  A    between atoms: C2_2  and  O1_4 
REMARK    2  A    between atoms: O1_4  and  C4_5 
REMARK    3  A    between atoms: C10_13  and  N1_14 
REMARK    4  A    between atoms: N1_14  and  N2_15 
REMARK    5  A    between atoms: N2_15  and  C11_16 
ROOT
HETATM    1  C11 UNL     1       4.222   0.577  -0.683  1.00  0.00     0.049 A 
HETATM    2  C12 UNL     1       4.567   1.875  -0.940  1.00  0.00     0.034 A 
HETATM    3  C13 UNL     1       5.505   2.487  -0.148  1.00  0.00     0.046 A 
HETATM    4  C14 UNL     1       6.106   1.824   0.901  1.00  0.00     0.137 A 
HETATM    5  F1  UNL     1       7.018   2.520   1.621  1.00  0.00    -0.204 F 
HETATM    6  C15 UNL     1       5.774   0.512   1.182  1.00  0.00     0.085 A 
HETATM    7  C16 UNL     1       6.420  -0.145   2.281  1.00  0.00     0.102 C 
HETATM    8  N3  UNL     1       6.933  -0.678   3.184  1.00  0.00    -0.191 NA
HETATM    9  C17 UNL     1       4.826  -0.107   0.379  1.00  0.00     0.056 A 
ENDROOT
BRANCH   1  10
HETATM   10  N2  UNL     1       3.283  -0.292  -1.343  1.00  0.00    -0.299 N 
HETATM   11  H14 UNL     1       3.883  -0.732  -2.086  1.00  0.00     0.187 HD
BRANCH  10  12
HETATM   12  N1  UNL     1       1.942  -0.418  -0.981  1.00  0.00    -0.283 N 
HETATM   13  H13 UNL     1       2.052  -0.918  -0.075  1.00  0.00     0.188 HD
BRANCH  12  14
HETATM   14  C10 UNL     1       0.677  -0.057  -1.518  1.00  0.00     0.158 A 
HETATM   15  C9  UNL     1      -0.440  -0.397  -0.790  1.00  0.00     0.075 A 
HETATM   16  C6  UNL     1      -0.651  -1.074   0.470  1.00  0.00     0.117 A 
HETATM   17  C19 UNL     1      -1.636  -0.024  -1.355  1.00  0.00     0.088 A 
HETATM   18  C5  UNL     1      -1.963  -1.107   0.656  1.00  0.00     0.115 A 
HETATM   19  O2  UNL     1       0.183  -1.637   1.420  1.00  0.00    -0.345 OA
HETATM   20  C4  UNL     1      -2.719  -0.469  -0.439  1.00  0.00     0.234 A 
HETATM   21  O3  UNL     1      -2.313  -1.742   1.852  1.00  0.00    -0.347 OA
HETATM   22  C8  UNL     1      -1.634  -2.938   2.245  1.00  0.00     0.202 C 
HETATM   23  C7  UNL     1      -0.153  -2.765   2.197  1.00  0.00     0.202 C 
HETATM   24  N5  UNL     1      -1.703   0.627  -2.540  1.00  0.00    -0.242 NA
HETATM   25  C18 UNL     1      -0.586   0.946  -3.232  1.00  0.00     0.235 A 
HETATM   26  N4  UNL     1       0.602   0.588  -2.692  1.00  0.00    -0.222 NA
BRANCH  20  27
HETATM   27  O1  UNL     1      -3.413   0.658  -0.038  1.00  0.00    -0.368 OA
BRANCH  27  28
HETATM   28  C2  UNL     1      -4.726   0.709  -0.436  1.00  0.00     0.114 C 
HETATM   29  C1  UNL     1      -5.150   1.904  -1.203  1.00  0.00     0.039 C 
HETATM   30  C3  UNL     1      -5.579   0.598   0.818  1.00  0.00     0.039 C 
ENDBRANCH  27  28
ENDBRANCH  20  27
ENDBRANCH  12  14
ENDBRANCH  10  12
ENDBRANCH   1  10
TORSDOF 5
