REMARK  6 active torsions:
REMARK  status: ('A' for Active; 'I' for Inactive)
REMARK    1  A    between atoms: C2_2  and  O1_4 
REMARK    2  A    between atoms: O1_4  and  C4_5 
REMARK    3  A    between atoms: C4_5  and  C5_6 
REMARK    4  A    between atoms: C5_6  and  C6_7 
REMARK    5  A    between atoms: C9_10  and  N1_11 
REMARK    6  A    between atoms: N1_11  and  C10_12 
ROOT
HETATM    1  C6  UNL     1      -0.235   1.259  -0.884  1.00  0.00     0.043 C 
HETATM    2  C7  UNL     1       0.772   0.647  -0.281  1.00  0.00     0.042 A 
HETATM    3  C8  UNL     1       2.145   0.770  -0.888  1.00  0.00     0.137 A 
HETATM    4  C9  UNL     1       3.138   0.024  -0.080  1.00  0.00     0.111 A 
HETATM    5  N2  UNL     1       2.894  -0.644   0.991  1.00  0.00    -0.228 NA
HETATM    6  C16 UNL     1       1.562  -0.702   1.488  1.00  0.00     0.235 A 
HETATM    7  N3  UNL     1       0.550  -0.103   0.907  1.00  0.00    -0.246 NA
ENDROOT
BRANCH   1   8
HETATM    8  C5  UNL     1      -1.614   1.152  -0.300  1.00  0.00     0.123 C 
HETATM    9  C17 UNL     1      -2.382   2.369  -0.730  1.00  0.00     0.212 C 
HETATM   10  O2  UNL     1      -3.509   2.491   0.087  1.00  0.00    -0.386 OA
HETATM   11  C18 UNL     1      -3.143   2.776   1.390  1.00  0.00     0.194 C 
HETATM   12  C19 UNL     1      -1.802   2.210   1.744  1.00  0.00     0.195 C 
HETATM   13  O3  UNL     1      -1.461   1.052   1.061  1.00  0.00    -0.370 OA
BRANCH   8  14
HETATM   14  C4  UNL     1      -2.211  -0.124  -0.865  1.00  0.00     0.212 C 
BRANCH  14  15
HETATM   15  O1  UNL     1      -3.460  -0.396  -0.319  1.00  0.00    -0.383 OA
BRANCH  15  16
HETATM   16  C2  UNL     1      -3.997  -1.557  -0.837  1.00  0.00     0.113 C 
HETATM   17  C1  UNL     1      -4.358  -2.563   0.220  1.00  0.00     0.039 C 
HETATM   18  C3  UNL     1      -5.259  -1.285  -1.636  1.00  0.00     0.039 C 
ENDBRANCH  15  16
ENDBRANCH  14  15
ENDBRANCH   8  14
ENDBRANCH   1   8
BRANCH   4  19
HETATM   19  N1  UNL     1       4.464   0.080  -0.572  1.00  0.00    -0.344 N 
HETATM   20  H13 UNL     1       4.815   0.665  -1.367  1.00  0.00     0.167 HD
BRANCH  19  21
HETATM   21  C10 UNL     1       5.536  -0.682  -0.028  1.00  0.00     0.034 C 
HETATM   22  C11 UNL     1       6.029  -0.579   1.199  1.00  0.00     0.030 C 
HETATM   23  C12 UNL     1       7.139  -1.460   1.562  1.00  0.00     0.015 C 
HETATM   24  C13 UNL     1       7.815  -2.084   0.612  1.00  0.00    -0.014 C 
HETATM   25  C14 UNL     1       7.281  -2.322  -0.531  1.00  0.00    -0.012 C 
HETATM   26  C15 UNL     1       6.177  -1.692  -0.899  1.00  0.00     0.042 C 
ENDBRANCH  19  21
ENDBRANCH   4  19
TORSDOF 6
