REMARK  4 active torsions:
REMARK  status: ('A' for Active; 'I' for Inactive)
REMARK    1  A    between atoms: C6_7  and  N2_8 
REMARK    2  A    between atoms: N2_8  and  C7_9 
REMARK    3  A    between atoms: C11_15  and  O1_16 
REMARK    4  A    between atoms: O1_16  and  C12_17 
ROOT
HETATM    1  C1  UNL     1      -6.061   0.317   1.568  1.00  0.00     0.028 C 
HETATM    2  C2  UNL     1      -5.108   0.192   0.637  1.00  0.00     0.016 A 
HETATM    3  C3  UNL     1      -4.756   1.159  -0.409  1.00  0.00     0.059 A 
HETATM    4  C4  UNL     1      -5.368   2.435  -0.639  1.00  0.00     0.100 C 
HETATM    5  N1  UNL     1      -5.867   3.459  -0.841  1.00  0.00    -0.191 NA
HETATM    6  C5  UNL     1      -3.765   0.587  -1.074  1.00  0.00     0.056 A 
HETATM    7  C6  UNL     1      -3.410  -0.723  -0.546  1.00  0.00     0.075 A 
HETATM    8  C20 UNL     1      -4.208  -0.940   0.458  1.00  0.00     0.154 A 
HETATM    9  F1  UNL     1      -4.161  -2.083   1.200  1.00  0.00    -0.203 F 
ENDROOT
BRANCH   7  10
HETATM   10  N2  UNL     1      -2.371  -1.491  -1.134  1.00  0.00    -0.338 N 
HETATM   11  H4  UNL     1      -2.417  -2.539  -0.997  1.00  0.00     0.167 HD
BRANCH  10  12
HETATM   12  C7  UNL     1      -1.307  -0.912  -1.874  1.00  0.00     0.145 A 
HETATM   13  N3  UNL     1      -1.438  -0.664  -3.193  1.00  0.00    -0.223 NA
HETATM   14  C8  UNL     1      -0.471  -0.121  -3.957  1.00  0.00     0.236 A 
HETATM   15  N4  UNL     1       0.701   0.195  -3.365  1.00  0.00    -0.241 NA
HETATM   16  C9  UNL     1       0.926  -0.015  -2.056  1.00  0.00     0.077 A 
HETATM   17  C10 UNL     1       2.110   0.291  -1.424  1.00  0.00     0.072 A 
HETATM   18  C17 UNL     1      -0.094  -0.573  -1.316  1.00  0.00     0.075 A 
HETATM   19  C11 UNL     1       2.366   0.082  -0.088  1.00  0.00     0.107 A 
HETATM   20  C15 UNL     1       1.324  -0.483   0.646  1.00  0.00     0.136 A 
HETATM   21  C16 UNL     1       0.132  -0.795   0.026  1.00  0.00     0.121 A 
HETATM   22  O3  UNL     1       1.510  -0.721   1.993  1.00  0.00    -0.344 OA
HETATM   23  O2  UNL     1      -0.853  -1.351   0.814  1.00  0.00    -0.345 OA
HETATM   24  C18 UNL     1      -0.783  -1.500   2.197  1.00  0.00     0.202 C 
HETATM   25  C19 UNL     1       0.580  -1.416   2.794  1.00  0.00     0.202 C 
BRANCH  19  26
HETATM   26  O1  UNL     1       3.530   0.373   0.572  1.00  0.00    -0.344 OA
BRANCH  26  27
HETATM   27  C12 UNL     1       4.694   0.939   0.074  1.00  0.00     0.121 C 
HETATM   28  C13 UNL     1       5.068   2.189   0.842  1.00  0.00     0.040 C 
HETATM   29  C14 UNL     1       5.866  -0.024   0.066  1.00  0.00     0.040 C 
ENDBRANCH  26  27
ENDBRANCH  19  26
ENDBRANCH  10  12
ENDBRANCH   7  10
TORSDOF 4
