REMARK  6 active torsions:
REMARK  status: ('A' for Active; 'I' for Inactive)
REMARK    1  A    between atoms: C2_2  and  O1_4 
REMARK    2  A    between atoms: O1_4  and  C4_5 
REMARK    3  A    between atoms: C4_5  and  C17_23 
REMARK    4  A    between atoms: C5_6  and  C6_7 
REMARK    5  A    between atoms: C8_9  and  N1_10 
REMARK    6  A    between atoms: N1_10  and  C9_11 
ROOT
HETATM    1  C9  UNL     1       4.304   0.981  -0.275  1.00  0.00     0.035 A 
HETATM    2  C10 UNL     1       4.299  -0.092   0.597  1.00  0.00     0.032 A 
HETATM    3  C11 UNL     1       5.516  -0.700   0.922  1.00  0.00     0.046 A 
HETATM    4  C12 UNL     1       6.699  -0.257   0.398  1.00  0.00     0.137 A 
HETATM    5  F1  UNL     1       7.916  -0.802   0.673  1.00  0.00    -0.204 F 
HETATM    6  C13 UNL     1       6.724   0.812  -0.474  1.00  0.00     0.085 A 
HETATM    7  C14 UNL     1       7.959   1.320  -1.057  1.00  0.00     0.102 C 
HETATM    8  N2  UNL     1       8.928   1.739  -1.515  1.00  0.00    -0.191 NA
HETATM    9  C15 UNL     1       5.525   1.414  -0.798  1.00  0.00     0.055 A 
ENDROOT
BRANCH   1  10
HETATM   10  N1  UNL     1       3.059   1.622  -0.611  1.00  0.00    -0.341 N 
HETATM   11  H10 UNL     1       3.097   2.446  -1.238  1.00  0.00     0.167 HD
BRANCH  10  12
HETATM   12  C8  UNL     1       1.877   1.061  -0.047  1.00  0.00     0.131 A 
HETATM   13  C7  UNL     1       0.927   0.207  -0.553  1.00  0.00     0.082 A 
HETATM   14  C6  UNL     1      -0.108  -0.175   0.236  1.00  0.00     0.064 A 
HETATM   15  N4  UNL     1      -0.189   0.286   1.499  1.00  0.00    -0.242 NA
HETATM   16  C16 UNL     1       0.719   1.121   2.029  1.00  0.00     0.235 A 
HETATM   17  N3  UNL     1       1.758   1.503   1.232  1.00  0.00    -0.224 NA
BRANCH  14  18
HETATM   18  C5  UNL     1      -1.100  -1.064  -0.325  1.00  0.00     0.069 C 
HETATM   19  C4  UNL     1      -2.397  -0.928   0.029  1.00  0.00     0.079 C 
BRANCH  19  20
HETATM   20  O1  UNL     1      -2.733   0.051   0.911  1.00  0.00    -0.346 OA
BRANCH  20  21
HETATM   21  C2  UNL     1      -3.046   1.380   0.746  1.00  0.00     0.120 C 
HETATM   22  C1  UNL     1      -3.518   2.050   2.019  1.00  0.00     0.040 C 
HETATM   23  C3  UNL     1      -4.088   1.531  -0.336  1.00  0.00     0.040 C 
ENDBRANCH  20  21
ENDBRANCH  19  20
BRANCH  19  24
HETATM   24  C17 UNL     1      -3.404  -1.820  -0.532  1.00  0.00    -0.001 C 
HETATM   25  C18 UNL     1      -4.693  -1.746  -0.227  1.00  0.00     0.144 C 
HETATM   26  O2  UNL     1      -5.433  -2.693  -0.884  1.00  0.00    -0.362 OA
HETATM   27  C19 UNL     1      -4.591  -3.674  -1.460  1.00  0.00     0.179 C 
HETATM   28  C20 UNL     1      -3.261  -2.942  -1.497  1.00  0.00     0.070 C 
ENDBRANCH  19  24
ENDBRANCH  14  18
ENDBRANCH  10  12
ENDBRANCH   1  10
TORSDOF 6
