REMARK  4 active torsions:
REMARK  status: ('A' for Active; 'I' for Inactive)
REMARK    1  A    between atoms: C3_3  and  N1_4 
REMARK    2  A    between atoms: N2_10  and  C9_11 
REMARK    3  A    between atoms: C12_18  and  N7_19 
REMARK    4  A    between atoms: N7_19  and  C13_20 
ROOT
HETATM    1  C9  UNL     1       0.303   1.653   0.499  1.00  0.00     0.272 C 
HETATM    2  N3  UNL     1       0.549   2.291   1.762  1.00  0.00    -0.258 N 
HETATM    3  N4  UNL     1       0.573   3.676   1.493  1.00  0.00    -0.171 NA
HETATM    4  C10 UNL     1       0.681   3.896   0.222  1.00  0.00     0.232 C 
HETATM    5  N5  UNL     1       0.739   2.650  -0.496  1.00  0.00    -0.304 N 
HETATM    6  C11 UNL     1       0.994   1.824  -1.671  1.00  0.00     0.281 C 
HETATM    7  N6  UNL     1       1.627   0.650  -1.049  1.00  0.00    -0.251 NA
HETATM    8  C12 UNL     1       1.239   0.552   0.175  1.00  0.00     0.175 C 
HETATM    9  H12 UNL     1       0.706   2.058   2.759  1.00  0.00     0.187 HD
ENDROOT
BRANCH   1  10
HETATM   10  N2  UNL     1      -1.075   1.339   0.237  1.00  0.00    -0.306 N 
HETATM   11  C2  UNL     1      -1.660   0.130  -0.285  1.00  0.00     0.043 A 
HETATM   12  C1  UNL     1      -0.771  -0.804  -0.551  1.00  0.00     0.066 C 
HETATM   13  C3  UNL     1      -3.105   0.058  -0.463  1.00  0.00     0.052 A 
HETATM   14  C6  UNL     1      -3.898   1.068  -0.159  1.00  0.00     0.033 A 
HETATM   15  C7  UNL     1      -3.289   2.294   0.372  1.00  0.00     0.020 A 
HETATM   16  C8  UNL     1      -1.984   2.407   0.550  1.00  0.00     0.096 A 
BRANCH  13  17
HETATM   17  N1  UNL     1      -3.501  -1.224  -0.992  1.00  0.00    -0.388 N 
HETATM   18  C4  UNL     1      -3.966  -2.007   0.140  1.00  0.00     0.149 C 
HETATM   19  C5  UNL     1      -3.537  -1.856  -2.299  1.00  0.00     0.149 C 
ENDBRANCH  13  17
ENDBRANCH   1  10
BRANCH   8  20
HETATM   20  N7  UNL     1       1.663  -0.462   1.042  1.00  0.00    -0.339 N 
HETATM   21  H16 UNL     1       0.982  -0.872   1.746  1.00  0.00     0.167 HD
BRANCH  20  22
HETATM   22  C13 UNL     1       2.977  -1.001   1.057  1.00  0.00     0.035 A 
HETATM   23  C14 UNL     1       4.014  -0.599   0.253  1.00  0.00     0.029 A 
HETATM   24  C15 UNL     1       5.283  -1.135   0.280  1.00  0.00     0.004 A 
HETATM   25  C16 UNL     1       5.564  -2.150   1.168  1.00  0.00     0.024 A 
HETATM   26  C17 UNL     1       4.580  -2.601   2.000  1.00  0.00     0.036 A 
HETATM   27 CL1  UNL     1       4.855  -3.893   3.163  1.00  0.00    -0.084 Cl
HETATM   28  C18 UNL     1       3.330  -2.022   1.924  1.00  0.00     0.053 A 
ENDBRANCH  20  22
ENDBRANCH   8  20
TORSDOF 4
