REMARK  5 active torsions:
REMARK  status: ('A' for Active; 'I' for Inactive)
REMARK    1  A    between atoms: C5_7  and  C6_8 
REMARK    2  A    between atoms: C7_9  and  N2_10 
REMARK    3  A    between atoms: N2_10  and  C8_11 
REMARK    4  A    between atoms: C12_17  and  O1_18 
REMARK    5  A    between atoms: O1_18  and  C13_19 
ROOT
HETATM    1  C1  UNL     1       6.643   0.578   0.181  1.00  0.00     0.173 A 
HETATM    2  C2  UNL     1       6.740  -0.356  -0.457  1.00  0.00     0.049 A 
HETATM    3  C3  UNL     1       7.797  -1.230  -1.024  1.00  0.00     0.062 C 
HETATM    4  N1  UNL     1       8.592  -1.870  -1.462  1.00  0.00    -0.197 NA
HETATM    5  C4  UNL     1       6.585   1.022   0.487  1.00  0.00     0.124 A 
HETATM    6  F1  UNL     1       7.269   2.119   1.099  1.00  0.00    -0.241 F 
HETATM    7  C5  UNL     1       5.291   0.916   0.632  1.00  0.00     0.055 A 
ENDROOT
BRANCH   7   8
HETATM    8  C6  UNL     1       4.386  -0.091   0.112  1.00  0.00    -0.002 C 
HETATM    9  C7  UNL     1       3.119  -0.012   0.387  1.00  0.00     0.086 C 
BRANCH   9  10
HETATM   10  N2  UNL     1       1.840  -0.539   0.256  1.00  0.00    -0.350 N 
HETATM   11  H6  UNL     1       1.934  -1.285   0.985  1.00  0.00     0.166 HD
BRANCH  10  12
HETATM   12  C8  UNL     1       1.026   0.075  -0.730  1.00  0.00     0.144 A 
HETATM   13  N3  UNL     1       1.649   0.745  -1.687  1.00  0.00    -0.223 NA
HETATM   14  C9  UNL     1       0.930   1.386  -2.649  1.00  0.00     0.236 A 
HETATM   15  N4  UNL     1      -0.411   1.313  -2.586  1.00  0.00    -0.241 NA
HETATM   16  C10 UNL     1      -1.062   0.643  -1.629  1.00  0.00     0.077 A 
HETATM   17  C11 UNL     1      -2.432   0.586  -1.539  1.00  0.00     0.072 A 
HETATM   18  C18 UNL     1      -0.344  -0.009  -0.652  1.00  0.00     0.075 A 
HETATM   19  C12 UNL     1      -3.075  -0.081  -0.534  1.00  0.00     0.107 A 
HETATM   20  C16 UNL     1      -2.275  -0.711   0.408  1.00  0.00     0.136 A 
HETATM   21  C17 UNL     1      -0.901  -0.698   0.384  1.00  0.00     0.121 A 
HETATM   22  O3  UNL     1      -2.856  -1.410   1.460  1.00  0.00    -0.344 OA
HETATM   23  O2  UNL     1      -0.230  -1.365   1.381  1.00  0.00    -0.345 OA
HETATM   24  C19 UNL     1      -0.737  -1.511   2.683  1.00  0.00     0.202 C 
HETATM   25  C20 UNL     1      -2.255  -1.467   2.745  1.00  0.00     0.202 C 
BRANCH  19  26
HETATM   26  O1  UNL     1      -4.451  -0.145  -0.422  1.00  0.00    -0.344 OA
BRANCH  26  27
HETATM   27  C13 UNL     1      -5.396   0.416  -1.270  1.00  0.00     0.121 C 
HETATM   28  C14 UNL     1      -6.480  -0.553  -1.614  1.00  0.00     0.040 C 
HETATM   29  C15 UNL     1      -5.991   1.613  -0.533  1.00  0.00     0.040 C 
ENDBRANCH  26  27
ENDBRANCH  19  26
ENDBRANCH  10  12
ENDBRANCH   9  10
ENDBRANCH   7   8
TORSDOF 5
