REMARK  5 active torsions:
REMARK  status: ('A' for Active; 'I' for Inactive)
REMARK    1  A    between atoms: C2_2  and  C3_3 
REMARK    2  A    between atoms: C3_3  and  C4_4 
REMARK    3  A    between atoms: C4_4  and  O1_5 
REMARK    4  A    between atoms: C7_8  and  C8_9 
REMARK    5  A    between atoms: C9_11  and  C10_12 
ROOT
HETATM    1  C10 UNL     1      -2.535  -4.446   0.203  1.00  0.00     0.142 C 
HETATM    2  S1  UNL     1      -1.895  -4.657   1.622  1.00  0.00    -0.002 SA
HETATM    3  N1  UNL     1      -1.344  -4.826   2.787  1.00  0.00    -0.108 N 
ENDROOT
BRANCH   1   4
HETATM    4  C9  UNL     1      -2.509  -2.965  -0.177  1.00  0.00     0.205 A 
HETATM    5  C8  UNL     1      -2.667  -1.672  -0.526  1.00  0.00     0.094 A 
HETATM    6  F1  UNL     1      -3.846  -2.412  -0.454  1.00  0.00    -0.359 F 
BRANCH   5   7
HETATM    7  C7  UNL     1      -2.084  -0.294  -0.823  1.00  0.00    -0.007 C 
HETATM    8  C6  UNL     1      -0.726  -0.757  -0.579  1.00  0.00    -0.000 C 
HETATM    9  C5  UNL     1       0.023   0.265  -0.778  1.00  0.00     0.017 A 
HETATM   10  O1  UNL     1       1.232  -0.278  -0.523  1.00  0.00     0.000 OA
HETATM   11  C18 UNL     1       1.048   1.253  -0.939  1.00  0.00     0.034 A 
HETATM   12  C17 UNL     1       0.682   2.466  -0.685  1.00  0.00     0.119 A 
HETATM   13  O2  UNL     1       2.144   2.028  -1.146  1.00  0.00     0.000 OA
HETATM   14  C16 UNL     1      -0.690   2.383  -0.313  1.00  0.00     0.086 A 
HETATM   15  O3  UNL     1       0.911   3.895  -0.573  1.00  0.00    -0.375 OA
HETATM   16  C13 UNL     1      -1.858   2.326   0.276  1.00  0.00     0.160 A 
HETATM   17  C15 UNL     1      -0.533   2.472   1.150  1.00  0.00     0.178 A 
HETATM   18  N2  UNL     1      -2.580   2.262  -1.047  1.00  0.00    -0.390 N 
HETATM   19  N3  UNL     1      -3.014   2.270   0.870  1.00  0.00    -0.248 NA
HETATM   20  C12 UNL     1      -3.754   1.397  -1.340  1.00  0.00     0.145 C 
HETATM   21  H17 UNL     1      -2.358   2.844  -1.832  1.00  0.00     0.156 HD
HETATM   22  C11 UNL     1      -3.343   0.011  -1.023  1.00  0.00     0.006 C 
HETATM   23  C14 UNL     1      -2.643   2.373   2.291  1.00  0.00     0.224 A 
HETATM   24  N4  UNL     1      -1.289   2.476   2.325  1.00  0.00    -0.272 NA
HETATM   25  C20 UNL     1       2.017   4.330  -1.453  1.00  0.00     0.169 C 
HETATM   26  C19 UNL     1       2.332   3.004  -2.182  1.00  0.00     0.028 C 
BRANCH  10  27
HETATM   27  C4  UNL     1       1.828  -1.222   0.238  1.00  0.00     0.000 C 
BRANCH  27  28
HETATM   28  C3  UNL     1       3.342  -1.297   0.023  1.00  0.00    -0.000 C 
BRANCH  28  29
HETATM   29  C2  UNL     1       3.934  -2.402   0.849  1.00  0.00    -0.005 C 
HETATM   30  C1  UNL     1       3.758  -2.248   2.334  1.00  0.00     0.005 C 
ENDBRANCH  28  29
ENDBRANCH  27  28
ENDBRANCH  10  27
ENDBRANCH   5   7
ENDBRANCH   1   4
TORSDOF 5
