REMARK  1 active torsions:
REMARK  status: ('A' for Active; 'I' for Inactive)
REMARK    1  A    between atoms: C9_11  and  N1_12 
ROOT
HETATM    1  C1  UNL     1       2.063   2.527  -1.497  1.00  0.00     0.063 C 
HETATM    2  C2  UNL     1       1.607   1.476  -0.853  1.00  0.00     0.012 C 
HETATM    3  C3  UNL     1       2.548   0.705  -0.128  1.00  0.00     0.048 C 
HETATM    4  C4  UNL     1       2.284  -0.425   0.604  1.00  0.00     0.055 A 
HETATM    5 CL1  UNL     1       3.688  -1.163   1.408  1.00  0.00    -0.135 Cl
HETATM    6  C5  UNL     1       1.738  -1.642   1.303  1.00  0.00     0.199 A 
HETATM    7  F1  UNL     1       0.996  -0.973   0.464  1.00  0.00    -0.367 F 
HETATM    8  C6  UNL     1       0.439  -2.099   1.181  1.00  0.00     0.207 A 
HETATM    9  C7  UNL     1      -1.041  -2.260   0.775  1.00  0.00     0.121 C 
HETATM   10  C8  UNL     1      -1.223  -1.861  -0.631  1.00  0.00     0.065 C 
HETATM   11  C9  UNL     1      -1.274  -0.474  -1.061  1.00  0.00     0.260 C 
HETATM   12  C10 UNL     1      -1.223   0.564   0.042  1.00  0.00     0.075 A 
HETATM   13  C11 UNL     1      -0.488   1.710  -0.191  1.00  0.00     0.142 A 
HETATM   14  N2  UNL     1      -0.445   2.702   0.714  1.00  0.00    -0.224 NA
HETATM   15  C12 UNL     1      -1.127   2.598   1.896  1.00  0.00     0.238 A 
HETATM   16  N3  UNL     1      -1.846   1.499   2.164  1.00  0.00    -0.216 NA
HETATM   17  C13 UNL     1      -1.909   0.471   1.262  1.00  0.00     0.198 A 
HETATM   18  O1  UNL     1      -2.634  -0.732   1.477  1.00  0.00    -0.243 OA
HETATM   19  N4  UNL     1      -1.954  -1.921   1.765  1.00  0.00    -0.191 NA
HETATM   20  N5  UNL     1       0.340   1.837  -1.341  1.00  0.00    -0.344 N 
HETATM   21  H12 UNL     1      -2.661  -2.619   2.036  1.00  0.00     0.154 HD
HETATM   22  H13 UNL     1      -0.398   2.127  -1.949  1.00  0.00     0.167 HD
ENDROOT
BRANCH  11  23
HETATM   23  N1  UNL     1      -0.296  -0.202  -2.083  1.00  0.00     0.087 N 
HETATM   24  H9  UNL     1       0.337  -1.028  -2.153  1.00  0.00     0.313 HD
HETATM   25  H10 UNL     1      -0.674  -0.021  -3.025  1.00  0.00     0.313 HD
ENDBRANCH  11  23
TORSDOF 1
