REMARK  7 active torsions:
REMARK  status: ('A' for Active; 'I' for Inactive)
REMARK    1  A    between atoms: C2_2  and  O1_4 
REMARK    2  A    between atoms: O1_4  and  C4_5 
REMARK    3  A    between atoms: C6_7  and  O2_8 
REMARK    4  A    between atoms: O2_8  and  C7_9 
REMARK    5  A    between atoms: C7_9  and  C8_10 
REMARK    6  A    between atoms: C10_13  and  N1_14 
REMARK    7  A    between atoms: N1_14  and  C11_15 
ROOT
HETATM    1  C11 UNL     1       3.693  -0.580  -0.192  1.00  0.00     0.035 A 
HETATM    2  C12 UNL     1       4.590  -1.651  -0.283  1.00  0.00     0.032 A 
HETATM    3  C13 UNL     1       5.937  -1.551  -0.506  1.00  0.00     0.046 A 
HETATM    4  C14 UNL     1       6.478  -0.293  -0.655  1.00  0.00     0.137 A 
HETATM    5  F1  UNL     1       7.806  -0.214  -0.874  1.00  0.00    -0.204 F 
HETATM    6  C15 UNL     1       5.655   0.810  -0.577  1.00  0.00     0.085 A 
HETATM    7  C16 UNL     1       6.320   2.077  -0.747  1.00  0.00     0.102 C 
HETATM    8  N2  UNL     1       6.840   3.102  -0.889  1.00  0.00    -0.191 NA
HETATM    9  C17 UNL     1       4.306   0.658  -0.352  1.00  0.00     0.055 A 
ENDROOT
BRANCH   1  10
HETATM   10  N1  UNL     1       2.292  -0.641   0.053  1.00  0.00    -0.340 N 
HETATM   11  H12 UNL     1       2.254  -1.448   0.695  1.00  0.00     0.167 HD
BRANCH  10  12
HETATM   12  C10 UNL     1       1.391   0.266  -0.530  1.00  0.00     0.144 A 
HETATM   13  C9  UNL     1       0.039   0.296  -0.294  1.00  0.00     0.072 A 
HETATM   14  C6  UNL     1      -0.519  -0.598   0.583  1.00  0.00     0.088 A 
HETATM   15  C19 UNL     1      -0.763   1.216  -0.934  1.00  0.00     0.077 A 
HETATM   16  C5  UNL     1      -1.888  -0.501   0.762  1.00  0.00     0.074 A 
HETATM   17  C4  UNL     1      -2.711   0.411   0.132  1.00  0.00     0.074 A 
HETATM   18  C20 UNL     1      -2.109   1.291  -0.741  1.00  0.00     0.069 A 
HETATM   19  N4  UNL     1      -0.223   2.104  -1.805  1.00  0.00    -0.241 NA
HETATM   20  C18 UNL     1       1.100   2.066  -2.028  1.00  0.00     0.236 A 
HETATM   21  N3  UNL     1       1.866   1.168  -1.401  1.00  0.00    -0.223 NA
BRANCH  14  22
HETATM   22  O2  UNL     1       0.199  -1.554   1.270  1.00  0.00    -0.343 OA
BRANCH  22  23
HETATM   23  C7  UNL     1      -0.476  -2.421   2.149  1.00  0.00     0.245 C 
BRANCH  23  24
HETATM   24  C8  UNL     1       0.434  -3.388   2.808  1.00  0.00     0.257 C 
HETATM   25  O3  UNL     1      -0.131  -4.167   3.589  1.00  0.00    -0.305 OA
ENDBRANCH  23  24
ENDBRANCH  22  23
ENDBRANCH  14  22
BRANCH  17  26
HETATM   26  O1  UNL     1      -4.057   0.376   0.419  1.00  0.00    -0.346 OA
BRANCH  26  27
HETATM   27  C2  UNL     1      -5.051   1.200  -0.096  1.00  0.00     0.120 C 
HETATM   28  C1  UNL     1      -5.941   0.303  -0.970  1.00  0.00     0.040 C 
HETATM   29  C3  UNL     1      -5.927   1.839   0.931  1.00  0.00     0.040 C 
ENDBRANCH  26  27
ENDBRANCH  17  26
ENDBRANCH  10  12
ENDBRANCH   1  10
TORSDOF 7
