REMARK  7 active torsions:
REMARK  status: ('A' for Active; 'I' for Inactive)
REMARK    1  A    between atoms: O1_2  and  C2_3 
REMARK    2  A    between atoms: C2_3  and  C3_4 
REMARK    3  A    between atoms: C3_4  and  C4_5 
REMARK    4  A    between atoms: C4_5  and  O2_6 
REMARK    5  A    between atoms: C5_7  and  C6_8 
REMARK    6  A    between atoms: C8_10  and  N1_11 
REMARK    7  A    between atoms: N1_11  and  C9_12 
ROOT
HETATM    1  C9  UNL     1      -3.938  -0.200   0.337  1.00  0.00     0.035 A 
HETATM    2  C10 UNL     1      -4.203   0.698  -0.675  1.00  0.00     0.032 A 
HETATM    3  C11 UNL     1      -5.432   0.933  -1.231  1.00  0.00     0.046 A 
HETATM    4  C12 UNL     1      -6.507   0.217  -0.747  1.00  0.00     0.137 A 
HETATM    5  F1  UNL     1      -7.732   0.412  -1.260  1.00  0.00    -0.204 F 
HETATM    6  C13 UNL     1      -6.318  -0.689   0.255  1.00  0.00     0.085 A 
HETATM    7  C14 UNL     1      -7.417  -1.453   0.781  1.00  0.00     0.102 C 
HETATM    8  N2  UNL     1      -8.312  -2.066   1.228  1.00  0.00    -0.191 NA
HETATM    9  C15 UNL     1      -5.058  -0.872   0.764  1.00  0.00     0.055 A 
ENDROOT
BRANCH   1  10
HETATM   10  N1  UNL     1      -2.682  -0.455   0.904  1.00  0.00    -0.341 N 
HETATM   11  H11 UNL     1      -2.673  -1.092   1.751  1.00  0.00     0.167 HD
BRANCH  10  12
HETATM   12  C8  UNL     1      -1.418   0.035   0.487  1.00  0.00     0.131 A 
HETATM   13  C7  UNL     1      -0.263  -0.332   1.177  1.00  0.00     0.082 A 
HETATM   14  C6  UNL     1       0.990   0.095   0.826  1.00  0.00     0.064 A 
HETATM   15  N4  UNL     1       1.075   0.906  -0.240  1.00  0.00    -0.242 NA
HETATM   16  C16 UNL     1       0.004   1.294  -0.944  1.00  0.00     0.235 A 
HETATM   17  N3  UNL     1      -1.192   0.844  -0.551  1.00  0.00    -0.224 NA
BRANCH  14  18
HETATM   18  C5  UNL     1       2.164  -0.314   1.583  1.00  0.00     0.063 C 
HETATM   19  C4  UNL     1       3.285  -0.634   1.002  1.00  0.00     0.047 C 
BRANCH  19  20
HETATM   20  C3  UNL     1       3.609  -0.659  -0.448  1.00  0.00     0.090 C 
BRANCH  20  21
HETATM   21  C2  UNL     1       4.751   0.310  -0.679  1.00  0.00     0.173 C 
BRANCH  21  22
HETATM   22  O1  UNL     1       5.829  -0.132   0.086  1.00  0.00    -0.396 OA
HETATM   23  C1  UNL     1       6.918   0.744  -0.108  1.00  0.00     0.201 C 
ENDBRANCH  21  22
ENDBRANCH  20  21
ENDBRANCH  19  20
BRANCH  19  24
HETATM   24  O2  UNL     1       4.412  -1.024   1.714  1.00  0.00    -0.365 OA
HETATM   25  H8  UNL     1       4.431  -0.881   2.704  1.00  0.00     0.217 HD
ENDBRANCH  19  24
ENDBRANCH  14  18
ENDBRANCH  10  12
ENDBRANCH   1  10
TORSDOF 7
