REMARK  5 active torsions:
REMARK  status: ('A' for Active; 'I' for Inactive)
REMARK    1  A    between atoms: C2_2  and  O1_4 
REMARK    2  A    between atoms: O1_4  and  C4_5 
REMARK    3  A    between atoms: C4_5  and  C9_12 
REMARK    4  A    between atoms: N1_15  and  C12_16 
REMARK    5  A    between atoms: C15_19  and  C16_20 
ROOT
HETATM    1  C9  UNL     1       0.227   0.681  -0.139  1.00  0.00     0.066 C 
HETATM    2  C10 UNL     1       0.850  -0.475  -0.907  1.00  0.00     0.035 C 
HETATM    3  C11 UNL     1       2.289  -0.003  -1.141  1.00  0.00     0.149 C 
HETATM    4  N1  UNL     1       2.888  -0.017   0.180  1.00  0.00    -0.303 N 
HETATM    5  N2  UNL     1       2.285   0.687   1.207  1.00  0.00    -0.334 N 
HETATM    6  C17 UNL     1       0.885   0.824   1.184  1.00  0.00     0.151 C 
HETATM    7  H22 UNL     1       2.726   0.577   2.121  1.00  0.00     0.180 HD
ENDROOT
BRANCH   1   8
HETATM    8  C4  UNL     1      -1.232   0.578  -0.083  1.00  0.00     0.084 C 
HETATM    9  C5  UNL     1      -2.066   1.421  -0.664  1.00  0.00     0.099 C 
HETATM   10  C6  UNL     1      -1.917   2.659  -1.502  1.00  0.00     0.234 C 
HETATM   11  O3  UNL     1      -3.420   1.159  -0.499  1.00  0.00    -0.349 OA
HETATM   12  O2  UNL     1      -2.524   3.671  -0.754  1.00  0.00    -0.383 OA
HETATM   13  C7  UNL     1      -3.910   3.543  -0.710  1.00  0.00     0.194 C 
HETATM   14  C8  UNL     1      -4.322   2.106  -1.042  1.00  0.00     0.201 C 
BRANCH   8  15
HETATM   15  O1  UNL     1      -1.543  -0.549   0.678  1.00  0.00    -0.348 OA
BRANCH  15  16
HETATM   16  C2  UNL     1      -2.407  -1.572   0.274  1.00  0.00     0.120 C 
HETATM   17  C1  UNL     1      -2.565  -2.680   1.300  1.00  0.00     0.040 C 
HETATM   18  C3  UNL     1      -1.965  -2.228  -1.024  1.00  0.00     0.040 C 
ENDBRANCH  15  16
ENDBRANCH   8  15
ENDBRANCH   1   8
BRANCH   4  19
HETATM   19  C12 UNL     1       4.067  -0.721   0.471  1.00  0.00     0.022 A 
HETATM   20  C13 UNL     1       5.243  -1.092   0.072  1.00  0.00     0.019 A 
HETATM   21  C14 UNL     1       6.579  -1.643  -0.114  1.00  0.00     0.012 A 
HETATM   22  C16 UNL     1       4.944  -1.547   1.384  1.00  0.00     0.054 A 
HETATM   23  C15 UNL     1       6.315  -2.094   1.097  1.00  0.00     0.017 A 
ENDBRANCH   4  19
TORSDOF 5
