REMARK  7 active torsions:
REMARK  status: ('A' for Active; 'I' for Inactive)
REMARK    1  A    between atoms: C2_2  and  C4_5 
REMARK    2  A    between atoms: C5_7  and  C6_8 
REMARK    3  A    between atoms: C7_9  and  C8_10 
REMARK    4  A    between atoms: C8_10  and  N2_11 
REMARK    5  A    between atoms: N2_11  and  C9_12 
REMARK    6  A    between atoms: C13_18  and  O1_19 
REMARK    7  A    between atoms: O1_19  and  C14_20 
ROOT
HETATM    1  C1  UNL     1       8.345  -2.722  -0.700  1.00  0.00     0.058 C 
HETATM    2  C2  UNL     1       7.203  -2.194  -1.105  1.00  0.00     0.061 C 
HETATM    3  C3  UNL     1       7.339  -0.893  -1.689  1.00  0.00     0.098 C 
HETATM    4  N1  UNL     1       7.442   0.176  -2.174  1.00  0.00    -0.192 NA
ENDROOT
BRANCH   2   5
HETATM    5  C4  UNL     1       5.924  -2.895  -0.962  1.00  0.00     0.133 C 
HETATM    6  F1  UNL     1       5.941  -4.119  -0.397  1.00  0.00    -0.205 F 
HETATM    7  C5  UNL     1       4.820  -2.338  -1.370  1.00  0.00     0.043 C 
BRANCH   7   8
HETATM    8  C6  UNL     1       3.933  -1.355  -1.947  1.00  0.00     0.001 C 
HETATM    9  C7  UNL     1       2.710  -0.995  -2.285  1.00  0.00    -0.007 C 
BRANCH   9  10
HETATM   10  C8  UNL     1       1.562  -1.899  -2.036  1.00  0.00     0.148 C 
BRANCH  10  11
HETATM   11  N2  UNL     1       0.555  -1.330  -1.171  1.00  0.00    -0.370 N 
HETATM   12  H8  UNL     1       0.512  -1.932  -0.354  1.00  0.00     0.161 HD
BRANCH  11  13
HETATM   13  C9  UNL     1      -0.077  -0.138  -1.661  1.00  0.00     0.140 A 
HETATM   14  N3  UNL     1       0.286   0.371  -2.831  1.00  0.00    -0.224 NA
HETATM   15  C10 UNL     1      -0.263   1.479  -3.334  1.00  0.00     0.236 A 
HETATM   16  N4  UNL     1      -1.223   2.154  -2.688  1.00  0.00    -0.241 NA
HETATM   17  C11 UNL     1      -1.654   1.709  -1.493  1.00  0.00     0.077 A 
HETATM   18  C12 UNL     1      -2.644   2.358  -0.780  1.00  0.00     0.072 A 
HETATM   19  C19 UNL     1      -1.065   0.560  -1.001  1.00  0.00     0.075 A 
HETATM   20  C13 UNL     1      -3.113   1.916   0.459  1.00  0.00     0.107 A 
HETATM   21  C17 UNL     1      -2.484   0.771   0.888  1.00  0.00     0.136 A 
HETATM   22  C18 UNL     1      -1.498   0.084   0.224  1.00  0.00     0.121 A 
HETATM   23  O3  UNL     1      -2.915   0.297   2.108  1.00  0.00    -0.344 OA
HETATM   24  O2  UNL     1      -1.024  -1.033   0.849  1.00  0.00    -0.345 OA
HETATM   25  C20 UNL     1      -0.878  -1.051   2.248  1.00  0.00     0.202 C 
HETATM   26  C21 UNL     1      -2.178  -0.623   2.875  1.00  0.00     0.202 C 
BRANCH  20  27
HETATM   27  O1  UNL     1      -4.078   2.701   0.969  1.00  0.00    -0.344 OA
BRANCH  27  28
HETATM   28  C14 UNL     1      -4.763   2.599   2.167  1.00  0.00     0.121 C 
HETATM   29  C15 UNL     1      -4.784   3.950   2.893  1.00  0.00     0.040 C 
HETATM   30  C16 UNL     1      -6.231   2.275   1.819  1.00  0.00     0.040 C 
ENDBRANCH  27  28
ENDBRANCH  20  27
ENDBRANCH  11  13
ENDBRANCH  10  11
ENDBRANCH   9  10
ENDBRANCH   7   8
ENDBRANCH   2   5
TORSDOF 7
