REMARK  5 active torsions:
REMARK  status: ('A' for Active; 'I' for Inactive)
REMARK    1  A    between atoms: C3_3  and  N1_4 
REMARK    2  A    between atoms: C10_15  and  O3_16 
REMARK    3  A    between atoms: O3_16  and  C11_17 
REMARK    4  A    between atoms: C11_17  and  C12_18 
REMARK    5  A    between atoms: C16_23  and  C17_24 
ROOT
HETATM    1  C1  UNL     1      -6.260   0.399  -0.784  1.00  0.00     0.015 C 
HETATM    2  C2  UNL     1      -5.167   0.751  -0.386  1.00  0.00    -0.081 C 
HETATM    3  C3  UNL     1      -3.847   1.182   0.086  1.00  0.00     0.122 A 
HETATM    4  C19 UNL     1      -3.727   1.337   1.534  1.00  0.00     0.014 A 
HETATM    5  C20 UNL     1      -3.529   2.654   1.388  1.00  0.00    -0.023 A 
HETATM    6  C21 UNL     1      -3.630   2.634  -0.099  1.00  0.00     0.076 A 
ENDROOT
BRANCH   3   7
HETATM    7  N1  UNL     1      -2.844   0.304  -0.564  1.00  0.00    -0.294 N 
HETATM    8  C4  UNL     1      -3.100   0.418  -2.049  1.00  0.00     0.213 C 
HETATM    9  N2  UNL     1      -1.844   0.334  -2.558  1.00  0.00    -0.228 NA
HETATM   10  C5  UNL     1      -1.074  -0.729  -1.993  1.00  0.00     0.138 C 
HETATM   11  N3  UNL     1      -1.608  -1.554  -1.063  1.00  0.00    -0.209 NA
HETATM   12  C16 UNL     1       0.365  -1.064  -1.922  1.00  0.00     0.116 C 
HETATM   13  C6  UNL     1      -1.851  -0.546   0.066  1.00  0.00     0.296 C 
HETATM   14  O1  UNL     1      -2.348  -1.142   1.168  1.00  0.00    -0.334 OA
HETATM   15  C9  UNL     1      -0.453  -0.053   0.217  1.00  0.00     0.156 C 
HETATM   16  C7  UNL     1      -1.549  -1.150   2.276  1.00  0.00     0.200 C 
HETATM   17  C8  UNL     1      -0.863   0.124   2.629  1.00  0.00     0.202 C 
HETATM   18  O2  UNL     1      -0.441   0.718   1.371  1.00  0.00    -0.344 OA
HETATM   19  C10 UNL     1       0.660  -0.288  -0.594  1.00  0.00     0.094 C 
BRANCH  19  20
HETATM   20  O3  UNL     1       1.898   0.170  -0.175  1.00  0.00    -0.349 OA
BRANCH  20  21
HETATM   21  C11 UNL     1       3.014  -0.672  -0.387  1.00  0.00     0.207 C 
BRANCH  21  22
HETATM   22  C12 UNL     1       4.294  -0.053   0.119  1.00  0.00     0.145 C 
HETATM   23  C13 UNL     1       4.158   0.358   1.580  1.00  0.00     0.036 C 
HETATM   24  C14 UNL     1       5.251   1.394   1.696  1.00  0.00     0.029 C 
HETATM   25  C15 UNL     1       5.306   1.944   0.309  1.00  0.00     0.168 C 
HETATM   26  O4  UNL     1       4.563   1.133  -0.510  1.00  0.00    -0.384 OA
ENDBRANCH  21  22
ENDBRANCH  20  21
ENDBRANCH  19  20
BRANCH  12  27
HETATM   27  C17 UNL     1       0.666  -2.498  -1.785  1.00  0.00     0.015 C 
HETATM   28  C18 UNL     1       0.083  -3.207  -3.000  1.00  0.00     0.006 C 
ENDBRANCH  12  27
ENDBRANCH   3   7
TORSDOF 5
