REMARK  4 active torsions:
REMARK  status: ('A' for Active; 'I' for Inactive)
REMARK    1  A    between atoms: C6_6  and  N1_7 
REMARK    2  A    between atoms: C10_13  and  O1_14 
REMARK    3  A    between atoms: O1_14  and  C11_15 
REMARK    4  A    between atoms: C11_15  and  C12_16 
ROOT
HETATM    1  N1  UNL     1       2.268  -0.104   1.275  1.00  0.00    -0.251 N 
HETATM    2  N2  UNL     1       2.521   0.450   2.555  1.00  0.00    -0.287 N 
HETATM    3  C7  UNL     1       1.445   0.679   3.482  1.00  0.00     0.224 A 
HETATM    4  N3  UNL     1       0.216   0.382   3.166  1.00  0.00    -0.240 NA
HETATM    5  C8  UNL     1      -0.038  -0.172   1.885  1.00  0.00     0.092 A 
HETATM    6  C9  UNL     1      -1.323  -0.496   1.501  1.00  0.00     0.074 A 
HETATM    7  C10 UNL     1      -1.668  -1.030   0.278  1.00  0.00     0.107 A 
HETATM    8  C16 UNL     1      -0.613  -1.244  -0.609  1.00  0.00     0.138 A 
HETATM    9  C17 UNL     1       0.710  -0.938  -0.282  1.00  0.00     0.136 A 
HETATM   10  C18 UNL     1       0.929  -0.416   0.955  1.00  0.00     0.122 A 
HETATM   11  O3  UNL     1       1.732  -1.153  -1.165  1.00  0.00    -0.344 OA
HETATM   12  C19 UNL     1       1.488  -1.844  -2.366  1.00  0.00     0.202 C 
HETATM   13  C20 UNL     1       0.083  -1.531  -2.895  1.00  0.00     0.202 C 
HETATM   14  O4  UNL     1      -0.862  -1.779  -1.867  1.00  0.00    -0.344 OA
HETATM   15  H7  UNL     1       3.483   0.723   2.902  1.00  0.00     0.188 HD
ENDROOT
BRANCH   1  16
HETATM   16  C6  UNL     1       3.447  -0.256   0.503  1.00  0.00     0.057 A 
HETATM   17  C5  UNL     1       4.151  -1.366   0.028  1.00  0.00     0.031 A 
HETATM   18  C4  UNL     1       5.278  -1.191  -0.723  1.00  0.00     0.003 A 
HETATM   19  C3  UNL     1       5.783   0.048  -1.053  1.00  0.00     0.007 A 
HETATM   20  C2  UNL     1       5.102   1.154  -0.593  1.00  0.00    -0.060 A 
HETATM   21  C1  UNL     1       5.686   2.466  -0.975  1.00  0.00     0.048 C 
HETATM   22  C21 UNL     1       3.943   1.014   0.179  1.00  0.00     0.038 A 
ENDBRANCH   1  16
BRANCH   7  23
HETATM   23  O1  UNL     1      -2.902  -1.367  -0.159  1.00  0.00    -0.346 OA
BRANCH  23  24
HETATM   24  C11 UNL     1      -4.152  -1.289   0.407  1.00  0.00     0.207 C 
BRANCH  24  25
HETATM   25  C12 UNL     1      -4.664   0.066   0.765  1.00  0.00     0.145 C 
HETATM   26  C13 UNL     1      -5.037   0.737  -0.566  1.00  0.00     0.036 C 
HETATM   27  C14 UNL     1      -5.978   1.815  -0.086  1.00  0.00     0.029 C 
HETATM   28  C15 UNL     1      -6.586   1.167   1.135  1.00  0.00     0.168 C 
HETATM   29  O2  UNL     1      -5.944  -0.049   1.333  1.00  0.00    -0.384 OA
ENDBRANCH  24  25
ENDBRANCH  23  24
ENDBRANCH   7  23
TORSDOF 4
