REMARK  6 active torsions:
REMARK  status: ('A' for Active; 'I' for Inactive)
REMARK    1  A    between atoms: C4_4  and  C5_5 
REMARK    2  A    between atoms: C6_6  and  C7_7 
REMARK    3  A    between atoms: C7_7  and  N1_8 
REMARK    4  A    between atoms: N1_8  and  C8_9 
REMARK    5  A    between atoms: C10_13  and  O1_14 
REMARK    6  A    between atoms: O1_14  and  C11_15 
ROOT
HETATM    1  C1  UNL     1       4.355   1.633  -3.505  1.00  0.00     0.017 C 
HETATM    2  C2  UNL     1       5.217   0.872  -3.151  1.00  0.00    -0.089 C 
HETATM    3  C3  UNL     1       6.242  -0.026  -2.711  1.00  0.00     0.063 C 
HETATM    4  C4  UNL     1       5.991  -0.801  -1.668  1.00  0.00     0.009 C 
ENDROOT
BRANCH   4   5
HETATM    5  C5  UNL     1       4.681  -0.683  -1.039  1.00  0.00    -0.002 C 
HETATM    6  C6  UNL     1       4.367  -1.427   0.006  1.00  0.00    -0.007 C 
BRANCH   6   7
HETATM    7  C7  UNL     1       3.147  -1.521   0.829  1.00  0.00     0.148 C 
BRANCH   7   8
HETATM    8  N1  UNL     1       2.090  -0.623   0.407  1.00  0.00    -0.375 N 
HETATM    9  H8  UNL     1       2.143   0.056  -0.410  1.00  0.00     0.161 HD
BRANCH   8  10
HETATM   10  C8  UNL     1       0.848  -0.609   1.117  1.00  0.00     0.105 A 
HETATM   11  N2  UNL     1       0.903  -1.100   2.331  1.00  0.00    -0.229 NA
HETATM   12  C9  UNL     1      -0.280  -1.132   3.122  1.00  0.00     0.231 A 
HETATM   13  N3  UNL     1      -1.328  -0.684   2.613  1.00  0.00    -0.250 NA
HETATM   14  C10 UNL     1      -1.533  -0.139   1.354  1.00  0.00     0.255 A 
HETATM   15  C15 UNL     1      -0.357  -0.072   0.468  1.00  0.00     0.134 A 
BRANCH  14  16
HETATM   16  O1  UNL     1      -2.670  -0.657   0.694  1.00  0.00    -0.333 OA
BRANCH  16  17
HETATM   17  C11 UNL     1      -3.669   0.263   0.512  1.00  0.00     0.286 C 
HETATM   18  C12 UNL     1      -3.944   0.454  -0.957  1.00  0.00     0.228 C 
HETATM   19  O2  UNL     1      -5.088   1.200  -1.114  1.00  0.00    -0.384 OA
HETATM   20  C13 UNL     1      -5.594   1.768   0.027  1.00  0.00     0.194 C 
HETATM   21  C14 UNL     1      -5.834   0.762   1.131  1.00  0.00     0.197 C 
HETATM   22  O3  UNL     1      -4.791  -0.156   1.229  1.00  0.00    -0.357 OA
ENDBRANCH  16  17
ENDBRANCH  14  16
ENDBRANCH   8  10
ENDBRANCH   7   8
ENDBRANCH   6   7
ENDBRANCH   4   5
TORSDOF 6
