REMARK  5 active torsions:
REMARK  status: ('A' for Active; 'I' for Inactive)
REMARK    1  A    between atoms: C3_3  and  C21_26 
REMARK    2  A    between atoms: C5_5  and  C6_6 
REMARK    3  A    between atoms: C6_6  and  C7_7 
REMARK    4  A    between atoms: C7_7  and  N1_8 
REMARK    5  A    between atoms: N1_8  and  C8_9 
ROOT
HETATM    1  C8  UNL     1      -0.135   0.702   0.052  1.00  0.00     0.132 C 
HETATM    2  N2  UNL     1       0.539   1.646   0.708  1.00  0.00    -0.224 NA
HETATM    3  C9  UNL     1      -0.260   2.518   1.662  1.00  0.00     0.235 C 
HETATM    4  N3  UNL     1      -1.613   2.667   1.748  1.00  0.00    -0.246 NA
HETATM    5  C10 UNL     1      -2.582   1.984   0.943  1.00  0.00     0.038 C 
HETATM    6  C11 UNL     1      -3.685   1.324   1.188  1.00  0.00     0.026 C 
HETATM    7  C12 UNL     1      -4.690   0.633   0.429  1.00  0.00     0.197 C 
HETATM    8  O1  UNL     1      -4.811  -0.723   0.739  1.00  0.00    -0.384 OA
HETATM    9  C13 UNL     1      -3.585  -1.348   0.428  1.00  0.00     0.196 C 
HETATM   10  C14 UNL     1      -3.233  -1.263  -0.980  1.00  0.00     0.009 C 
HETATM   11  C15 UNL     1      -2.480  -0.917  -2.029  1.00  0.00    -0.027 C 
HETATM   12  C16 UNL     1      -2.063  -0.800  -3.457  1.00  0.00     0.207 C 
HETATM   13  O2  UNL     1      -0.669  -1.053  -3.374  1.00  0.00    -0.382 OA
HETATM   14  C17 UNL     1      -0.556  -1.425  -1.944  1.00  0.00     0.207 C 
HETATM   15  C18 UNL     1      -1.278  -0.302  -1.443  1.00  0.00    -0.016 C 
HETATM   16  C19 UNL     1      -1.407   0.745  -0.673  1.00  0.00     0.002 C 
HETATM   17  C20 UNL     1      -2.392   1.830  -0.513  1.00  0.00     0.102 C 
ENDROOT
BRANCH   1  18
HETATM   18  N1  UNL     1       0.568  -0.526   0.243  1.00  0.00    -0.374 N 
HETATM   19  H6  UNL     1      -0.136  -1.352   0.329  1.00  0.00     0.161 HD
BRANCH  18  20
HETATM   20  C7  UNL     1       1.840  -1.107   0.360  1.00  0.00     0.127 C 
BRANCH  20  21
HETATM   21  C6  UNL     1       2.739  -0.840   1.478  1.00  0.00     0.019 C 
BRANCH  21  22
HETATM   22  C5  UNL     1       4.009  -0.497   1.179  1.00  0.00     0.031 A 
HETATM   23  C4  UNL     1       4.692  -0.291   2.451  1.00  0.00    -0.028 A 
HETATM   24  C3  UNL     1       5.681  -0.088   1.611  1.00  0.00     0.020 A 
HETATM   25  C2  UNL     1       6.387   0.060   1.171  1.00  0.00    -0.055 A 
HETATM   26  C1  UNL     1       6.745   0.129   0.939  1.00  0.00    -0.055 A 
HETATM   27  C21 UNL     1       7.429   0.256   0.477  1.00  0.00     0.084 A 
ENDBRANCH  21  22
ENDBRANCH  20  21
ENDBRANCH  18  20
ENDBRANCH   1  18
TORSDOF 5
