REMARK  5 active torsions:
REMARK  status: ('A' for Active; 'I' for Inactive)
REMARK    1  A    between atoms: C7_7  and  N1_8 
REMARK    2  A    between atoms: N1_8  and  C8_9 
REMARK    3  A    between atoms: C12_15  and  O1_16 
REMARK    4  A    between atoms: O1_16  and  C13_17 
REMARK    5  A    between atoms: C13_17  and  C14_18 
ROOT
HETATM    1  C1  UNL     1       6.452   3.591  -2.060  1.00  0.00     0.018 C 
HETATM    2  C2  UNL     1       6.199   2.600  -1.417  1.00  0.00    -0.078 C 
HETATM    3  C3  UNL     1       5.874   1.421  -0.659  1.00  0.00     0.019 A 
HETATM    4  C4  UNL     1       6.890   0.942   0.131  1.00  0.00     0.021 A 
HETATM    5  C5  UNL     1       6.652  -0.183   0.885  1.00  0.00     0.004 A 
HETATM    6  C6  UNL     1       5.432  -0.815   0.853  1.00  0.00     0.029 A 
HETATM    7  C7  UNL     1       4.381  -0.362   0.069  1.00  0.00     0.035 A 
HETATM    8  C23 UNL     1       4.649   0.787  -0.691  1.00  0.00     0.050 A 
ENDROOT
BRANCH   7   9
HETATM    9  N1  UNL     1       3.041  -0.883  -0.106  1.00  0.00    -0.340 N 
HETATM   10  H5  UNL     1       3.422  -1.812  -0.307  1.00  0.00     0.167 HD
BRANCH   9  11
HETATM   11  C8  UNL     1       2.039   0.101   0.077  1.00  0.00     0.143 A 
HETATM   12  N2  UNL     1       2.427   1.353   0.356  1.00  0.00    -0.223 NA
HETATM   13  C9  UNL     1       1.605   2.388   0.563  1.00  0.00     0.236 A 
HETATM   14  N3  UNL     1       0.309   2.079   0.470  1.00  0.00    -0.241 NA
HETATM   15  C10 UNL     1      -0.154   0.853   0.195  1.00  0.00     0.076 A 
HETATM   16  C11 UNL     1      -1.503   0.609   0.118  1.00  0.00     0.072 A 
HETATM   17  C20 UNL     1       0.715  -0.190  -0.013  1.00  0.00     0.058 A 
HETATM   18  C12 UNL     1      -2.109  -0.593  -0.148  1.00  0.00     0.105 A 
HETATM   19  C18 UNL     1      -1.145  -1.618  -0.351  1.00  0.00     0.119 A 
HETATM   20  C19 UNL     1       0.243  -1.440  -0.289  1.00  0.00     0.053 A 
HETATM   21  O3  UNL     1      -1.588  -2.923  -0.637  1.00  0.00    -0.346 OA
HETATM   22  S1  UNL     1       1.368  -2.789  -0.565  1.00  0.00    -0.124 SA
HETATM   23  C21 UNL     1       0.360  -4.185  -1.113  1.00  0.00     0.106 C 
HETATM   24  C22 UNL     1      -0.907  -4.097  -0.249  1.00  0.00     0.186 C 
BRANCH  18  25
HETATM   25  O1  UNL     1      -3.364  -0.990  -0.251  1.00  0.00    -0.346 OA
BRANCH  25  26
HETATM   26  C13 UNL     1      -4.585  -0.468  -0.121  1.00  0.00     0.207 C 
BRANCH  26  27
HETATM   27  C14 UNL     1      -4.939  -0.017   1.254  1.00  0.00     0.145 C 
HETATM   28  C15 UNL     1      -6.336   0.596   1.217  1.00  0.00     0.036 C 
HETATM   29  C16 UNL     1      -6.012   2.034   0.840  1.00  0.00     0.029 C 
HETATM   30  C17 UNL     1      -4.662   2.208   1.520  1.00  0.00     0.168 C 
HETATM   31  O2  UNL     1      -4.158   0.958   1.748  1.00  0.00    -0.384 OA
ENDBRANCH  26  27
ENDBRANCH  25  26
ENDBRANCH  18  25
ENDBRANCH   9  11
ENDBRANCH   7   9
TORSDOF 5
