REMARK  3 active torsions:
REMARK  status: ('A' for Active; 'I' for Inactive)
REMARK    1  A    between atoms: C5_5  and  N1_7 
REMARK    2  A    between atoms: C10_13  and  O1_14 
REMARK    3  A    between atoms: O1_14  and  C11_15 
ROOT
HETATM    1  C1  UNL     1      -6.295   2.448  -1.048  1.00  0.00     0.017 C 
HETATM    2  C2  UNL     1      -5.367   1.693  -0.782  1.00  0.00    -0.082 C 
HETATM    3  C3  UNL     1      -4.275   0.822  -0.451  1.00  0.00    -0.005 A 
HETATM    4  C4  UNL     1      -3.617  -0.019  -1.144  1.00  0.00     0.016 A 
HETATM    5  C5  UNL     1      -2.745  -0.399   0.014  1.00  0.00     0.053 A 
HETATM    6  C6  UNL     1      -3.018  -1.824   0.475  1.00  0.00     0.039 C 
HETATM    7  C18 UNL     1      -3.512   0.578   0.763  1.00  0.00     0.078 A 
ENDROOT
BRANCH   5   8
HETATM    8  N1  UNL     1      -1.380  -0.141  -0.412  1.00  0.00    -0.202 NA
HETATM    9  N2  UNL     1      -1.271  -0.860  -1.655  1.00  0.00    -0.311 N 
HETATM   10  C7  UNL     1      -1.127  -2.293  -1.552  1.00  0.00     0.218 C 
HETATM   11  H6  UNL     1      -1.292  -0.481  -2.644  1.00  0.00     0.181 HD
HETATM   12  N3  UNL     1      -0.153  -2.628  -0.715  1.00  0.00    -0.245 NA
HETATM   13  C8  UNL     1       0.569  -1.542  -0.081  1.00  0.00     0.062 A 
HETATM   14  C9  UNL     1       1.906  -1.668  -0.087  1.00  0.00     0.069 A 
HETATM   15  C17 UNL     1      -0.351  -0.500   0.479  1.00  0.00     0.170 A 
HETATM   16  C10 UNL     1       2.623  -0.569   0.542  1.00  0.00     0.104 A 
HETATM   17  C13 UNL     1       1.985   0.458   1.067  1.00  0.00     0.115 A 
HETATM   18  O2  UNL     1       2.837   1.416   1.624  1.00  0.00    -0.322 OA
HETATM   19  C16 UNL     1       0.513   0.550   1.044  1.00  0.00     0.026 A 
HETATM   20  C14 UNL     1       2.330   2.747   1.819  1.00  0.00     0.350 C 
HETATM   21  O3  UNL     1       0.946   2.649   2.187  1.00  0.00    -0.337 OA
HETATM   22  C15 UNL     1       0.137   1.672   1.626  1.00  0.00     0.149 C 
BRANCH  16  23
HETATM   23  O1  UNL     1       4.005  -0.692   0.544  1.00  0.00    -0.349 OA
BRANCH  23  24
HETATM   24  C11 UNL     1       4.723  -0.088  -0.511  1.00  0.00     0.171 C 
HETATM   25  C12 UNL     1       6.214  -0.321  -0.351  1.00  0.00     0.034 C 
ENDBRANCH  23  24
ENDBRANCH  16  23
ENDBRANCH   5   8
TORSDOF 3
