REMARK  3 active torsions:
REMARK  status: ('A' for Active; 'I' for Inactive)
REMARK    1  A    between atoms: C12_14  and  O1_15 
REMARK    2  A    between atoms: O1_15  and  C13_16 
REMARK    3  A    between atoms: C13_16  and  C14_17 
ROOT
HETATM    1  C1  UNL     1       4.986   4.274  -1.435  1.00  0.00     0.017 C 
HETATM    2  C2  UNL     1       4.715   3.225  -0.959  1.00  0.00    -0.080 C 
HETATM    3  C3  UNL     1       4.389   1.992  -0.373  1.00  0.00     0.025 A 
HETATM    4  C4  UNL     1       4.459   0.730  -0.908  1.00  0.00     0.044 A 
HETATM    5  C5  UNL     1       4.042  -0.123   0.077  1.00  0.00     0.014 A 
HETATM    6  C6  UNL     1       3.611  -0.097   1.363  1.00  0.00     0.076 A 
HETATM    7  C7  UNL     1       3.487   1.088   2.049  1.00  0.00     0.040 A 
HETATM    8  C8  UNL     1       3.938   1.584   0.847  1.00  0.00     0.080 A 
HETATM    9  N1  UNL     1       3.052   2.792   0.973  1.00  0.00    -0.369 N 
HETATM   10  C9  UNL     1       2.066   1.795   0.487  1.00  0.00     0.204 C 
HETATM   11  N2  UNL     1       1.826   1.198  -0.678  1.00  0.00    -0.244 NA
HETATM   12  C10 UNL     1       0.769   0.264  -0.719  1.00  0.00     0.071 A 
HETATM   13  C11 UNL     1      -0.559   0.377  -0.448  1.00  0.00     0.072 A 
HETATM   14  C12 UNL     1      -1.382  -0.718  -0.502  1.00  0.00     0.107 A 
HETATM   15  C18 UNL     1      -0.838  -1.940  -0.837  1.00  0.00     0.136 A 
HETATM   16  C19 UNL     1       0.531  -2.043  -1.115  1.00  0.00     0.115 A 
HETATM   17  C20 UNL     1       1.416  -0.942  -1.073  1.00  0.00     0.025 A 
HETATM   18  C21 UNL     1       2.765  -1.363  -1.469  1.00  0.00     0.163 C 
HETATM   19  N3  UNL     1       3.784  -1.447  -0.446  1.00  0.00    -0.388 N 
HETATM   20  O3  UNL     1       0.906  -3.356  -1.435  1.00  0.00    -0.345 OA
HETATM   21  C22 UNL     1       0.162  -4.437  -0.853  1.00  0.00     0.202 C 
HETATM   22  C23 UNL     1      -1.284  -4.306  -1.240  1.00  0.00     0.202 C 
HETATM   23  O4  UNL     1      -1.705  -3.004  -0.877  1.00  0.00    -0.344 OA
HETATM   24  H5  UNL     1       2.708   3.771   1.159  1.00  0.00     0.161 HD
HETATM   25  H19 UNL     1       4.188  -2.400  -0.222  1.00  0.00     0.159 HD
ENDROOT
BRANCH  14  26
HETATM   26  O1  UNL     1      -2.614  -0.563  -0.241  1.00  0.00    -0.346 OA
BRANCH  26  27
HETATM   27  C13 UNL     1      -3.862  -0.390   0.027  1.00  0.00     0.207 C 
BRANCH  27  28
HETATM   28  C14 UNL     1      -4.210   0.141   1.440  1.00  0.00     0.145 C 
HETATM   29  C15 UNL     1      -3.685   1.525   1.530  1.00  0.00     0.036 C 
HETATM   30  C16 UNL     1      -4.808   2.344   0.922  1.00  0.00     0.029 C 
HETATM   31  C17 UNL     1      -6.006   1.495   1.274  1.00  0.00     0.168 C 
HETATM   32  O2  UNL     1      -5.596   0.203   1.441  1.00  0.00    -0.384 OA
ENDBRANCH  27  28
ENDBRANCH  26  27
ENDBRANCH  14  26
TORSDOF 3
