REMARK  2 active torsions:
REMARK  status: ('A' for Active; 'I' for Inactive)
REMARK    1  A    between atoms: C2_2  and  C3_3 
REMARK    2  A    between atoms: N1_4  and  C4_5 
ROOT
HETATM    1  C4  UNL     1       2.375  -0.211   0.275  1.00  0.00     0.068 C 
HETATM    2  C5  UNL     1       1.145   0.024  -0.165  1.00  0.00     0.088 C 
HETATM    3  O1  UNL     1       0.817  -0.190  -1.614  1.00  0.00    -0.295 OA
HETATM    4  C6  UNL     1      -0.209  -1.158  -2.001  1.00  0.00     0.165 C 
HETATM    5  N2  UNL     1      -0.272  -2.384  -1.464  1.00  0.00    -0.264 NA
HETATM    6  C7  UNL     1      -0.214  -2.834  -0.045  1.00  0.00     0.185 C 
HETATM    7  C8  UNL     1       0.505  -1.780   0.816  1.00  0.00    -0.058 C 
HETATM    8  C9  UNL     1      -0.009  -0.823   1.689  1.00  0.00    -0.010 C 
HETATM    9  C10 UNL     1       0.129   0.507   0.926  1.00  0.00     0.070 C 
HETATM   10  C11 UNL     1      -1.192   0.579   0.234  1.00  0.00     0.052 C 
HETATM   11  C12 UNL     1      -2.316   1.424   0.498  1.00  0.00     0.153 C 
HETATM   12  O2  UNL     1      -3.150   1.085   1.556  1.00  0.00    -0.381 OA
HETATM   13  C13 UNL     1      -4.439   1.455   1.169  1.00  0.00     0.173 C 
HETATM   14  C14 UNL     1      -4.283   2.080  -0.209  1.00  0.00     0.065 C 
HETATM   15  C15 UNL     1      -3.192   1.206  -0.738  1.00  0.00    -0.027 C 
HETATM   16  C16 UNL     1      -3.134   0.528  -1.908  1.00  0.00     0.140 C 
HETATM   17  O3  UNL     1      -2.255  -0.217  -2.410  1.00  0.00    -0.355 OA
HETATM   18  C17 UNL     1      -1.367  -1.029  -3.020  1.00  0.00     0.260 C 
HETATM   19  C18 UNL     1       2.039  -1.596   0.797  1.00  0.00     0.097 C 
ENDROOT
BRANCH   1  20
HETATM   20  N1  UNL     1       3.754   0.022   0.540  1.00  0.00    -0.266 NA
HETATM   21  C3  UNL     1       4.302   1.159   0.753  1.00  0.00     0.095 C 
BRANCH  21  22
HETATM   22  C2  UNL     1       5.490   0.378   0.879  1.00  0.00     0.035 C 
HETATM   23  C1  UNL     1       6.757   0.235   1.085  1.00  0.00     0.011 C 
ENDBRANCH  21  22
ENDBRANCH   1  20
TORSDOF 2
