REMARK  8 active torsions:
REMARK  status: ('A' for Active; 'I' for Inactive)
REMARK    1  A    between atoms: C2_2  and  C3_3 
REMARK    2  A    between atoms: C4_4  and  C5_5 
REMARK    3  A    between atoms: C6_6  and  C7_7 
REMARK    4  A    between atoms: C7_7  and  N1_8 
REMARK    5  A    between atoms: N1_8  and  C8_9 
REMARK    6  A    between atoms: C12_15  and  O1_16 
REMARK    7  A    between atoms: O1_16  and  C13_17 
REMARK    8  A    between atoms: C13_17  and  C14_18 
ROOT
HETATM    1  C8  UNL     1       1.316   0.139   1.157  1.00  0.00     0.140 A 
HETATM    2  N2  UNL     1       1.662   1.161   1.945  1.00  0.00    -0.224 NA
HETATM    3  C9  UNL     1       0.876   2.162   2.307  1.00  0.00     0.236 A 
HETATM    4  N3  UNL     1      -0.382   2.180   1.861  1.00  0.00    -0.241 NA
HETATM    5  C10 UNL     1      -0.875   1.206   1.052  1.00  0.00     0.077 A 
HETATM    6  C11 UNL     1      -2.174   1.227   0.593  1.00  0.00     0.072 A 
HETATM    7  C12 UNL     1      -2.646   0.226  -0.227  1.00  0.00     0.107 A 
HETATM    8  C18 UNL     1      -1.782  -0.781  -0.565  1.00  0.00     0.136 A 
HETATM    9  C19 UNL     1      -0.497  -0.771  -0.092  1.00  0.00     0.121 A 
HETATM   10  C20 UNL     1       0.012   0.201   0.723  1.00  0.00     0.075 A 
HETATM   11  O3  UNL     1       0.272  -1.841  -0.505  1.00  0.00    -0.345 OA
HETATM   12  C21 UNL     1      -0.290  -3.027  -0.984  1.00  0.00     0.202 C 
HETATM   13  C22 UNL     1      -1.380  -2.664  -2.000  1.00  0.00     0.202 C 
HETATM   14  O4  UNL     1      -2.318  -1.773  -1.403  1.00  0.00    -0.344 OA
ENDROOT
BRANCH   1  15
HETATM   15  N1  UNL     1       2.231  -0.884   0.828  1.00  0.00    -0.370 N 
HETATM   16  H12 UNL     1       2.276  -1.752   0.282  1.00  0.00     0.161 HD
BRANCH  15  17
HETATM   17  C7  UNL     1       3.555  -0.741   1.401  1.00  0.00     0.148 C 
BRANCH  17  18
HETATM   18  C6  UNL     1       4.515  -1.782   1.076  1.00  0.00    -0.007 C 
HETATM   19  C5  UNL     1       5.679  -1.684   0.459  1.00  0.00    -0.003 C 
BRANCH  19  20
HETATM   20  C4  UNL     1       6.216  -0.420  -0.025  1.00  0.00    -0.004 C 
HETATM   21  C3  UNL     1       7.385  -0.343  -0.640  1.00  0.00    -0.027 C 
BRANCH  21  22
HETATM   22  C2  UNL     1       8.006   0.877  -1.160  1.00  0.00     0.022 C 
HETATM   23  C1  UNL     1       7.192   2.131  -0.945  1.00  0.00     0.009 C 
ENDBRANCH  21  22
ENDBRANCH  19  20
ENDBRANCH  17  18
ENDBRANCH  15  17
ENDBRANCH   1  15
BRANCH   7  24
HETATM   24  O1  UNL     1      -3.961   0.249  -0.690  1.00  0.00    -0.346 OA
BRANCH  24  25
HETATM   25  C13 UNL     1      -4.862   1.281  -0.349  1.00  0.00     0.207 C 
BRANCH  25  26
HETATM   26  C14 UNL     1      -6.174   0.959  -1.036  1.00  0.00     0.145 C 
HETATM   27  C15 UNL     1      -6.697  -0.326  -0.413  1.00  0.00     0.036 C 
HETATM   28  C16 UNL     1      -7.443   0.183   0.787  1.00  0.00     0.029 C 
HETATM   29  C17 UNL     1      -7.757   1.602   0.420  1.00  0.00     0.168 C 
HETATM   30  O2  UNL     1      -7.163   1.883  -0.797  1.00  0.00    -0.384 OA
ENDBRANCH  25  26
ENDBRANCH  24  25
ENDBRANCH   7  24
TORSDOF 8
