REMARK  5 active torsions:
REMARK  status: ('A' for Active; 'I' for Inactive)
REMARK    1  A    between atoms: C2_2  and  C3_4 
REMARK    2  A    between atoms: C4_6  and  P1_7 
REMARK    3  A    between atoms: P1_7  and  C5_8 
REMARK    4  A    between atoms: C6_9  and  N1_10 
REMARK    5  A    between atoms: N1_10  and  C7_11 
ROOT
HETATM    1  C7  UNL     1      -0.945  -1.724  -0.281  1.00  0.00     0.137 A 
HETATM    2  N2  UNL     1      -1.306  -3.001  -0.565  1.00  0.00    -0.224 NA
HETATM    3  C8  UNL     1      -2.631  -3.281  -0.738  1.00  0.00     0.236 A 
HETATM    4  N3  UNL     1      -3.571  -2.310  -0.631  1.00  0.00    -0.241 NA
HETATM    5  C9  UNL     1      -3.154  -1.046  -0.344  1.00  0.00     0.079 A 
HETATM    6  C10 UNL     1      -1.831  -0.655  -0.148  1.00  0.00     0.022 A 
HETATM    7  C11 UNL     1      -1.743   0.775   0.161  1.00  0.00     0.084 A 
HETATM    8  C12 UNL     1      -3.192   1.203   0.091  1.00  0.00    -0.041 A 
HETATM    9  C13 UNL     1      -3.596   2.504   0.296  1.00  0.00     0.008 A 
HETATM   10  C14 UNL     1      -4.951   2.753   0.208  1.00  0.00     0.001 A 
HETATM   11  C15 UNL     1      -5.829   1.722  -0.074  1.00  0.00     0.001 A 
HETATM   12  C16 UNL     1      -5.335   0.443  -0.266  1.00  0.00     0.014 A 
HETATM   13  C17 UNL     1      -3.998   0.127  -0.192  1.00  0.00    -0.000 A 
ENDROOT
BRANCH   1  14
HETATM   14  N1  UNL     1       0.440  -1.527  -0.127  1.00  0.00    -0.349 N 
HETATM   15  H5  UNL     1       1.247  -2.170  -0.151  1.00  0.00     0.167 HD
BRANCH  14  16
HETATM   16  C6  UNL     1       1.162  -0.339   0.121  1.00  0.00     0.103 C 
HETATM   17  C5  UNL     1       2.004  -0.045   1.126  1.00  0.00     0.005 C 
BRANCH  17  18
HETATM   18  P1  UNL     1       3.505  -0.105   1.884  1.00  0.00    -0.005 P 
BRANCH  18  19
HETATM   19  C4  UNL     1       4.943  -0.145   0.715  1.00  0.00     0.231 A 
HETATM   20  C3  UNL     1       5.930  -0.283  -0.197  1.00  0.00     0.107 A 
HETATM   21  F1  UNL     1       4.918  -1.218  -0.331  1.00  0.00    -0.353 F 
BRANCH  20  22
HETATM   22  C2  UNL     1       6.964  -0.484  -1.210  1.00  0.00     0.046 C 
HETATM   23  C1  UNL     1       7.616   0.539  -0.705  1.00  0.00     0.060 C 
HETATM   24 CL1  UNL     1       6.900  -1.722  -2.419  1.00  0.00    -0.086 Cl
ENDBRANCH  20  22
ENDBRANCH  18  19
ENDBRANCH  17  18
ENDBRANCH  14  16
ENDBRANCH   1  14
TORSDOF 5
