REMARK  5 active torsions:
REMARK  status: ('A' for Active; 'I' for Inactive)
REMARK    1  A    between atoms: C4_5  and  N1_6 
REMARK    2  A    between atoms: N1_6  and  C5_7 
REMARK    3  A    between atoms: C9_13  and  O1_14 
REMARK    4  A    between atoms: O1_14  and  C10_15 
REMARK    5  A    between atoms: C10_15  and  C11_16 
ROOT
HETATM    1  C5  UNL     1      -2.484   0.655   0.333  1.00  0.00     0.144 A 
HETATM    2  N2  UNL     1      -2.872   1.880  -0.042  1.00  0.00    -0.223 NA
HETATM    3  C6  UNL     1      -2.007   2.877  -0.284  1.00  0.00     0.236 A 
HETATM    4  N3  UNL     1      -0.692   2.634  -0.145  1.00  0.00    -0.241 NA
HETATM    5  C7  UNL     1      -0.199   1.459   0.221  1.00  0.00     0.077 A 
HETATM    6  C8  UNL     1       1.145   1.277   0.344  1.00  0.00     0.072 A 
HETATM    7  C9  UNL     1       1.566   0.021   0.730  1.00  0.00     0.107 A 
HETATM    8  C15 UNL     1       0.664  -1.003   0.978  1.00  0.00     0.136 A 
HETATM    9  C16 UNL     1      -0.697  -0.774   0.840  1.00  0.00     0.121 A 
HETATM   10  C17 UNL     1      -1.130   0.472   0.457  1.00  0.00     0.075 A 
HETATM   11  O3  UNL     1      -1.506  -1.859   1.110  1.00  0.00    -0.345 OA
HETATM   12  C18 UNL     1      -1.132  -3.182   0.761  1.00  0.00     0.202 C 
HETATM   13  C19 UNL     1       0.338  -3.407   0.831  1.00  0.00     0.202 C 
HETATM   14  O4  UNL     1       1.041  -2.283   1.366  1.00  0.00    -0.344 OA
ENDROOT
BRANCH   1  15
HETATM   15  N1  UNL     1      -3.491  -0.312   0.569  1.00  0.00    -0.340 N 
HETATM   16  H3  UNL     1      -3.609  -1.288   0.882  1.00  0.00     0.167 HD
BRANCH  15  17
HETATM   17  C4  UNL     1      -4.852   0.044   0.330  1.00  0.00     0.035 A 
HETATM   18  C3  UNL     1      -5.979  -0.299   1.097  1.00  0.00     0.032 A 
HETATM   19  C2  UNL     1      -7.250   0.065   0.790  1.00  0.00     0.046 A 
HETATM   20  C1  UNL     1      -7.509   0.815  -0.327  1.00  0.00     0.138 A 
HETATM   21  F1  UNL     1      -8.782   1.147  -0.583  1.00  0.00    -0.204 F 
HETATM   22  C21 UNL     1      -6.441   1.178  -1.115  1.00  0.00     0.074 A 
HETATM   23  C20 UNL     1      -5.154   0.801  -0.793  1.00  0.00     0.056 A 
HETATM   24 CL1  UNL     1      -6.877   2.138  -2.527  1.00  0.00    -0.081 Cl
ENDBRANCH  15  17
ENDBRANCH   1  15
BRANCH   7  25
HETATM   25  O1  UNL     1       2.938  -0.239   0.879  1.00  0.00    -0.346 OA
BRANCH  25  26
HETATM   26  C10 UNL     1       3.843   0.821   0.623  1.00  0.00     0.207 C 
BRANCH  26  27
HETATM   27  C11 UNL     1       5.279   0.388   0.831  1.00  0.00     0.145 C 
HETATM   28  C12 UNL     1       5.671  -0.725  -0.134  1.00  0.00     0.036 C 
HETATM   29  C13 UNL     1       6.826  -0.113  -0.924  1.00  0.00     0.029 C 
HETATM   30  C14 UNL     1       6.494   1.372  -0.753  1.00  0.00     0.168 C 
HETATM   31  O2  UNL     1       6.174   1.425   0.589  1.00  0.00    -0.384 OA
ENDBRANCH  26  27
ENDBRANCH  25  26
ENDBRANCH   7  25
TORSDOF 5
