REMARK  6 active torsions:
REMARK  status: ('A' for Active; 'I' for Inactive)
REMARK    1  A    between atoms: C2_2  and  C3_4 
REMARK    2  A    between atoms: C4_5  and  C5_6 
REMARK    3  A    between atoms: C5_6  and  C6_7 
REMARK    4  A    between atoms: C6_7  and  N1_8 
REMARK    5  A    between atoms: N1_8  and  C7_9 
REMARK    6  A    between atoms: C20_27  and  O4_28 
ROOT
HETATM    1  C7  UNL     1       0.584  -1.650   1.048  1.00  0.00     0.144 A 
HETATM    2  N2  UNL     1       1.262  -2.804   1.150  1.00  0.00    -0.223 NA
HETATM    3  C8  UNL     1       0.849  -3.795   0.356  1.00  0.00     0.236 A 
HETATM    4  N3  UNL     1      -0.185  -3.497  -0.432  1.00  0.00    -0.241 NA
HETATM    5  C9  UNL     1      -0.853  -2.338  -0.525  1.00  0.00     0.073 A 
HETATM    6  C10 UNL     1      -0.498  -1.280   0.247  1.00  0.00     0.075 A 
HETATM    7  C11 UNL     1      -0.733   0.006   0.582  1.00  0.00     0.118 A 
HETATM    8  O1  UNL     1      -0.050   0.759   1.486  1.00  0.00    -0.345 OA
HETATM    9  C12 UNL     1       0.630   1.974   1.210  1.00  0.00     0.202 C 
HETATM   10  C13 UNL     1      -0.513   2.974   1.457  1.00  0.00     0.202 C 
HETATM   11  O2  UNL     1      -1.602   2.272   0.827  1.00  0.00    -0.346 OA
HETATM   12  C14 UNL     1      -1.639   1.022   0.247  1.00  0.00     0.108 A 
HETATM   13  C15 UNL     1      -2.723   1.386  -0.524  1.00  0.00    -0.013 A 
HETATM   14  C16 UNL     1      -3.746   2.442  -0.938  1.00  0.00     0.066 C 
HETATM   15  C17 UNL     1      -5.072   1.764  -0.662  1.00  0.00     0.173 C 
HETATM   16  O3  UNL     1      -4.779   0.542  -1.275  1.00  0.00    -0.381 OA
HETATM   17  C18 UNL     1      -3.447   0.549  -1.549  1.00  0.00     0.156 A 
HETATM   18  C19 UNL     1      -2.768  -0.688  -1.440  1.00  0.00     0.072 A 
HETATM   19  C20 UNL     1      -2.869  -1.950  -2.141  1.00  0.00     0.146 A 
HETATM   20  C21 UNL     1      -1.753  -2.676  -1.465  1.00  0.00     0.037 A 
ENDROOT
BRANCH   1  21
HETATM   21  N1  UNL     1       1.293  -0.921   2.100  1.00  0.00    -0.350 N 
HETATM   22  H7  UNL     1       0.566  -0.862   2.844  1.00  0.00     0.166 HD
BRANCH  21  23
HETATM   23  C6  UNL     1       2.606  -0.415   2.202  1.00  0.00     0.090 C 
BRANCH  23  24
HETATM   24  C5  UNL     1       3.293  -0.349   1.114  1.00  0.00     0.017 C 
BRANCH  24  25
HETATM   25  C4  UNL     1       3.989  -0.308  -0.137  1.00  0.00     0.004 C 
HETATM   26  C3  UNL     1       5.057  -0.036  -0.845  1.00  0.00     0.032 C 
BRANCH  26  27
HETATM   27  C2  UNL     1       6.210   0.510  -0.153  1.00  0.00     0.037 C 
HETATM   28  C1  UNL     1       7.314   1.004   0.330  1.00  0.00     0.361 C 
HETATM   29  F1  UNL     1       6.337   0.605   1.189  1.00  0.00    -0.433 F 
ENDBRANCH  26  27
ENDBRANCH  24  25
ENDBRANCH  23  24
ENDBRANCH  21  23
ENDBRANCH   1  21
BRANCH  19  30
HETATM   30  O4  UNL     1      -4.101  -2.533  -2.019  1.00  0.00    -0.392 OA
HETATM   31  H21 UNL     1      -4.121  -3.271  -1.358  1.00  0.00     0.210 HD
ENDBRANCH  19  30
TORSDOF 6
