REMARK  10 active torsions:
REMARK  status: ('A' for Active; 'I' for Inactive)
REMARK    1  A    between atoms: C4_4  and  C5_5 
REMARK    2  A    between atoms: C6_6  and  C7_7 
REMARK    3  A    between atoms: C7_7  and  N1_9 
REMARK    4  A    between atoms: N1_9  and  C9_10 
REMARK    5  A    between atoms: C13_16  and  C14_17 
REMARK    6  A    between atoms: C14_17  and  C15_18 
REMARK    7  A    between atoms: C15_18  and  C16_19 
REMARK    8  A    between atoms: C21_25  and  C22_26 
REMARK    9  A    between atoms: C22_26  and  C23_27 
REMARK   10  A    between atoms: C23_27  and  O2_28 
ROOT
HETATM    1  C1  UNL     1      -9.002   3.288  -2.366  1.00  0.00     0.017 C 
HETATM    2  C2  UNL     1      -8.001   2.883  -1.840  1.00  0.00    -0.089 C 
HETATM    3  C3  UNL     1      -6.796   2.402  -1.182  1.00  0.00     0.063 C 
HETATM    4  C4  UNL     1      -6.291   1.294  -1.682  1.00  0.00     0.005 C 
ENDROOT
BRANCH   4   5
HETATM    5  C5  UNL     1      -5.093   0.532  -1.271  1.00  0.00    -0.019 C 
HETATM    6  C6  UNL     1      -4.566  -0.579  -1.757  1.00  0.00     0.046 C 
BRANCH   6   7
HETATM    7  C7  UNL     1      -3.365  -1.185  -1.208  1.00  0.00     0.006 C 
HETATM    8  C8  UNL     1      -3.106  -2.289  -1.924  1.00  0.00     0.073 C 
BRANCH   7   9
HETATM    9  N1  UNL     1      -2.545  -0.765  -0.090  1.00  0.00    -0.344 N 
HETATM   10  H8  UNL     1      -3.016   0.128   0.258  1.00  0.00     0.167 HD
BRANCH   9  11
HETATM   11  C9  UNL     1      -1.474  -1.639   0.212  1.00  0.00     0.142 A 
HETATM   12  N2  UNL     1      -2.084  -2.765   0.633  1.00  0.00    -0.224 NA
HETATM   13  C10 UNL     1      -1.321  -3.820   1.061  1.00  0.00     0.236 A 
HETATM   14  N3  UNL     1       0.022  -3.738   1.063  1.00  0.00    -0.241 NA
HETATM   15  C11 UNL     1       0.649  -2.637   0.653  1.00  0.00     0.073 A 
HETATM   16  C12 UNL     1       2.000  -2.460   0.666  1.00  0.00     0.039 A 
HETATM   17  C24 UNL     1      -0.106  -1.583   0.223  1.00  0.00     0.045 A 
HETATM   18  C13 UNL     1       2.553  -1.265   0.260  1.00  0.00    -0.055 A 
HETATM   19  C20 UNL     1       1.717  -0.249  -0.162  1.00  0.00     0.015 A 
HETATM   20  C21 UNL     1       0.312  -0.362  -0.203  1.00  0.00    -0.039 A 
BRANCH  18  21
HETATM   21  C14 UNL     1       4.032  -1.184   0.310  1.00  0.00     0.041 C 
BRANCH  21  22
HETATM   22  C15 UNL     1       4.562  -0.687   1.630  1.00  0.00     0.036 C 
BRANCH  22  23
HETATM   23  C16 UNL     1       4.052   0.724   1.962  1.00  0.00     0.121 C 
HETATM   24  C17 UNL     1       4.606   1.156   3.270  1.00  0.00     0.034 C 
HETATM   25  C18 UNL     1       5.497   2.321   2.924  1.00  0.00     0.029 C 
HETATM   26  C19 UNL     1       5.714   2.110   1.444  1.00  0.00     0.168 C 
HETATM   27  O1  UNL     1       4.539   1.550   0.958  1.00  0.00    -0.386 OA
ENDBRANCH  22  23
ENDBRANCH  21  22
ENDBRANCH  18  21
BRANCH  20  28
HETATM   28  C22 UNL     1      -0.276   0.833  -0.812  1.00  0.00     0.065 C 
BRANCH  28  29
HETATM   29  C23 UNL     1      -0.255   0.793  -2.346  1.00  0.00     0.168 C 
BRANCH  29  30
HETATM   30  O2  UNL     1      -0.898  -0.244  -2.928  1.00  0.00    -0.401 OA
HETATM   31  H27 UNL     1      -0.410  -1.085  -3.031  1.00  0.00     0.209 HD
ENDBRANCH  29  30
ENDBRANCH  28  29
ENDBRANCH  20  28
ENDBRANCH   9  11
ENDBRANCH   7   9
ENDBRANCH   6   7
ENDBRANCH   4   5
TORSDOF 10
