REMARK  5 active torsions:
REMARK  status: ('A' for Active; 'I' for Inactive)
REMARK    1  A    between atoms: C4_5  and  N1_6 
REMARK    2  A    between atoms: N1_6  and  C5_7 
REMARK    3  A    between atoms: C9_13  and  O1_14 
REMARK    4  A    between atoms: O1_14  and  C10_15 
REMARK    5  A    between atoms: C10_15  and  C11_16 
ROOT
HETATM    1  C5  UNL     1      -2.276  -0.023  -0.553  1.00  0.00     0.142 A 
HETATM    2  N2  UNL     1      -2.867   0.385  -1.687  1.00  0.00    -0.223 NA
HETATM    3  C6  UNL     1      -2.200   0.885  -2.728  1.00  0.00     0.236 A 
HETATM    4  N3  UNL     1      -0.865   0.975  -2.606  1.00  0.00    -0.241 NA
HETATM    5  C7  UNL     1      -0.229   0.583  -1.498  1.00  0.00     0.075 A 
HETATM    6  C8  UNL     1       1.126   0.715  -1.477  1.00  0.00     0.072 A 
HETATM    7  C9  UNL     1       1.790   0.312  -0.337  1.00  0.00     0.105 A 
HETATM    8  C15 UNL     1       1.051  -0.206   0.727  1.00  0.00     0.109 A 
HETATM    9  C16 UNL     1      -0.319  -0.350   0.729  1.00  0.00    -0.004 A 
HETATM   10  C17 UNL     1      -0.925   0.065  -0.425  1.00  0.00     0.048 A 
HETATM   11  C18 UNL     1      -0.733  -0.933   2.022  1.00  0.00     0.069 A 
HETATM   12  C19 UNL     1       0.574  -1.092   2.759  1.00  0.00     0.180 A 
HETATM   13  O3  UNL     1       1.575  -0.640   1.906  1.00  0.00    -0.347 OA
ENDROOT
BRANCH   1  14
HETATM   14  N1  UNL     1      -3.129  -0.531   0.458  1.00  0.00    -0.340 N 
HETATM   15  H3  UNL     1      -3.144  -0.951   1.396  1.00  0.00     0.167 HD
BRANCH  14  16
HETATM   16  C4  UNL     1      -4.555  -0.528   0.256  1.00  0.00     0.035 A 
HETATM   17  C3  UNL     1      -5.499  -1.498   0.598  1.00  0.00     0.032 A 
HETATM   18  C2  UNL     1      -6.850  -1.417   0.390  1.00  0.00     0.046 A 
HETATM   19  C1  UNL     1      -7.339  -0.279  -0.212  1.00  0.00     0.138 A 
HETATM   20  F1  UNL     1      -8.678  -0.233  -0.403  1.00  0.00    -0.204 F 
HETATM   21  C21 UNL     1      -6.470   0.728  -0.581  1.00  0.00     0.074 A 
HETATM   22  C20 UNL     1      -5.119   0.592  -0.347  1.00  0.00     0.056 A 
HETATM   23 CL1  UNL     1      -7.250   2.102  -1.333  1.00  0.00    -0.081 Cl
ENDBRANCH  14  16
ENDBRANCH   1  14
BRANCH   7  24
HETATM   24  O1  UNL     1       3.170   0.440  -0.303  1.00  0.00    -0.346 OA
BRANCH  24  25
HETATM   25  C10 UNL     1       3.830   0.974  -1.428  1.00  0.00     0.207 C 
BRANCH  25  26
HETATM   26  C11 UNL     1       5.322   1.009  -1.136  1.00  0.00     0.145 C 
HETATM   27  C12 UNL     1       5.742  -0.405  -0.793  1.00  0.00     0.036 C 
HETATM   28  C13 UNL     1       5.602  -0.425   0.693  1.00  0.00     0.029 C 
HETATM   29  C14 UNL     1       5.535   1.013   1.086  1.00  0.00     0.168 C 
HETATM   30  O2  UNL     1       5.613   1.786  -0.046  1.00  0.00    -0.384 OA
ENDBRANCH  25  26
ENDBRANCH  24  25
ENDBRANCH   7  24
TORSDOF 5
