REMARK  6 active torsions:
REMARK  status: ('A' for Active; 'I' for Inactive)
REMARK    1  A    between atoms: C4_5  and  N2_6 
REMARK    2  A    between atoms: N2_6  and  C5_7 
REMARK    3  A    between atoms: C9_13  and  O1_14 
REMARK    4  A    between atoms: O1_14  and  C10_15 
REMARK    5  A    between atoms: C10_15  and  C11_16 
REMARK    6  A    between atoms: C11_16  and  O2_17 
ROOT
HETATM    1  N1  UNL     1       7.992   0.563   0.106  1.00  0.00    -0.191 NA
HETATM    2  C1  UNL     1       6.895   0.145   0.104  1.00  0.00     0.102 C 
HETATM    3  C2  UNL     1       5.560  -0.368   0.078  1.00  0.00     0.085 A 
HETATM    4  C3  UNL     1       4.524   0.379  -0.448  1.00  0.00     0.055 A 
HETATM    5  C4  UNL     1       3.194  -0.039  -0.533  1.00  0.00     0.035 A 
HETATM    6  C18 UNL     1       2.938  -1.299  -0.043  1.00  0.00     0.032 A 
HETATM    7  C19 UNL     1       3.952  -2.060   0.484  1.00  0.00     0.046 A 
HETATM    8  C20 UNL     1       5.268  -1.624   0.559  1.00  0.00     0.137 A 
HETATM    9  F1  UNL     1       6.283  -2.361   1.075  1.00  0.00    -0.204 F 
ENDROOT
BRANCH   5  10
HETATM   10  N2  UNL     1       2.275   0.880  -1.119  1.00  0.00    -0.340 N 
HETATM   11  H2  UNL     1       2.470   1.903  -1.081  1.00  0.00     0.167 HD
BRANCH  10  12
HETATM   12  C5  UNL     1       1.157   0.272  -1.703  1.00  0.00     0.144 A 
HETATM   13  N3  UNL     1       1.463  -0.305  -2.884  1.00  0.00    -0.223 NA
HETATM   14  C6  UNL     1       0.518  -0.941  -3.634  1.00  0.00     0.236 A 
HETATM   15  N4  UNL     1      -0.763  -1.011  -3.212  1.00  0.00    -0.241 NA
HETATM   16  C7  UNL     1      -1.126  -0.445  -2.026  1.00  0.00     0.077 A 
HETATM   17  C8  UNL     1      -2.417  -0.486  -1.564  1.00  0.00     0.070 A 
HETATM   18  C14 UNL     1      -0.145   0.184  -1.302  1.00  0.00     0.073 A 
HETATM   19  C9  UNL     1      -2.758   0.093  -0.377  1.00  0.00     0.082 A 
HETATM   20  C12 UNL     1      -1.743   0.730   0.349  1.00  0.00     0.033 A 
HETATM   21  C13 UNL     1      -0.415   0.791  -0.096  1.00  0.00     0.096 A 
HETATM   22  C17 UNL     1      -2.172   1.360   1.655  1.00  0.00     0.212 C 
HETATM   23  O3  UNL     1       0.699   1.395   0.527  1.00  0.00    -0.347 OA
HETATM   24  C15 UNL     1       0.637   1.863   1.870  1.00  0.00     0.201 C 
HETATM   25  C16 UNL     1      -0.438   2.836   2.159  1.00  0.00     0.194 C 
HETATM   26  O4  UNL     1      -1.658   2.649   1.590  1.00  0.00    -0.384 OA
BRANCH  19  27
HETATM   27  O1  UNL     1      -3.963   0.161   0.246  1.00  0.00    -0.348 OA
BRANCH  27  28
HETATM   28  C10 UNL     1      -5.204  -0.328  -0.114  1.00  0.00     0.201 C 
BRANCH  28  29
HETATM   29  C11 UNL     1      -5.326  -1.812  -0.277  1.00  0.00     0.190 C 
BRANCH  29  30
HETATM   30  O2  UNL     1      -5.007  -2.424   0.934  1.00  0.00    -0.399 OA
HETATM   31  H9  UNL     1      -4.418  -3.210   0.791  1.00  0.00     0.209 HD
ENDBRANCH  29  30
ENDBRANCH  28  29
ENDBRANCH  27  28
ENDBRANCH  19  27
ENDBRANCH  10  12
ENDBRANCH   5  10
TORSDOF 6
