REMARK  9 active torsions:
REMARK  status: ('A' for Active; 'I' for Inactive)
REMARK    1  A    between atoms: C3_4  and  C4_5 
REMARK    2  A    between atoms: C5_6  and  C6_7 
REMARK    3  A    between atoms: C6_7  and  C7_8 
REMARK    4  A    between atoms: C6_7  and  C9_12 
REMARK    5  A    between atoms: N2_9  and  C8_10 
REMARK    6  A    between atoms: C10_13  and  O1_14 
REMARK    7  A    between atoms: O1_14  and  C11_15 
REMARK    8  A    between atoms: C11_15  and  C12_16 
REMARK    9  A    between atoms: C12_16  and  O2_17 
ROOT
HETATM    1  N1  UNL     1      -5.184  -0.634  -3.992  1.00  0.00    -0.191 NA
HETATM    2  C1  UNL     1      -4.344  -0.025  -3.517  1.00  0.00     0.100 C 
HETATM    3  C2  UNL     1      -3.270   0.733  -2.895  1.00  0.00     0.060 A 
HETATM    4  C3  UNL     1      -2.550   0.400  -1.809  1.00  0.00     0.023 A 
HETATM    5  C16 UNL     1      -1.825   1.649  -1.978  1.00  0.00     0.129 A 
HETATM    6  F1  UNL     1      -0.856   2.473  -1.527  1.00  0.00    -0.205 F 
HETATM    7  C17 UNL     1      -2.533   1.971  -3.041  1.00  0.00     0.066 A 
ENDROOT
BRANCH   4   8
HETATM    8  C4  UNL     1      -2.397  -0.638  -0.807  1.00  0.00     0.013 C 
HETATM    9  C5  UNL     1      -1.588  -0.775   0.225  1.00  0.00    -0.011 C 
BRANCH   9  10
HETATM   10  C6  UNL     1      -0.492  -0.126   0.958  1.00  0.00     0.080 C 
BRANCH  10  11
HETATM   11  C7  UNL     1      -0.870   0.188   2.383  1.00  0.00     0.104 C 
HETATM   12  N2  UNL     1      -2.025  -0.023   2.866  1.00  0.00    -0.258 NA
BRANCH  12  13
HETATM   13  C8  UNL     1      -2.240   0.328   4.248  1.00  0.00     0.222 C 
HETATM   14  N3  UNL     1      -2.883   1.450   4.341  1.00  0.00    -0.293 NA
HETATM   15  H6  UNL     1      -3.197   2.011   3.538  1.00  0.00     0.187 HD
ENDBRANCH  12  13
ENDBRANCH  10  11
BRANCH  10  16
HETATM   16  C9  UNL     1       0.764  -0.948   0.999  1.00  0.00    -0.034 C 
HETATM   17  C10 UNL     1       1.879  -0.532   0.415  1.00  0.00     0.073 C 
HETATM   18  C13 UNL     1       3.156  -1.301   0.422  1.00  0.00     0.232 C 
HETATM   19  O3  UNL     1       3.092  -2.451   1.208  1.00  0.00    -0.384 OA
HETATM   20  C14 UNL     1       1.902  -3.118   1.015  1.00  0.00     0.172 C 
HETATM   21  C15 UNL     1       0.825  -2.261   1.694  1.00  0.00     0.064 C 
BRANCH  17  22
HETATM   22  O1  UNL     1       2.147   0.608  -0.290  1.00  0.00    -0.351 OA
BRANCH  22  23
HETATM   23  C11 UNL     1       2.094   0.875  -1.634  1.00  0.00     0.201 C 
BRANCH  23  24
HETATM   24  C12 UNL     1       2.479   2.271  -2.039  1.00  0.00     0.190 C 
BRANCH  24  25
HETATM   25  O2  UNL     1       3.793   2.535  -1.647  1.00  0.00    -0.399 OA
HETATM   26  H11 UNL     1       3.883   2.772  -0.705  1.00  0.00     0.209 HD
ENDBRANCH  24  25
ENDBRANCH  23  24
ENDBRANCH  22  23
ENDBRANCH  17  22
ENDBRANCH  10  16
ENDBRANCH   9  10
ENDBRANCH   4   8
TORSDOF 9
