REMARK  4 active torsions:
REMARK  status: ('A' for Active; 'I' for Inactive)
REMARK    1  A    between atoms: O1_2  and  C2_3 
REMARK    2  A    between atoms: C2_3  and  C3_4 
REMARK    3  A    between atoms: C3_4  and  O2_5 
REMARK    4  A    between atoms: O2_5  and  C4_6 
ROOT
HETATM    1  C4  UNL     1       1.069  -0.278  -0.725  1.00  0.00     0.174 C 
HETATM    2  C5  UNL     1       1.497  -1.350  -1.356  1.00  0.00     0.218 C 
HETATM    3  S1  UNL     1       0.035  -1.979  -2.212  1.00  0.00    -0.183 SA
HETATM    4  C6  UNL     1      -1.352  -1.655  -1.101  1.00  0.00     0.090 C 
HETATM    5  N1  UNL     1      -2.249  -2.654  -1.312  1.00  0.00    -0.236 NA
HETATM    6  C7  UNL     1      -3.557  -2.803  -0.962  1.00  0.00     0.234 C 
HETATM    7  N2  UNL     1      -4.408  -2.315  -0.042  1.00  0.00    -0.241 NA
HETATM    8  C8  UNL     1      -4.298  -1.413   0.965  1.00  0.00     0.068 A 
HETATM    9  C9  UNL     1      -4.954  -0.918   2.082  1.00  0.00     0.033 A 
HETATM   10  C10 UNL     1      -3.971  -0.008   2.411  1.00  0.00     0.016 A 
HETATM   11  C11 UNL     1      -3.265  -0.451   1.319  1.00  0.00    -0.006 A 
HETATM   12  C12 UNL     1      -2.037  -0.071   0.814  1.00  0.00     0.029 C 
HETATM   13  C13 UNL     1      -1.330  -0.556  -0.269  1.00  0.00     0.042 C 
HETATM   14  C14 UNL     1      -0.233   0.426  -0.601  1.00  0.00     0.237 C 
HETATM   15  O3  UNL     1      -0.652   1.025  -1.822  1.00  0.00    -0.319 OA
HETATM   16  C15 UNL     1      -1.427   2.201  -1.788  1.00  0.00     0.137 C 
HETATM   17  C16 UNL     1      -1.080   3.119  -0.881  1.00  0.00     0.023 C 
HETATM   18  C17 UNL     1       0.109   2.670  -0.068  1.00  0.00     0.201 C 
HETATM   19  O4  UNL     1      -0.102   1.357   0.400  1.00  0.00    -0.344 OA
ENDROOT
BRANCH   1  20
HETATM   20  O2  UNL     1       2.406  -0.345  -0.392  1.00  0.00    -0.367 OA
BRANCH  20  21
HETATM   21  C3  UNL     1       3.300   0.711  -0.418  1.00  0.00     0.195 C 
BRANCH  21  22
HETATM   22  C2  UNL     1       4.702   0.436  -0.013  1.00  0.00     0.193 C 
BRANCH  22  23
HETATM   23  O1  UNL     1       4.926  -0.016   1.249  1.00  0.00    -0.394 OA
HETATM   24  C1  UNL     1       4.320  -1.212   1.540  1.00  0.00     0.201 C 
ENDBRANCH  22  23
ENDBRANCH  21  22
ENDBRANCH  20  21
ENDBRANCH   1  20
TORSDOF 4
