REMARK  1 active torsions:
REMARK  status: ('A' for Active; 'I' for Inactive)
REMARK    1  A    between atoms: N1_1  and  C1_2 
ROOT
HETATM    1  C1  UNL     1       1.990   0.201   2.201  1.00  0.00     0.112 C 
HETATM    2  C2  UNL     1       2.746  -0.081   1.008  1.00  0.00    -0.030 C 
HETATM    3  C3  UNL     1       2.051  -0.806   0.249  1.00  0.00     0.052 C 
HETATM    4  C4  UNL     1       1.441  -1.617  -0.741  1.00  0.00    -0.020 C 
HETATM    5  C5  UNL     1       0.198  -1.941  -0.444  1.00  0.00    -0.025 C 
HETATM    6  C6  UNL     1      -1.135  -2.526  -0.550  1.00  0.00     0.068 C 
HETATM    7  C7  UNL     1      -2.160  -1.386  -0.553  1.00  0.00    -0.025 A 
HETATM    8  C8  UNL     1      -3.464  -1.768  -0.664  1.00  0.00     0.053 A 
HETATM    9  C9  UNL     1      -4.505  -0.871  -0.668  1.00  0.00     0.138 A 
HETATM   10  F1  UNL     1      -5.749  -1.350  -0.783  1.00  0.00    -0.204 F 
HETATM   11  C10 UNL     1      -4.299   0.485  -0.560  1.00  0.00     0.074 A 
HETATM   12 CL1  UNL     1      -5.674   1.531  -0.575  1.00  0.00    -0.081 Cl
HETATM   13  C11 UNL     1      -2.956   0.823  -0.450  1.00  0.00     0.056 A 
HETATM   14  C12 UNL     1      -1.849  -0.018  -0.438  1.00  0.00     0.036 A 
HETATM   15  N2  UNL     1      -0.711   0.804  -0.326  1.00  0.00    -0.386 N 
HETATM   16  C13 UNL     1       0.121   1.653  -1.156  1.00  0.00     0.149 C 
HETATM   17  C14 UNL     1       1.436   1.992  -0.608  1.00  0.00     0.017 C 
HETATM   18  C15 UNL     1       2.589   2.185   0.038  1.00  0.00     0.132 C 
HETATM   19  O1  UNL     1       3.555   2.010   1.104  1.00  0.00    -0.359 OA
HETATM   20  C16 UNL     1       4.099   0.606   0.980  1.00  0.00     0.210 C 
HETATM   21  H10 UNL     1      -0.660   0.656   0.686  1.00  0.00     0.160 HD
ENDROOT
BRANCH   1  22
HETATM   22  N1  UNL     1       0.852  -0.091   2.685  1.00  0.00    -0.312 NA
HETATM   23  H1  UNL     1       0.423   0.185   3.573  1.00  0.00     0.186 HD
ENDBRANCH   1  22
TORSDOF 1
