REMARK  7 active torsions:
REMARK  status: ('A' for Active; 'I' for Inactive)
REMARK    1  A    between atoms: O1_2  and  C2_3 
REMARK    2  A    between atoms: C2_3  and  C3_4 
REMARK    3  A    between atoms: C3_4  and  O2_5 
REMARK    4  A    between atoms: O2_5  and  C4_6 
REMARK    5  A    between atoms: C8_12  and  N3_13 
REMARK    6  A    between atoms: N3_13  and  C9_14 
REMARK    7  A    between atoms: C11_16  and  C12_17 
ROOT
HETATM    1  C4  UNL     1       2.388   0.019  -0.613  1.00  0.00     0.107 A 
HETATM    2  C5  UNL     1       1.925   1.273  -0.943  1.00  0.00     0.072 A 
HETATM    3  C6  UNL     1       0.700   1.828  -0.671  1.00  0.00     0.077 A 
HETATM    4  N1  UNL     1       0.405   3.084  -1.062  1.00  0.00    -0.241 NA
HETATM    5  C7  UNL     1      -0.815   3.586  -0.764  1.00  0.00     0.236 A 
HETATM    6  N2  UNL     1      -1.730   2.837  -0.082  1.00  0.00    -0.223 NA
HETATM    7  C8  UNL     1      -1.415   1.586   0.298  1.00  0.00     0.144 A 
HETATM    8  C14 UNL     1      -0.188   1.034   0.019  1.00  0.00     0.075 A 
HETATM    9  C15 UNL     1       0.150  -0.245   0.409  1.00  0.00     0.121 A 
HETATM   10  C16 UNL     1       1.420  -0.731   0.091  1.00  0.00     0.136 A 
HETATM   11  O3  UNL     1       1.510  -2.037   0.592  1.00  0.00    -0.344 OA
HETATM   12  C17 UNL     1       0.382  -2.921   0.510  1.00  0.00     0.202 C 
HETATM   13  C18 UNL     1      -0.736  -2.333   1.329  1.00  0.00     0.202 C 
HETATM   14  O4  UNL     1      -0.851  -0.921   1.099  1.00  0.00    -0.345 OA
ENDROOT
BRANCH   7  15
HETATM   15  N3  UNL     1      -2.414   0.892   0.989  1.00  0.00    -0.344 N 
HETATM   16  H10 UNL     1      -2.421   0.830   2.032  1.00  0.00     0.167 HD
BRANCH  15  17
HETATM   17  C9  UNL     1      -3.461   0.248   0.226  1.00  0.00     0.007 C 
HETATM   18  C10 UNL     1      -3.414  -0.786  -0.851  1.00  0.00     0.068 C 
HETATM   19  C11 UNL     1      -4.695   0.675   0.560  1.00  0.00     0.025 C 
BRANCH  19  20
HETATM   20  C12 UNL     1      -5.882   0.160  -0.082  1.00  0.00     0.014 C 
HETATM   21  C13 UNL     1      -7.103   0.555   0.216  1.00  0.00     0.084 C 
HETATM   22 CL1  UNL     1      -8.256   1.518   1.111  1.00  0.00    -0.097 Cl
ENDBRANCH  19  20
ENDBRANCH  15  17
ENDBRANCH   7  15
BRANCH   1  23
HETATM   23  O2  UNL     1       3.419  -0.667  -0.749  1.00  0.00    -0.346 OA
BRANCH  23  24
HETATM   24  C3  UNL     1       4.495  -1.363  -0.899  1.00  0.00     0.201 C 
BRANCH  24  25
HETATM   25  C2  UNL     1       5.778  -0.924  -0.270  1.00  0.00     0.193 C 
BRANCH  25  26
HETATM   26  O1  UNL     1       6.298   0.237  -0.620  1.00  0.00    -0.394 OA
HETATM   27  C1  UNL     1       5.718   1.428  -0.450  1.00  0.00     0.201 C 
ENDBRANCH  25  26
ENDBRANCH  24  25
ENDBRANCH  23  24
ENDBRANCH   1  23
TORSDOF 7
