REMARK  2 active torsions:
REMARK  status: ('A' for Active; 'I' for Inactive)
REMARK    1  A    between atoms: C6_7  and  N2_8 
REMARK    2  A    between atoms: N2_8  and  C7_9 
ROOT
HETATM    1  C1  UNL     1       1.464   2.603  -3.831  1.00  0.00     0.036 C 
HETATM    2  C2  UNL     1       0.099   2.115  -3.499  1.00  0.00    -0.020 C 
HETATM    3  C3  UNL     1      -0.335   1.756  -2.310  1.00  0.00    -0.011 C 
HETATM    4  C4  UNL     1       0.534   1.798  -1.105  1.00  0.00     0.161 C 
HETATM    5  N1  UNL     1       0.481   0.579  -0.344  1.00  0.00    -0.379 N 
HETATM    6  C5  UNL     1      -0.577  -0.240   0.077  1.00  0.00     0.129 A 
HETATM    7  C6  UNL     1      -0.205  -0.972   1.180  1.00  0.00     0.160 A 
HETATM    8  N3  UNL     1      -1.145  -1.800   1.631  1.00  0.00    -0.222 NA
HETATM    9  C13 UNL     1      -2.361  -1.976   1.134  1.00  0.00     0.238 A 
HETATM   10  N4  UNL     1      -2.711  -1.253   0.057  1.00  0.00    -0.215 NA
HETATM   11  C14 UNL     1      -1.841  -0.376  -0.496  1.00  0.00     0.202 A 
HETATM   12  O1  UNL     1      -2.358   0.285  -1.596  1.00  0.00    -0.290 OA
HETATM   13  C15 UNL     1      -1.738   1.341  -2.291  1.00  0.00     0.081 C 
HETATM   14  C16 UNL     1      -2.602   2.048  -3.035  1.00  0.00     0.007 C 
HETATM   15  C17 UNL     1      -2.636   3.198  -3.949  1.00  0.00     0.039 C 
HETATM   16  H7  UNL     1       1.407   0.202  -0.037  1.00  0.00     0.160 HD
ENDROOT
BRANCH   7  17
HETATM   17  N2  UNL     1       1.026  -0.885   1.872  1.00  0.00    -0.339 N 
HETATM   18  H8  UNL     1       1.818  -0.214   1.805  1.00  0.00     0.167 HD
BRANCH  17  19
HETATM   19  C7  UNL     1       1.376  -1.817   2.880  1.00  0.00     0.035 A 
HETATM   20  C8  UNL     1       0.950  -3.134   2.847  1.00  0.00     0.032 A 
HETATM   21  C9  UNL     1       1.208  -4.120   3.777  1.00  0.00     0.046 A 
HETATM   22  C10 UNL     1       1.982  -3.746   4.862  1.00  0.00     0.138 A 
HETATM   23  F1  UNL     1       2.271  -4.674   5.817  1.00  0.00    -0.204 F 
HETATM   24  C11 UNL     1       2.460  -2.439   4.986  1.00  0.00     0.074 A 
HETATM   25 CL1  UNL     1       3.416  -2.066   6.394  1.00  0.00    -0.081 Cl
HETATM   26  C12 UNL     1       2.139  -1.541   3.997  1.00  0.00     0.056 A 
ENDBRANCH  17  19
ENDBRANCH   7  17
TORSDOF 2
