REMARK  3 active torsions:
REMARK  status: ('A' for Active; 'I' for Inactive)
REMARK    1  A    between atoms: O1_2  and  C2_3 
REMARK    2  A    between atoms: C6_7  and  N1_8 
REMARK    3  A    between atoms: N1_8  and  C7_9 
ROOT
HETATM    1  C7  UNL     1       0.234  -0.871  -1.055  1.00  0.00     0.143 A 
HETATM    2  N2  UNL     1       0.855  -1.135  -2.254  1.00  0.00    -0.223 NA
HETATM    3  C8  UNL     1       0.056  -1.375  -3.339  1.00  0.00     0.236 A 
HETATM    4  N3  UNL     1      -1.314  -1.374  -3.334  1.00  0.00    -0.241 NA
HETATM    5  C9  UNL     1      -1.936  -1.109  -2.139  1.00  0.00     0.075 A 
HETATM    6  C10 UNL     1      -1.159  -0.849  -0.969  1.00  0.00     0.052 A 
HETATM    7  C11 UNL     1      -1.907  -0.443   0.261  1.00  0.00     0.011 C 
HETATM    8  C12 UNL     1      -1.386   0.597   0.889  1.00  0.00     0.148 C 
HETATM    9  O2  UNL     1      -2.461   0.513   1.867  1.00  0.00    -0.362 OA
HETATM   10  C13 UNL     1      -3.407   1.630   1.678  1.00  0.00     0.176 C 
HETATM   11  C14 UNL     1      -4.255   1.378   0.483  1.00  0.00     0.053 C 
HETATM   12  C15 UNL     1      -5.300   0.340   0.544  1.00  0.00     0.178 C 
HETATM   13  O3  UNL     1      -5.429  -0.278  -0.804  1.00  0.00    -0.350 OA
HETATM   14  C16 UNL     1      -4.213  -0.883  -1.209  1.00  0.00     0.076 C 
HETATM   15  C17 UNL     1      -3.398  -1.117  -2.220  1.00  0.00     0.070 C 
HETATM   16  P1  UNL     1      -3.325  -1.701   0.244  1.00  0.00    -0.032 P 
HETATM   17  H17 UNL     1      -4.029  -1.719   1.436  1.00  0.00     0.069 HD
ENDROOT
BRANCH   1  18
HETATM   18  N1  UNL     1       0.943  -0.629   0.153  1.00  0.00    -0.340 N 
HETATM   19  H7  UNL     1       0.496  -0.775   1.091  1.00  0.00     0.167 HD
BRANCH  18  20
HETATM   20  C6  UNL     1       2.302  -0.262   0.272  1.00  0.00     0.036 A 
HETATM   21  C5  UNL     1       2.827   0.203   1.484  1.00  0.00     0.029 A 
HETATM   22  C4  UNL     1       4.127   0.569   1.695  1.00  0.00     0.005 A 
HETATM   23  C3  UNL     1       5.024   0.492   0.666  1.00  0.00     0.037 A 
HETATM   24  C2  UNL     1       4.586   0.044  -0.555  1.00  0.00     0.070 A 
HETATM   25  C18 UNL     1       3.273  -0.308  -0.704  1.00  0.00     0.066 A 
BRANCH  24  26
HETATM   26  O1  UNL     1       5.473  -0.040  -1.596  1.00  0.00    -0.356 OA
HETATM   27  C1  UNL     1       6.822   0.289  -1.559  1.00  0.00     0.210 C 
ENDBRANCH  24  26
ENDBRANCH  18  20
ENDBRANCH   1  18
TORSDOF 3
