REMARK  7 active torsions:
REMARK  status: ('A' for Active; 'I' for Inactive)
REMARK    1  A    between atoms: O1_2  and  C2_3 
REMARK    2  A    between atoms: C2_3  and  C3_4 
REMARK    3  A    between atoms: C3_4  and  O2_5 
REMARK    4  A    between atoms: O2_5  and  C4_6 
REMARK    5  A    between atoms: C8_12  and  N3_13 
REMARK    6  A    between atoms: N3_13  and  C9_14 
REMARK    7  A    between atoms: C12_18  and  O4_19 
ROOT
HETATM    1  C4  UNL     1       3.008  -0.352  -0.056  1.00  0.00     0.107 A 
HETATM    2  C5  UNL     1       2.400   0.634  -0.795  1.00  0.00     0.072 A 
HETATM    3  C6  UNL     1       1.050   0.788  -0.965  1.00  0.00     0.077 A 
HETATM    4  N1  UNL     1       0.544   1.769  -1.695  1.00  0.00    -0.241 NA
HETATM    5  C7  UNL     1      -0.779   1.922  -1.864  1.00  0.00     0.236 A 
HETATM    6  N2  UNL     1      -1.663   1.058  -1.279  1.00  0.00    -0.223 NA
HETATM    7  C8  UNL     1      -1.135   0.067  -0.541  1.00  0.00     0.145 A 
HETATM    8  C15 UNL     1       0.204  -0.110  -0.354  1.00  0.00     0.075 A 
HETATM    9  C16 UNL     1       0.733  -1.129   0.404  1.00  0.00     0.121 A 
HETATM   10  C17 UNL     1       2.117  -1.258   0.558  1.00  0.00     0.136 A 
HETATM   11  O5  UNL     1       2.494  -2.333   1.350  1.00  0.00    -0.344 OA
HETATM   12  C18 UNL     1       1.743  -3.552   1.271  1.00  0.00     0.202 C 
HETATM   13  C19 UNL     1       0.268  -3.342   1.314  1.00  0.00     0.202 C 
HETATM   14  O6  UNL     1      -0.121  -2.031   1.018  1.00  0.00    -0.345 OA
ENDROOT
BRANCH   7  15
HETATM   15  N3  UNL     1      -2.072  -0.813   0.054  1.00  0.00    -0.339 N 
HETATM   16  H10 UNL     1      -2.300  -1.637   0.637  1.00  0.00     0.167 HD
BRANCH  15  17
HETATM   17  C9  UNL     1      -3.460  -0.538  -0.205  1.00  0.00     0.058 A 
HETATM   18  C10 UNL     1      -4.293  -1.193  -0.995  1.00  0.00     0.164 A 
HETATM   19  O3  UNL     1      -5.622  -0.911  -1.229  1.00  0.00    -0.354 OA
HETATM   20  C11 UNL     1      -6.230   0.188  -0.609  1.00  0.00     0.239 A 
HETATM   21  C12 UNL     1      -5.252   0.876   0.257  1.00  0.00     0.072 A 
HETATM   22  C14 UNL     1      -3.976   0.638   0.518  1.00  0.00     0.066 A 
BRANCH  21  23
HETATM   23  O4  UNL     1      -5.868   1.957   0.873  1.00  0.00    -0.358 OA
HETATM   24  C13 UNL     1      -6.994   1.892   1.696  1.00  0.00     0.209 C 
ENDBRANCH  21  23
ENDBRANCH  15  17
ENDBRANCH   7  15
BRANCH   1  25
HETATM   25  O2  UNL     1       4.291  -0.630   0.206  1.00  0.00    -0.346 OA
BRANCH  25  26
HETATM   26  C3  UNL     1       5.498  -0.041  -0.133  1.00  0.00     0.201 C 
BRANCH  26  27
HETATM   27  C2  UNL     1       5.620   1.345   0.430  1.00  0.00     0.193 C 
BRANCH  27  28
HETATM   28  O1  UNL     1       6.801   1.997   0.140  1.00  0.00    -0.394 OA
HETATM   29  C1  UNL     1       6.953   2.142  -1.227  1.00  0.00     0.201 C 
ENDBRANCH  27  28
ENDBRANCH  26  27
ENDBRANCH  25  26
ENDBRANCH   1  25
TORSDOF 7
