REMARK  7 active torsions:
REMARK  status: ('A' for Active; 'I' for Inactive)
REMARK    1  A    between atoms: O1_2  and  C2_3 
REMARK    2  A    between atoms: C2_3  and  C3_4 
REMARK    3  A    between atoms: C3_4  and  O2_5 
REMARK    4  A    between atoms: O2_5  and  C4_6 
REMARK    5  A    between atoms: C8_12  and  N3_13 
REMARK    6  A    between atoms: N3_13  and  C9_14 
REMARK    7  A    between atoms: C13_18  and  O3_19 
ROOT
HETATM    1  C4  UNL     1      -3.053  -2.199   0.106  1.00  0.00     0.071 C 
HETATM    2  C5  UNL     1      -2.210  -1.327  -0.401  1.00  0.00     0.059 C 
HETATM    3  C6  UNL     1      -1.290  -0.283  -0.914  1.00  0.00     0.076 A 
HETATM    4  N1  UNL     1      -1.817   0.617  -1.737  1.00  0.00    -0.065 NA
HETATM    5  C7  UNL     1      -1.051   1.656  -2.226  1.00  0.00     0.371 A 
HETATM    6  N2  UNL     1      -0.350   1.015  -1.535  1.00  0.00     0.090 N 
HETATM    7  C8  UNL     1       0.829   0.863  -1.034  1.00  0.00     0.335 A 
HETATM    8  C16 UNL     1       0.145  -0.150  -0.533  1.00  0.00     0.305 A 
HETATM    9  C17 UNL     1      -0.027  -1.212   0.149  1.00  0.00    -0.103 C 
HETATM   10  P1  UNL     1      -0.209  -2.207   0.777  1.00  0.00    -0.055 P 
HETATM   11  C18 UNL     1      -0.638  -4.263   2.062  1.00  0.00     0.070 C 
HETATM   12  C19 UNL     1      -1.839  -4.088   1.268  1.00  0.00     0.173 C 
HETATM   13  O4  UNL     1      -3.062  -4.469   1.007  1.00  0.00    -0.384 OA
HETATM   14  C20 UNL     1      -3.341  -3.641  -0.195  1.00  0.00     0.232 C 
HETATM   15  H18 UNL     1      -0.274  -2.600   1.030  1.00  0.00     0.070 HD
ENDROOT
BRANCH   7  16
HETATM   16  N3  UNL     1       2.050   0.496  -0.369  1.00  0.00    -0.348 N 
HETATM   17  H10 UNL     1       2.392  -0.245   0.268  1.00  0.00     0.162 HD
BRANCH  16  18
HETATM   18  C9  UNL     1       3.131   1.410  -0.638  1.00  0.00     0.032 A 
HETATM   19  C10 UNL     1       2.741   2.693  -1.037  1.00  0.00     0.029 A 
HETATM   20  C11 UNL     1       3.843   3.515  -1.303  1.00  0.00     0.005 A 
HETATM   21  C12 UNL     1       5.165   3.240  -1.228  1.00  0.00     0.037 A 
HETATM   22  C13 UNL     1       5.481   1.978  -0.838  1.00  0.00     0.070 A 
HETATM   23  C15 UNL     1       4.483   1.042  -0.535  1.00  0.00     0.065 A 
BRANCH  22  24
HETATM   24  O3  UNL     1       6.751   1.467  -0.693  1.00  0.00    -0.356 OA
HETATM   25  C14 UNL     1       7.884   2.233  -0.944  1.00  0.00     0.210 C 
ENDBRANCH  22  24
ENDBRANCH  16  18
ENDBRANCH   7  16
BRANCH   1  26
HETATM   26  O2  UNL     1      -3.599  -1.348   1.025  1.00  0.00    -0.351 OA
BRANCH  26  27
HETATM   27  C3  UNL     1      -4.532  -0.370   0.562  1.00  0.00     0.201 C 
BRANCH  27  28
HETATM   28  C2  UNL     1      -5.236   0.305   1.696  1.00  0.00     0.193 C 
BRANCH  28  29
HETATM   29  O1  UNL     1      -4.319   0.931   2.511  1.00  0.00    -0.394 OA
HETATM   30  C1  UNL     1      -3.575   1.892   1.876  1.00  0.00     0.201 C 
ENDBRANCH  28  29
ENDBRANCH  27  28
ENDBRANCH  26  27
ENDBRANCH   1  26
TORSDOF 7
