REMARK  6 active torsions:
REMARK  status: ('A' for Active; 'I' for Inactive)
REMARK    1  A    between atoms: O1_2  and  C2_3 
REMARK    2  A    between atoms: C2_3  and  C3_4 
REMARK    3  A    between atoms: C3_4  and  O2_5 
REMARK    4  A    between atoms: O2_5  and  C4_6 
REMARK    5  A    between atoms: C8_13  and  C9_14 
REMARK    6  A    between atoms: C13_18  and  O3_19 
ROOT
HETATM    1  C4  UNL     1       2.177  -0.650  -0.547  1.00  0.00     0.103 A 
HETATM    2  C5  UNL     1       1.965  -1.369  -1.635  1.00  0.00     0.046 A 
HETATM    3  C6  UNL     1       0.691  -1.606  -2.343  1.00  0.00     0.195 A 
HETATM    4  N1  UNL     1       0.379  -2.986  -2.540  1.00  0.00    -0.178 NA
HETATM    5  N2  UNL     1      -0.678  -3.477  -3.032  1.00  0.00    -0.147 NA
HETATM    6  C7  UNL     1      -1.800  -2.687  -3.498  1.00  0.00     0.257 C 
HETATM    7  N3  UNL     1      -2.218  -1.572  -2.981  1.00  0.00    -0.239 NA
HETATM    8  C8  UNL     1      -1.660  -0.889  -1.844  1.00  0.00     0.080 C 
HETATM    9  C16 UNL     1      -0.369  -0.912  -1.576  1.00  0.00     0.038 A 
HETATM   10  C17 UNL     1      -0.178  -0.099  -0.389  1.00  0.00     0.116 A 
HETATM   11  C18 UNL     1       1.048   0.013   0.093  1.00  0.00     0.136 A 
HETATM   12  O4  UNL     1       1.390   0.753   1.227  1.00  0.00    -0.344 OA
HETATM   13  C19 UNL     1       0.425   1.747   1.617  1.00  0.00     0.202 C 
HETATM   14  C20 UNL     1      -0.902   0.989   1.625  1.00  0.00     0.202 C 
HETATM   15  O5  UNL     1      -1.166   0.580   0.292  1.00  0.00    -0.345 OA
ENDROOT
BRANCH   8  16
HETATM   16  C9  UNL     1      -2.711  -0.245  -1.016  1.00  0.00    -0.004 A 
HETATM   17  C10 UNL     1      -3.123   0.981  -1.561  1.00  0.00     0.014 A 
HETATM   18  C11 UNL     1      -4.152   1.720  -0.980  1.00  0.00     0.004 A 
HETATM   19  C12 UNL     1      -4.749   1.220   0.136  1.00  0.00     0.037 A 
HETATM   20  C13 UNL     1      -4.355   0.028   0.675  1.00  0.00     0.069 A 
HETATM   21  C15 UNL     1      -3.345  -0.741   0.141  1.00  0.00     0.050 A 
BRANCH  20  22
HETATM   22  O3  UNL     1      -4.931  -0.526   1.813  1.00  0.00    -0.356 OA
HETATM   23  C14 UNL     1      -5.983   0.232   2.404  1.00  0.00     0.210 C 
ENDBRANCH  20  22
ENDBRANCH   8  16
BRANCH   1  24
HETATM   24  O2  UNL     1       3.504  -0.630  -0.143  1.00  0.00    -0.346 OA
BRANCH  24  25
HETATM   25  C3  UNL     1       4.214   0.588  -0.106  1.00  0.00     0.201 C 
BRANCH  25  26
HETATM   26  C2  UNL     1       5.638   0.451   0.329  1.00  0.00     0.193 C 
BRANCH  26  27
HETATM   27  O1  UNL     1       5.762  -0.087   1.610  1.00  0.00    -0.394 OA
HETATM   28  C1  UNL     1       7.153  -0.142   1.847  1.00  0.00     0.201 C 
ENDBRANCH  26  27
ENDBRANCH  25  26
ENDBRANCH  24  25
ENDBRANCH   1  24
TORSDOF 6
