REMARK  5 active torsions:
REMARK  status: ('A' for Active; 'I' for Inactive)
REMARK    1  A    between atoms: C3_4  and  C4_6 
REMARK    2  A    between atoms: N1_8  and  C6_9 
REMARK    3  A    between atoms: C11_16  and  C12_17 
REMARK    4  A    between atoms: C12_17  and  C13_18 
REMARK    5  A    between atoms: C13_18  and  N3_19 
ROOT
HETATM    1  C6  UNL     1       0.751  -0.810  -0.445  1.00  0.00     0.033 C 
HETATM    2  C7  UNL     1      -0.549  -0.836  -0.205  1.00  0.00    -0.027 C 
HETATM    3  C8  UNL     1      -1.381  -2.138  -0.305  1.00  0.00     0.214 C 
HETATM    4  O1  UNL     1      -1.774  -1.953  -1.782  1.00  0.00    -0.330 OA
HETATM    5  C9  UNL     1      -1.488  -0.491  -1.889  1.00  0.00     0.167 C 
HETATM    6  N2  UNL     1      -0.364  -0.049  -2.555  1.00  0.00    -0.260 NA
HETATM    7  C10 UNL     1       0.939  -0.310  -1.863  1.00  0.00     0.208 C 
HETATM    8  C11 UNL     1      -2.511   0.277  -1.216  1.00  0.00     0.001 C 
HETATM    9  C16 UNL     1      -1.471   0.402  -0.040  1.00  0.00     0.081 C 
ENDROOT
BRANCH   1  10
HETATM   10  N1  UNL     1       2.181  -1.041  -0.106  1.00  0.00    -0.363 N 
HETATM   11  C5  UNL     1       2.367  -1.690   1.013  1.00  0.00     0.136 A 
HETATM   12  C4  UNL     1       3.572  -1.231   0.157  1.00  0.00     0.226 A 
BRANCH  12  13
HETATM   13  C3  UNL     1       4.809  -1.635   0.598  1.00  0.00     0.104 A 
HETATM   14  C2  UNL     1       5.988  -2.158   1.225  1.00  0.00     0.170 A 
HETATM   15  C1  UNL     1       6.458  -1.443   0.106  1.00  0.00     0.178 A 
HETATM   16 CL1  UNL     1       7.709  -2.172   1.089  1.00  0.00    -0.174 Cl
HETATM   17  F1  UNL     1       4.734  -2.367   1.800  1.00  0.00    -0.372 F 
ENDBRANCH  12  13
ENDBRANCH   1  10
BRANCH   8  18
HETATM   18  C12 UNL     1      -3.345   1.025  -0.497  1.00  0.00     0.040 C 
BRANCH  18  19
HETATM   19  C13 UNL     1      -4.289   1.814   0.236  1.00  0.00     0.022 C 
HETATM   20  C14 UNL     1      -3.888   2.711   1.032  1.00  0.00    -0.002 C 
HETATM   21  C15 UNL     1      -2.521   3.158   1.380  1.00  0.00     0.038 C 
BRANCH  19  22
HETATM   22  N3  UNL     1      -5.721   1.646   0.097  1.00  0.00    -0.399 N 
HETATM   23  H10 UNL     1      -6.241   2.540  -0.101  1.00  0.00     0.156 HD
HETATM   24  H11 UNL     1      -6.722   1.481   0.007  1.00  0.00     0.156 HD
ENDBRANCH  19  22
ENDBRANCH  18  19
ENDBRANCH   8  18
TORSDOF 5
