REMARK  7 active torsions:
REMARK  status: ('A' for Active; 'I' for Inactive)
REMARK    1  A    between atoms: O1_2  and  C2_3 
REMARK    2  A    between atoms: C2_3  and  C3_4 
REMARK    3  A    between atoms: C3_4  and  O2_5 
REMARK    4  A    between atoms: O2_5  and  C4_6 
REMARK    5  A    between atoms: C12_16  and  N1_17 
REMARK    6  A    between atoms: N1_17  and  C13_18 
REMARK    7  A    between atoms: C17_22  and  O5_23 
ROOT
HETATM    1  C4  UNL     1       2.821  -0.046   0.059  1.00  0.00     0.107 A 
HETATM    2  C5  UNL     1       2.344   1.051   0.717  1.00  0.00     0.070 A 
HETATM    3  C6  UNL     1       1.018   1.242   1.009  1.00  0.00     0.054 A 
HETATM    4  C7  UNL     1       0.084   0.300   0.635  1.00  0.00     0.070 A 
HETATM    5  C8  UNL     1       0.529  -0.834  -0.038  1.00  0.00     0.121 A 
HETATM    6  C9  UNL     1       1.890  -0.996  -0.319  1.00  0.00     0.136 A 
HETATM    7  O3  UNL     1       2.132  -2.168  -0.984  1.00  0.00    -0.344 OA
HETATM    8  C10 UNL     1       1.299  -2.709  -2.002  1.00  0.00     0.202 C 
HETATM    9  C11 UNL     1      -0.161  -2.452  -1.752  1.00  0.00     0.202 C 
HETATM   10  O4  UNL     1      -0.320  -1.844  -0.461  1.00  0.00    -0.345 OA
HETATM   11  C12 UNL     1      -1.226   0.440   0.899  1.00  0.00     0.104 A 
HETATM   12  N2  UNL     1      -1.715   1.583   1.586  1.00  0.00    -0.407 N 
HETATM   13  B1  UNL     1      -0.697   2.648   2.013  1.00  0.00     0.412 B 
HETATM   14  N3  UNL     1       0.751   2.336   1.636  1.00  0.00    -0.330 NA
HETATM   15  H21 UNL     1      -2.726   1.738   1.815  1.00  0.00     0.141 HD
HETATM   16  H22 UNL     1      -0.942   3.378   2.924  1.00  0.00     0.029 HD
ENDROOT
BRANCH  11  17
HETATM   17  N1  UNL     1      -2.155  -0.551   0.499  1.00  0.00    -0.343 N 
HETATM   18  H13 UNL     1      -2.396  -1.561   0.507  1.00  0.00     0.167 HD
BRANCH  17  19
HETATM   19  C13 UNL     1      -3.264  -0.025  -0.228  1.00  0.00     0.036 A 
HETATM   20  C14 UNL     1      -2.938   0.532  -1.423  1.00  0.00     0.029 A 
HETATM   21  C15 UNL     1      -3.923   1.074  -2.239  1.00  0.00     0.005 A 
HETATM   22  C16 UNL     1      -5.248   1.029  -1.797  1.00  0.00     0.037 A 
HETATM   23  C17 UNL     1      -5.590   0.467  -0.585  1.00  0.00     0.070 A 
HETATM   24  C19 UNL     1      -4.584  -0.064   0.204  1.00  0.00     0.066 A 
BRANCH  23  25
HETATM   25  O5  UNL     1      -6.908   0.436  -0.174  1.00  0.00    -0.356 OA
HETATM   26  C18 UNL     1      -7.373  -0.110   1.035  1.00  0.00     0.210 C 
ENDBRANCH  23  25
ENDBRANCH  17  19
ENDBRANCH  11  17
BRANCH   1  27
HETATM   27  O2  UNL     1       4.142  -0.316  -0.275  1.00  0.00    -0.346 OA
BRANCH  27  28
HETATM   28  C3  UNL     1       5.110   0.649   0.104  1.00  0.00     0.201 C 
BRANCH  28  29
HETATM   29  C2  UNL     1       6.492   0.247  -0.301  1.00  0.00     0.193 C 
BRANCH  29  30
HETATM   30  O1  UNL     1       6.827  -0.945   0.286  1.00  0.00    -0.394 OA
HETATM   31  C1  UNL     1       6.789  -0.842   1.666  1.00  0.00     0.201 C 
ENDBRANCH  29  30
ENDBRANCH  28  29
ENDBRANCH  27  28
ENDBRANCH   1  27
TORSDOF 7
