REMARK  6 active torsions:
REMARK  status: ('A' for Active; 'I' for Inactive)
REMARK    1  A    between atoms: C3_3  and  C4_5 
REMARK    2  A    between atoms: C5_6  and  C6_7 
REMARK    3  A    between atoms: C10_13  and  O3_14 
REMARK    4  A    between atoms: O3_14  and  C11_15 
REMARK    5  A    between atoms: C11_15  and  C12_16 
REMARK    6  A    between atoms: C12_16  and  O4_17 
ROOT
HETATM    1  C6  UNL     1       1.353   0.732   0.276  1.00  0.00     0.089 C 
HETATM    2  C7  UNL     1       0.121   0.283   0.239  1.00  0.00     0.113 C 
HETATM    3  O1  UNL     1      -0.760   1.106   1.011  1.00  0.00    -0.325 OA
HETATM    4  C8  UNL     1      -1.493   0.134   1.831  1.00  0.00     0.346 C 
HETATM    5  O2  UNL     1      -1.863  -0.798   0.838  1.00  0.00    -0.348 OA
HETATM    6  C9  UNL     1      -0.928  -0.672  -0.195  1.00  0.00     0.239 C 
HETATM    7  C10 UNL     1      -0.424  -1.852  -0.776  1.00  0.00     0.083 C 
HETATM    8  C14 UNL     1       0.138  -2.999  -1.313  1.00  0.00     0.048 C 
HETATM    9  C15 UNL     1       1.546  -3.331  -0.981  1.00  0.00     0.219 C 
HETATM   10  N1  UNL     1       2.518  -2.768  -0.289  1.00  0.00    -0.278 NA
HETATM   11  C16 UNL     1       2.137  -1.486   0.310  1.00  0.00     0.173 C 
HETATM   12  N2  UNL     1       1.701  -0.484  -0.446  1.00  0.00    -0.248 NA
ENDROOT
BRANCH   1  13
HETATM   13  C5  UNL     1       2.333   1.589   0.639  1.00  0.00     0.033 C 
HETATM   14  C4  UNL     1       2.231   2.751   1.417  1.00  0.00     0.021 C 
BRANCH  14  15
HETATM   15  C3  UNL     1       3.469   3.406   1.612  1.00  0.00     0.149 A 
HETATM   16  C2  UNL     1       3.257   4.558   2.392  1.00  0.00     0.169 A 
HETATM   17  C1  UNL     1       4.736   4.907   2.484  1.00  0.00     0.045 C 
HETATM   18  F1  UNL     1       3.880   4.496   2.283  1.00  0.00    -0.381 F 
ENDBRANCH  14  15
ENDBRANCH   1  13
BRANCH   7  19
HETATM   19  O3  UNL     1      -1.512  -2.259  -1.473  1.00  0.00    -0.350 OA
BRANCH  19  20
HETATM   20  C11 UNL     1      -2.652  -2.955  -1.070  1.00  0.00     0.201 C 
BRANCH  20  21
HETATM   21  C12 UNL     1      -3.774  -2.650  -2.108  1.00  0.00     0.193 C 
BRANCH  21  22
HETATM   22  O4  UNL     1      -3.948  -1.285  -2.053  1.00  0.00    -0.394 OA
HETATM   23  C13 UNL     1      -4.938  -0.845  -2.946  1.00  0.00     0.201 C 
ENDBRANCH  21  22
ENDBRANCH  20  21
ENDBRANCH  19  20
ENDBRANCH   7  19
TORSDOF 6
