REMARK  4 active torsions:
REMARK  status: ('A' for Active; 'I' for Inactive)
REMARK    1  A    between atoms: C7_9  and  O1_10 
REMARK    2  A    between atoms: O1_10  and  C8_11 
REMARK    3  A    between atoms: C8_11  and  C9_12 
REMARK    4  A    between atoms: C9_12  and  O2_13 
ROOT
HETATM    1  C1  UNL     1      -2.832  -1.242   1.003  1.00  0.00     0.036 C 
HETATM    2  C2  UNL     1      -3.187   0.198   0.742  1.00  0.00    -0.025 C 
HETATM    3  C3  UNL     1      -2.768   1.250   0.087  1.00  0.00    -0.049 C 
HETATM    4  C4  UNL     1      -3.566   2.536   0.186  1.00  0.00     0.176 C 
HETATM    5  N1  UNL     1      -2.608   3.613   0.008  1.00  0.00    -0.310 N 
HETATM    6  N2  UNL     1      -1.241   3.387   0.316  1.00  0.00    -0.183 NA
HETATM    7  C5  UNL     1      -0.607   2.319  -0.044  1.00  0.00     0.071 A 
HETATM    8  C6  UNL     1       0.785   2.039   0.246  1.00  0.00     0.069 A 
HETATM    9  C7  UNL     1       1.196   0.872  -0.214  1.00  0.00     0.106 A 
HETATM   10  C11 UNL     1       0.372  -0.071  -0.945  1.00  0.00     0.132 A 
HETATM   11  C12 UNL     1      -0.903   0.217  -1.198  1.00  0.00     0.096 A 
HETATM   12  O3  UNL     1      -1.737  -0.647  -1.893  1.00  0.00    -0.349 OA
HETATM   13  C13 UNL     1      -1.270  -1.875  -2.420  1.00  0.00     0.202 C 
HETATM   14  C14 UNL     1       0.251  -1.852  -2.545  1.00  0.00     0.202 C 
HETATM   15  O4  UNL     1       0.865  -1.292  -1.406  1.00  0.00    -0.344 OA
HETATM   16  C15 UNL     1      -1.581   1.440  -0.793  1.00  0.00     0.129 A 
HETATM   17  H7  UNL     1      -3.062   4.478  -0.351  1.00  0.00     0.182 HD
ENDROOT
BRANCH   9  18
HETATM   18  O1  UNL     1       2.543   0.608   0.071  1.00  0.00    -0.346 OA
BRANCH  18  19
HETATM   19  C8  UNL     1       2.753  -0.228   1.218  1.00  0.00     0.201 C 
BRANCH  19  20
HETATM   20  C9  UNL     1       4.226  -0.373   1.496  1.00  0.00     0.193 C 
BRANCH  20  21
HETATM   21  O2  UNL     1       4.890  -0.933   0.436  1.00  0.00    -0.394 OA
HETATM   22  C10 UNL     1       4.445  -2.195   0.085  1.00  0.00     0.201 C 
ENDBRANCH  20  21
ENDBRANCH  19  20
ENDBRANCH  18  19
ENDBRANCH   9  18
TORSDOF 4
