REMARK  6 active torsions:
REMARK  status: ('A' for Active; 'I' for Inactive)
REMARK    1  A    between atoms: C2_2  and  O1_3 
REMARK    2  A    between atoms: O1_3  and  C3_4 
REMARK    3  A    between atoms: C3_4  and  C4_5 
REMARK    4  A    between atoms: C4_5  and  C5_6 
REMARK    5  A    between atoms: C9_12  and  N2_13 
REMARK    6  A    between atoms: N2_13  and  C10_14 
ROOT
HETATM    1  C5  UNL     1       1.775   1.408   1.238  1.00  0.00     0.067 C 
HETATM    2  C6  UNL     1       1.344   2.567   0.406  1.00  0.00     0.214 C 
HETATM    3  O2  UNL     1       0.306   3.333   1.038  1.00  0.00    -0.256 OA
HETATM    4  N1  UNL     1      -1.034   2.979   1.214  1.00  0.00    -0.145 NA
HETATM    5  C7  UNL     1      -1.462   1.750   1.293  1.00  0.00     0.163 C 
HETATM    6  C8  UNL     1      -0.623   0.534   1.213  1.00  0.00     0.055 A 
HETATM    7  C9  UNL     1      -1.483  -0.567   1.160  1.00  0.00     0.143 A 
HETATM    8  N3  UNL     1      -0.906  -1.774   1.085  1.00  0.00    -0.223 NA
HETATM    9  C16 UNL     1       0.430  -1.920   1.062  1.00  0.00     0.235 A 
HETATM   10  N4  UNL     1       1.259  -0.862   1.113  1.00  0.00    -0.245 NA
HETATM   11  C17 UNL     1       0.744   0.357   1.188  1.00  0.00     0.057 A 
ENDROOT
BRANCH   7  12
HETATM   12  N2  UNL     1      -2.889  -0.494   1.179  1.00  0.00    -0.340 N 
HETATM   13  H12 UNL     1      -3.186  -0.536   2.179  1.00  0.00     0.167 HD
BRANCH  12  14
HETATM   14  C10 UNL     1      -3.762  -0.384   0.063  1.00  0.00     0.033 A 
HETATM   15  C11 UNL     1      -3.202  -0.340  -1.182  1.00  0.00     0.032 A 
HETATM   16  C12 UNL     1      -4.121  -0.231  -2.227  1.00  0.00     0.044 A 
HETATM   17  C13 UNL     1      -5.478  -0.172  -2.032  1.00  0.00     0.116 A 
HETATM   18  F1  UNL     1      -6.336  -0.066  -3.081  1.00  0.00    -0.206 F 
HETATM   19  C14 UNL     1      -5.959  -0.223  -0.737  1.00  0.00     0.044 A 
HETATM   20  C15 UNL     1      -5.112  -0.332   0.368  1.00  0.00     0.032 A 
ENDBRANCH  12  14
ENDBRANCH   7  12
BRANCH   1  21
HETATM   21  C4  UNL     1       3.162   0.934   0.974  1.00  0.00     0.040 C 
BRANCH  21  22
HETATM   22  C3  UNL     1       3.425   0.478  -0.429  1.00  0.00     0.175 C 
BRANCH  22  23
HETATM   23  O1  UNL     1       4.785   0.043  -0.583  1.00  0.00    -0.364 OA
BRANCH  23  24
HETATM   24  C2  UNL     1       5.251  -0.427  -1.822  1.00  0.00     0.124 C 
HETATM   25  C1  UNL     1       6.113  -1.264  -1.266  1.00  0.00     0.037 C 
ENDBRANCH  23  24
ENDBRANCH  22  23
ENDBRANCH  21  22
ENDBRANCH   1  21
TORSDOF 6
