REMARK  3 active torsions:
REMARK  status: ('A' for Active; 'I' for Inactive)
REMARK    1  A    between atoms: N1_2  and  C2_3 
REMARK    2  A    between atoms: N2_6  and  C5_7 
REMARK    3  A    between atoms: C11_13  and  O1_14 
ROOT
HETATM    1  C5  UNL     1       0.269   0.209   0.685  1.00  0.00     0.215 C 
HETATM    2  C6  UNL     1      -0.695   0.313   1.549  1.00  0.00     0.148 C 
HETATM    3  C7  UNL     1      -1.131   1.492   0.622  1.00  0.00     0.296 C 
HETATM    4  C8  UNL     1      -2.379   2.056   0.712  1.00  0.00     0.160 C 
HETATM    5  C9  UNL     1      -3.434   1.437   1.640  1.00  0.00     0.078 C 
HETATM    6  C10 UNL     1      -3.377  -0.009   0.828  1.00  0.00     0.041 C 
HETATM    7  C11 UNL     1      -2.492  -0.629  -0.162  1.00  0.00     0.254 C 
HETATM    8  N3  UNL     1      -1.164   0.162  -0.331  1.00  0.00     0.090 N 
HETATM    9  C13 UNL     1      -1.215   1.205  -1.497  1.00  0.00     0.372 C 
HETATM   10  C14 UNL     1      -2.323   2.210  -1.539  1.00  0.00     0.232 C 
HETATM   11  O2  UNL     1      -2.196   3.098  -0.246  1.00  0.00    -0.367 OA
HETATM   12  O3  UNL     1      -0.466   2.208  -0.627  1.00  0.00    -0.313 OA
ENDROOT
BRANCH   1  13
HETATM   13  N2  UNL     1       1.698  -0.027   0.449  1.00  0.00    -0.314 N 
HETATM   14  C4  UNL     1       1.971  -1.230   1.158  1.00  0.00     0.112 A 
HETATM   15  C3  UNL     1       3.190  -1.738   1.054  1.00  0.00     0.022 A 
HETATM   16  C2  UNL     1       4.094  -1.073   0.415  1.00  0.00     0.069 A 
HETATM   17  C16 UNL     1       3.817   0.154  -0.304  1.00  0.00     0.050 A 
HETATM   18  C15 UNL     1       2.641   0.685  -0.300  1.00  0.00     0.100 A 
BRANCH  16  19
HETATM   19  N1  UNL     1       5.393  -1.579   0.428  1.00  0.00    -0.271 NA
HETATM   20  C1  UNL     1       6.430  -0.830   0.245  1.00  0.00     0.149 C 
ENDBRANCH  16  19
ENDBRANCH   1  13
BRANCH   7  21
HETATM   21  O1  UNL     1      -3.000  -1.779  -0.737  1.00  0.00    -0.335 OA
HETATM   22  C12 UNL     1      -2.584  -3.082  -0.487  1.00  0.00     0.211 C 
ENDBRANCH   7  21
TORSDOF 3
