REMARK  11 active torsions:
REMARK  status: ('A' for Active; 'I' for Inactive)
REMARK    1  A    between atoms: O1_2  and  C2_3 
REMARK    2  A    between atoms: C2_3  and  C3_4 
REMARK    3  A    between atoms: C3_4  and  O2_5 
REMARK    4  A    between atoms: O2_5  and  C4_6 
REMARK    5  A    between atoms: C6_8  and  O3_9 
REMARK    6  A    between atoms: O3_9  and  C7_10 
REMARK    7  A    between atoms: C7_10  and  C8_11 
REMARK    8  A    between atoms: C8_11  and  O4_12 
REMARK    9  A    between atoms: C10_14  and  N1_15 
REMARK   10  A    between atoms: N1_15  and  C11_16 
REMARK   11  A    between atoms: C15_20  and  O5_21 
ROOT
HETATM    1  C4  UNL     1       3.144   0.460   0.921  1.00  0.00     0.073 A 
HETATM    2  C5  UNL     1       2.145   0.907   0.093  1.00  0.00     0.074 A 
HETATM    3  C6  UNL     1       0.838   0.477   0.124  1.00  0.00     0.087 A 
HETATM    4  C9  UNL     1       0.459  -0.471   1.041  1.00  0.00     0.072 A 
HETATM    5  C10 UNL     1      -0.860  -0.854   1.017  1.00  0.00     0.144 A 
HETATM    6  N2  UNL     1      -1.177  -1.784   1.933  1.00  0.00    -0.223 NA
HETATM    7  C18 UNL     1      -0.321  -2.305   2.797  1.00  0.00     0.236 A 
HETATM    8  N3  UNL     1       0.957  -1.897   2.779  1.00  0.00    -0.241 NA
HETATM    9  C19 UNL     1       1.392  -0.970   1.907  1.00  0.00     0.077 A 
HETATM   10  C20 UNL     1       2.716  -0.509   1.845  1.00  0.00     0.069 A 
ENDROOT
BRANCH   5  11
HETATM   11  N1  UNL     1      -1.889  -0.369   0.172  1.00  0.00    -0.340 N 
HETATM   12  H14 UNL     1      -2.009   0.344  -0.551  1.00  0.00     0.167 HD
BRANCH  11  13
HETATM   13  C11 UNL     1      -3.200  -0.928   0.212  1.00  0.00     0.036 A 
HETATM   14  C12 UNL     1      -3.348  -2.282   0.442  1.00  0.00     0.029 A 
HETATM   15  C13 UNL     1      -4.571  -2.914   0.526  1.00  0.00     0.005 A 
HETATM   16  C14 UNL     1      -5.737  -2.191   0.376  1.00  0.00     0.037 A 
HETATM   17  C15 UNL     1      -5.647  -0.838   0.144  1.00  0.00     0.070 A 
HETATM   18  C17 UNL     1      -4.411  -0.254   0.069  1.00  0.00     0.066 A 
BRANCH  17  19
HETATM   19  O5  UNL     1      -6.782  -0.061  -0.015  1.00  0.00    -0.356 OA
HETATM   20  C16 UNL     1      -6.731   1.327  -0.254  1.00  0.00     0.210 C 
ENDBRANCH  17  19
ENDBRANCH  11  13
ENDBRANCH   5  11
BRANCH   3  21
HETATM   21  O3  UNL     1       0.017   1.073  -0.811  1.00  0.00    -0.348 OA
BRANCH  21  22
HETATM   22  C7  UNL     1       0.390   2.036  -1.746  1.00  0.00     0.201 C 
BRANCH  22  23
HETATM   23  C8  UNL     1      -0.829   2.416  -2.576  1.00  0.00     0.190 C 
BRANCH  23  24
HETATM   24  O4  UNL     1      -1.842   2.932  -1.789  1.00  0.00    -0.399 OA
HETATM   25  H13 UNL     1      -2.647   2.342  -1.738  1.00  0.00     0.209 HD
ENDBRANCH  23  24
ENDBRANCH  22  23
ENDBRANCH  21  22
ENDBRANCH   3  21
BRANCH   1  26
HETATM   26  O2  UNL     1       4.450   0.674   1.122  1.00  0.00    -0.349 OA
BRANCH  26  27
HETATM   27  C3  UNL     1       5.347   1.501   0.476  1.00  0.00     0.201 C 
BRANCH  27  28
HETATM   28  C2  UNL     1       5.513   1.092  -0.967  1.00  0.00     0.193 C 
BRANCH  28  29
HETATM   29  O1  UNL     1       5.978  -0.207  -1.038  1.00  0.00    -0.394 OA
HETATM   30  C1  UNL     1       7.204  -0.378  -0.424  1.00  0.00     0.201 C 
ENDBRANCH  28  29
ENDBRANCH  27  28
ENDBRANCH  26  27
ENDBRANCH   1  26
TORSDOF 11
