REMARK  7 active torsions:
REMARK  status: ('A' for Active; 'I' for Inactive)
REMARK    1  A    between atoms: C3_3  and  N1_4 
REMARK    2  A    between atoms: C3_3  and  C4_5 
REMARK    3  A    between atoms: C5_6  and  C6_7 
REMARK    4  A    between atoms: C6_7  and  O1_8 
REMARK    5  A    between atoms: O1_8  and  C7_9 
REMARK    6  A    between atoms: C9_11  and  N2_12 
REMARK    7  A    between atoms: N2_12  and  C10_13 
ROOT
HETATM    1  C7  UNL     1       0.846   0.546   0.555  1.00  0.00     0.169 A 
HETATM    2  C8  UNL     1       1.801   0.292  -0.435  1.00  0.00     0.108 A 
HETATM    3  C9  UNL     1       2.906   1.150  -0.502  1.00  0.00     0.133 A 
HETATM    4  N3  UNL     1       3.014   2.165   0.360  1.00  0.00    -0.224 NA
HETATM    5  C15 UNL     1       2.068   2.381   1.305  1.00  0.00     0.238 A 
HETATM    6  N4  UNL     1       0.994   1.580   1.402  1.00  0.00    -0.218 NA
ENDROOT
BRANCH   1   7
HETATM    7  O1  UNL     1      -0.209  -0.330   0.571  1.00  0.00    -0.331 OA
BRANCH   7   8
HETATM    8  C6  UNL     1      -1.304  -0.325   1.436  1.00  0.00     0.205 C 
BRANCH   8   9
HETATM    9  C5  UNL     1      -2.206  -1.490   1.108  1.00  0.00     0.002 C 
HETATM   10  C4  UNL     1      -3.467  -1.570   0.729  1.00  0.00     0.026 C 
BRANCH  10  11
HETATM   11  C3  UNL     1      -4.066  -0.284   0.618  1.00  0.00     0.021 C 
HETATM   12  C2  UNL     1      -4.686   0.837   0.494  1.00  0.00    -0.002 C 
HETATM   13  C1  UNL     1      -6.072   1.178   0.115  1.00  0.00     0.038 C 
BRANCH  11  14
HETATM   14  N1  UNL     1      -5.407  -0.701   0.216  1.00  0.00    -0.399 N 
HETATM   15  H5  UNL     1      -6.338  -1.117  -0.016  1.00  0.00     0.156 HD
HETATM   16  H6  UNL     1      -6.368  -1.019  -0.065  1.00  0.00     0.156 HD
ENDBRANCH  11  14
ENDBRANCH  10  11
ENDBRANCH   8   9
ENDBRANCH   7   8
ENDBRANCH   1   7
BRANCH   3  17
HETATM   17  N2  UNL     1       3.876   0.878  -1.520  1.00  0.00    -0.340 N 
HETATM   18  H12 UNL     1       3.928   1.282  -2.474  1.00  0.00     0.167 HD
BRANCH  17  19
HETATM   19  C10 UNL     1       4.859  -0.065  -1.114  1.00  0.00     0.050 A 
HETATM   20  C11 UNL     1       5.771   0.451  -0.308  1.00  0.00     0.047 A 
HETATM   21  C12 UNL     1       6.741  -0.376  -0.007  1.00  0.00     0.151 A 
HETATM   22  F1  UNL     1       7.922  -0.438   0.650  1.00  0.00    -0.203 F 
HETATM   23  C13 UNL     1       6.368  -1.662  -0.615  1.00  0.00     0.075 A 
HETATM   24 CL1  UNL     1       6.951  -3.323  -0.723  1.00  0.00    -0.081 Cl
HETATM   25  C14 UNL     1       5.224  -1.488  -1.292  1.00  0.00     0.057 A 
ENDBRANCH  17  19
ENDBRANCH   3  17
TORSDOF 7
