REMARK  5 active torsions:
REMARK  status: ('A' for Active; 'I' for Inactive)
REMARK    1  A    between atoms: O1_2  and  C2_3 
REMARK    2  A    between atoms: C2_3  and  C3_4 
REMARK    3  A    between atoms: C3_4  and  O2_5 
REMARK    4  A    between atoms: O2_5  and  C4_6 
REMARK    5  A    between atoms: C8_12  and  C9_13 
ROOT
HETATM    1  C4  UNL     1       0.858  -0.211   0.677  1.00  0.00     0.115 A 
HETATM    2  C5  UNL     1      -0.064   0.530   1.344  1.00  0.00     0.037 A 
HETATM    3  C6  UNL     1       0.295   1.780   1.984  1.00  0.00     0.131 C 
HETATM    4  N1  UNL     1      -0.583   1.962   2.961  1.00  0.00    -0.254 NA
HETATM    5  C7  UNL     1      -1.651   0.994   3.092  1.00  0.00     0.228 C 
HETATM    6  N2  UNL     1      -2.061  -0.093   2.398  1.00  0.00    -0.255 NA
HETATM    7  C8  UNL     1      -1.264  -0.286   1.226  1.00  0.00     0.164 A 
HETATM    8  C15 UNL     1      -1.048  -1.499   0.542  1.00  0.00     0.122 A 
HETATM    9  C16 UNL     1       0.249  -1.466   0.183  1.00  0.00     0.135 A 
HETATM   10  O3  UNL     1       0.663  -2.601  -0.543  1.00  0.00    -0.344 OA
HETATM   11  C17 UNL     1      -0.329  -3.308  -1.281  1.00  0.00     0.202 C 
HETATM   12  C18 UNL     1      -1.418  -3.717  -0.330  1.00  0.00     0.202 C 
HETATM   13  O4  UNL     1      -1.923  -2.515   0.274  1.00  0.00    -0.347 OA
ENDROOT
BRANCH   7  14
HETATM   14  C9  UNL     1      -2.150   0.586   0.174  1.00  0.00    -0.016 A 
HETATM   15  C10 UNL     1      -3.276   1.296   0.526  1.00  0.00     0.013 A 
HETATM   16  C11 UNL     1      -3.879   1.968  -0.509  1.00  0.00     0.043 A 
HETATM   17  C12 UNL     1      -3.424   1.952  -1.788  1.00  0.00     0.116 A 
HETATM   18  F1  UNL     1      -4.151   2.675  -2.673  1.00  0.00    -0.206 F 
HETATM   19  C13 UNL     1      -2.296   1.233  -2.114  1.00  0.00     0.043 A 
HETATM   20  C14 UNL     1      -1.656   0.543  -1.112  1.00  0.00     0.013 A 
ENDBRANCH   7  14
BRANCH   1  21
HETATM   21  O2  UNL     1       2.232  -0.028   0.408  1.00  0.00    -0.345 OA
BRANCH  21  22
HETATM   22  C3  UNL     1       2.642  -0.105  -0.931  1.00  0.00     0.202 C 
BRANCH  22  23
HETATM   23  C2  UNL     1       4.097   0.089  -1.171  1.00  0.00     0.193 C 
BRANCH  23  24
HETATM   24  O1  UNL     1       4.631   1.291  -0.787  1.00  0.00    -0.394 OA
HETATM   25  C1  UNL     1       4.554   1.615   0.526  1.00  0.00     0.201 C 
ENDBRANCH  23  24
ENDBRANCH  22  23
ENDBRANCH  21  22
ENDBRANCH   1  21
TORSDOF 5
