REMARK  7 active torsions:
REMARK  status: ('A' for Active; 'I' for Inactive)
REMARK    1  A    between atoms: C2_2  and  N1_10 
REMARK    2  A    between atoms: C3_3  and  C4_4 
REMARK    3  A    between atoms: C5_5  and  C6_7 
REMARK    4  A    between atoms: C6_7  and  P1_8 
REMARK    5  A    between atoms: P1_8  and  P2_9 
REMARK    6  A    between atoms: N1_10  and  C7_11 
REMARK    7  A    between atoms: C14_21  and  P3_22 
ROOT
HETATM    1  C7  UNL     1       0.396  -0.471   0.014  1.00  0.00     0.160 A 
HETATM    2  N2  UNL     1       1.204  -1.524   0.161  1.00  0.00    -0.222 NA
HETATM    3  C8  UNL     1       0.628  -2.748   0.345  1.00  0.00     0.238 A 
HETATM    4  N3  UNL     1      -0.708  -2.882   0.376  1.00  0.00    -0.215 NA
HETATM    5  C9  UNL     1      -1.497  -1.809   0.226  1.00  0.00     0.202 A 
HETATM    6  C10 UNL     1      -0.979  -0.550   0.037  1.00  0.00     0.129 A 
HETATM    7  N4  UNL     1      -1.575   0.712  -0.141  1.00  0.00    -0.379 N 
HETATM    8  C11 UNL     1      -2.880   1.127   0.340  1.00  0.00     0.161 C 
HETATM    9  C12 UNL     1      -3.905   0.080   0.271  1.00  0.00    -0.006 A 
HETATM   10  C13 UNL     1      -5.142   0.728   0.222  1.00  0.00     0.023 A 
HETATM   11  C14 UNL     1      -6.344   0.072   0.151  1.00  0.00    -0.036 A 
HETATM   12  C15 UNL     1      -6.336  -1.310   0.126  1.00  0.00     0.014 A 
HETATM   13  C16 UNL     1      -5.137  -2.008   0.172  1.00  0.00     0.039 A 
HETATM   14  C17 UNL     1      -3.959  -1.294   0.243  1.00  0.00     0.086 A 
HETATM   15  O1  UNL     1      -2.848  -2.120   0.283  1.00  0.00    -0.289 OA
HETATM   16  H11 UNL     1      -0.987   1.372  -0.676  1.00  0.00     0.160 HD
ENDROOT
BRANCH   1  17
HETATM   17  N1  UNL     1       1.048   0.767  -0.170  1.00  0.00    -0.343 N 
HETATM   18  H9  UNL     1       0.942   1.786  -0.325  1.00  0.00     0.167 HD
BRANCH  17  19
HETATM   19  C2  UNL     1       2.492   0.819  -0.172  1.00  0.00     0.004 C 
HETATM   20  C1  UNL     1       3.055   0.112  -1.347  1.00  0.00     0.068 C 
HETATM   21  C3  UNL     1       3.274   1.417   0.746  1.00  0.00     0.007 C 
BRANCH  21  22
HETATM   22  C4  UNL     1       4.709   1.220   0.340  1.00  0.00     0.140 C 
HETATM   23  C5  UNL     1       5.856   1.646   0.957  1.00  0.00     0.096 C 
HETATM   24  F1  UNL     1       6.526   2.316   1.998  1.00  0.00    -0.248 F 
BRANCH  23  25
HETATM   25  C6  UNL     1       7.016   1.215   0.187  1.00  0.00     0.082 C 
BRANCH  25  26
HETATM   26  P1  UNL     1       6.647   0.252  -1.348  1.00  0.00    -0.050 P 
BRANCH  26  27
HETATM   27  P2  UNL     1       6.746  -1.734  -1.431  1.00  0.00    -0.064 P 
HETATM   28  H8  UNL     1       7.112  -2.555  -0.300  1.00  0.00     0.068 HD
ENDBRANCH  26  27
ENDBRANCH  25  26
ENDBRANCH  23  25
ENDBRANCH  21  22
ENDBRANCH  17  19
ENDBRANCH   1  17
BRANCH  11  29
HETATM   29  P3  UNL     1      -7.942   0.925   0.089  1.00  0.00    -0.106 P 
HETATM   30  H15 UNL     1      -8.198   1.575  -1.171  1.00  0.00     0.059 HD
HETATM   31  H16 UNL     1      -9.026   0.126   0.586  1.00  0.00     0.059 HD
ENDBRANCH  11  29
TORSDOF 7
