REMARK  6 active torsions:
REMARK  status: ('A' for Active; 'I' for Inactive)
REMARK    1  A    between atoms: O1_2  and  C2_3 
REMARK    2  A    between atoms: C2_3  and  C3_4 
REMARK    3  A    between atoms: C3_4  and  O2_5 
REMARK    4  A    between atoms: O2_5  and  C4_6 
REMARK    5  A    between atoms: C8_12  and  N3_13 
REMARK    6  A    between atoms: N3_13  and  C9_14 
ROOT
HETATM    1  C4  UNL     1      -2.128  -0.100   0.437  1.00  0.00     0.107 A 
HETATM    2  C5  UNL     1      -1.485  -0.824   1.438  1.00  0.00     0.072 A 
HETATM    3  C6  UNL     1      -0.131  -1.088   1.382  1.00  0.00     0.077 A 
HETATM    4  N1  UNL     1       0.569  -1.778   2.296  1.00  0.00    -0.241 NA
HETATM    5  C7  UNL     1       1.888  -1.987   2.155  1.00  0.00     0.236 A 
HETATM    6  N2  UNL     1       2.596  -1.519   1.085  1.00  0.00    -0.224 NA
HETATM    7  C8  UNL     1       1.945  -0.818   0.133  1.00  0.00     0.141 A 
HETATM    8  C16 UNL     1       0.602  -0.631   0.321  1.00  0.00     0.075 A 
HETATM    9  C17 UNL     1      -0.016   0.085  -0.676  1.00  0.00     0.121 A 
HETATM   10  C18 UNL     1      -1.359   0.346  -0.618  1.00  0.00     0.136 A 
HETATM   11  O3  UNL     1      -2.093   1.067  -1.581  1.00  0.00    -0.344 OA
HETATM   12  C19 UNL     1      -1.376   1.723  -2.638  1.00  0.00     0.202 C 
HETATM   13  C20 UNL     1      -0.166   0.867  -2.947  1.00  0.00     0.202 C 
HETATM   14  O4  UNL     1       0.599   0.602  -1.797  1.00  0.00    -0.345 OA
ENDROOT
BRANCH   7  15
HETATM   15  N3  UNL     1       2.757  -0.357  -0.958  1.00  0.00    -0.359 N 
HETATM   16  H10 UNL     1       2.625   0.217  -1.818  1.00  0.00     0.162 HD
BRANCH  15  17
HETATM   17  C9  UNL     1       4.188  -0.783  -0.877  1.00  0.00     0.075 A 
HETATM   18  C10 UNL     1       4.652  -2.149  -1.394  1.00  0.00     0.052 A 
HETATM   19  C11 UNL     1       5.642  -1.538  -0.937  1.00  0.00     0.069 A 
HETATM   20  C12 UNL     1       6.437  -1.020  -0.558  1.00  0.00    -0.164 A 
HETATM   21  C13 UNL     1       7.473  -0.309  -0.048  1.00  0.00     0.107 A 
HETATM   22  C14 UNL     1       6.154   0.867   0.223  1.00  0.00    -0.017 A 
HETATM   23  C15 UNL     1       4.752   0.588  -0.165  1.00  0.00     0.003 A 
ENDBRANCH  15  17
ENDBRANCH   7  15
BRANCH   1  24
HETATM   24  O2  UNL     1      -3.500   0.141   0.540  1.00  0.00    -0.346 OA
BRANCH  24  25
HETATM   25  C3  UNL     1      -4.161  -0.374   1.675  1.00  0.00     0.201 C 
BRANCH  25  26
HETATM   26  C2  UNL     1      -5.635  -0.050   1.674  1.00  0.00     0.193 C 
BRANCH  26  27
HETATM   27  O1  UNL     1      -6.295  -0.566   0.572  1.00  0.00    -0.394 OA
HETATM   28  C1  UNL     1      -7.655  -0.227   0.638  1.00  0.00     0.201 C 
ENDBRANCH  26  27
ENDBRANCH  25  26
ENDBRANCH  24  25
ENDBRANCH   1  24
TORSDOF 6
