REMARK  3 active torsions:
REMARK  status: ('A' for Active; 'I' for Inactive)
REMARK    1  A    between atoms: C2_2  and  C3_3 
REMARK    2  A    between atoms: C3_3  and  C4_4 
REMARK    3  A    between atoms: C5_5  and  C6_6 
ROOT
HETATM    1  C6  UNL     1      -1.914  -1.043  -1.036  1.00  0.00     0.049 C 
HETATM    2  C7  UNL     1      -3.224  -1.509  -1.634  1.00  0.00     0.043 C 
HETATM    3  C8  UNL     1      -1.162  -2.229  -0.566  1.00  0.00     0.071 C 
HETATM    4  C9  UNL     1       0.202  -1.895  -0.070  1.00  0.00    -0.055 C 
HETATM    5  C10 UNL     1       0.245  -1.690   1.229  1.00  0.00     0.140 C 
HETATM    6  O1  UNL     1       1.108  -1.359   2.310  1.00  0.00    -0.337 OA
HETATM    7  C11 UNL     1       1.507   0.020   2.425  1.00  0.00     0.349 C 
HETATM    8  O2  UNL     1       2.874   0.123   2.565  1.00  0.00    -0.337 OA
HETATM    9  C12 UNL     1       3.813   0.780   1.845  1.00  0.00     0.140 C 
HETATM   10  C13 UNL     1       3.713   0.481   0.525  1.00  0.00    -0.051 C 
HETATM   11  C14 UNL     1       3.092  -0.207  -0.583  1.00  0.00     0.030 C 
HETATM   12  C15 UNL     1       2.176  -0.974  -1.076  1.00  0.00     0.003 C 
HETATM   13  C16 UNL     1       1.028  -1.845  -1.324  1.00  0.00     0.041 C 
HETATM   14  C17 UNL     1       4.414   1.448  -0.428  1.00  0.00     0.063 C 
HETATM   15  C18 UNL     1       3.349   1.983  -1.403  1.00  0.00     0.174 C 
HETATM   16  O3  UNL     1       2.288   2.436  -0.675  1.00  0.00    -0.370 OA
HETATM   17  C19 UNL     1       1.180   2.787  -1.390  1.00  0.00     0.317 C 
HETATM   18  N1  UNL     1       0.630   1.614  -2.068  1.00  0.00    -0.259 NA
HETATM   19  C20 UNL     1      -0.419   0.980  -1.702  1.00  0.00     0.199 C 
HETATM   20  N2  UNL     1      -1.324  -0.129  -1.966  1.00  0.00    -0.372 N 
HETATM   21  H26 UNL     1      -1.272   0.117  -2.979  1.00  0.00     0.161 HD
ENDROOT
BRANCH   1  22
HETATM   22  C5  UNL     1      -2.343  -0.229   0.197  1.00  0.00     0.004 C 
HETATM   23  C4  UNL     1      -3.619   0.073   0.477  1.00  0.00     0.006 C 
BRANCH  23  24
HETATM   24  C3  UNL     1      -4.179   0.825   1.591  1.00  0.00     0.050 C 
BRANCH  24  25
HETATM   25  C2  UNL     1      -4.546   0.281   2.746  1.00  0.00    -0.155 C 
HETATM   26  C1  UNL     1      -4.749  -0.628   3.696  1.00  0.00     0.096 C 
ENDBRANCH  24  25
ENDBRANCH  23  24
ENDBRANCH   1  22
TORSDOF 3
