REMARK  6 active torsions:
REMARK  status: ('A' for Active; 'I' for Inactive)
REMARK    1  A    between atoms: C8_12  and  O3_13 
REMARK    2  A    between atoms: O3_13  and  C9_14 
REMARK    3  A    between atoms: C9_14  and  C10_15 
REMARK    4  A    between atoms: C10_15  and  O4_16 
REMARK    5  A    between atoms: C12_18  and  N2_19 
REMARK    6  A    between atoms: N2_19  and  C13_20 
ROOT
HETATM    1  C1  UNL     1       1.930  -1.393  -2.983  1.00  0.00     0.006 C 
HETATM    2  S1  UNL     1       1.400  -1.525  -1.810  1.00  0.00    -0.085 SA
HETATM    3  C2  UNL     1       0.765  -1.700  -0.412  1.00  0.00     0.185 C 
HETATM    4  C3  UNL     1      -0.636  -2.177  -0.432  1.00  0.00     0.143 C 
HETATM    5  N1  UNL     1      -1.666  -3.004  -0.577  1.00  0.00    -0.269 NA
HETATM    6  C4  UNL     1      -2.548  -3.035   0.636  1.00  0.00     0.195 C 
HETATM    7  C5  UNL     1      -2.166  -1.783   1.413  1.00  0.00     0.029 C 
HETATM    8  C6  UNL     1      -1.730  -1.772   2.696  1.00  0.00     0.150 C 
HETATM    9  O1  UNL     1      -1.407  -0.462   3.222  1.00  0.00    -0.337 OA
HETATM   10  C7  UNL     1      -0.476   0.214   2.264  1.00  0.00     0.347 C 
HETATM   11  O2  UNL     1       0.162  -0.791   1.631  1.00  0.00    -0.335 OA
HETATM   12  C8  UNL     1       1.028  -0.635   0.617  1.00  0.00     0.284 C 
HETATM   13  C12 UNL     1      -2.496  -0.892   0.241  1.00  0.00     0.140 C 
HETATM   14  N3  UNL     1      -1.267  -1.022   0.032  1.00  0.00    -0.214 NA
ENDROOT
BRANCH  12  15
HETATM   15  O3  UNL     1       2.364  -0.899   1.119  1.00  0.00    -0.357 OA
BRANCH  15  16
HETATM   16  C9  UNL     1       3.133   0.260   0.876  1.00  0.00     0.197 C 
BRANCH  16  17
HETATM   17  C10 UNL     1       4.512  -0.034   1.390  1.00  0.00     0.193 C 
BRANCH  17  18
HETATM   18  O4  UNL     1       5.403   1.008   1.237  1.00  0.00    -0.394 OA
HETATM   19  C11 UNL     1       5.573   1.367  -0.080  1.00  0.00     0.201 C 
ENDBRANCH  17  18
ENDBRANCH  16  17
ENDBRANCH  15  16
ENDBRANCH  12  15
BRANCH  13  20
HETATM   20  N2  UNL     1      -3.715  -0.319  -0.185  1.00  0.00    -0.340 N 
HETATM   21  H16 UNL     1      -4.477  -0.974   0.074  1.00  0.00     0.167 HD
BRANCH  20  22
HETATM   22  C13 UNL     1      -3.319   0.911  -0.779  1.00  0.00     0.033 A 
HETATM   23  C14 UNL     1      -3.425   1.977   0.115  1.00  0.00     0.029 A 
HETATM   24  C15 UNL     1      -3.103   3.257  -0.225  1.00  0.00     0.002 A 
HETATM   25  C16 UNL     1      -2.658   3.440  -1.528  1.00  0.00     0.000 A 
HETATM   26  C17 UNL     1      -2.558   2.383  -2.400  1.00  0.00     0.002 A 
HETATM   27  C18 UNL     1      -2.878   1.086  -2.072  1.00  0.00     0.029 A 
ENDBRANCH  20  22
ENDBRANCH  13  20
TORSDOF 6
