REMARK  4 active torsions:
REMARK  status: ('A' for Active; 'I' for Inactive)
REMARK    1  A    between atoms: C1_1  and  C2_2 
REMARK    2  A    between atoms: C1_1  and  C16_22 
REMARK    3  A    between atoms: C2_2  and  C3_3 
REMARK    4  A    between atoms: C3_3  and  C4_4 
ROOT
HETATM    1  C4  UNL     1       0.572  -0.126   0.543  1.00  0.00     0.052 A 
HETATM    2  N1  UNL     1       1.461  -0.275   1.598  1.00  0.00    -0.245 NA
HETATM    3  C5  UNL     1       0.933   0.168   2.802  1.00  0.00     0.234 A 
HETATM    4  N2  UNL     1      -0.257   0.644   2.861  1.00  0.00    -0.241 NA
HETATM    5  C6  UNL     1      -1.267   0.896   2.118  1.00  0.00     0.072 A 
HETATM    6  C7  UNL     1      -0.489   0.396   1.133  1.00  0.00     0.027 A 
HETATM    7  C8  UNL     1      -1.382  -0.388   0.343  1.00  0.00    -0.011 A 
HETATM    8  C9  UNL     1      -1.455  -1.375  -0.726  1.00  0.00     0.208 A 
HETATM    9  O1  UNL     1      -2.640  -1.036  -1.467  1.00  0.00    -0.385 OA
HETATM   10  C10 UNL     1      -2.746   0.246  -1.861  1.00  0.00     0.194 C 
HETATM   11  C11 UNL     1      -3.334   1.417  -1.221  1.00  0.00     0.197 C 
HETATM   12  O2  UNL     1      -3.136   2.020  -0.047  1.00  0.00    -0.356 OA
HETATM   13  C12 UNL     1      -3.788   1.639   1.035  1.00  0.00     0.286 C 
HETATM   14  C13 UNL     1      -2.452   1.295   1.978  1.00  0.00     0.065 C 
HETATM   15  O3  UNL     1      -4.039   0.210   0.408  1.00  0.00    -0.358 OA
HETATM   16  C14 UNL     1      -3.886  -0.654   1.489  1.00  0.00     0.171 C 
HETATM   17  C15 UNL     1      -3.424  -1.845   0.520  1.00  0.00     0.028 C 
HETATM   18  O4  UNL     1      -2.431  -0.992  -0.220  1.00  0.00     0.000 OA
ENDROOT
BRANCH   1  19
HETATM   19  C3  UNL     1       1.361  -0.426  -0.653  1.00  0.00     0.087 C 
BRANCH  19  20
HETATM   20  C2  UNL     1       2.519   0.582  -0.751  1.00  0.00    -0.021 C 
BRANCH  20  21
HETATM   21  C1  UNL     1       3.734  -0.051  -0.842  1.00  0.00    -0.001 C 
BRANCH  21  22
HETATM   22  C16 UNL     1       4.990   0.677  -0.941  1.00  0.00     0.037 C 
HETATM   23  C17 UNL     1       6.236   0.276  -1.017  1.00  0.00     0.076 A 
HETATM   24  C18 UNL     1       6.643  -1.150  -1.020  1.00  0.00     0.062 A 
HETATM   25  O5  UNL     1       7.523   0.651  -1.112  1.00  0.00    -0.323 OA
HETATM   26  C19 UNL     1       7.910  -0.670  -1.112  1.00  0.00     0.145 A 
ENDBRANCH  21  22
ENDBRANCH  20  21
ENDBRANCH  19  20
ENDBRANCH   1  19
TORSDOF 4
