REMARK  2 active torsions:
REMARK  status: ('A' for Active; 'I' for Inactive)
REMARK    1  A    between atoms: N1_2  and  C3_4 
REMARK    2  A    between atoms: N5_13  and  C9_14 
ROOT
HETATM    1  C3  UNL     1      -3.034   0.045  -0.059  1.00  0.00     0.030 C 
HETATM    2  C4  UNL     1      -2.626   1.264  -0.277  1.00  0.00     0.048 C 
HETATM    3  C5  UNL     1      -1.344   1.748  -0.714  1.00  0.00     0.114 C 
HETATM    4  N2  UNL     1      -0.383   0.953  -0.959  1.00  0.00    -0.284 NA
HETATM    5  C6  UNL     1       0.937   1.350  -1.403  1.00  0.00     0.287 C 
HETATM    6  N3  UNL     1       1.690   0.150  -1.726  1.00  0.00    -0.113 NA
HETATM    7  N4  UNL     1       0.756  -0.857  -2.086  1.00  0.00    -0.298 N 
HETATM    8  C7  UNL     1       0.144  -1.281  -0.873  1.00  0.00     0.062 C 
HETATM    9  C8  UNL     1       1.181  -1.186  -0.016  1.00  0.00     0.143 C 
HETATM   10  N5  UNL     1       2.243  -0.398  -0.538  1.00  0.00    -0.265 N 
HETATM   11  C15 UNL     1      -1.199  -1.730  -0.452  1.00  0.00     0.034 C 
HETATM   12  C16 UNL     1      -2.381  -1.233  -0.148  1.00  0.00     0.031 C 
HETATM   13  H11 UNL     1       0.859  -0.922  -3.134  1.00  0.00     0.183 HD
ENDROOT
BRANCH  10  14
HETATM   14  C9  UNL     1       3.535  -0.193  -0.022  1.00  0.00     0.054 A 
HETATM   15  C10 UNL     1       4.433   0.634  -0.706  1.00  0.00     0.031 A 
HETATM   16  C11 UNL     1       5.687   0.811  -0.173  1.00  0.00     0.004 A 
HETATM   17  C12 UNL     1       6.050   0.182   1.018  1.00  0.00     0.024 A 
HETATM   18  C13 UNL     1       5.149  -0.636   1.687  1.00  0.00     0.036 A 
HETATM   19 CL1  UNL     1       5.606  -1.423   3.180  1.00  0.00    -0.084 Cl
HETATM   20  C14 UNL     1       3.873  -0.815   1.144  1.00  0.00     0.055 A 
ENDBRANCH  10  14
BRANCH   1  21
HETATM   21  N1  UNL     1      -4.417   0.022   0.372  1.00  0.00    -0.390 N 
HETATM   22  C1  UNL     1      -5.355  -0.932  -0.162  1.00  0.00     0.149 C 
HETATM   23  C2  UNL     1      -4.968   0.931   1.356  1.00  0.00     0.149 C 
ENDBRANCH   1  21
TORSDOF 2
