REMARK  5 active torsions:
REMARK  status: ('A' for Active; 'I' for Inactive)
REMARK    1  A    between atoms: C2_2  and  O1_3 
REMARK    2  A    between atoms: O1_3  and  C3_4 
REMARK    3  A    between atoms: C7_8  and  N1_9 
REMARK    4  A    between atoms: N1_9  and  C8_10 
REMARK    5  A    between atoms: C16_22  and  O2_23 
ROOT
HETATM    1  C3  UNL     1      -2.945   0.456   0.538  1.00  0.00     0.140 A 
HETATM    2  C4  UNL     1      -2.109  -0.655   0.415  1.00  0.00     0.139 A 
HETATM    3  C5  UNL     1      -0.749  -0.527   0.357  1.00  0.00     0.121 A 
HETATM    4  C6  UNL     1      -0.141   0.694   0.417  1.00  0.00     0.078 A 
HETATM    5  C7  UNL     1       1.229   0.748   0.353  1.00  0.00     0.145 A 
HETATM    6  N2  UNL     1       1.749   1.971   0.417  1.00  0.00    -0.223 NA
HETATM    7  C14 UNL     1       0.999   3.075   0.535  1.00  0.00     0.236 A 
HETATM    8  N3  UNL     1      -0.339   2.995   0.596  1.00  0.00    -0.238 NA
HETATM    9  C15 UNL     1      -0.949   1.805   0.539  1.00  0.00     0.111 A 
HETATM   10  C16 UNL     1      -2.325   1.701   0.599  1.00  0.00     0.132 A 
HETATM   11  O3  UNL     1      -0.058  -1.713   0.237  1.00  0.00    -0.345 OA
HETATM   12  C17 UNL     1      -0.697  -2.917   0.582  1.00  0.00     0.202 C 
HETATM   13  C18 UNL     1      -2.085  -2.992  -0.069  1.00  0.00     0.202 C 
HETATM   14  O4  UNL     1      -2.813  -1.852   0.361  1.00  0.00    -0.343 OA
ENDROOT
BRANCH   5  15
HETATM   15  N1  UNL     1       2.102  -0.358   0.209  1.00  0.00    -0.340 N 
HETATM   16  H6  UNL     1       2.046  -1.383   0.089  1.00  0.00     0.167 HD
BRANCH  15  17
HETATM   17  C8  UNL     1       3.525  -0.178   0.214  1.00  0.00     0.035 A 
HETATM   18  C9  UNL     1       4.108   0.799   1.007  1.00  0.00     0.032 A 
HETATM   19  C10 UNL     1       5.459   1.044   1.041  1.00  0.00     0.046 A 
HETATM   20  C11 UNL     1       6.316   0.301   0.260  1.00  0.00     0.138 A 
HETATM   21  F1  UNL     1       7.651   0.480   0.236  1.00  0.00    -0.204 F 
HETATM   22  C12 UNL     1       5.812  -0.683  -0.549  1.00  0.00     0.074 A 
HETATM   23 CL1  UNL     1       6.816  -1.693  -1.587  1.00  0.00    -0.081 Cl
HETATM   24  C13 UNL     1       4.454  -0.883  -0.541  1.00  0.00     0.056 A 
ENDBRANCH  15  17
ENDBRANCH   5  15
BRANCH  10  25
HETATM   25  O2  UNL     1      -3.020   2.921   0.723  1.00  0.00    -0.356 OA
HETATM   26  H11 UNL     1      -2.634   3.607   1.368  1.00  0.00     0.218 HD
ENDBRANCH  10  25
BRANCH   1  27
HETATM   27  O1  UNL     1      -4.319   0.551   0.612  1.00  0.00    -0.346 OA
BRANCH  27  28
HETATM   28  C2  UNL     1      -5.159   0.712  -0.490  1.00  0.00     0.171 C 
HETATM   29  C1  UNL     1      -5.087  -0.391  -1.500  1.00  0.00     0.034 C 
ENDBRANCH  27  28
ENDBRANCH   1  27
TORSDOF 5
