REMARK  3 active torsions:
REMARK  status: ('A' for Active; 'I' for Inactive)
REMARK    1  A    between atoms: C7_7  and  N1_8 
REMARK    2  A    between atoms: N1_8  and  C8_9 
REMARK    3  A    between atoms: C10_13  and  C11_14 
ROOT
HETATM    1  C1  UNL     1       7.961  -2.866   2.170  1.00  0.00     0.018 C 
HETATM    2  C2  UNL     1       7.332  -2.217   1.369  1.00  0.00    -0.078 C 
HETATM    3  C3  UNL     1       6.595  -1.441   0.393  1.00  0.00     0.019 A 
HETATM    4  C4  UNL     1       7.027  -1.457  -0.936  1.00  0.00     0.021 A 
HETATM    5  C5  UNL     1       6.321  -0.709  -1.886  1.00  0.00     0.004 A 
HETATM    6  C6  UNL     1       5.224   0.019  -1.496  1.00  0.00     0.029 A 
HETATM    7  C7  UNL     1       4.818   0.018  -0.177  1.00  0.00     0.034 A 
HETATM    8  C21 UNL     1       5.494  -0.709   0.784  1.00  0.00     0.050 A 
ENDROOT
BRANCH   7   9
HETATM    9  N1  UNL     1       3.658   0.817   0.105  1.00  0.00    -0.344 N 
HETATM   10  H5  UNL     1       3.896   1.790   0.369  1.00  0.00     0.167 HD
BRANCH   9  11
HETATM   11  C8  UNL     1       2.355   0.236   0.003  1.00  0.00     0.111 A 
HETATM   12  N2  UNL     1       2.182  -0.986  -0.352  1.00  0.00    -0.228 NA
HETATM   13  C9  UNL     1       0.865  -1.528  -0.442  1.00  0.00     0.235 A 
HETATM   14  N3  UNL     1      -0.152  -0.797  -0.168  1.00  0.00    -0.246 NA
HETATM   15  C10 UNL     1      -0.050   0.555   0.230  1.00  0.00     0.045 A 
HETATM   16  C20 UNL     1       1.297   1.214   0.350  1.00  0.00     0.137 A 
BRANCH  15  17
HETATM   17  C11 UNL     1      -1.065   1.332   0.523  1.00  0.00     0.062 C 
HETATM   18  C12 UNL     1      -2.451   0.987   0.502  1.00  0.00     0.080 C 
HETATM   19  C13 UNL     1      -3.157  -0.090   0.217  1.00  0.00     0.214 C 
HETATM   20  O3  UNL     1      -3.572   1.784   0.816  1.00  0.00    -0.350 OA
HETATM   21  O1  UNL     1      -3.643  -1.335  -0.134  1.00  0.00    -0.361 OA
HETATM   22  C14 UNL     1      -5.048  -1.523  -0.024  1.00  0.00     0.105 A 
HETATM   23  C15 UNL     1      -6.256  -1.016   0.284  1.00  0.00     0.031 A 
HETATM   24  C19 UNL     1      -6.149  -2.425  -0.178  1.00  0.00     0.058 A 
HETATM   25  C16 UNL     1      -5.986   0.414   0.706  1.00  0.00     0.181 C 
HETATM   26  O2  UNL     1      -6.072   1.241  -0.368  1.00  0.00    -0.388 OA
HETATM   27  C17 UNL     1      -5.621   2.513  -0.200  1.00  0.00     0.194 C 
HETATM   28  C18 UNL     1      -4.132   2.554  -0.193  1.00  0.00     0.201 C 
ENDBRANCH  15  17
ENDBRANCH   9  11
ENDBRANCH   7   9
TORSDOF 3
