REMARK  6 active torsions:
REMARK  status: ('A' for Active; 'I' for Inactive)
REMARK    1  A    between atoms: C7_7  and  N1_8 
REMARK    2  A    between atoms: N1_8  and  C8_9 
REMARK    3  A    between atoms: C9_10  and  O1_11 
REMARK    4  A    between atoms: C12_15  and  C13_16 
REMARK    5  A    between atoms: C13_16  and  C14_17 
REMARK    6  A    between atoms: C14_17  and  O2_18 
ROOT
HETATM    1  C1  UNL     1       7.492  -1.915   1.510  1.00  0.00     0.018 C 
HETATM    2  C2  UNL     1       6.695  -1.328   0.814  1.00  0.00    -0.078 C 
HETATM    3  C3  UNL     1       5.735  -0.648   0.004  1.00  0.00     0.019 A 
HETATM    4  C4  UNL     1       6.235  -0.073  -1.157  1.00  0.00     0.021 A 
HETATM    5  C5  UNL     1       5.368   0.604  -1.998  1.00  0.00     0.004 A 
HETATM    6  C6  UNL     1       4.055   0.667  -1.634  1.00  0.00     0.029 A 
HETATM    7  C7  UNL     1       3.501   0.119  -0.500  1.00  0.00     0.030 A 
HETATM    8  C21 UNL     1       4.401  -0.544   0.308  1.00  0.00     0.049 A 
ENDROOT
BRANCH   7   9
HETATM    9  N1  UNL     1       2.138   0.200  -0.140  1.00  0.00    -0.374 N 
HETATM   10  H5  UNL     1       1.826  -0.264   0.732  1.00  0.00     0.160 HD
BRANCH   9  11
HETATM   11  C8  UNL     1       1.114   0.872  -0.870  1.00  0.00     0.197 A 
HETATM   12  C9  UNL     1       1.310   2.342  -0.934  1.00  0.00     0.166 A 
HETATM   13  N2  UNL     1       0.271   2.948  -0.455  1.00  0.00    -0.226 NA
HETATM   14  C10 UNL     1      -0.722   2.024  -0.022  1.00  0.00     0.071 A 
HETATM   15  C11 UNL     1      -1.995   2.080   0.552  1.00  0.00     0.042 A 
HETATM   16  C18 UNL     1      -0.221   0.764  -0.268  1.00  0.00     0.037 A 
HETATM   17  C12 UNL     1      -2.723   0.954   0.863  1.00  0.00    -0.018 A 
HETATM   18  C16 UNL     1      -2.212  -0.312   0.613  1.00  0.00     0.109 A 
HETATM   19  C17 UNL     1      -0.956  -0.355   0.046  1.00  0.00     0.113 A 
HETATM   20  O4  UNL     1      -2.921  -1.459   0.915  1.00  0.00    -0.346 OA
HETATM   21  O3  UNL     1      -0.435  -1.606  -0.208  1.00  0.00    -0.345 OA
HETATM   22  C19 UNL     1      -0.994  -2.816   0.270  1.00  0.00     0.202 C 
HETATM   23  C20 UNL     1      -2.472  -2.712   0.452  1.00  0.00     0.202 C 
BRANCH  12  24
HETATM   24  O1  UNL     1       2.182   3.387  -1.309  1.00  0.00    -0.346 OA
HETATM   25  H7  UNL     1       2.704   3.873  -0.580  1.00  0.00     0.219 HD
ENDBRANCH  12  24
BRANCH  17  26
HETATM   26  C13 UNL     1      -4.073   1.060   1.469  1.00  0.00     0.068 C 
BRANCH  26  27
HETATM   27  C14 UNL     1      -5.169   0.791   0.470  1.00  0.00     0.171 C 
BRANCH  27  28
HETATM   28  O2  UNL     1      -5.127  -0.456  -0.103  1.00  0.00    -0.396 OA
HETATM   29  C15 UNL     1      -6.194  -0.548  -0.995  1.00  0.00     0.201 C 
ENDBRANCH  27  28
ENDBRANCH  26  27
ENDBRANCH  17  26
ENDBRANCH   9  11
ENDBRANCH   7   9
TORSDOF 6
