REMARK  3 active torsions:
REMARK  status: ('A' for Active; 'I' for Inactive)
REMARK    1  A    between atoms: C4_5  and  N1_6 
REMARK    2  A    between atoms: N1_6  and  C5_7 
REMARK    3  A    between atoms: C9_13  and  O1_14 
ROOT
HETATM    1  C5  UNL     1       0.285  -0.807   0.004  1.00  0.00     0.144 A 
HETATM    2  N2  UNL     1       0.864  -1.966   0.337  1.00  0.00    -0.223 NA
HETATM    3  C6  UNL     1       0.140  -3.043   0.621  1.00  0.00     0.236 A 
HETATM    4  N3  UNL     1      -1.202  -3.019   0.588  1.00  0.00    -0.241 NA
HETATM    5  C7  UNL     1      -1.870  -1.900   0.264  1.00  0.00     0.077 A 
HETATM    6  C8  UNL     1      -3.248  -1.861   0.226  1.00  0.00     0.074 A 
HETATM    7  C9  UNL     1      -3.881  -0.694  -0.110  1.00  0.00     0.130 A 
HETATM    8  C10 UNL     1      -3.089   0.402  -0.398  1.00  0.00     0.138 A 
HETATM    9  C11 UNL     1      -1.714   0.368  -0.361  1.00  0.00     0.121 A 
HETATM   10  C12 UNL     1      -1.089  -0.801  -0.025  1.00  0.00     0.075 A 
HETATM   11  O2  UNL     1      -1.085   1.544  -0.674  1.00  0.00    -0.345 OA
HETATM   12  C13 UNL     1      -1.617   2.794  -0.284  1.00  0.00     0.202 C 
HETATM   13  C14 UNL     1      -3.105   2.862  -0.450  1.00  0.00     0.202 C 
HETATM   14  O3  UNL     1      -3.682   1.606  -0.743  1.00  0.00    -0.344 OA
ENDROOT
BRANCH   1  15
HETATM   15  N1  UNL     1       1.124   0.295  -0.293  1.00  0.00    -0.340 N 
HETATM   16  H3  UNL     1       1.090   1.279  -0.603  1.00  0.00     0.167 HD
BRANCH  15  17
HETATM   17  C4  UNL     1       2.532   0.150  -0.163  1.00  0.00     0.033 A 
HETATM   18  C3  UNL     1       3.551   0.614  -0.969  1.00  0.00     0.032 A 
HETATM   19  C2  UNL     1       4.894   0.439  -0.751  1.00  0.00     0.044 A 
HETATM   20  C1  UNL     1       5.295  -0.260   0.367  1.00  0.00     0.116 A 
HETATM   21  F1  UNL     1       6.625  -0.419   0.562  1.00  0.00    -0.206 F 
HETATM   22  C16 UNL     1       4.314  -0.758   1.227  1.00  0.00     0.044 A 
HETATM   23  C15 UNL     1       2.984  -0.553   0.960  1.00  0.00     0.032 A 
ENDBRANCH  15  17
ENDBRANCH   1  15
BRANCH   7  24
HETATM   24  O1  UNL     1      -5.265  -0.641  -0.153  1.00  0.00    -0.238 OA
HETATM   25 CL1  UNL     1      -6.292  -1.959   0.189  1.00  0.00     0.067 Cl
ENDBRANCH   7  24
TORSDOF 3
