REMARK  5 active torsions:
REMARK  status: ('A' for Active; 'I' for Inactive)
REMARK    1  A    between atoms: C3_3  and  C4_4 
REMARK    2  A    between atoms: C4_4  and  C5_5 
REMARK    3  A    between atoms: C5_5  and  C6_6 
REMARK    4  A    between atoms: C6_6  and  N1_8 
REMARK    5  A    between atoms: C14_19  and  C15_20 
ROOT
HETATM    1  C1  UNL     1       7.203   0.953  -0.307  1.00  0.00     0.096 C 
HETATM    2  C2  UNL     1       6.028   0.636  -0.830  1.00  0.00    -0.155 C 
HETATM    3  C3  UNL     1       4.972   0.154  -1.427  1.00  0.00     0.050 C 
ENDROOT
BRANCH   3   4
HETATM    4  C4  UNL     1       4.596  -1.185  -1.108  1.00  0.00     0.006 C 
BRANCH   4   5
HETATM    5  C5  UNL     1       3.617  -1.569  -0.339  1.00  0.00    -0.002 C 
BRANCH   5   6
HETATM    6  C6  UNL     1       2.729  -0.609   0.333  1.00  0.00     0.102 C 
HETATM    7  C7  UNL     1       2.702  -1.023   1.816  1.00  0.00     0.036 C 
BRANCH   6   8
HETATM    8  N1  UNL     1       1.455  -0.540  -0.210  1.00  0.00    -0.360 N 
HETATM    9  C8  UNL     1       0.218  -0.470  -0.747  1.00  0.00     0.172 A 
HETATM   10  N2  UNL     1       0.543   0.049  -1.937  1.00  0.00    -0.247 NA
HETATM   11  C16 UNL     1      -0.997  -0.791   0.124  1.00  0.00     0.115 A 
HETATM   12  C15 UNL     1       0.236  -0.665  -0.042  1.00  0.00     0.107 A 
HETATM   13  C9  UNL     1      -0.568   0.313  -2.859  1.00  0.00     0.226 C 
HETATM   14  N3  UNL     1      -1.086   0.991  -1.912  1.00  0.00    -0.258 NA
HETATM   15  C10 UNL     1      -2.246   1.740  -1.691  1.00  0.00     0.317 C 
HETATM   16  O1  UNL     1      -2.758   2.064  -0.560  1.00  0.00    -0.368 OA
HETATM   17  C11 UNL     1      -2.854   2.590   0.577  1.00  0.00     0.196 C 
HETATM   18  C12 UNL     1      -2.104   2.363   1.843  1.00  0.00     0.195 C 
HETATM   19  O2  UNL     1      -2.237   0.992   2.369  1.00  0.00    -0.369 OA
HETATM   20  C13 UNL     1      -1.771   0.108   1.339  1.00  0.00     0.139 A 
HETATM   21  C14 UNL     1      -0.469   0.051   0.956  1.00  0.00     0.087 A 
HETATM   22  C18 UNL     1      -2.962  -0.451   1.004  1.00  0.00     0.113 A 
HETATM   23  C17 UNL     1      -2.279  -1.186  -0.007  1.00  0.00     0.097 A 
HETATM   24  O3  UNL     1      -4.301  -0.676   1.090  1.00  0.00    -0.347 OA
HETATM   25  O4  UNL     1      -2.837  -2.136  -0.954  1.00  0.00    -0.349 OA
HETATM   26  C20 UNL     1      -4.069  -2.636  -0.388  1.00  0.00     0.202 C 
HETATM   27  C19 UNL     1      -4.936  -1.529   0.121  1.00  0.00     0.202 C 
ENDBRANCH   6   8
ENDBRANCH   5   6
ENDBRANCH   4   5
ENDBRANCH   3   4
TORSDOF 5
