REMARK  3 active torsions:
REMARK  status: ('A' for Active; 'I' for Inactive)
REMARK    1  A    between atoms: C7_7  and  N1_8 
REMARK    2  A    between atoms: N1_8  and  C8_9 
REMARK    3  A    between atoms: C16_21  and  O3_22 
ROOT
HETATM    1  C1  UNL     1       4.969   4.786   0.439  1.00  0.00     0.018 C 
HETATM    2  C2  UNL     1       4.484   3.702   0.764  1.00  0.00    -0.078 C 
HETATM    3  C3  UNL     1       3.928   2.404   1.171  1.00  0.00     0.019 A 
HETATM    4  C4  UNL     1       4.000   2.176   2.518  1.00  0.00     0.021 A 
HETATM    5  C5  UNL     1       3.461   0.992   2.985  1.00  0.00     0.004 A 
HETATM    6  C6  UNL     1       2.888   0.118   2.040  1.00  0.00     0.029 A 
HETATM    7  C7  UNL     1       2.830   0.369   0.679  1.00  0.00     0.035 A 
HETATM    8  C21 UNL     1       3.373   1.569   0.209  1.00  0.00     0.050 A 
ENDROOT
BRANCH   7   9
HETATM    9  N1  UNL     1       2.198  -0.565  -0.208  1.00  0.00    -0.340 N 
HETATM   10  H5  UNL     1       2.489  -0.588  -1.226  1.00  0.00     0.167 HD
BRANCH   9  11
HETATM   11  C8  UNL     1       1.173  -1.480   0.261  1.00  0.00     0.144 A 
HETATM   12  N2  UNL     1       1.770  -2.369   1.066  1.00  0.00    -0.223 NA
HETATM   13  C9  UNL     1       1.084  -3.307   1.664  1.00  0.00     0.236 A 
HETATM   14  N3  UNL     1      -0.188  -3.269   1.379  1.00  0.00    -0.241 NA
HETATM   15  C10 UNL     1      -0.880  -2.437   0.589  1.00  0.00     0.073 A 
HETATM   16  C11 UNL     1      -0.213  -1.455  -0.024  1.00  0.00     0.075 A 
HETATM   17  C20 UNL     1      -2.096  -3.021   0.505  1.00  0.00     0.032 C 
HETATM   18  C12 UNL     1      -0.153  -0.446  -0.846  1.00  0.00     0.121 C 
HETATM   19  O1  UNL     1       0.433   0.511  -1.566  1.00  0.00    -0.345 OA
HETATM   20  C15 UNL     1      -1.202   0.282  -1.462  1.00  0.00     0.132 C 
HETATM   21  C13 UNL     1       0.352   1.929  -1.466  1.00  0.00     0.202 C 
HETATM   22  C14 UNL     1      -0.676   2.287  -2.579  1.00  0.00     0.202 C 
HETATM   23  O2  UNL     1      -1.687   1.241  -2.271  1.00  0.00    -0.344 OA
HETATM   24  C16 UNL     1      -2.398   0.048  -1.093  1.00  0.00     0.081 C 
HETATM   25  C17 UNL     1      -3.870   0.158  -1.074  1.00  0.00     0.093 C 
HETATM   26  C18 UNL     1      -4.590  -1.187  -1.205  1.00  0.00     0.174 C 
HETATM   27  O4  UNL     1      -4.254  -2.156  -0.462  1.00  0.00    -0.387 OA
HETATM   28  C19 UNL     1      -3.527  -3.076  -0.024  1.00  0.00     0.197 C 
BRANCH  24  29
HETATM   29  O3  UNL     1      -2.782  -0.744  -0.217  1.00  0.00    -0.362 OA
HETATM   30  H11 UNL     1      -2.831  -0.461   0.832  1.00  0.00     0.217 HD
ENDBRANCH  24  29
ENDBRANCH   9  11
ENDBRANCH   7   9
TORSDOF 3
