REMARK  4 active torsions:
REMARK  status: ('A' for Active; 'I' for Inactive)
REMARK    1  A    between atoms: C4_4  and  O1_5 
REMARK    2  A    between atoms: O1_5  and  C5_6 
REMARK    3  A    between atoms: C5_6  and  C6_7 
REMARK    4  A    between atoms: C6_7  and  O2_8 
ROOT
HETATM    1  C1  UNL     1       1.931  -1.777  -3.080  1.00  0.00     0.018 C 
HETATM    2  C2  UNL     1       1.279  -1.201  -2.227  1.00  0.00    -0.072 C 
HETATM    3  C3  UNL     1       0.512  -0.503  -1.236  1.00  0.00     0.082 A 
HETATM    4  C4  UNL     1       0.766  -0.779   0.086  1.00  0.00     0.123 A 
HETATM    5  C8  UNL     1       0.013  -0.095   1.037  1.00  0.00     0.104 A 
HETATM    6  C9  UNL     1      -0.871   0.757   0.433  1.00  0.00     0.057 A 
HETATM    7  C10 UNL     1      -1.211   1.106  -0.846  1.00  0.00     0.043 A 
HETATM    8  C11 UNL     1      -2.195   2.008  -1.149  1.00  0.00     0.141 A 
HETATM    9  N1  UNL     1      -2.361   2.175  -2.477  1.00  0.00    -0.224 NA
HETATM   10  C12 UNL     1      -1.592   1.481  -3.367  1.00  0.00     0.236 A 
HETATM   11  N2  UNL     1      -0.611   0.577  -3.063  1.00  0.00    -0.240 NA
HETATM   12  C13 UNL     1      -0.423   0.390  -1.721  1.00  0.00     0.093 A 
HETATM   13  N3  UNL     1      -2.929   2.589  -0.049  1.00  0.00    -0.346 N 
HETATM   14  C14 UNL     1      -3.882   1.631   0.415  1.00  0.00     0.012 A 
HETATM   15  C15 UNL     1      -4.084   1.131   1.607  1.00  0.00     0.073 A 
HETATM   16  C16 UNL     1      -3.851  -0.124   1.248  1.00  0.00     0.047 A 
HETATM   17  C17 UNL     1      -4.975   0.610   0.660  1.00  0.00     0.126 A 
HETATM   18  O3  UNL     1      -2.808  -0.805   1.792  1.00  0.00    -0.356 OA
HETATM   19  C18 UNL     1      -2.284  -0.659   3.059  1.00  0.00     0.201 C 
HETATM   20  C19 UNL     1      -0.817  -0.949   3.142  1.00  0.00     0.202 C 
HETATM   21  O4  UNL     1       0.057  -0.181   2.404  1.00  0.00    -0.346 OA
HETATM   22  H11 UNL     1      -2.992   3.464   0.509  1.00  0.00     0.167 HD
ENDROOT
BRANCH   4  23
HETATM   23  O1  UNL     1       1.689  -1.661   0.578  1.00  0.00    -0.345 OA
BRANCH  23  24
HETATM   24  C5  UNL     1       3.027  -1.345   0.902  1.00  0.00     0.202 C 
BRANCH  24  25
HETATM   25  C6  UNL     1       3.841  -0.833  -0.240  1.00  0.00     0.193 C 
BRANCH  25  26
HETATM   26  O2  UNL     1       5.166  -0.536   0.155  1.00  0.00    -0.394 OA
HETATM   27  C7  UNL     1       5.893  -0.060  -0.951  1.00  0.00     0.201 C 
ENDBRANCH  25  26
ENDBRANCH  24  25
ENDBRANCH  23  24
ENDBRANCH   4  23
TORSDOF 4
