REMARK  6 active torsions:
REMARK  status: ('A' for Active; 'I' for Inactive)
REMARK    1  A    between atoms: O1_2  and  C2_3 
REMARK    2  A    between atoms: C2_3  and  O2_4 
REMARK    3  A    between atoms: O2_4  and  C3_5 
REMARK    4  A    between atoms: C6_10  and  C7_11 
REMARK    5  A    between atoms: C8_12  and  N1_13 
REMARK    6  A    between atoms: N1_13  and  C9_14 
ROOT
HETATM    1  C7  UNL     1       0.062  -0.610  -1.422  1.00  0.00     0.009 C 
HETATM    2  C8  UNL     1       1.255  -0.265  -0.855  1.00  0.00    -0.030 C 
HETATM    3  B1  UNL     1       2.508  -1.573  -1.000  1.00  0.00     0.240 B 
HETATM    4  C15 UNL     1       2.473  -1.923  -2.971  1.00  0.00     0.079 C 
HETATM    5  N2  UNL     1       1.169  -1.993  -3.183  1.00  0.00    -0.298 NA
HETATM    6  C16 UNL     1       0.141  -1.454  -2.549  1.00  0.00     0.034 C 
HETATM    7  C17 UNL     1      -1.122  -1.860  -3.261  1.00  0.00     0.070 C 
ENDROOT
BRANCH   1   8
HETATM    8  C6  UNL     1      -1.239  -0.140  -0.940  1.00  0.00     0.212 C 
HETATM    9  C3  UNL     1      -0.979   0.199   0.729  1.00  0.00     0.295 C 
HETATM   10  O3  UNL     1      -2.232  -0.645   1.281  1.00  0.00    -0.356 OA
HETATM   11  C4  UNL     1      -1.787  -1.942   1.280  1.00  0.00     0.197 C 
HETATM   12  C5  UNL     1      -1.540  -2.252  -0.194  1.00  0.00     0.195 C 
HETATM   13  O4  UNL     1      -2.112  -1.165  -0.870  1.00  0.00    -0.374 OA
BRANCH   9  14
HETATM   14  O2  UNL     1      -1.710   1.268   0.643  1.00  0.00    -0.334 OA
BRANCH  14  15
HETATM   15  C2  UNL     1      -2.988   1.232   1.105  1.00  0.00     0.340 C 
BRANCH  15  16
HETATM   16  O1  UNL     1      -3.628   2.434   0.943  1.00  0.00    -0.372 OA
HETATM   17  C1  UNL     1      -4.921   2.262   1.453  1.00  0.00     0.204 C 
ENDBRANCH  15  16
ENDBRANCH  14  15
ENDBRANCH   9  14
ENDBRANCH   1   8
BRANCH   2  18
HETATM   18  N1  UNL     1       1.463   1.005  -0.265  1.00  0.00    -0.370 N 
HETATM   19  H12 UNL     1       0.736   1.736  -0.366  1.00  0.00     0.165 HD
BRANCH  18  20
HETATM   20  C9  UNL     1       2.691   1.184   0.430  1.00  0.00     0.033 A 
HETATM   21  C10 UNL     1       3.291   2.434   0.315  1.00  0.00     0.032 A 
HETATM   22  C11 UNL     1       4.490   2.653   0.981  1.00  0.00     0.046 A 
HETATM   23  C12 UNL     1       5.061   1.649   1.735  1.00  0.00     0.138 A 
HETATM   24  F1  UNL     1       6.234   1.827   2.400  1.00  0.00    -0.204 F 
HETATM   25  C13 UNL     1       4.485   0.404   1.865  1.00  0.00     0.074 A 
HETATM   26 CL1  UNL     1       5.174  -0.914   2.819  1.00  0.00    -0.081 Cl
HETATM   27  C14 UNL     1       3.275   0.206   1.183  1.00  0.00     0.056 A 
ENDBRANCH  18  20
ENDBRANCH   2  18
TORSDOF 6
