REMARK  2 active torsions:
REMARK  status: ('A' for Active; 'I' for Inactive)
REMARK    1  A    between atoms: C4_5  and  N1_6 
REMARK    2  A    between atoms: N1_6  and  C5_7 
ROOT
HETATM    1  C5  UNL     1       0.725   1.029  -1.048  1.00  0.00     0.144 A 
HETATM    2  N2  UNL     1       1.274   2.273  -1.195  1.00  0.00    -0.223 NA
HETATM    3  C6  UNL     1       0.457   3.257  -1.653  1.00  0.00     0.235 A 
HETATM    4  N3  UNL     1      -0.820   2.950  -1.931  1.00  0.00    -0.243 NA
HETATM    5  C7  UNL     1      -1.341   1.727  -1.780  1.00  0.00     0.076 A 
HETATM    6  C8  UNL     1      -0.586   0.674  -1.319  1.00  0.00     0.073 A 
HETATM    7  C9  UNL     1      -0.771  -0.712  -0.995  1.00  0.00     0.114 C 
HETATM    8  C10 UNL     1      -1.359  -1.296   0.004  1.00  0.00     0.082 C 
HETATM    9  C11 UNL     1      -2.051  -0.659   1.172  1.00  0.00     0.094 C 
HETATM   10  C12 UNL     1      -3.517  -0.416   0.879  1.00  0.00     0.177 C 
HETATM   11  O1  UNL     1      -3.697   0.453  -0.189  1.00  0.00    -0.367 OA
HETATM   12  C13 UNL     1      -3.176   1.704   0.043  1.00  0.00     0.338 C 
HETATM   13  O2  UNL     1      -3.439   2.426  -1.156  1.00  0.00    -0.361 OA
HETATM   14  C14 UNL     1      -2.780   1.737  -2.198  1.00  0.00     0.230 C 
HETATM   15  O3  UNL     1      -1.381  -2.682   0.063  1.00  0.00    -0.350 OA
HETATM   16  C15 UNL     1      -0.492  -3.497  -0.662  1.00  0.00     0.202 C 
HETATM   17  C16 UNL     1      -0.163  -2.904  -1.991  1.00  0.00     0.202 C 
HETATM   18  O4  UNL     1      -0.185  -1.480  -1.971  1.00  0.00    -0.345 OA
ENDROOT
BRANCH   1  19
HETATM   19  N1  UNL     1       1.650   0.055  -0.598  1.00  0.00    -0.340 N 
HETATM   20  H3  UNL     1       1.662  -0.932  -0.937  1.00  0.00     0.167 HD
BRANCH  19  21
HETATM   21  C4  UNL     1       2.718   0.093   0.322  1.00  0.00     0.035 A 
HETATM   22  C3  UNL     1       3.941  -0.572   0.170  1.00  0.00     0.032 A 
HETATM   23  C2  UNL     1       4.902  -0.494   1.165  1.00  0.00     0.046 A 
HETATM   24  C1  UNL     1       4.697   0.242   2.346  1.00  0.00     0.138 A 
HETATM   25  F1  UNL     1       5.771   0.165   3.162  1.00  0.00    -0.204 F 
HETATM   26  C18 UNL     1       3.477   0.883   2.453  1.00  0.00     0.074 A 
HETATM   27  C17 UNL     1       2.521   0.809   1.471  1.00  0.00     0.056 A 
HETATM   28 CL1  UNL     1       3.393   1.745   3.986  1.00  0.00    -0.081 Cl
ENDBRANCH  19  21
ENDBRANCH   1  19
TORSDOF 2
