REMARK  5 active torsions:
REMARK  status: ('A' for Active; 'I' for Inactive)
REMARK    1  A    between atoms: C2_2  and  O1_3 
REMARK    2  A    between atoms: O1_3  and  C3_4 
REMARK    3  A    between atoms: C7_10  and  N3_11 
REMARK    4  A    between atoms: N3_11  and  C8_12 
REMARK    5  A    between atoms: C8_12  and  C9_13 
ROOT
HETATM    1  C3  UNL     1      -1.653   0.375  -0.029  1.00  0.00     0.107 A 
HETATM    2  C4  UNL     1      -1.127   1.544   0.454  1.00  0.00     0.072 A 
HETATM    3  C5  UNL     1       0.255   1.663   0.613  1.00  0.00     0.077 A 
HETATM    4  N1  UNL     1       0.788   2.792   1.081  1.00  0.00    -0.241 NA
HETATM    5  C6  UNL     1       2.111   2.936   1.244  1.00  0.00     0.236 A 
HETATM    6  N2  UNL     1       2.897   1.874   0.910  1.00  0.00    -0.223 NA
HETATM    7  C7  UNL     1       2.364   0.740   0.439  1.00  0.00     0.144 A 
HETATM    8  C10 UNL     1       1.014   0.571   0.265  1.00  0.00     0.075 A 
HETATM    9  C11 UNL     1       0.517  -0.618  -0.223  1.00  0.00     0.121 A 
HETATM   10  C12 UNL     1      -0.851  -0.705  -0.369  1.00  0.00     0.136 A 
HETATM   11  O3  UNL     1      -1.309  -1.929  -0.867  1.00  0.00    -0.344 OA
HETATM   12  C13 UNL     1      -0.560  -3.122  -0.717  1.00  0.00     0.202 C 
HETATM   13  C14 UNL     1       0.919  -2.928  -0.954  1.00  0.00     0.202 C 
HETATM   14  O4  UNL     1       1.357  -1.648  -0.542  1.00  0.00    -0.345 OA
ENDROOT
BRANCH   7  15
HETATM   15  N3  UNL     1       3.322  -0.254   0.145  1.00  0.00    -0.346 N 
HETATM   16  H8  UNL     1       3.585  -1.196  -0.188  1.00  0.00     0.167 HD
BRANCH  15  17
HETATM   17  C8  UNL     1       4.714  -0.029   0.343  1.00  0.00     0.148 C 
BRANCH  17  18
HETATM   18  C9  UNL     1       5.667   0.319  -0.509  1.00  0.00     0.238 C 
HETATM   19  O2  UNL     1       6.249   0.643  -1.578  1.00  0.00    -0.283 OA
ENDBRANCH  17  18
ENDBRANCH  15  17
ENDBRANCH   7  15
BRANCH   1  20
HETATM   20  O1  UNL     1      -3.017   0.223  -0.199  1.00  0.00    -0.348 OA
BRANCH  20  21
HETATM   21  C2  UNL     1      -3.978   1.192   0.087  1.00  0.00     0.171 C 
HETATM   22  C1  UNL     1      -5.347   0.622  -0.241  1.00  0.00     0.034 C 
ENDBRANCH  20  21
ENDBRANCH   1  20
TORSDOF 5
