REMARK  8 active torsions:
REMARK  status: ('A' for Active; 'I' for Inactive)
REMARK    1  A    between atoms: C2_2  and  C3_3 
REMARK    2  A    between atoms: C3_3  and  O1_4 
REMARK    3  A    between atoms: O1_4  and  C4_5 
REMARK    4  A    between atoms: C5_6  and  C6_7 
REMARK    5  A    between atoms: C7_8  and  C8_9 
REMARK    6  A    between atoms: C8_9  and  O2_10 
REMARK    7  A    between atoms: C10_14  and  N3_15 
REMARK    8  A    between atoms: N3_15  and  C11_16 
ROOT
HETATM    1  C6  UNL     1       0.410  -1.405  -0.943  1.00  0.00     0.046 A 
HETATM    2  C7  UNL     1       0.454  -1.878  -2.242  1.00  0.00     0.073 A 
HETATM    3  N1  UNL     1       1.410  -1.437  -3.085  1.00  0.00    -0.243 NA
HETATM    4  C9  UNL     1       2.345  -0.559  -2.767  1.00  0.00     0.235 A 
HETATM    5  N2  UNL     1       2.301  -0.111  -1.525  1.00  0.00    -0.224 NA
HETATM    6  C10 UNL     1       1.399  -0.493  -0.640  1.00  0.00     0.142 A 
ENDROOT
BRANCH   1   7
HETATM    7  C5  UNL     1      -0.594  -1.842   0.007  1.00  0.00    -0.009 C 
HETATM    8  C4  UNL     1      -1.387  -1.030   0.739  1.00  0.00     0.077 C 
HETATM    9  C19 UNL     1      -2.447  -1.261   1.744  1.00  0.00     0.232 C 
HETATM   10  O3  UNL     1      -2.647  -2.601   1.933  1.00  0.00    -0.384 OA
HETATM   11  C18 UNL     1      -1.428  -3.264   1.847  1.00  0.00     0.172 C 
HETATM   12  C17 UNL     1      -0.961  -3.247   0.381  1.00  0.00     0.068 C 
BRANCH   8  13
HETATM   13  O1  UNL     1      -1.309   0.382   0.640  1.00  0.00    -0.353 OA
BRANCH  13  14
HETATM   14  C3  UNL     1      -2.082   0.973  -0.388  1.00  0.00     0.175 C 
BRANCH  14  15
HETATM   15  C2  UNL     1      -1.939   2.479  -0.394  1.00  0.00     0.022 C 
HETATM   16  C1  UNL     1      -2.799   3.004  -1.524  1.00  0.00     0.007 C 
ENDBRANCH  14  15
ENDBRANCH  13  14
ENDBRANCH   8  13
ENDBRANCH   1   7
BRANCH   2  17
HETATM   17  C8  UNL     1      -0.549  -2.875  -2.696  1.00  0.00     0.224 C 
BRANCH  17  18
HETATM   18  O2  UNL     1      -1.802  -2.303  -2.926  1.00  0.00    -0.395 OA
HETATM   19  H10 UNL     1      -1.999  -1.539  -2.337  1.00  0.00     0.209 HD
ENDBRANCH  17  18
ENDBRANCH   2  17
BRANCH   6  20
HETATM   20  N3  UNL     1       1.561   0.034   0.668  1.00  0.00    -0.340 N 
HETATM   21  H12 UNL     1       1.022  -0.477   1.419  1.00  0.00     0.167 HD
BRANCH  20  22
HETATM   22  C11 UNL     1       2.317   1.090   1.246  1.00  0.00     0.035 A 
HETATM   23  C12 UNL     1       2.397   1.333   2.623  1.00  0.00     0.032 A 
HETATM   24  C13 UNL     1       3.160   2.399   3.036  1.00  0.00     0.046 A 
HETATM   25  C14 UNL     1       3.843   3.236   2.198  1.00  0.00     0.138 A 
HETATM   26  F1  UNL     1       4.535   4.224   2.798  1.00  0.00    -0.204 F 
HETATM   27  C15 UNL     1       3.762   2.992   0.843  1.00  0.00     0.074 A 
HETATM   28 CL1  UNL     1       4.666   4.109  -0.169  1.00  0.00    -0.081 Cl
HETATM   29  C16 UNL     1       3.004   1.929   0.395  1.00  0.00     0.056 A 
ENDBRANCH  20  22
ENDBRANCH   6  20
TORSDOF 8
