REMARK  7 active torsions:
REMARK  status: ('A' for Active; 'I' for Inactive)
REMARK    1  A    between atoms: O1_2  and  C2_3 
REMARK    2  A    between atoms: C2_3  and  C3_4 
REMARK    3  A    between atoms: C3_4  and  O2_5 
REMARK    4  A    between atoms: O2_5  and  C4_6 
REMARK    5  A    between atoms: C8_12  and  N3_13 
REMARK    6  A    between atoms: N3_13  and  C9_14 
REMARK    7  A    between atoms: C10_15  and  C12_17 
ROOT
HETATM    1  C4  UNL     1       2.125   0.192   0.308  1.00  0.00     0.107 A 
HETATM    2  C5  UNL     1       1.715  -0.941   1.020  1.00  0.00     0.072 A 
HETATM    3  C6  UNL     1       0.362  -1.080   1.287  1.00  0.00     0.077 A 
HETATM    4  N1  UNL     1      -0.088  -2.141   1.962  1.00  0.00    -0.241 NA
HETATM    5  C7  UNL     1      -1.387  -2.325   2.247  1.00  0.00     0.236 A 
HETATM    6  N2  UNL     1      -2.273  -1.378   1.822  1.00  0.00    -0.223 NA
HETATM    7  C8  UNL     1      -1.812  -0.312   1.142  1.00  0.00     0.144 A 
HETATM    8  C13 UNL     1      -0.491  -0.096   0.835  1.00  0.00     0.075 A 
HETATM    9  C14 UNL     1      -0.112   1.023   0.136  1.00  0.00     0.121 A 
HETATM   10  C15 UNL     1       1.234   1.172  -0.136  1.00  0.00     0.136 A 
HETATM   11  O3  UNL     1       1.667   2.279  -0.835  1.00  0.00    -0.344 OA
HETATM   12  C16 UNL     1       0.783   3.367  -1.035  1.00  0.00     0.202 C 
HETATM   13  C17 UNL     1      -0.586   2.812  -1.359  1.00  0.00     0.202 C 
HETATM   14  O4  UNL     1      -1.024   1.977  -0.290  1.00  0.00    -0.345 OA
ENDROOT
BRANCH   7  15
HETATM   15  N3  UNL     1      -2.829   0.592   0.759  1.00  0.00    -0.350 N 
HETATM   16  H10 UNL     1      -3.181   1.455   0.309  1.00  0.00     0.166 HD
BRANCH  15  17
HETATM   17  C9  UNL     1      -4.201   0.336   1.094  1.00  0.00     0.093 C 
HETATM   18  C10 UNL     1      -5.022  -0.387   0.311  1.00  0.00    -0.055 C 
HETATM   19  C11 UNL     1      -6.448  -0.784   0.433  1.00  0.00     0.046 C 
BRANCH  18  20
HETATM   20  C12 UNL     1      -4.424  -0.920  -0.948  1.00  0.00     0.149 C 
HETATM   21 CL1  UNL     1      -5.285  -0.305  -2.370  1.00  0.00    -0.126 Cl
ENDBRANCH  18  20
ENDBRANCH  15  17
ENDBRANCH   7  15
BRANCH   1  22
HETATM   22  O2  UNL     1       3.486   0.393   0.005  1.00  0.00    -0.346 OA
BRANCH  22  23
HETATM   23  C3  UNL     1       4.445  -0.559   0.423  1.00  0.00     0.201 C 
BRANCH  23  24
HETATM   24  C2  UNL     1       5.843  -0.190   0.016  1.00  0.00     0.193 C 
BRANCH  24  25
HETATM   25  O1  UNL     1       6.042  -0.063  -1.335  1.00  0.00    -0.394 OA
HETATM   26  C1  UNL     1       5.753  -1.268  -1.953  1.00  0.00     0.201 C 
ENDBRANCH  24  25
ENDBRANCH  23  24
ENDBRANCH  22  23
ENDBRANCH   1  22
TORSDOF 7
