REMARK  5 active torsions:
REMARK  status: ('A' for Active; 'I' for Inactive)
REMARK    1  A    between atoms: O1_2  and  C2_3 
REMARK    2  A    between atoms: C2_3  and  O2_4 
REMARK    3  A    between atoms: O2_4  and  C3_5 
REMARK    4  A    between atoms: C7_11  and  N3_12 
REMARK    5  A    between atoms: N3_12  and  C8_13 
ROOT
HETATM    1  C3  UNL     1       2.650   0.064  -0.255  1.00  0.00     0.110 A 
HETATM    2  C4  UNL     1       2.134   1.318  -0.004  1.00  0.00     0.072 A 
HETATM    3  C5  UNL     1       0.773   1.519   0.103  1.00  0.00     0.077 A 
HETATM    4  N1  UNL     1       0.217   2.727   0.348  1.00  0.00    -0.241 NA
HETATM    5  C6  UNL     1      -1.110   2.898   0.449  1.00  0.00     0.236 A 
HETATM    6  N2  UNL     1      -1.937   1.855   0.307  1.00  0.00    -0.223 NA
HETATM    7  C7  UNL     1      -1.499   0.613   0.063  1.00  0.00     0.144 A 
HETATM    8  C14 UNL     1      -0.138   0.494  -0.031  1.00  0.00     0.075 A 
HETATM    9  C15 UNL     1       0.381  -0.754  -0.281  1.00  0.00     0.121 A 
HETATM   10  C16 UNL     1       1.738  -0.972  -0.391  1.00  0.00     0.136 A 
HETATM   11  O3  UNL     1       2.227  -2.241  -0.643  1.00  0.00    -0.344 OA
HETATM   12  C17 UNL     1       1.488  -3.432  -0.495  1.00  0.00     0.202 C 
HETATM   13  C18 UNL     1       0.065  -3.204  -0.092  1.00  0.00     0.202 C 
HETATM   14  O4  UNL     1      -0.380  -1.897  -0.445  1.00  0.00    -0.345 OA
ENDROOT
BRANCH   7  15
HETATM   15  N3  UNL     1      -2.445  -0.429  -0.068  1.00  0.00    -0.340 N 
HETATM   16  H8  UNL     1      -2.476  -1.451  -0.210  1.00  0.00     0.167 HD
BRANCH  15  17
HETATM   17  C8  UNL     1      -3.834  -0.119  -0.009  1.00  0.00     0.035 A 
HETATM   18  C9  UNL     1      -4.841  -0.902   0.572  1.00  0.00     0.032 A 
HETATM   19  C10 UNL     1      -6.181  -0.605   0.609  1.00  0.00     0.046 A 
HETATM   20  C11 UNL     1      -6.593   0.569   0.023  1.00  0.00     0.138 A 
HETATM   21  F1  UNL     1      -7.915   0.833   0.075  1.00  0.00    -0.204 F 
HETATM   22  C12 UNL     1      -5.663   1.385  -0.565  1.00  0.00     0.074 A 
HETATM   23 CL1  UNL     1      -6.320   2.852  -1.274  1.00  0.00    -0.081 Cl
HETATM   24  C13 UNL     1      -4.332   1.046  -0.577  1.00  0.00     0.056 A 
ENDBRANCH  15  17
ENDBRANCH   7  15
BRANCH   1  25
HETATM   25  O2  UNL     1       4.002  -0.200  -0.373  1.00  0.00    -0.323 OA
BRANCH  25  26
HETATM   26  C2  UNL     1       5.022   0.743  -0.259  1.00  0.00     0.344 C 
BRANCH  26  27
HETATM   27  O1  UNL     1       6.240   0.099  -0.436  1.00  0.00    -0.371 OA
HETATM   28  C1  UNL     1       7.272   1.038  -0.324  1.00  0.00     0.204 C 
ENDBRANCH  26  27
ENDBRANCH  25  26
ENDBRANCH   1  25
TORSDOF 5
