REMARK  3 active torsions:
REMARK  status: ('A' for Active; 'I' for Inactive)
REMARK    1  A    between atoms: C2_2  and  O1_3 
REMARK    2  A    between atoms: O1_3  and  C3_4 
REMARK    3  A    between atoms: N3_19  and  C14_20 
ROOT
HETATM    1  C3  UNL     1      -1.525   0.494  -0.863  1.00  0.00     0.181 C 
HETATM    2  C4  UNL     1      -2.848  -0.039  -0.414  1.00  0.00     0.205 C 
HETATM    3  O2  UNL     1      -3.656   0.632   0.419  1.00  0.00    -0.377 OA
HETATM    4  C5  UNL     1      -3.995   1.964   0.087  1.00  0.00     0.263 C 
HETATM    5  C6  UNL     1      -2.742   2.678   0.183  1.00  0.00    -0.050 C 
HETATM    6  C7  UNL     1      -1.743   3.222   0.263  1.00  0.00     0.056 C 
HETATM    7  O3  UNL     1      -0.558   3.840   0.359  1.00  0.00    -0.302 OA
HETATM    8  C8  UNL     1       0.342   3.248   1.366  1.00  0.00     0.208 C 
HETATM    9  C9  UNL     1       0.256   1.804   0.926  1.00  0.00     0.103 A 
HETATM   10  C10 UNL     1       0.989   0.641   1.304  1.00  0.00     0.471 A 
HETATM   11  C11 UNL     1       0.978   0.829   2.935  1.00  0.00     0.085 A 
HETATM   12  C12 UNL     1       1.649  -0.246   2.849  1.00  0.00     0.283 A 
HETATM   13  N1  UNL     1       1.368   0.048   1.400  1.00  0.00     0.388 N 
HETATM   14  N2  UNL     1       0.265   0.591   0.667  1.00  0.00     0.000 N 
HETATM   15  C13 UNL     1      -0.582   0.999   0.039  1.00  0.00    -0.026 A 
HETATM   16  N3  UNL     1       1.402  -0.132   0.098  1.00  0.00     0.399 N 
ENDROOT
BRANCH  16  17
HETATM   17  C14 UNL     1       2.380  -1.172  -0.424  1.00  0.00     0.217 A 
HETATM   18  C15 UNL     1       3.665  -1.002  -0.888  1.00  0.00     0.044 A 
HETATM   19  C16 UNL     1       3.639  -2.402  -1.079  1.00  0.00     0.011 A 
HETATM   20  C17 UNL     1       2.428  -2.622  -0.652  1.00  0.00    -0.022 A 
HETATM   21  C18 UNL     1       1.415  -3.680  -0.421  1.00  0.00     0.050 C 
ENDBRANCH  16  17
BRANCH   1  22
HETATM   22  O1  UNL     1      -0.967  -0.578  -1.679  1.00  0.00    -0.352 OA
BRANCH  22  23
HETATM   23  C2  UNL     1      -0.100  -0.311  -2.733  1.00  0.00     0.125 C 
HETATM   24  C1  UNL     1      -0.442  -1.282  -3.597  1.00  0.00     0.037 C 
ENDBRANCH  22  23
ENDBRANCH   1  22
TORSDOF 3
