REMARK  5 active torsions:
REMARK  status: ('A' for Active; 'I' for Inactive)
REMARK    1  A    between atoms: C3_3  and  C4_4 
REMARK    2  A    between atoms: C4_4  and  N1_5 
REMARK    3  A    between atoms: N1_5  and  C5_6 
REMARK    4  A    between atoms: C9_12  and  O1_13 
REMARK    5  A    between atoms: O1_13  and  C10_14 
ROOT
HETATM    1  C5  UNL     1      -0.803  -1.301   0.435  1.00  0.00     0.138 A 
HETATM    2  N2  UNL     1      -0.845  -2.632   0.564  1.00  0.00    -0.224 NA
HETATM    3  C6  UNL     1       0.222  -3.426   0.642  1.00  0.00     0.236 A 
HETATM    4  N3  UNL     1       1.406  -2.822   0.586  1.00  0.00    -0.241 NA
HETATM    5  C7  UNL     1       1.571  -1.497   0.458  1.00  0.00     0.075 A 
HETATM    6  C8  UNL     1       2.872  -1.052   0.416  1.00  0.00     0.072 A 
HETATM    7  C9  UNL     1       3.050   0.309   0.283  1.00  0.00     0.105 A 
HETATM    8  C12 UNL     1       1.928   1.144   0.200  1.00  0.00     0.114 A 
HETATM    9  C13 UNL     1       0.656   0.620   0.250  1.00  0.00     0.018 A 
HETATM   10  C14 UNL     1       0.442  -0.726   0.381  1.00  0.00     0.052 A 
HETATM   11  P1  UNL     1      -0.732   1.784   0.160  1.00  0.00    -0.088 P 
HETATM   12  C15 UNL     1      -0.160   3.264  -0.800  1.00  0.00     0.063 C 
HETATM   13  C16 UNL     1       1.324   3.260  -0.935  1.00  0.00     0.180 C 
HETATM   14  O2  UNL     1       2.005   2.513   0.064  1.00  0.00    -0.347 OA
HETATM   15  H16 UNL     1      -1.073   2.222   1.503  1.00  0.00     0.062 HD
ENDROOT
BRANCH   1  16
HETATM   16  N1  UNL     1      -2.001  -0.536   0.358  1.00  0.00    -0.371 N 
HETATM   17  H8  UNL     1      -2.533   0.321   0.274  1.00  0.00     0.161 HD
BRANCH  16  18
HETATM   18  C4  UNL     1      -3.192  -1.363   0.436  1.00  0.00     0.148 C 
BRANCH  18  19
HETATM   19  C3  UNL     1      -4.488  -0.671   0.371  1.00  0.00    -0.012 C 
HETATM   20  C2  UNL     1      -5.568  -0.668  -0.401  1.00  0.00    -0.033 C 
HETATM   21  C1  UNL     1      -6.783   0.181  -0.210  1.00  0.00     0.036 C 
ENDBRANCH  18  19
ENDBRANCH  16  18
ENDBRANCH   1  16
BRANCH   7  22
HETATM   22  O1  UNL     1       4.315   0.814   0.236  1.00  0.00    -0.349 OA
BRANCH  22  23
HETATM   23  C10 UNL     1       5.503   0.103   0.308  1.00  0.00     0.171 C 
HETATM   24  C11 UNL     1       5.650  -0.915  -0.813  1.00  0.00     0.034 C 
ENDBRANCH  22  23
ENDBRANCH   7  22
TORSDOF 5
