REMARK  4 active torsions:
REMARK  status: ('A' for Active; 'I' for Inactive)
REMARK    1  A    between atoms: C2_2  and  O1_3 
REMARK    2  A    between atoms: O1_3  and  C3_4 
REMARK    3  A    between atoms: C7_10  and  N3_11 
REMARK    4  A    between atoms: N3_11  and  C8_12 
ROOT
HETATM    1  C3  UNL     1      -2.089   0.692  -0.267  1.00  0.00     0.106 C 
HETATM    2  C4  UNL     1      -1.139   1.339  -1.012  1.00  0.00     0.072 C 
HETATM    3  C5  UNL     1      -0.439   0.248  -1.677  1.00  0.00     0.096 A 
HETATM    4  N1  UNL     1      -0.002   0.357  -2.914  1.00  0.00    -0.242 NA
HETATM    5  C6  UNL     1       0.621  -0.824  -3.379  1.00  0.00     0.231 A 
HETATM    6  N2  UNL     1       0.547  -1.680  -2.374  1.00  0.00    -0.237 NA
HETATM    7  C7  UNL     1      -0.084  -1.097  -1.287  1.00  0.00     0.224 A 
HETATM    8  C15 UNL     1      -1.253  -1.671  -0.593  1.00  0.00     0.140 C 
HETATM    9  C16 UNL     1      -2.157  -0.791  -0.103  1.00  0.00     0.136 C 
HETATM   10  O2  UNL     1      -3.200  -1.378   0.595  1.00  0.00    -0.344 OA
HETATM   11  C17 UNL     1      -2.991  -2.696   1.105  1.00  0.00     0.202 C 
HETATM   12  C18 UNL     1      -2.504  -3.604   0.004  1.00  0.00     0.202 C 
HETATM   13  O3  UNL     1      -1.304  -3.027  -0.517  1.00  0.00    -0.346 OA
ENDROOT
BRANCH   7  14
HETATM   14  N3  UNL     1       0.954  -0.992  -0.163  1.00  0.00    -0.351 N 
HETATM   15  H8  UNL     1       0.598  -1.549   0.674  1.00  0.00     0.163 HD
BRANCH  14  16
HETATM   16  C8  UNL     1       2.197  -0.380   0.017  1.00  0.00     0.030 A 
HETATM   17  C9  UNL     1       2.887   0.390  -0.876  1.00  0.00     0.029 A 
HETATM   18  C10 UNL     1       4.114   0.981  -0.684  1.00  0.00     0.009 A 
HETATM   19  C11 UNL     1       4.674   0.756   0.540  1.00  0.00    -0.062 A 
HETATM   20  C12 UNL     1       5.987   1.325   0.892  1.00  0.00     0.048 C 
HETATM   21  C13 UNL     1       4.041  -0.007   1.492  1.00  0.00     0.009 A 
HETATM   22  C14 UNL     1       2.815  -0.569   1.233  1.00  0.00     0.029 A 
ENDBRANCH  14  16
ENDBRANCH   7  14
BRANCH   1  23
HETATM   23  O1  UNL     1      -3.040   1.388   0.483  1.00  0.00    -0.348 OA
BRANCH  23  24
HETATM   24  C2  UNL     1      -3.771   2.481  -0.034  1.00  0.00     0.171 C 
HETATM   25  C1  UNL     1      -4.694   2.968   1.064  1.00  0.00     0.034 C 
ENDBRANCH  23  24
ENDBRANCH   1  23
TORSDOF 4
