REMARK  1 active torsions:
REMARK  status: ('A' for Active; 'I' for Inactive)
REMARK    1  A    between atoms: C5_5  and  N1_6 
ROOT
HETATM    1  N1  UNL     1       0.664  -0.822  -0.078  1.00  0.00    -0.332 N 
HETATM    2  C6  UNL     1       0.646  -2.240   0.317  1.00  0.00     0.280 C 
HETATM    3  N2  UNL     1      -0.661  -2.785   0.424  1.00  0.00    -0.263 NA
HETATM    4  C7  UNL     1      -1.114  -3.581   1.328  1.00  0.00     0.228 C 
HETATM    5  N3  UNL     1      -2.470  -3.835   0.992  1.00  0.00    -0.254 NA
HETATM    6  C8  UNL     1      -3.318  -3.013   0.547  1.00  0.00     0.120 C 
HETATM    7  C9  UNL     1      -3.759  -1.720   0.109  1.00  0.00     0.056 C 
HETATM    8  C10 UNL     1      -3.033  -0.620   0.070  1.00  0.00     0.075 C 
HETATM    9  C11 UNL     1      -1.634  -0.497   0.467  1.00  0.00     0.062 C 
HETATM   10  C12 UNL     1      -0.531  -0.095  -0.193  1.00  0.00     0.018 C 
HETATM   11  C13 UNL     1      -0.254   1.053  -1.091  1.00  0.00     0.083 C 
HETATM   12  C14 UNL     1      -1.415   2.058  -0.931  1.00  0.00     0.177 C 
HETATM   13  O1  UNL     1      -2.434   1.615  -1.740  1.00  0.00    -0.361 OA
HETATM   14  C15 UNL     1      -3.677   1.542  -1.144  1.00  0.00     0.262 C 
HETATM   15  C16 UNL     1      -3.860   2.756  -0.260  1.00  0.00     0.071 C 
HETATM   16  O2  UNL     1      -3.903   0.342  -0.422  1.00  0.00    -0.321 OA
ENDROOT
BRANCH   1  17
HETATM   17  C5  UNL     1       1.956  -0.280  -0.287  1.00  0.00     0.036 A 
HETATM   18  C4  UNL     1       2.627   0.304  -1.327  1.00  0.00     0.030 A 
HETATM   19  C3  UNL     1       3.916   0.764  -1.201  1.00  0.00     0.009 A 
HETATM   20  C2  UNL     1       4.622   0.671  -0.020  1.00  0.00    -0.062 A 
HETATM   21  C1  UNL     1       6.006   1.207  -0.018  1.00  0.00     0.048 C 
HETATM   22  C18 UNL     1       3.980   0.088   1.052  1.00  0.00     0.009 A 
HETATM   23  C17 UNL     1       2.669  -0.379   0.920  1.00  0.00     0.030 A 
ENDBRANCH   1  17
TORSDOF 1
