REMARK  5 active torsions:
REMARK  status: ('A' for Active; 'I' for Inactive)
REMARK    1  A    between atoms: C2_2  and  O1_3 
REMARK    2  A    between atoms: O1_3  and  C3_4 
REMARK    3  A    between atoms: N1_7  and  C6_8 
REMARK    4  A    between atoms: C8_11  and  N2_12 
REMARK    5  A    between atoms: N2_12  and  C9_13 
ROOT
HETATM    1  C3  UNL     1      -2.918  -0.658  -0.094  1.00  0.00     0.072 A 
HETATM    2  C4  UNL     1      -1.912   0.001   0.485  1.00  0.00     0.069 A 
HETATM    3  C5  UNL     1      -0.549  -0.505   0.351  1.00  0.00     0.075 A 
HETATM    4  N1  UNL     1       0.395   0.155   0.922  1.00  0.00    -0.221 NA
HETATM    5  C7  UNL     1      -0.308  -1.724  -0.413  1.00  0.00     0.025 A 
HETATM    6  C8  UNL     1       0.919  -2.201  -0.549  1.00  0.00     0.098 C 
HETATM    7  C14 UNL     1      -1.434  -2.407  -1.025  1.00  0.00     0.027 A 
HETATM    8 BR1  UNL     1      -1.111  -3.980  -2.010  1.00  0.00    -0.050 Br
HETATM    9  C15 UNL     1      -2.635  -1.877  -0.853  1.00  0.00     0.056 A 
ENDROOT
BRANCH   6  10
HETATM   10  N2  UNL     1       2.035  -1.553   0.038  1.00  0.00    -0.391 N 
HETATM   11  H9  UNL     1       2.167  -1.425   1.076  1.00  0.00     0.159 HD
BRANCH  10  12
HETATM   12  C9  UNL     1       3.075  -1.022  -0.807  1.00  0.00     0.097 A 
HETATM   13  C10 UNL     1       2.414  -0.018  -1.681  1.00  0.00    -0.033 A 
HETATM   14  B1  UNL     1       3.755   1.826  -1.149  1.00  0.00     0.183 B 
HETATM   15  C11 UNL     1       4.720   0.720   0.017  1.00  0.00    -0.133 A 
HETATM   16  C12 UNL     1       5.852   1.245   0.801  1.00  0.00     0.029 C 
HETATM   17  C13 UNL     1       4.172  -0.429  -0.075  1.00  0.00    -0.013 A 
ENDBRANCH  10  12
ENDBRANCH   6  10
BRANCH   4  18
HETATM   18  C6  UNL     1       0.052   1.329   1.643  1.00  0.00     0.377 C 
HETATM   19  O2  UNL     1       0.543   2.469   1.432  1.00  0.00    -0.281 OA
ENDBRANCH   4  18
BRANCH   1  20
HETATM   20  O1  UNL     1      -4.216  -0.195   0.021  1.00  0.00    -0.351 OA
BRANCH  20  21
HETATM   21  C2  UNL     1      -4.568   1.161   0.043  1.00  0.00     0.171 C 
HETATM   22  C1  UNL     1      -6.096   1.196   0.182  1.00  0.00     0.034 C 
ENDBRANCH  20  21
ENDBRANCH   1  20
TORSDOF 5
