REMARK  2 active torsions:
REMARK  status: ('A' for Active; 'I' for Inactive)
REMARK    1  A    between atoms: C2_2  and  O1_3 
REMARK    2  A    between atoms: O1_3  and  C3_4 
ROOT
HETATM    1  C3  UNL     1       2.435   0.553   0.134  1.00  0.00     0.121 C 
HETATM    2  C4  UNL     1       1.546   1.705   0.523  1.00  0.00     0.133 C 
HETATM    3  N1  UNL     1       0.404   1.632  -0.019  1.00  0.00    -0.255 NA
HETATM    4  C5  UNL     1      -0.594   2.603   0.203  1.00  0.00     0.234 C 
HETATM    5  N2  UNL     1      -1.875   2.463   0.372  1.00  0.00    -0.225 NA
HETATM    6  C6  UNL     1      -2.426   1.166   0.341  1.00  0.00     0.127 C 
HETATM    7  C7  UNL     1      -1.852  -0.025   0.533  1.00  0.00     0.059 C 
HETATM    8  C8  UNL     1      -1.826  -1.338  -0.172  1.00  0.00     0.177 C 
HETATM    9  C9  UNL     1      -2.860  -2.256   0.306  1.00  0.00     0.009 C 
HETATM   10  C10 UNL     1      -4.132  -1.945   0.538  1.00  0.00     0.000 C 
HETATM   11  C11 UNL     1      -5.089  -0.870   0.305  1.00  0.00     0.017 C 
HETATM   12  C12 UNL     1      -4.990   0.433  -0.017  1.00  0.00     0.089 C 
HETATM   13  N3  UNL     1      -3.839   1.310   0.047  1.00  0.00    -0.351 N 
HETATM   14  O2  UNL     1      -0.545  -1.911   0.128  1.00  0.00    -0.350 OA
HETATM   15  C13 UNL     1       0.575  -1.058   0.046  1.00  0.00     0.142 C 
HETATM   16  C14 UNL     1       1.664  -0.551  -0.422  1.00  0.00    -0.018 C 
HETATM   17  C15 UNL     1       2.607  -0.683  -1.513  1.00  0.00     0.043 C 
HETATM   18  C16 UNL     1       3.083   0.719  -1.213  1.00  0.00     0.053 C 
HETATM   19  H12 UNL     1      -4.088   2.304  -0.175  1.00  0.00     0.166 HD
ENDROOT
BRANCH   1  20
HETATM   20  O1  UNL     1       3.411   0.271   1.108  1.00  0.00    -0.362 OA
BRANCH  20  21
HETATM   21  C2  UNL     1       4.294  -0.767   0.861  1.00  0.00     0.152 C 
HETATM   22  C1  UNL     1       5.590  -0.741   0.507  1.00  0.00     0.037 C 
ENDBRANCH  20  21
ENDBRANCH   1  20
TORSDOF 2
