REMARK  2 active torsions:
REMARK  status: ('A' for Active; 'I' for Inactive)
REMARK    1  A    between atoms: C3_3  and  C4_4 
REMARK    2  A    between atoms: C5_5  and  C6_6 
ROOT
HETATM    1  C6  UNL     1       1.558  -0.914  -0.744  1.00  0.00     0.228 C 
HETATM    2  N1  UNL     1       2.357  -0.215  -1.666  1.00  0.00    -0.276 NA
HETATM    3  C7  UNL     1       2.051   0.881  -2.277  1.00  0.00     0.095 C 
HETATM    4  C8  UNL     1       1.511   2.163  -1.746  1.00  0.00     0.058 C 
HETATM    5  C9  UNL     1       0.054   2.137  -1.971  1.00  0.00     0.046 C 
HETATM    6  C10 UNL     1      -1.251   2.405  -2.090  1.00  0.00     0.120 C 
HETATM    7  C11 UNL     1      -2.090   1.281  -2.537  1.00  0.00     0.209 C 
HETATM    8  O1  UNL     1      -3.086   0.860  -1.716  1.00  0.00    -0.386 OA
HETATM    9  C12 UNL     1      -2.797   0.289  -0.520  1.00  0.00     0.193 C 
HETATM   10  O2  UNL     1      -2.066   1.171   0.401  1.00  0.00     0.000 OA
HETATM   11  C13 UNL     1      -0.753   1.290   0.203  1.00  0.00    -0.016 A 
HETATM   12  C14 UNL     1      -1.553   2.314  -0.147  1.00  0.00     0.056 A 
HETATM   13  C15 UNL     1      -2.625   3.317  -0.463  1.00  0.00     0.179 C 
HETATM   14  O3  UNL     1      -2.331   3.393  -1.963  1.00  0.00    -0.374 OA
HETATM   15  C16 UNL     1       0.603   1.429  -0.009  1.00  0.00     0.034 C 
HETATM   16  C17 UNL     1       1.706   2.178  -0.213  1.00  0.00     0.013 C 
HETATM   17  N2  UNL     1       0.572  -0.062  -0.035  1.00  0.00    -0.364 N 
HETATM   18  H20 UNL     1      -0.186  -0.627   0.486  1.00  0.00     0.162 HD
ENDROOT
BRANCH   1  19
HETATM   19  C5  UNL     1       2.366  -1.641   0.304  1.00  0.00     0.021 C 
HETATM   20  C4  UNL     1       1.498  -2.334   0.986  1.00  0.00    -0.001 C 
BRANCH  20  21
HETATM   21  C3  UNL     1       1.807  -3.205   2.123  1.00  0.00    -0.005 C 
HETATM   22  C2  UNL     1       1.027  -3.946   2.868  1.00  0.00    -0.031 C 
HETATM   23  C1  UNL     1       1.141  -4.847   4.000  1.00  0.00     0.036 C 
ENDBRANCH  20  21
ENDBRANCH   1  19
TORSDOF 2
