REMARK  3 active torsions:
REMARK  status: ('A' for Active; 'I' for Inactive)
REMARK    1  A    between atoms: C2_2  and  O1_3 
REMARK    2  A    between atoms: C8_11  and  N3_12 
REMARK    3  A    between atoms: N3_12  and  C9_13 
ROOT
HETATM    1  O1  UNL     1      -3.207  -0.916  -0.811  1.00  0.00     0.000 OA
HETATM    2  C3  UNL     1      -3.859   0.349  -0.991  1.00  0.00    -0.006 C 
HETATM    3  C4  UNL     1      -4.891  -0.454  -1.435  1.00  0.00     0.065 C 
HETATM    4  C5  UNL     1      -4.338  -1.881  -1.475  1.00  0.00     0.140 C 
HETATM    5  N1  UNL     1      -3.371  -2.706  -1.478  1.00  0.00    -0.275 NA
HETATM    6  C6  UNL     1      -1.985  -2.734  -1.456  1.00  0.00     0.227 C 
HETATM    7  N2  UNL     1      -0.830  -2.397  -1.331  1.00  0.00    -0.244 NA
HETATM    8  C7  UNL     1       0.032  -1.462  -1.038  1.00  0.00     0.073 A 
HETATM    9  C8  UNL     1       0.940  -0.606  -0.765  1.00  0.00     0.171 A 
HETATM   10  C16 UNL     1      -0.771  -0.492  -0.787  1.00  0.00     0.010 A 
HETATM   11  P1  UNL     1      -1.612   0.487  -0.527  1.00  0.00    -0.017 P 
HETATM   12  O2  UNL     1      -3.351   2.621   0.054  1.00  0.00     0.000 OA
HETATM   13  C17 UNL     1      -1.923   3.036   0.293  1.00  0.00     0.028 C 
HETATM   14  C18 UNL     1      -1.500   3.093  -1.206  1.00  0.00     0.168 C 
HETATM   15  O3  UNL     1      -2.663   2.244  -1.601  1.00  0.00    -0.380 OA
HETATM   16  C19 UNL     1      -2.295   1.239  -0.335  1.00  0.00     0.163 C 
ENDROOT
BRANCH   9  17
HETATM   17  N3  UNL     1       1.741   0.488  -0.433  1.00  0.00    -0.376 N 
HETATM   18  H10 UNL     1       1.281   1.399  -0.473  1.00  0.00     0.160 HD
BRANCH  17  19
HETATM   19  C9  UNL     1       3.095   0.290  -0.061  1.00  0.00     0.028 A 
HETATM   20  C10 UNL     1       3.771  -0.931  -0.032  1.00  0.00     0.029 A 
HETATM   21  C11 UNL     1       5.097  -0.917   0.374  1.00  0.00     0.009 A 
HETATM   22  C12 UNL     1       5.801   0.225   0.751  1.00  0.00    -0.062 A 
HETATM   23  C13 UNL     1       7.212   0.103   1.171  1.00  0.00     0.048 C 
HETATM   24  C14 UNL     1       5.090   1.400   0.701  1.00  0.00     0.009 A 
HETATM   25  C15 UNL     1       3.774   1.411   0.302  1.00  0.00     0.029 A 
ENDBRANCH  17  19
ENDBRANCH   9  17
BRANCH   1  26
HETATM   26  C2  UNL     1      -3.452  -1.108   0.669  1.00  0.00    -0.005 C 
HETATM   27  C1  UNL     1      -2.734  -2.088   1.429  1.00  0.00     0.005 C 
ENDBRANCH   1  26
TORSDOF 3
