REMARK  3 active torsions:
REMARK  status: ('A' for Active; 'I' for Inactive)
REMARK    1  A    between atoms: C2_2  and  O1_3 
REMARK    2  A    between atoms: O1_3  and  C3_4 
REMARK    3  A    between atoms: C11_14  and  C12_15 
ROOT
HETATM    1  C3  UNL     1      -2.215  -0.044  -0.977  1.00  0.00     0.239 A 
HETATM    2  C4  UNL     1      -1.843   1.273  -0.451  1.00  0.00     0.115 A 
HETATM    3  C5  UNL     1      -0.622   1.593  -0.050  1.00  0.00     0.102 A 
HETATM    4  C6  UNL     1       0.428   0.590  -0.128  1.00  0.00     0.055 A 
HETATM    5  C7  UNL     1       0.226  -0.622  -0.578  1.00  0.00     0.023 A 
HETATM    6  C8  UNL     1      -1.046  -0.940  -0.991  1.00  0.00     0.084 A 
HETATM    7  N1  UNL     1      -1.160  -2.188  -1.431  1.00  0.00    -0.242 NA
HETATM    8  C9  UNL     1      -0.198  -3.103  -1.501  1.00  0.00     0.234 A 
HETATM    9  N2  UNL     1       0.999  -2.713  -1.083  1.00  0.00    -0.241 NA
HETATM   10  C10 UNL     1       1.291  -1.490  -0.608  1.00  0.00     0.070 A 
HETATM   11  C11 UNL     1       2.517  -1.278  -0.241  1.00  0.00     0.032 C 
HETATM   12  O2  UNL     1      -0.495   2.897   0.412  1.00  0.00    -0.346 OA
HETATM   13  C15 UNL     1      -1.525   3.554   1.134  1.00  0.00     0.202 C 
HETATM   14  C16 UNL     1      -2.799   3.404   0.342  1.00  0.00     0.202 C 
HETATM   15  O3  UNL     1      -2.864   2.206  -0.389  1.00  0.00    -0.347 OA
ENDROOT
BRANCH  11  16
HETATM   16  C12 UNL     1       3.452  -0.325   0.300  1.00  0.00    -0.002 C 
HETATM   17  C13 UNL     1       4.713  -0.531   0.536  1.00  0.00    -0.031 C 
HETATM   18  C14 UNL     1       5.953   0.049   1.028  1.00  0.00     0.036 C 
ENDBRANCH  11  16
BRANCH   1  19
HETATM   19  O1  UNL     1      -3.236  -0.596  -0.175  1.00  0.00    -0.346 OA
BRANCH  19  20
HETATM   20  C2  UNL     1      -3.720  -1.860  -0.529  1.00  0.00     0.126 C 
HETATM   21  C1  UNL     1      -4.398  -2.326   0.510  1.00  0.00     0.037 C 
ENDBRANCH  19  20
ENDBRANCH   1  19
TORSDOF 3
