REMARK  3 active torsions:
REMARK  status: ('A' for Active; 'I' for Inactive)
REMARK    1  A    between atoms: C2_2  and  O1_3 
REMARK    2  A    between atoms: O1_3  and  C3_4 
REMARK    3  A    between atoms: C9_13  and  O2_14 
ROOT
HETATM    1  C3  UNL     1       2.468   0.011   0.032  1.00  0.00     0.261 C 
HETATM    2  N1  UNL     1       2.044  -0.007  -1.418  1.00  0.00    -0.348 N 
HETATM    3  C4  UNL     1       1.038  -1.087  -1.359  1.00  0.00     0.119 C 
HETATM    4  N2  UNL     1       0.659  -1.548  -2.559  1.00  0.00    -0.228 NA
HETATM    5  C5  UNL     1      -0.575  -2.288  -2.819  1.00  0.00     0.231 C 
HETATM    6  N3  UNL     1      -1.714  -2.402  -2.113  1.00  0.00    -0.257 NA
HETATM    7  C6  UNL     1      -1.752  -1.767  -0.808  1.00  0.00     0.213 C 
HETATM    8  C7  UNL     1      -0.622  -2.490  -0.076  1.00  0.00     0.062 C 
HETATM    9  C8  UNL     1       0.454  -1.668  -0.077  1.00  0.00     0.103 A 
HETATM   10  C9  UNL     1       0.545  -1.510   1.408  1.00  0.00     0.148 A 
HETATM   11  C10 UNL     1       1.307  -0.656   0.758  1.00  0.00     0.158 A 
HETATM   12  O3  UNL     1       0.314   0.437   0.668  1.00  0.00    -0.366 OA
HETATM   13  C11 UNL     1      -0.872   0.437   1.382  1.00  0.00     0.210 C 
HETATM   14  C12 UNL     1      -2.119   0.846   0.712  1.00  0.00    -0.008 A 
HETATM   15  C13 UNL     1      -2.538   2.154   0.676  1.00  0.00     0.011 A 
HETATM   16  C14 UNL     1      -3.691   2.673   0.123  1.00  0.00     0.001 A 
HETATM   17  C15 UNL     1      -4.537   1.758  -0.472  1.00  0.00     0.002 A 
HETATM   18  C16 UNL     1      -4.182   0.424  -0.476  1.00  0.00     0.030 A 
HETATM   19  C17 UNL     1      -3.018  -0.050   0.088  1.00  0.00     0.038 A 
HETATM   20  N4  UNL     1      -2.896  -1.506  -0.118  1.00  0.00    -0.366 N 
HETATM   21  H7  UNL     1       2.097   0.335  -2.382  1.00  0.00     0.163 HD
HETATM   22  H18 UNL     1      -3.704  -2.006   0.304  1.00  0.00     0.161 HD
ENDROOT
BRANCH   1  23
HETATM   23  O1  UNL     1       2.673   1.295   0.442  1.00  0.00    -0.364 OA
BRANCH  23  24
HETATM   24  C2  UNL     1       3.951   1.512   0.966  1.00  0.00     0.166 C 
HETATM   25  C1  UNL     1       5.021   1.210  -0.059  1.00  0.00     0.033 C 
ENDBRANCH  23  24
ENDBRANCH   1  23
BRANCH  10  26
HETATM   26  O2  UNL     1       1.016  -0.933   2.537  1.00  0.00    -0.382 OA
HETATM   27  H11 UNL     1       1.590  -1.502   3.151  1.00  0.00     0.210 HD
ENDBRANCH  10  26
TORSDOF 3
