REMARK  4 active torsions:
REMARK  status: ('A' for Active; 'I' for Inactive)
REMARK    1  A    between atoms: N1_6  and  C6_7 
REMARK    2  A    between atoms: C6_7  and  C12_15 
REMARK    3  A    between atoms: C7_8  and  C8_9 
REMARK    4  A    between atoms: C12_15  and  N2_16 
ROOT
HETATM    1  C6  UNL     1      -0.804   1.339  -0.629  1.00  0.00     0.057 C 
HETATM    2  C7  UNL     1      -2.062   1.382  -0.211  1.00  0.00     0.067 C 
ENDROOT
BRANCH   1   3
HETATM    3  N1  UNL     1      -0.187   0.085  -0.575  1.00  0.00    -0.256 NA
HETATM    4  C5  UNL     1       1.036  -0.196  -0.417  1.00  0.00     0.040 A 
HETATM    5  C4  UNL     1       2.195   0.719  -0.240  1.00  0.00     0.087 A 
HETATM    6  C14 UNL     1       1.258  -1.654  -0.421  1.00  0.00     0.051 A 
HETATM    7  C3  UNL     1       3.462  -0.037  -0.087  1.00  0.00    -0.012 A 
HETATM    8  C2  UNL     1       3.640  -1.347  -0.093  1.00  0.00    -0.044 A 
HETATM    9  C1  UNL     1       5.015  -1.880   0.080  1.00  0.00     0.049 C 
HETATM   10  C15 UNL     1       2.468  -2.194  -0.271  1.00  0.00     0.041 A 
HETATM   11 CL2  UNL     1       2.753  -3.914  -0.272  1.00  0.00    -0.084 Cl
ENDBRANCH   1   3
BRANCH   1  12
HETATM   12  C12 UNL     1      -0.234   2.641  -1.098  1.00  0.00     0.208 C 
BRANCH  12  13
HETATM   13  N2  UNL     1      -1.209   3.689  -0.990  1.00  0.00    -0.284 NA
HETATM   14  C13 UNL     1      -1.126   4.635  -0.136  1.00  0.00     0.195 C 
HETATM   15 CL1  UNL     1       0.246   4.639   0.948  1.00  0.00    -0.077 Cl
ENDBRANCH  12  13
ENDBRANCH   1  12
BRANCH   2  16
HETATM   16  C8  UNL     1      -2.687   0.157   0.258  1.00  0.00     0.092 C 
HETATM   17  C9  UNL     1      -3.955   0.106   0.699  1.00  0.00     0.171 C 
HETATM   18  O1  UNL     1      -4.603  -1.035   1.159  1.00  0.00    -0.358 OA
HETATM   19  C10 UNL     1      -3.787  -2.170   1.391  1.00  0.00     0.201 C 
HETATM   20  C11 UNL     1      -2.817  -2.248   0.230  1.00  0.00     0.202 C 
HETATM   21  O2  UNL     1      -2.034  -1.055   0.291  1.00  0.00    -0.347 OA
ENDBRANCH   2  16
TORSDOF 4
