REMARK  5 active torsions:
REMARK  status: ('A' for Active; 'I' for Inactive)
REMARK    1  A    between atoms: C5_5  and  N1_6 
REMARK    2  A    between atoms: N1_6  and  C6_7 
REMARK    3  A    between atoms: C8_9  and  O1_10 
REMARK    4  A    between atoms: O1_10  and  C9_11 
REMARK    5  A    between atoms: C9_11  and  O2_12 
ROOT
HETATM    1  C6  UNL     1      -0.338   0.451  -0.658  1.00  0.00     0.151 C 
HETATM    2  C7  UNL     1      -1.269   1.658  -0.960  1.00  0.00     0.068 C 
HETATM    3  C8  UNL     1      -2.392   0.959  -0.701  1.00  0.00     0.105 C 
HETATM    4  C10 UNL     1      -2.596  -0.030  -1.794  1.00  0.00     0.098 C 
HETATM    5  C11 UNL     1      -1.621   0.063  -2.722  1.00  0.00     0.017 C 
HETATM    6  C12 UNL     1      -0.302  -0.244  -2.035  1.00  0.00     0.090 C 
HETATM    7  O3  UNL     1      -3.688  -0.248  -0.903  1.00  0.00    -0.344 OA
HETATM    8  C13 UNL     1      -3.750  -1.532  -0.263  1.00  0.00     0.222 C 
HETATM    9  C14 UNL     1      -3.291  -1.313   1.150  1.00  0.00     0.117 C 
HETATM   10  N2  UNL     1      -2.000  -1.381   1.448  1.00  0.00    -0.256 NA
HETATM   11  C15 UNL     1      -1.080  -1.669   0.370  1.00  0.00     0.229 C 
HETATM   12  N3  UNL     1      -1.012  -0.444   0.212  1.00  0.00    -0.247 NA
ENDROOT
BRANCH   1  13
HETATM   13  N1  UNL     1       0.882   0.972  -0.222  1.00  0.00    -0.359 N 
HETATM   14  H6  UNL     1       0.934   2.027  -0.059  1.00  0.00     0.162 HD
BRANCH  13  15
HETATM   15  C5  UNL     1       2.126   0.361   0.064  1.00  0.00     0.031 A 
HETATM   16  C4  UNL     1       2.391  -0.983  -0.080  1.00  0.00     0.030 A 
HETATM   17  C3  UNL     1       3.574  -1.628   0.191  1.00  0.00     0.011 A 
HETATM   18  C2  UNL     1       4.604  -0.849   0.655  1.00  0.00    -0.040 A 
HETATM   19  C1  UNL     1       5.920  -1.448   0.977  1.00  0.00     0.050 C 
HETATM   20  C17 UNL     1       4.445   0.501   0.834  1.00  0.00     0.042 A 
HETATM   21  C16 UNL     1       3.224   1.050   0.535  1.00  0.00     0.053 A 
HETATM   22 CL1  UNL     1       5.755   1.477   1.422  1.00  0.00    -0.084 Cl
ENDBRANCH  13  15
ENDBRANCH   1  13
BRANCH   3  23
HETATM   23  O1  UNL     1      -2.451   1.780   0.444  1.00  0.00    -0.324 OA
BRANCH  23  24
HETATM   24  C9  UNL     1      -3.689   2.503   0.563  1.00  0.00     0.341 C 
BRANCH  24  25
HETATM   25  O2  UNL     1      -3.718   3.251   1.706  1.00  0.00    -0.377 OA
HETATM   26  H10 UNL     1      -4.499   3.113   2.299  1.00  0.00     0.212 HD
ENDBRANCH  24  25
ENDBRANCH  23  24
ENDBRANCH   3  23
TORSDOF 5
