REMARK  5 active torsions:
REMARK  status: ('A' for Active; 'I' for Inactive)
REMARK    1  A    between atoms: B1_1  and  C1_2 
REMARK    2  A    between atoms: C1_2  and  C2_3 
REMARK    3  A    between atoms: C6_9  and  C7_10 
REMARK    4  A    between atoms: C7_10  and  N3_11 
REMARK    5  A    between atoms: N3_11  and  C8_12 
ROOT
HETATM    1  C2  UNL     1       2.338  -0.383  -0.243  1.00  0.00    -0.029 A 
HETATM    2  C3  UNL     1       1.987  -1.573  -0.894  1.00  0.00     0.041 A 
HETATM    3  C4  UNL     1       0.660  -1.865  -1.123  1.00  0.00     0.073 A 
HETATM    4  N1  UNL     1       0.260  -2.993  -1.736  1.00  0.00    -0.241 NA
HETATM    5  C5  UNL     1      -1.032  -3.291  -1.958  1.00  0.00     0.234 A 
HETATM    6  N2  UNL     1      -1.992  -2.424  -1.550  1.00  0.00    -0.244 NA
HETATM    7  C6  UNL     1      -1.693  -1.259  -0.924  1.00  0.00     0.069 A 
HETATM    8  C9  UNL     1      -0.360  -0.997  -0.718  1.00  0.00     0.055 A 
HETATM    9  C10 UNL     1      -0.011   0.156  -0.086  1.00  0.00     0.117 A 
HETATM   10  C11 UNL     1       1.313   0.454   0.145  1.00  0.00     0.108 A 
HETATM   11  O2  UNL     1       1.577   1.652   0.795  1.00  0.00    -0.346 OA
HETATM   12  C12 UNL     1       0.781   2.810   0.653  1.00  0.00     0.202 C 
HETATM   13  C13 UNL     1      -0.647   2.497   0.282  1.00  0.00     0.202 C 
HETATM   14  O3  UNL     1      -0.911   1.103   0.369  1.00  0.00    -0.345 OA
ENDROOT
BRANCH   7  15
HETATM   15  C7  UNL     1      -2.803  -0.374  -0.542  1.00  0.00     0.182 C 
BRANCH  15  16
HETATM   16  N3  UNL     1      -3.056  -0.343   0.887  1.00  0.00    -0.362 N 
HETATM   17  H9  UNL     1      -2.637  -0.801   1.700  1.00  0.00     0.162 HD
BRANCH  16  18
HETATM   18  C8  UNL     1      -4.151   0.544   1.186  1.00  0.00     0.348 C 
HETATM   19  O1  UNL     1      -4.903   1.272   0.458  1.00  0.00    -0.284 OA
ENDBRANCH  16  18
ENDBRANCH  15  16
ENDBRANCH   7  15
BRANCH   1  20
HETATM   20  C1  UNL     1       3.774  -0.043   0.024  1.00  0.00    -0.019 C 
BRANCH  20  21
HETATM   21  B1  UNL     1       4.067  -0.328   1.561  1.00  0.00     0.140 B 
HETATM   22  H1  UNL     1       4.421   0.533   2.255  1.00  0.00    -0.032 HD
HETATM   23  H2  UNL     1       4.155  -1.484   1.869  1.00  0.00    -0.032 HD
ENDBRANCH  20  21
ENDBRANCH   1  20
TORSDOF 5
