REMARK  5 active torsions:
REMARK  status: ('A' for Active; 'I' for Inactive)
REMARK    1  A    between atoms: O1_1  and  C1_2 
REMARK    2  A    between atoms: C1_2  and  C2_3 
REMARK    3  A    between atoms: C6_7  and  N1_8 
REMARK    4  A    between atoms: N1_8  and  P1_9 
REMARK    5  A    between atoms: P1_9  and  C7_10 
ROOT
HETATM    1  P1  UNL     1       0.186  -0.508  -0.101  1.00  0.00    -0.005 P 
HETATM    2  H8  UNL     1       0.290  -1.150   1.184  1.00  0.00     0.084 HD
ENDROOT
BRANCH   1   3
HETATM    3  N1  UNL     1       1.582   0.571  -0.333  1.00  0.00    -0.364 N 
HETATM    4  H7  UNL     1       1.424   1.604  -0.186  1.00  0.00     0.164 HD
BRANCH   3   5
HETATM    5  C6  UNL     1       2.953   0.595  -0.669  1.00  0.00     0.032 A 
HETATM    6  C5  UNL     1       3.433   0.702  -1.956  1.00  0.00     0.029 A 
HETATM    7  C4  UNL     1       4.796   0.716  -2.142  1.00  0.00     0.003 A 
HETATM    8  C3  UNL     1       5.635   0.623  -1.043  1.00  0.00     0.009 A 
HETATM    9  C2  UNL     1       5.194   0.515   0.250  1.00  0.00    -0.033 A 
HETATM   10  C15 UNL     1       3.817   0.502   0.426  1.00  0.00     0.038 A 
BRANCH   9  11
HETATM   11  C1  UNL     1       6.177   0.422   1.358  1.00  0.00     0.203 C 
BRANCH  11  12
HETATM   12  O1  UNL     1       6.483  -0.910   1.598  1.00  0.00    -0.396 OA
HETATM   13  H1  UNL     1       7.149  -1.271   0.954  1.00  0.00     0.209 HD
ENDBRANCH  11  12
ENDBRANCH   9  11
ENDBRANCH   3   5
ENDBRANCH   1   3
BRANCH   1  14
HETATM   14  C7  UNL     1      -1.390   0.446  -0.243  1.00  0.00     0.035 C 
HETATM   15  C8  UNL     1      -2.415  -0.391  -0.197  1.00  0.00    -0.020 C 
HETATM   16  C9  UNL     1      -2.364  -1.875  -0.056  1.00  0.00     0.048 C 
HETATM   17  C12 UNL     1      -3.824  -0.023  -0.277  1.00  0.00     0.104 C 
HETATM   18  C10 UNL     1      -3.584  -2.077   0.851  1.00  0.00     0.072 C 
HETATM   19  C11 UNL     1      -4.479  -1.009   0.335  1.00  0.00     0.080 C 
HETATM   20  O3  UNL     1      -5.853  -0.945   0.423  1.00  0.00    -0.350 OA
HETATM   21  C14 UNL     1      -6.612   0.174   0.061  1.00  0.00     0.202 C 
HETATM   22  C13 UNL     1      -5.765   1.386  -0.245  1.00  0.00     0.202 C 
HETATM   23  O2  UNL     1      -4.513   1.053  -0.817  1.00  0.00    -0.346 OA
ENDBRANCH   1  14
TORSDOF 5
