REMARK  5 active torsions:
REMARK  status: ('A' for Active; 'I' for Inactive)
REMARK    1  A    between atoms: C2_2  and  C3_4 
REMARK    2  A    between atoms: C4_5  and  C5_6 
REMARK    3  A    between atoms: C6_7  and  N1_8 
REMARK    4  A    between atoms: N1_8  and  C7_9 
REMARK    5  A    between atoms: C11_15  and  O1_16 
ROOT
HETATM    1  O1  UNL     1      -4.382   0.252   0.505  1.00  0.00    -0.348 OA
HETATM    2  C12 UNL     1      -5.604   0.451   0.815  1.00  0.00     0.171 C 
HETATM    3  C13 UNL     1      -6.977   0.676   1.163  1.00  0.00     0.034 C 
ENDROOT
BRANCH   1   4
HETATM    4  C11 UNL     1      -3.245  -0.383   0.502  1.00  0.00     0.107 A 
HETATM    5  C10 UNL     1      -2.917  -1.574   1.120  1.00  0.00     0.072 A 
HETATM    6  C9  UNL     1      -1.627  -2.054   0.956  1.00  0.00     0.077 A 
HETATM    7  N3  UNL     1      -1.338  -3.238   1.559  1.00  0.00    -0.241 NA
HETATM    8  C16 UNL     1      -0.736  -1.347   0.202  1.00  0.00     0.075 A 
HETATM    9  C8  UNL     1      -0.083  -3.752   1.400  1.00  0.00     0.236 A 
HETATM   10  N2  UNL     1       0.836  -3.089   0.662  1.00  0.00    -0.223 NA
HETATM   11  C7  UNL     1       0.488  -1.932   0.099  1.00  0.00     0.144 A 
HETATM   12  C15 UNL     1      -1.010  -0.157  -0.431  1.00  0.00     0.121 A 
HETATM   13  C14 UNL     1      -2.308   0.340  -0.277  1.00  0.00     0.136 A 
HETATM   14  O2  UNL     1      -0.095   0.557  -1.187  1.00  0.00    -0.345 OA
HETATM   15  O3  UNL     1      -2.496   1.543  -0.943  1.00  0.00    -0.344 OA
HETATM   16  C18 UNL     1      -1.472   2.550  -1.026  1.00  0.00     0.202 C 
HETATM   17  C17 UNL     1      -0.122   1.963  -1.316  1.00  0.00     0.202 C 
BRANCH  11  18
HETATM   18  N1  UNL     1       1.501  -1.339  -0.682  1.00  0.00    -0.350 N 
HETATM   19  H7  UNL     1       1.794  -0.510  -1.236  1.00  0.00     0.166 HD
BRANCH  18  20
HETATM   20  C6  UNL     1       2.765  -1.867  -1.026  1.00  0.00     0.090 C 
HETATM   21  C5  UNL     1       4.044  -1.563  -1.064  1.00  0.00     0.017 C 
BRANCH  21  22
HETATM   22  C4  UNL     1       4.479  -0.245  -0.622  1.00  0.00     0.003 C 
HETATM   23  C3  UNL     1       5.778  -0.047  -0.731  1.00  0.00     0.019 C 
BRANCH  23  24
HETATM   24  C2  UNL     1       6.203   1.295  -0.263  1.00  0.00     0.009 A 
HETATM   25  C1  UNL     1       6.932   2.350   0.054  1.00  0.00     0.152 A 
HETATM   26 CL1  UNL     1       5.309   2.739   0.270  1.00  0.00    -0.182 Cl
ENDBRANCH  23  24
ENDBRANCH  21  22
ENDBRANCH  18  20
ENDBRANCH  11  18
ENDBRANCH   1   4
TORSDOF 5
