REMARK  5 active torsions:
REMARK  status: ('A' for Active; 'I' for Inactive)
REMARK    1  A    between atoms: C2_2  and  C3_4 
REMARK    2  A    between atoms: C4_6  and  C5_7 
REMARK    3  A    between atoms: C6_8  and  N1_9 
REMARK    4  A    between atoms: N1_9  and  C7_10 
REMARK    5  A    between atoms: C14_20  and  N5_21 
ROOT
HETATM    1  C7  UNL     1      -0.114  -1.111   0.853  1.00  0.00     0.159 A 
HETATM    2  N2  UNL     1       0.165  -1.778   1.988  1.00  0.00    -0.222 NA
HETATM    3  C8  UNL     1      -0.652  -1.635   3.071  1.00  0.00     0.238 A 
HETATM    4  N3  UNL     1      -1.749  -0.824   3.019  1.00  0.00    -0.215 NA
HETATM    5  C9  UNL     1      -2.041  -0.151   1.890  1.00  0.00     0.202 A 
HETATM    6  C10 UNL     1      -1.213  -0.299   0.797  1.00  0.00     0.129 A 
HETATM    7  N4  UNL     1      -1.323   0.279  -0.480  1.00  0.00    -0.379 N 
HETATM    8  C11 UNL     1      -2.418   0.806  -1.232  1.00  0.00     0.161 C 
HETATM    9  C12 UNL     1      -3.732   0.750  -0.573  1.00  0.00    -0.004 C 
HETATM   10  C13 UNL     1      -4.892   0.585  -1.241  1.00  0.00     0.041 C 
HETATM   11  C14 UNL     1      -5.992   0.576  -0.250  1.00  0.00     0.040 C 
HETATM   12  C15 UNL     1      -5.390   1.121   0.797  1.00  0.00     0.040 C 
HETATM   13  C16 UNL     1      -4.111   0.849   0.856  1.00  0.00     0.099 C 
HETATM   14  O1  UNL     1      -3.191   0.666   1.916  1.00  0.00    -0.288 OA
HETATM   15  H8  UNL     1      -0.399   0.330  -0.989  1.00  0.00     0.160 HD
ENDROOT
BRANCH   1  16
HETATM   16  N1  UNL     1       0.805  -1.336  -0.213  1.00  0.00    -0.349 N 
HETATM   17  H6  UNL     1       0.839  -1.762  -1.143  1.00  0.00     0.167 HD
BRANCH  16  18
HETATM   18  C6  UNL     1       2.053  -0.783   0.173  1.00  0.00     0.090 C 
HETATM   19  C5  UNL     1       3.250  -0.504  -0.282  1.00  0.00     0.020 C 
BRANCH  19  20
HETATM   20  C4  UNL     1       4.622  -0.001  -0.198  1.00  0.00     0.041 C 
HETATM   21  C3  UNL     1       5.480  -0.015  -1.235  1.00  0.00     0.119 C 
HETATM   22  F1  UNL     1       4.942  -0.540  -2.360  1.00  0.00    -0.209 F 
BRANCH  21  23
HETATM   23  C2  UNL     1       6.570   0.578  -0.517  1.00  0.00     0.114 A 
HETATM   24  C1  UNL     1       7.787   0.972  -0.618  1.00  0.00     0.133 A 
HETATM   25 CL1  UNL     1       7.605   0.511  -1.958  1.00  0.00    -0.200 Cl
ENDBRANCH  21  23
ENDBRANCH  19  20
ENDBRANCH  16  18
ENDBRANCH   1  16
BRANCH  11  26
HETATM   26  N5  UNL     1      -7.348   0.101  -0.390  1.00  0.00    -0.398 N 
HETATM   27  H12 UNL     1      -7.892   0.318  -1.232  1.00  0.00     0.156 HD
HETATM   28  H13 UNL     1      -7.577  -0.448   0.494  1.00  0.00     0.156 HD
ENDBRANCH  11  26
TORSDOF 5
