REMARK  3 active torsions:
REMARK  status: ('A' for Active; 'I' for Inactive)
REMARK    1  A    between atoms: P1_1  and  C1_2 
REMARK    2  A    between atoms: C9_11  and  N2_12 
REMARK    3  A    between atoms: N2_12  and  C10_13 
ROOT
HETATM    1  C1  UNL     1       5.226  -0.658   0.433  1.00  0.00    -0.036 A 
HETATM    2  C2  UNL     1       5.238  -0.198  -0.870  1.00  0.00     0.014 A 
HETATM    3  C3  UNL     1       4.027  -0.024  -1.499  1.00  0.00     0.039 A 
HETATM    4  C4  UNL     1       2.788  -0.267  -0.951  1.00  0.00     0.086 A 
HETATM    5  C5  UNL     1       2.808  -0.730   0.366  1.00  0.00    -0.006 A 
HETATM    6  C6  UNL     1       4.005  -0.914   1.021  1.00  0.00     0.023 A 
HETATM    7  C7  UNL     1       1.675  -1.085   1.242  1.00  0.00     0.161 C 
HETATM    8  N1  UNL     1       0.526  -0.217   1.057  1.00  0.00    -0.379 N 
HETATM    9  C8  UNL     1      -0.156   0.074  -0.159  1.00  0.00     0.128 A 
HETATM   10  C9  UNL     1      -1.500   0.270   0.085  1.00  0.00     0.157 A 
HETATM   11  N4  UNL     1      -2.237   0.565  -0.998  1.00  0.00    -0.222 NA
HETATM   12  C15 UNL     1      -1.718   0.665  -2.232  1.00  0.00     0.238 A 
HETATM   13  N5  UNL     1      -0.397   0.474  -2.491  1.00  0.00    -0.215 NA
HETATM   14  C16 UNL     1       0.390   0.175  -1.435  1.00  0.00     0.202 A 
HETATM   15  O1  UNL     1       1.732   0.000  -1.825  1.00  0.00    -0.289 OA
HETATM   16  H8  UNL     1       0.071   0.307   1.848  1.00  0.00     0.160 HD
ENDROOT
BRANCH  10  17
HETATM   17  N2  UNL     1      -2.125   0.162   1.355  1.00  0.00    -0.350 N 
HETATM   18  H9  UNL     1      -1.730  -0.081   2.284  1.00  0.00     0.163 HD
BRANCH  17  19
HETATM   19  C10 UNL     1      -3.565   0.409   1.456  1.00  0.00     0.210 A 
HETATM   20  C11 UNL     1      -4.255  -0.586   0.561  1.00  0.00     0.076 A 
HETATM   21  C12 UNL     1      -5.129   0.022  -0.460  1.00  0.00    -0.021 A 
HETATM   22  C13 UNL     1      -5.406   1.288  -0.736  1.00  0.00     0.015 A 
HETATM   23  C14 UNL     1      -4.679   2.159   0.177  1.00  0.00     0.112 A 
HETATM   24  N3  UNL     1      -3.905   1.770   1.097  1.00  0.00    -0.276 NA
ENDBRANCH  17  19
ENDBRANCH  10  17
BRANCH   1  25
HETATM   25  P1  UNL     1       6.747  -0.936   1.392  1.00  0.00    -0.106 P 
HETATM   26  H1  UNL     1       7.177   0.261   2.090  1.00  0.00     0.059 HD
HETATM   27  H2  UNL     1       7.796  -1.555   0.635  1.00  0.00     0.059 HD
ENDBRANCH   1  25
TORSDOF 3
