REMARK  5 active torsions:
REMARK  status: ('A' for Active; 'I' for Inactive)
REMARK    1  A    between atoms: C2_2  and  P1_3 
REMARK    2  A    between atoms: P1_3  and  C3_4 
REMARK    3  A    between atoms: C7_10  and  N3_11 
REMARK    4  A    between atoms: N3_11  and  C8_12 
REMARK    5  A    between atoms: C12_16  and  O1_17 
ROOT
HETATM    1  C3  UNL     1      -3.165   1.064   0.556  1.00  0.00     0.004 A 
HETATM    2  C4  UNL     1      -2.478   1.292   1.739  1.00  0.00     0.047 A 
HETATM    3  C5  UNL     1      -1.128   1.032   1.824  1.00  0.00     0.076 A 
HETATM    4  N1  UNL     1      -0.431   1.242   2.955  1.00  0.00    -0.241 NA
HETATM    5  C6  UNL     1       0.880   0.996   3.058  1.00  0.00     0.236 A 
HETATM    6  N2  UNL     1       1.512   0.527   1.997  1.00  0.00    -0.223 NA
HETATM    7  C7  UNL     1       0.932   0.277   0.816  1.00  0.00     0.144 A 
HETATM    8  C15 UNL     1      -0.413   0.543   0.756  1.00  0.00     0.075 A 
HETATM    9  C16 UNL     1      -1.062   0.312  -0.412  1.00  0.00     0.119 A 
HETATM   10  C17 UNL     1      -2.411   0.573  -0.491  1.00  0.00     0.114 A 
HETATM   11  O2  UNL     1      -3.082   0.341  -1.676  1.00  0.00    -0.345 OA
HETATM   12  C18 UNL     1      -2.487  -0.135  -2.847  1.00  0.00     0.202 A 
HETATM   13  C19 UNL     1      -1.036  -0.427  -2.764  1.00  0.00     0.202 A 
HETATM   14  O3  UNL     1      -0.450  -0.171  -1.529  1.00  0.00    -0.345 OA
ENDROOT
BRANCH   7  15
HETATM   15  N3  UNL     1       1.739  -0.225  -0.236  1.00  0.00    -0.340 N 
HETATM   16  H9  UNL     1       1.676  -0.483  -1.234  1.00  0.00     0.167 HD
BRANCH  15  17
HETATM   17  C8  UNL     1       3.110  -0.522   0.019  1.00  0.00     0.036 A 
HETATM   18  C9  UNL     1       3.491  -1.079   1.240  1.00  0.00     0.029 A 
HETATM   19  C10 UNL     1       4.773  -1.375   1.587  1.00  0.00     0.005 A 
HETATM   20  C11 UNL     1       5.809  -1.117   0.683  1.00  0.00     0.037 A 
HETATM   21  C12 UNL     1       5.504  -0.569  -0.541  1.00  0.00     0.070 A 
HETATM   22  C14 UNL     1       4.194  -0.290  -0.839  1.00  0.00     0.066 A 
BRANCH  21  23
HETATM   23  O1  UNL     1       6.495  -0.306  -1.444  1.00  0.00    -0.356 OA
HETATM   24  C13 UNL     1       6.311   0.248  -2.716  1.00  0.00     0.210 C 
ENDBRANCH  21  23
ENDBRANCH  15  17
ENDBRANCH   7  15
BRANCH   1  25
HETATM   25  P1  UNL     1      -4.963   1.399   0.409  1.00  0.00    -0.092 P 
HETATM   26  H6  UNL     1      -5.466   1.691   1.749  1.00  0.00     0.062 HD
BRANCH  25  27
HETATM   27  C2  UNL     1      -5.895  -0.091  -0.198  1.00  0.00     0.032 C 
HETATM   28  C1  UNL     1      -7.080  -0.418   0.675  1.00  0.00     0.010 C 
ENDBRANCH  25  27
ENDBRANCH   1  25
TORSDOF 5
