REMARK  5 active torsions:
REMARK  status: ('A' for Active; 'I' for Inactive)
REMARK    1  A    between atoms: C2_2  and  O1_3 
REMARK    2  A    between atoms: O1_3  and  C3_4 
REMARK    3  A    between atoms: C7_10  and  N3_11 
REMARK    4  A    between atoms: N3_11  and  C8_12 
REMARK    5  A    between atoms: C12_16  and  O2_17 
ROOT
HETATM    1  C3  UNL     1      -2.294   0.181  -0.542  1.00  0.00     0.106 C 
HETATM    2  C4  UNL     1      -1.370   0.429  -1.522  1.00  0.00     0.072 C 
HETATM    3  C5  UNL     1      -0.556  -0.778  -1.545  1.00  0.00     0.096 A 
HETATM    4  N1  UNL     1      -0.096  -1.264  -2.674  1.00  0.00    -0.242 NA
HETATM    5  C6  UNL     1       0.646  -2.453  -2.501  1.00  0.00     0.231 A 
HETATM    6  N2  UNL     1       0.624  -2.696  -1.201  1.00  0.00    -0.237 NA
HETATM    7  C7  UNL     1      -0.090  -1.711  -0.531  1.00  0.00     0.224 A 
HETATM    8  C15 UNL     1      -1.221  -1.952   0.369  1.00  0.00     0.140 C 
HETATM    9  C16 UNL     1      -2.224  -1.019   0.352  1.00  0.00     0.136 C 
HETATM   10  O3  UNL     1      -3.242  -1.266   1.273  1.00  0.00    -0.344 OA
HETATM   11  C17 UNL     1      -3.657  -2.559   1.674  1.00  0.00     0.202 C 
HETATM   12  C18 UNL     1      -2.600  -3.606   1.558  1.00  0.00     0.202 C 
HETATM   13  O4  UNL     1      -1.372  -3.007   1.216  1.00  0.00    -0.346 OA
ENDROOT
BRANCH   7  14
HETATM   14  N3  UNL     1       0.898  -0.950   0.360  1.00  0.00    -0.351 N 
HETATM   15  H8  UNL     1       0.565  -1.044   1.371  1.00  0.00     0.163 HD
BRANCH  14  16
HETATM   16  C8  UNL     1       2.083  -0.202   0.190  1.00  0.00     0.033 A 
HETATM   17  C9  UNL     1       2.715   0.064  -0.999  1.00  0.00     0.029 A 
HETATM   18  C10 UNL     1       3.875   0.792  -1.152  1.00  0.00     0.005 A 
HETATM   19  C11 UNL     1       4.402   1.270   0.019  1.00  0.00     0.037 A 
HETATM   20  C12 UNL     1       3.807   1.030   1.234  1.00  0.00     0.070 A 
HETATM   21  C14 UNL     1       2.656   0.302   1.333  1.00  0.00     0.065 A 
BRANCH  20  22
HETATM   22  O2  UNL     1       4.377   1.532   2.384  1.00  0.00    -0.356 OA
HETATM   23  C13 UNL     1       5.559   2.284   2.302  1.00  0.00     0.210 C 
ENDBRANCH  20  22
ENDBRANCH  14  16
ENDBRANCH   7  14
BRANCH   1  24
HETATM   24  O1  UNL     1      -3.326   1.071  -0.240  1.00  0.00    -0.348 OA
BRANCH  24  25
HETATM   25  C2  UNL     1      -3.250   2.447  -0.477  1.00  0.00     0.171 C 
HETATM   26  C1  UNL     1      -4.566   3.065  -0.014  1.00  0.00     0.034 C 
ENDBRANCH  24  25
ENDBRANCH   1  24
TORSDOF 5
