REMARK  4 active torsions:
REMARK  status: ('A' for Active; 'I' for Inactive)
REMARK    1  A    between atoms: C2_2  and  O1_3 
REMARK    2  A    between atoms: O1_3  and  C3_4 
REMARK    3  A    between atoms: C7_10  and  N3_11 
REMARK    4  A    between atoms: N3_11  and  C8_12 
ROOT
HETATM    1  C3  UNL     1       2.683  -0.145   0.396  1.00  0.00     0.107 A 
HETATM    2  C4  UNL     1       2.448   1.194   0.179  1.00  0.00     0.072 A 
HETATM    3  C5  UNL     1       1.188   1.574  -0.287  1.00  0.00     0.077 A 
HETATM    4  N1  UNL     1       0.871   2.850  -0.535  1.00  0.00    -0.241 NA
HETATM    5  C6  UNL     1      -0.338   3.241  -0.993  1.00  0.00     0.236 A 
HETATM    6  N2  UNL     1      -1.241   2.267  -1.198  1.00  0.00    -0.223 NA
HETATM    7  C7  UNL     1      -0.968   0.968  -0.963  1.00  0.00     0.144 A 
HETATM    8  C14 UNL     1       0.268   0.582  -0.495  1.00  0.00     0.075 A 
HETATM    9  C15 UNL     1       0.441  -0.770  -0.295  1.00  0.00     0.121 A 
HETATM   10  C16 UNL     1       1.707  -1.123   0.169  1.00  0.00     0.136 A 
HETATM   11  O2  UNL     1       1.942  -2.487   0.390  1.00  0.00    -0.344 OA
HETATM   12  C17 UNL     1       1.036  -3.395  -0.200  1.00  0.00     0.202 C 
HETATM   13  C18 UNL     1      -0.392  -2.962   0.078  1.00  0.00     0.202 C 
HETATM   14  O3  UNL     1      -0.568  -1.691  -0.538  1.00  0.00    -0.345 OA
ENDROOT
BRANCH   7  15
HETATM   15  N3  UNL     1      -2.083   0.135  -1.273  1.00  0.00    -0.340 N 
HETATM   16  H8  UNL     1      -1.972  -0.467  -2.101  1.00  0.00     0.167 HD
BRANCH  15  17
HETATM   17  C8  UNL     1      -3.213   0.217  -0.416  1.00  0.00     0.035 A 
HETATM   18  C9  UNL     1      -4.279  -0.566  -0.810  1.00  0.00     0.029 A 
HETATM   19  C10 UNL     1      -5.434  -0.552  -0.064  1.00  0.00     0.004 A 
HETATM   20  C11 UNL     1      -5.454   0.259   1.058  1.00  0.00     0.024 A 
HETATM   21  C12 UNL     1      -4.402   1.041   1.462  1.00  0.00     0.036 A 
HETATM   22 CL1  UNL     1      -4.434   2.073   2.889  1.00  0.00    -0.084 Cl
HETATM   23  C13 UNL     1      -3.228   1.024   0.698  1.00  0.00     0.053 A 
ENDBRANCH  15  17
ENDBRANCH   7  15
BRANCH   1  24
HETATM   24  O1  UNL     1       3.924  -0.563   0.854  1.00  0.00    -0.348 OA
BRANCH  24  25
HETATM   25  C2  UNL     1       4.960   0.344   1.069  1.00  0.00     0.171 C 
HETATM   26  C1  UNL     1       5.392   1.062  -0.212  1.00  0.00     0.034 C 
ENDBRANCH  24  25
ENDBRANCH   1  24
TORSDOF 4
