REMARK  0 active torsions:
REMARK  status: ('A' for Active; 'I' for Inactive)
ROOT
HETATM    1  C1  UNL     1       1.497  -1.930   4.325  1.00  0.00     0.013 C 
HETATM    2  C2  UNL     1       1.121  -1.699   3.176  1.00  0.00    -0.105 C 
HETATM    3  C3  UNL     1       0.677  -1.420   1.821  1.00  0.00     0.050 C 
HETATM    4  C4  UNL     1      -0.670  -1.412   1.856  1.00  0.00     0.041 C 
HETATM    5  C5  UNL     1      -2.059  -1.329   1.481  1.00  0.00    -0.000 C 
HETATM    6  C6  UNL     1      -3.098  -1.175   0.611  1.00  0.00     0.113 C 
HETATM    7  N1  UNL     1      -2.307  -1.025  -0.563  1.00  0.00    -0.262 N 
HETATM    8  N2  UNL     1      -2.660  -2.224  -1.196  1.00  0.00    -0.288 N 
HETATM    9  C7  UNL     1      -1.945  -2.672  -2.373  1.00  0.00     0.224 A 
HETATM   10  N3  UNL     1      -1.007  -1.858  -2.709  1.00  0.00    -0.240 NA
HETATM   11  C8  UNL     1      -0.764  -0.698  -1.994  1.00  0.00     0.092 A 
HETATM   12  C9  UNL     1       0.400   0.033  -2.338  1.00  0.00     0.074 A 
HETATM   13  C10 UNL     1       0.768   1.130  -1.596  1.00  0.00     0.107 A 
HETATM   14  C11 UNL     1       0.136   1.658  -0.519  1.00  0.00     0.138 A 
HETATM   15  C12 UNL     1      -0.993   0.965  -0.161  1.00  0.00     0.136 A 
HETATM   16  C13 UNL     1      -1.304  -0.110  -0.909  1.00  0.00     0.120 A 
HETATM   17  O1  UNL     1      -1.684   1.450   0.924  1.00  0.00    -0.344 OA
HETATM   18  C14 UNL     1      -1.863   2.830   1.185  1.00  0.00     0.202 C 
HETATM   19  C15 UNL     1      -0.684   3.618   0.710  1.00  0.00     0.202 C 
HETATM   20  O2  UNL     1       0.370   2.733   0.297  1.00  0.00    -0.344 OA
HETATM   21  O3  UNL     1       1.942   1.546  -2.192  1.00  0.00    -0.348 OA
HETATM   22  C16 UNL     1       3.126   1.279  -1.473  1.00  0.00     0.176 C 
HETATM   23  C17 UNL     1       3.275  -0.190  -1.170  1.00  0.00     0.032 C 
HETATM   24  C18 UNL     1       2.347  -0.615  -0.138  1.00  0.00     0.023 C 
HETATM   25  C19 UNL     1       1.878  -1.100   1.013  1.00  0.00    -0.001 C 
HETATM   26  H5  UNL     1      -3.393  -2.981  -1.031  1.00  0.00     0.188 HD
ENDROOT
TORSDOF 0
