REMARK  4 active torsions:
REMARK  status: ('A' for Active; 'I' for Inactive)
REMARK    1  A    between atoms: C7_7  and  N1_8 
REMARK    2  A    between atoms: N1_8  and  C8_9 
REMARK    3  A    between atoms: C12_15  and  O1_16 
REMARK    4  A    between atoms: C15_19  and  O2_20 
ROOT
HETATM    1  C1  UNL     1      -5.981   2.553  -0.565  1.00  0.00     0.018 C 
HETATM    2  C2  UNL     1      -5.337   1.569  -0.250  1.00  0.00    -0.078 C 
HETATM    3  C3  UNL     1      -4.575   0.387   0.102  1.00  0.00     0.019 A 
HETATM    4  C4  UNL     1      -5.322  -0.658   0.559  1.00  0.00     0.021 A 
HETATM    5  C5  UNL     1      -4.694  -1.827   0.923  1.00  0.00     0.004 A 
HETATM    6  C6  UNL     1      -3.329  -1.861   0.797  1.00  0.00     0.029 A 
HETATM    7  C7  UNL     1      -2.503  -0.839   0.341  1.00  0.00     0.035 A 
HETATM    8  C18 UNL     1      -3.203   0.306  -0.007  1.00  0.00     0.050 A 
ENDROOT
BRANCH   7   9
HETATM    9  N1  UNL     1      -1.089  -0.853   0.189  1.00  0.00    -0.340 N 
HETATM   10  H5  UNL     1      -0.936  -1.843  -0.052  1.00  0.00     0.167 HD
BRANCH   9  11
HETATM   11  C8  UNL     1      -0.289   0.296   0.358  1.00  0.00     0.144 A 
HETATM   12  N2  UNL     1      -0.828   1.462   0.717  1.00  0.00    -0.223 NA
HETATM   13  C9  UNL     1      -0.119   2.584   0.899  1.00  0.00     0.236 A 
HETATM   14  N3  UNL     1       1.209   2.607   0.728  1.00  0.00    -0.241 NA
HETATM   15  C10 UNL     1       1.817   1.467   0.367  1.00  0.00     0.077 A 
HETATM   16  C11 UNL     1       3.180   1.511   0.199  1.00  0.00     0.069 A 
HETATM   17  C17 UNL     1       1.052   0.336   0.190  1.00  0.00     0.072 A 
HETATM   18  C12 UNL     1       3.878   0.382  -0.169  1.00  0.00     0.073 A 
HETATM   19  C14 UNL     1       3.118  -0.764  -0.351  1.00  0.00     0.074 A 
HETATM   20  C15 UNL     1       1.744  -0.794  -0.178  1.00  0.00     0.087 A 
BRANCH  18  21
HETATM   21  O1  UNL     1       5.236   0.360  -0.352  1.00  0.00    -0.356 OA
HETATM   22  C13 UNL     1       6.099   1.440  -0.199  1.00  0.00     0.210 C 
ENDBRANCH  18  21
BRANCH  20  23
HETATM   23  O2  UNL     1       1.161  -1.999  -0.398  1.00  0.00    -0.355 OA
HETATM   24  C16 UNL     1       1.752  -3.204  -0.770  1.00  0.00     0.210 C 
ENDBRANCH  20  23
ENDBRANCH   9  11
ENDBRANCH   7   9
TORSDOF 4
