REMARK  4 active torsions:
REMARK  status: ('A' for Active; 'I' for Inactive)
REMARK    1  A    between atoms: C2_2  and  O1_3 
REMARK    2  A    between atoms: O1_3  and  C3_4 
REMARK    3  A    between atoms: C8_12  and  N4_13 
REMARK    4  A    between atoms: N4_13  and  C9_14 
ROOT
HETATM    1  C3  UNL     1      -1.136   0.965  -0.670  1.00  0.00     0.092 C 
HETATM    2  C4  UNL     1      -1.027   0.290  -1.795  1.00  0.00     0.103 C 
HETATM    3  C5  UNL     1      -0.652  -0.614  -2.849  1.00  0.00     0.124 C 
HETATM    4  N1  UNL     1       0.078  -1.600  -3.368  1.00  0.00    -0.190 NA
HETATM    5  N2  UNL     1       1.045  -2.109  -2.470  1.00  0.00    -0.272 N 
HETATM    6  C6  UNL     1       0.784  -2.576  -1.137  1.00  0.00     0.226 C 
HETATM    7  N3  UNL     1       0.689  -2.365   0.138  1.00  0.00    -0.238 NA
HETATM    8  C7  UNL     1       0.938  -1.041   0.675  1.00  0.00     0.109 C 
HETATM    9  C8  UNL     1       2.284  -0.977   0.748  1.00  0.00     0.123 C 
HETATM   10  C12 UNL     1       0.295   0.200   1.151  1.00  0.00     0.135 C 
HETATM   11  C13 UNL     1      -0.547   1.046   0.651  1.00  0.00     0.134 C 
HETATM   12  O2  UNL     1      -0.999   2.139   1.305  1.00  0.00    -0.344 OA
HETATM   13  C14 UNL     1      -0.779   2.415   2.673  1.00  0.00     0.202 C 
HETATM   14  C15 UNL     1       0.012   1.318   3.347  1.00  0.00     0.202 C 
HETATM   15  O3  UNL     1       0.709   0.509   2.447  1.00  0.00    -0.344 OA
HETATM   16  H8  UNL     1       2.031  -2.133  -2.840  1.00  0.00     0.190 HD
ENDROOT
BRANCH   9  17
HETATM   17  N4  UNL     1       3.135  -2.066   0.343  1.00  0.00    -0.363 N 
HETATM   18  H11 UNL     1       3.103  -2.818  -0.407  1.00  0.00     0.165 HD
BRANCH  17  19
HETATM   19  C9  UNL     1       4.364  -2.358   0.993  1.00  0.00     0.044 A 
HETATM   20  C10 UNL     1       5.070  -2.970   1.970  1.00  0.00     0.005 A 
HETATM   21  C11 UNL     1       5.827  -2.273   1.164  1.00  0.00     0.045 A 
ENDBRANCH  17  19
ENDBRANCH   9  17
BRANCH   1  22
HETATM   22  O1  UNL     1      -2.146   1.637  -1.326  1.00  0.00    -0.352 OA
BRANCH  22  23
HETATM   23  C2  UNL     1      -3.518   1.428  -1.046  1.00  0.00     0.171 C 
HETATM   24  C1  UNL     1      -4.453   2.228  -1.885  1.00  0.00     0.034 C 
ENDBRANCH  22  23
ENDBRANCH   1  22
TORSDOF 4
