REMARK  2 active torsions:
REMARK  status: ('A' for Active; 'I' for Inactive)
REMARK    1  A    between atoms: C2_2  and  O1_3 
REMARK    2  A    between atoms: O1_3  and  C3_4 
ROOT
HETATM    1  C3  UNL     1       2.623  -0.199   0.234  1.00  0.00     0.107 A 
HETATM    2  C4  UNL     1       1.558  -1.067   0.188  1.00  0.00     0.072 A 
HETATM    3  C5  UNL     1       0.323  -0.480   0.058  1.00  0.00     0.075 A 
HETATM    4  C6  UNL     1       0.250   0.889  -0.014  1.00  0.00     0.051 A 
HETATM    5  C7  UNL     1       1.336   1.737   0.035  1.00  0.00     0.119 A 
HETATM    6  C8  UNL     1       2.584   1.171   0.165  1.00  0.00     0.136 A 
HETATM    7  O2  UNL     1       3.748   1.929   0.225  1.00  0.00    -0.344 OA
HETATM    8  C9  UNL     1       3.698   3.350   0.083  1.00  0.00     0.202 C 
HETATM    9  C10 UNL     1       2.365   3.904   0.456  1.00  0.00     0.202 C 
HETATM   10  O3  UNL     1       1.267   3.122  -0.037  1.00  0.00    -0.345 OA
HETATM   11  C11 UNL     1      -0.874   1.557  -0.139  1.00  0.00     0.152 C 
HETATM   12  O4  UNL     1      -2.207   1.889  -0.264  1.00  0.00    -0.349 OA
HETATM   13  C12 UNL     1      -3.218   0.926  -0.027  1.00  0.00     0.174 C 
HETATM   14  C13 UNL     1      -4.513   1.528   0.366  1.00  0.00     0.009 C 
HETATM   15  C14 UNL     1      -5.413   0.655   0.852  1.00  0.00    -0.000 C 
HETATM   16  C15 UNL     1      -5.352  -0.742   0.323  1.00  0.00     0.012 C 
HETATM   17  P1  UNL     1      -4.237  -1.203  -0.810  1.00  0.00    -0.051 P 
HETATM   18  C16 UNL     1      -3.467   0.198  -1.303  1.00  0.00     0.021 C 
HETATM   19  C17 UNL     1      -3.088  -2.592  -0.399  1.00  0.00     0.192 C 
HETATM   20  N1  UNL     1      -1.795  -2.014  -0.170  1.00  0.00    -0.273 N 
HETATM   21  C18 UNL     1      -0.741  -2.628   0.070  1.00  0.00     0.227 A 
HETATM   22  N2  UNL     1      -0.704  -1.219   0.007  1.00  0.00    -0.246 N 
ENDROOT
BRANCH   1  23
HETATM   23  O1  UNL     1       3.882  -0.758   0.364  1.00  0.00    -0.348 OA
BRANCH  23  24
HETATM   24  C2  UNL     1       4.197  -2.108   0.447  1.00  0.00     0.171 C 
HETATM   25  C1  UNL     1       3.803  -2.939  -0.740  1.00  0.00     0.034 C 
ENDBRANCH  23  24
ENDBRANCH   1  23
TORSDOF 2
