REMARK  5 active torsions:
REMARK  status: ('A' for Active; 'I' for Inactive)
REMARK    1  A    between atoms: C3_3  and  C4_4 
REMARK    2  A    between atoms: C5_5  and  N1_6 
REMARK    3  A    between atoms: N1_6  and  C6_7 
REMARK    4  A    between atoms: C10_13  and  O1_14 
REMARK    5  A    between atoms: O1_14  and  C11_15 
ROOT
HETATM    1  C1  UNL     1       7.165  -1.757   1.547  1.00  0.00     0.018 C 
HETATM    2  C2  UNL     1       6.502  -1.134   0.737  1.00  0.00    -0.069 C 
HETATM    3  C3  UNL     1       5.728  -0.395  -0.238  1.00  0.00     0.067 C 
HETATM    4  C18 UNL     1       6.262   0.032  -1.374  1.00  0.00    -0.001 C 
HETATM    5  C19 UNL     1       5.493   0.785  -2.376  1.00  0.00     0.038 C 
ENDROOT
BRANCH   3   6
HETATM    6  C4  UNL     1       4.347  -0.127   0.053  1.00  0.00    -0.035 C 
HETATM    7  C5  UNL     1       3.163   0.094   0.321  1.00  0.00     0.018 C 
BRANCH   7   8
HETATM    8  N1  UNL     1       1.790   0.336   0.610  1.00  0.00    -0.299 N 
HETATM    9  H2  UNL     1       1.841   0.879   1.491  1.00  0.00     0.178 HD
BRANCH   8  10
HETATM   10  C6  UNL     1       0.861  -0.200  -0.323  1.00  0.00     0.151 A 
HETATM   11  N2  UNL     1       1.387  -0.870  -1.366  1.00  0.00    -0.223 NA
HETATM   12  C7  UNL     1       0.605  -1.424  -2.317  1.00  0.00     0.236 A 
HETATM   13  N3  UNL     1      -0.720  -1.304  -2.222  1.00  0.00    -0.241 NA
HETATM   14  C8  UNL     1      -1.324  -0.663  -1.231  1.00  0.00     0.077 A 
HETATM   15  C9  UNL     1      -2.692  -0.555  -1.155  1.00  0.00     0.072 A 
HETATM   16  C15 UNL     1      -0.493  -0.113  -0.282  1.00  0.00     0.076 A 
HETATM   17  C10 UNL     1      -3.241   0.126  -0.097  1.00  0.00     0.107 A 
HETATM   18  C13 UNL     1      -2.416   0.677   0.853  1.00  0.00     0.136 A 
HETATM   19  C14 UNL     1      -1.048   0.560   0.764  1.00  0.00     0.121 A 
HETATM   20  O3  UNL     1      -2.955   1.373   1.937  1.00  0.00    -0.344 OA
HETATM   21  O2  UNL     1      -0.318   1.141   1.756  1.00  0.00    -0.345 OA
HETATM   22  C16 UNL     1      -0.793   1.474   3.028  1.00  0.00     0.202 C 
HETATM   23  C17 UNL     1      -2.266   1.304   3.194  1.00  0.00     0.202 C 
BRANCH  17  24
HETATM   24  O1  UNL     1      -4.605   0.244  -0.005  1.00  0.00    -0.348 OA
BRANCH  24  25
HETATM   25  C11 UNL     1      -5.489  -0.300  -0.949  1.00  0.00     0.171 C 
HETATM   26  C12 UNL     1      -6.905   0.029  -0.521  1.00  0.00     0.034 C 
ENDBRANCH  24  25
ENDBRANCH  17  24
ENDBRANCH   8  10
ENDBRANCH   7   8
ENDBRANCH   3   6
TORSDOF 5
