REMARK  5 active torsions:
REMARK  status: ('A' for Active; 'I' for Inactive)
REMARK    1  A    between atoms: O1_2  and  C2_3 
REMARK    2  A    between atoms: C4_5  and  N1_6 
REMARK    3  A    between atoms: N1_6  and  C5_7 
REMARK    4  A    between atoms: C9_13  and  O2_14 
REMARK    5  A    between atoms: O2_14  and  S1_15 
ROOT
HETATM    1  C5  UNL     1      -0.012  -0.239   0.846  1.00  0.00     0.144 A 
HETATM    2  N2  UNL     1      -0.883  -0.438   1.838  1.00  0.00    -0.223 NA
HETATM    3  C6  UNL     1      -0.406  -0.477   3.116  1.00  0.00     0.236 A 
HETATM    4  N3  UNL     1       0.898  -0.320   3.368  1.00  0.00    -0.241 NA
HETATM    5  C7  UNL     1       1.794  -0.121   2.407  1.00  0.00     0.077 A 
HETATM    6  C8  UNL     1       3.133   0.038   2.688  1.00  0.00     0.073 A 
HETATM    7  C9  UNL     1       4.001   0.243   1.620  1.00  0.00     0.123 A 
HETATM    8  C11 UNL     1       3.545   0.288   0.299  1.00  0.00     0.138 A 
HETATM    9  C12 UNL     1       2.191   0.120   0.098  1.00  0.00     0.121 A 
HETATM   10  C13 UNL     1       1.311  -0.082   1.120  1.00  0.00     0.075 A 
HETATM   11  O3  UNL     1       1.793   0.174  -1.227  1.00  0.00    -0.345 OA
HETATM   12  C14 UNL     1       2.746  -0.093  -2.232  1.00  0.00     0.202 C 
HETATM   13  C15 UNL     1       3.997   0.752  -2.016  1.00  0.00     0.202 C 
HETATM   14  O4  UNL     1       4.502   0.499  -0.698  1.00  0.00    -0.344 OA
ENDROOT
BRANCH   1  15
HETATM   15  N1  UNL     1      -0.569  -0.209  -0.459  1.00  0.00    -0.340 N 
HETATM   16  H5  UNL     1      -0.447  -0.111  -1.465  1.00  0.00     0.167 HD
BRANCH  15  17
HETATM   17  C4  UNL     1      -1.997  -0.391  -0.581  1.00  0.00     0.036 A 
HETATM   18  C3  UNL     1      -2.825   0.789  -0.497  1.00  0.00     0.066 A 
HETATM   19  C2  UNL     1      -4.126   0.863  -0.572  1.00  0.00     0.069 A 
HETATM   20  P1  UNL     1      -5.020  -0.649  -0.807  1.00  0.00    -0.077 P 
HETATM   21  C17 UNL     1      -3.955  -1.852  -0.880  1.00  0.00     0.008 A 
HETATM   22  C18 UNL     1      -6.002  -0.579  -2.334  1.00  0.00     0.047 C 
HETATM   23  H17 UNL     1      -5.965  -0.858   0.242  1.00  0.00     0.063 HD
HETATM   24  C16 UNL     1      -2.533  -1.571  -0.754  1.00  0.00     0.030 A 
BRANCH  19  25
HETATM   25  O1  UNL     1      -4.973   1.929  -0.502  1.00  0.00    -0.356 OA
HETATM   26  C1  UNL     1      -5.733   2.175   0.673  1.00  0.00     0.210 C 
ENDBRANCH  19  25
ENDBRANCH  15  17
ENDBRANCH   1  15
BRANCH   7  27
HETATM   27  O2  UNL     1       5.347   0.402   1.909  1.00  0.00    -0.277 OA
BRANCH  27  28
HETATM   28  S1  UNL     1       6.414  -0.969   1.975  1.00  0.00    -0.009 SA
HETATM   29  C10 UNL     1       7.832  -0.610   0.897  1.00  0.00     0.123 C 
ENDBRANCH  27  28
ENDBRANCH   7  27
TORSDOF 5
