REMARK  6 active torsions:
REMARK  status: ('A' for Active; 'I' for Inactive)
REMARK    1  A    between atoms: C6_6  and  N1_7 
REMARK    2  A    between atoms: C10_11  and  C11_12 
REMARK    3  A    between atoms: C11_12  and  C12_13 
REMARK    4  A    between atoms: C12_13  and  C13_14 
REMARK    5  A    between atoms: C14_16  and  O2_17 
REMARK    6  A    between atoms: O2_17  and  C15_18 
ROOT
HETATM    1  C1  UNL     1       7.746   1.746   0.663  1.00  0.00     0.018 C 
HETATM    2  C2  UNL     1       6.898   0.911   0.477  1.00  0.00    -0.078 C 
HETATM    3  C3  UNL     1       5.877  -0.090   0.248  1.00  0.00     0.015 A 
HETATM    4  C4  UNL     1       6.045  -1.401   0.213  1.00  0.00    -0.000 A 
HETATM    5  C5  UNL     1       4.763  -2.106  -0.050  1.00  0.00     0.087 A 
HETATM    6  C6  UNL     1       3.792  -0.967  -0.163  1.00  0.00     0.035 A 
HETATM    7  C19 UNL     1       4.465   0.180   0.012  1.00  0.00     0.047 A 
ENDROOT
BRANCH   6   8
HETATM    8  N1  UNL     1       2.376  -1.094  -0.418  1.00  0.00    -0.278 N 
HETATM    9  C7  UNL     1       1.655   0.035  -0.978  1.00  0.00     0.191 C 
HETATM   10  C8  UNL     1       0.263   0.039  -0.471  1.00  0.00    -0.009 A 
HETATM   11  C9  UNL     1      -0.506   1.169  -0.607  1.00  0.00     0.021 A 
HETATM   12  C18 UNL     1      -0.304  -1.060   0.140  1.00  0.00     0.060 A 
HETATM   13  C10 UNL     1      -1.819   1.235  -0.153  1.00  0.00    -0.024 A 
HETATM   14  C14 UNL     1      -2.324   0.088   0.453  1.00  0.00     0.077 A 
HETATM   15  C17 UNL     1      -1.595  -1.075   0.615  1.00  0.00     0.069 A 
HETATM   16  N2  UNL     1       0.465  -2.229   0.294  1.00  0.00    -0.286 N 
HETATM   17  N3  UNL     1       1.783  -2.300  -0.110  1.00  0.00    -0.240 N 
HETATM   18  H19 UNL     1       0.056  -3.086   0.727  1.00  0.00     0.188 HD
HETATM   19  H20 UNL     1       2.011  -3.066  -0.768  1.00  0.00     0.208 HD
BRANCH  13  20
HETATM   20  C11 UNL     1      -2.555   2.492  -0.381  1.00  0.00     0.048 C 
BRANCH  20  21
HETATM   21  C12 UNL     1      -3.448   2.429  -1.587  1.00  0.00     0.074 C 
BRANCH  21  22
HETATM   22  C13 UNL     1      -4.466   1.352  -1.495  1.00  0.00     0.231 C 
HETATM   23  O1  UNL     1      -5.578   1.599  -1.041  1.00  0.00    -0.307 OA
ENDBRANCH  21  22
ENDBRANCH  20  21
ENDBRANCH  13  20
BRANCH  14  24
HETATM   24  O2  UNL     1      -3.617   0.173   0.896  1.00  0.00    -0.351 OA
BRANCH  24  25
HETATM   25  C15 UNL     1      -4.345  -0.844   1.534  1.00  0.00     0.171 C 
HETATM   26  C16 UNL     1      -5.751  -0.399   1.900  1.00  0.00     0.034 C 
ENDBRANCH  24  25
ENDBRANCH  14  24
ENDBRANCH   6   8
TORSDOF 6
