REMARK  5 active torsions:
REMARK  status: ('A' for Active; 'I' for Inactive)
REMARK    1  A    between atoms: C4_4  and  C7_7 
REMARK    2  A    between atoms: C8_8  and  N1_9 
REMARK    3  A    between atoms: N1_9  and  C9_10 
REMARK    4  A    between atoms: N2_21  and  O3_22 
REMARK    5  A    between atoms: O3_22  and  C18_23 
ROOT
HETATM    1  C1  UNL     1       5.552   0.742  -1.619  1.00  0.00     0.017 C 
HETATM    2  C2  UNL     1       5.475   0.469  -0.446  1.00  0.00    -0.088 C 
HETATM    3  C3  UNL     1       5.397   0.144   0.949  1.00  0.00     0.084 C 
HETATM    4  C4  UNL     1       4.257   0.074   1.598  1.00  0.00     0.026 C 
HETATM    5  C5  UNL     1       4.212  -0.257   3.005  1.00  0.00    -0.077 C 
HETATM    6  C6  UNL     1       4.177  -0.526   4.178  1.00  0.00     0.018 C 
ENDROOT
BRANCH   4   7
HETATM    7  C7  UNL     1       3.015   0.331   0.897  1.00  0.00     0.038 C 
HETATM    8  C8  UNL     1       1.826   0.280   1.477  1.00  0.00     0.086 C 
BRANCH   8   9
HETATM    9  N1  UNL     1       0.565   0.521   0.846  1.00  0.00    -0.372 N 
HETATM   10  H6  UNL     1       0.053   1.308   1.324  1.00  0.00     0.161 HD
BRANCH   9  11
HETATM   11  C9  UNL     1      -0.035  -0.137  -0.280  1.00  0.00     0.251 A 
HETATM   12  C10 UNL     1      -1.370   0.410  -0.638  1.00  0.00     0.051 A 
HETATM   13  C11 UNL     1      -2.053  -0.760  -0.361  1.00  0.00     0.073 A 
HETATM   14  C15 UNL     1      -2.022   1.560  -1.094  1.00  0.00     0.114 A 
HETATM   15  C12 UNL     1      -3.420  -0.727  -0.560  1.00  0.00     0.035 A 
HETATM   16  N2  UNL     1      -0.800  -1.337  -0.004  1.00  0.00    -0.230 N 
HETATM   17  C13 UNL     1      -4.078   0.403  -1.010  1.00  0.00     0.042 A 
HETATM   18  C14 UNL     1      -3.389   1.568  -1.285  1.00  0.00     0.102 A 
HETATM   19  O2  UNL     1      -4.068   2.682  -1.733  1.00  0.00    -0.346 OA
HETATM   20  C17 UNL     1      -3.285   3.752  -2.265  1.00  0.00     0.202 C 
HETATM   21  C16 UNL     1      -2.109   3.967  -1.336  1.00  0.00     0.202 C 
HETATM   22  O1  UNL     1      -1.357   2.746  -1.379  1.00  0.00    -0.345 OA
BRANCH  16  23
HETATM   23  O3  UNL     1      -0.436  -2.564   0.436  1.00  0.00    -0.276 OA
BRANCH  23  24
HETATM   24  C18 UNL     1      -1.350  -3.549   0.150  1.00  0.00     0.197 C 
HETATM   25  C19 UNL     1      -0.775  -4.846   0.714  1.00  0.00     0.036 C 
ENDBRANCH  23  24
ENDBRANCH  16  23
ENDBRANCH   9  11
ENDBRANCH   8   9
ENDBRANCH   4   7
TORSDOF 5
