REMARK  3 active torsions:
REMARK  status: ('A' for Active; 'I' for Inactive)
REMARK    1  A    between atoms: N1_7  and  C7_8 
REMARK    2  A    between atoms: C11_14  and  O1_15 
REMARK    3  A    between atoms: O1_15  and  C12_16 
ROOT
HETATM    1  C1  UNL     1      -6.404  -0.398   1.277  1.00  0.00     0.012 C 
HETATM    2  C2  UNL     1      -5.420  -0.633   0.614  1.00  0.00    -0.107 C 
HETATM    3  C3  UNL     1      -4.228  -0.902  -0.210  1.00  0.00     0.104 C 
HETATM    4  C4  UNL     1      -4.433  -0.275  -1.536  1.00  0.00    -0.010 C 
HETATM    5  C5  UNL     1      -3.609   0.646  -2.045  1.00  0.00    -0.010 C 
HETATM    6  C6  UNL     1      -2.398   1.094  -1.258  1.00  0.00     0.151 C 
HETATM    7  N1  UNL     1      -1.946  -0.049  -0.492  1.00  0.00    -0.360 N 
HETATM    8  C19 UNL     1      -2.987  -0.426   0.477  1.00  0.00     0.146 C 
ENDROOT
BRANCH   7   9
HETATM    9  C7  UNL     1      -0.797  -0.899  -0.421  1.00  0.00     0.142 A 
HETATM   10  N2  UNL     1      -1.135  -2.142  -0.801  1.00  0.00    -0.224 NA
HETATM   11  C8  UNL     1      -0.179  -3.119  -0.825  1.00  0.00     0.236 A 
HETATM   12  N3  UNL     1       1.107  -2.844  -0.469  1.00  0.00    -0.241 NA
HETATM   13  C9  UNL     1       1.468  -1.609  -0.085  1.00  0.00     0.077 A 
HETATM   14  C10 UNL     1       2.739  -1.233   0.296  1.00  0.00     0.072 A 
HETATM   15  C16 UNL     1       0.506  -0.632  -0.062  1.00  0.00     0.075 A 
HETATM   16  C11 UNL     1       3.016   0.067   0.680  1.00  0.00     0.107 A 
HETATM   17  C14 UNL     1       2.001   1.029   0.688  1.00  0.00     0.136 A 
HETATM   18  C15 UNL     1       0.719   0.677   0.310  1.00  0.00     0.121 A 
HETATM   19  O3  UNL     1       2.235   2.357   1.070  1.00  0.00    -0.344 OA
HETATM   20  O2  UNL     1      -0.251   1.631   0.328  1.00  0.00    -0.345 OA
HETATM   21  C17 UNL     1      -0.065   3.003   0.583  1.00  0.00     0.202 C 
HETATM   22  C18 UNL     1       1.369   3.403   0.655  1.00  0.00     0.202 C 
BRANCH  16  23
HETATM   23  O1  UNL     1       4.255   0.494   1.066  1.00  0.00    -0.348 OA
BRANCH  23  24
HETATM   24  C12 UNL     1       5.427  -0.283   1.139  1.00  0.00     0.171 C 
HETATM   25  C13 UNL     1       5.742  -0.831  -0.218  1.00  0.00     0.034 C 
ENDBRANCH  23  24
ENDBRANCH  16  23
ENDBRANCH   7   9
TORSDOF 3
