REMARK  3 active torsions:
REMARK  status: ('A' for Active; 'I' for Inactive)
REMARK    1  A    between atoms: C3_3  and  C4_4 
REMARK    2  A    between atoms: C5_5  and  N1_6 
REMARK    3  A    between atoms: N1_6  and  C6_7 
ROOT
HETATM    1  C6  UNL     1      -0.258  -1.301   0.695  1.00  0.00     0.157 A 
HETATM    2  C7  UNL     1      -0.356  -2.152  -0.501  1.00  0.00     0.120 A 
HETATM    3  N2  UNL     1      -1.327  -1.839  -1.246  1.00  0.00    -0.262 NA
HETATM    4  C8  UNL     1      -2.099  -0.724  -0.738  1.00  0.00     0.064 A 
HETATM    5  C9  UNL     1      -3.078  -0.477  -1.566  1.00  0.00     0.032 A 
HETATM    6  C10 UNL     1      -4.190   0.397  -1.766  1.00  0.00     0.000 A 
HETATM    7  C11 UNL     1      -4.950   1.396  -1.391  1.00  0.00    -0.001 A 
HETATM    8  C12 UNL     1      -4.410   1.924  -0.090  1.00  0.00     0.195 A 
HETATM    9  O1  UNL     1      -3.317   1.106   0.156  1.00  0.00    -0.384 OA
HETATM   10  C13 UNL     1      -2.640   1.376   1.313  1.00  0.00     0.196 A 
HETATM   11  C14 UNL     1      -1.493   0.449   1.482  1.00  0.00     0.011 A 
HETATM   12  C15 UNL     1      -1.408  -0.402   0.485  1.00  0.00    -0.004 A 
ENDROOT
BRANCH   1  13
HETATM   13  N1  UNL     1       0.997  -0.588   0.770  1.00  0.00    -0.386 N 
HETATM   14  H3  UNL     1       0.882   0.468   0.858  1.00  0.00     0.160 HD
BRANCH  13  15
HETATM   15  C5  UNL     1       2.387  -0.860   0.767  1.00  0.00     0.081 C 
HETATM   16  C4  UNL     1       3.165  -0.195  -0.113  1.00  0.00     0.006 C 
BRANCH  16  17
HETATM   17  C3  UNL     1       4.257  -0.947   0.461  1.00  0.00     0.030 A 
HETATM   18  C2  UNL     1       5.228  -0.910   0.205  1.00  0.00    -0.053 A 
HETATM   19  C1  UNL     1       5.988  -0.867  -0.010  1.00  0.00    -0.066 A 
HETATM   20  C16 UNL     1       5.184   0.060  -0.819  1.00  0.00     0.055 A 
HETATM   21  C17 UNL     1       7.030  -0.788  -0.327  1.00  0.00     0.049 A 
ENDBRANCH  16  17
ENDBRANCH  13  15
ENDBRANCH   1  13
TORSDOF 3
