REMARK  3 active torsions:
REMARK  status: ('A' for Active; 'I' for Inactive)
REMARK    1  A    between atoms: C7_7  and  O1_8 
REMARK    2  A    between atoms: C8_9  and  N1_10 
REMARK    3  A    between atoms: C15_17  and  N2_18 
ROOT
HETATM    1  C1  UNL     1      -3.075  -2.153   1.483  1.00  0.00     0.034 C 
HETATM    2  C2  UNL     1      -2.369  -1.098   0.664  1.00  0.00     0.106 C 
HETATM    3  C3  UNL     1      -3.359  -0.624  -0.386  1.00  0.00     0.054 C 
HETATM    4  C4  UNL     1      -2.550  -0.199  -1.556  1.00  0.00    -0.024 C 
HETATM    5  C5  UNL     1      -1.437   0.452  -1.764  1.00  0.00     0.007 C 
HETATM    6  C6  UNL     1      -0.440   1.083  -0.904  1.00  0.00    -0.009 C 
HETATM    7  C7  UNL     1       0.279   1.919  -1.652  1.00  0.00     0.140 C 
HETATM    8  C8  UNL     1       0.012   1.114   0.467  1.00  0.00     0.165 C 
HETATM    9  C16 UNL     1      -1.021   0.811   1.487  1.00  0.00     0.114 C 
HETATM   10  N3  UNL     1      -1.953  -0.078   1.531  1.00  0.00    -0.298 NA
ENDROOT
BRANCH   8  11
HETATM   11  N1  UNL     1       1.242   0.406   0.696  1.00  0.00    -0.333 N 
HETATM   12  C9  UNL     1       1.602   0.585   2.093  1.00  0.00     0.106 C 
HETATM   13  C10 UNL     1       2.734   0.506   2.782  1.00  0.00     0.004 C 
HETATM   14  C11 UNL     1       3.847   0.685   2.213  1.00  0.00    -0.001 C 
HETATM   15  C12 UNL     1       4.564  -0.139   1.593  1.00  0.00    -0.013 C 
HETATM   16  C13 UNL     1       4.418  -0.435   0.312  1.00  0.00     0.016 C 
HETATM   17  C14 UNL     1       3.201  -0.678  -0.483  1.00  0.00     0.043 C 
HETATM   18  C15 UNL     1       1.940  -0.327  -0.301  1.00  0.00     0.080 C 
BRANCH  18  19
HETATM   19  N2  UNL     1       0.984  -0.730  -1.263  1.00  0.00    -0.288 NA
HETATM   20  H15 UNL     1       1.164  -0.900  -2.273  1.00  0.00     0.125 HD
HETATM   21  H16 UNL     1       1.357  -0.851  -2.236  1.00  0.00     0.125 HD
ENDBRANCH  18  19
ENDBRANCH   8  11
BRANCH   7  22
HETATM   22  O1  UNL     1       1.337   2.760  -1.349  1.00  0.00    -0.372 OA
HETATM   23  H10 UNL     1       1.825   2.827  -0.486  1.00  0.00     0.216 HD
ENDBRANCH   7  22
TORSDOF 3
