REMARK  3 active torsions:
REMARK  status: ('A' for Active; 'I' for Inactive)
REMARK    1  A    between atoms: C4_5  and  N1_6 
REMARK    2  A    between atoms: N1_6  and  C5_7 
REMARK    3  A    between atoms: C12_17  and  S1_18 
ROOT
HETATM    1  C5  UNL     1      -1.230  -0.593  -0.339  1.00  0.00     0.160 A 
HETATM    2  N2  UNL     1      -1.837  -1.691  -0.801  1.00  0.00    -0.222 NA
HETATM    3  C6  UNL     1      -1.128  -2.682  -1.355  1.00  0.00     0.238 A 
HETATM    4  N3  UNL     1       0.223  -2.688  -1.502  1.00  0.00    -0.215 NA
HETATM    5  C7  UNL     1       0.875  -1.584  -1.042  1.00  0.00     0.202 A 
HETATM    6  C8  UNL     1       0.119  -0.552  -0.464  1.00  0.00     0.129 A 
HETATM    7  N4  UNL     1       0.673   0.672   0.050  1.00  0.00    -0.379 N 
HETATM    8  C9  UNL     1       1.944   0.865   0.736  1.00  0.00     0.161 C 
HETATM    9  C10 UNL     1       3.074   0.188   0.097  1.00  0.00    -0.005 A 
HETATM   10  C11 UNL     1       4.248   0.851   0.472  1.00  0.00     0.029 A 
HETATM   11  C12 UNL     1       5.479   0.429   0.018  1.00  0.00    -0.002 A 
HETATM   12  C13 UNL     1       5.603  -0.659  -0.821  1.00  0.00     0.021 A 
HETATM   13  C14 UNL     1       4.448  -1.340  -1.212  1.00  0.00     0.039 A 
HETATM   14  C15 UNL     1       3.237  -0.882  -0.732  1.00  0.00     0.086 A 
HETATM   15  O1  UNL     1       2.258  -1.699  -1.245  1.00  0.00    -0.289 OA
HETATM   16  H5  UNL     1      -0.025   1.452  -0.163  1.00  0.00     0.160 HD
ENDROOT
BRANCH   1  17
HETATM   17  N1  UNL     1      -1.983   0.451   0.251  1.00  0.00    -0.339 N 
HETATM   18  H3  UNL     1      -1.713   1.362   0.670  1.00  0.00     0.167 HD
BRANCH  17  19
HETATM   19  C4  UNL     1      -3.391   0.436   0.414  1.00  0.00     0.035 A 
HETATM   20  C3  UNL     1      -4.060  -0.757   0.571  1.00  0.00     0.032 A 
HETATM   21  C2  UNL     1      -5.416  -0.837   0.709  1.00  0.00     0.046 A 
HETATM   22  C1  UNL     1      -6.213   0.294   0.699  1.00  0.00     0.138 A 
HETATM   23  F1  UNL     1      -7.558   0.261   0.832  1.00  0.00    -0.204 F 
HETATM   24  C17 UNL     1      -5.606   1.504   0.546  1.00  0.00     0.074 A 
HETATM   25  C16 UNL     1      -4.254   1.530   0.413  1.00  0.00     0.056 A 
HETATM   26 CL1  UNL     1      -6.532   2.984   0.522  1.00  0.00    -0.081 Cl
ENDBRANCH  17  19
ENDBRANCH   1  17
BRANCH  11  27
HETATM   27  S1  UNL     1       6.996   1.241   0.468  1.00  0.00    -0.143 SA
HETATM   28  H9  UNL     1       7.516   0.679   1.648  1.00  0.00     0.107 HD
ENDBRANCH  11  27
TORSDOF 3
