REMARK  7 active torsions:
REMARK  status: ('A' for Active; 'I' for Inactive)
REMARK    1  A    between atoms: C2_2  and  O1_3 
REMARK    2  A    between atoms: O1_3  and  C3_4 
REMARK    3  A    between atoms: C6_9  and  C7_10 
REMARK    4  A    between atoms: C7_10  and  C8_11 
REMARK    5  A    between atoms: C8_11  and  C9_12 
REMARK    6  A    between atoms: C9_12  and  B1_13 
REMARK    7  A    between atoms: B1_13  and  C10_14 
ROOT
HETATM    1  C3  UNL     1       1.749   1.159  -0.742  1.00  0.00     0.201 C 
HETATM    2  C4  UNL     1       0.967   2.288  -0.254  1.00  0.00     0.126 C 
HETATM    3  N1  UNL     1      -0.278   2.700  -0.111  1.00  0.00    -0.256 NA
HETATM    4  C5  UNL     1      -1.451   1.938  -0.504  1.00  0.00     0.232 C 
HETATM    5  N2  UNL     1      -1.809   0.673  -0.548  1.00  0.00    -0.246 NA
HETATM    6  C6  UNL     1      -1.090  -0.518  -0.184  1.00  0.00     0.042 C 
HETATM    7  C11 UNL     1       0.204  -0.761  -0.094  1.00  0.00    -0.024 C 
HETATM    8  C12 UNL     1       0.220  -2.197   0.333  1.00  0.00     0.041 C 
HETATM    9  C13 UNL     1       1.713  -2.606   0.351  1.00  0.00     0.031 C 
HETATM   10  C14 UNL     1       2.559  -1.661   1.125  1.00  0.00     0.169 C 
HETATM   11  O2  UNL     1       2.162  -0.331   1.001  1.00  0.00    -0.378 OA
HETATM   12  C15 UNL     1       1.513  -0.181  -0.250  1.00  0.00     0.187 C 
ENDROOT
BRANCH   6  13
HETATM   13  C7  UNL     1      -2.142  -1.488   0.093  1.00  0.00     0.075 C 
BRANCH  13  14
HETATM   14  C8  UNL     1      -3.072  -0.980   1.188  1.00  0.00     0.056 C 
BRANCH  14  15
HETATM   15  C9  UNL     1      -3.970  -0.060   1.053  1.00  0.00    -0.240 C 
BRANCH  15  16
HETATM   16  B1  UNL     1      -5.088   1.122   0.428  1.00  0.00     0.265 B 
BRANCH  16  17
HETATM   17  C10 UNL     1      -6.181   2.411  -0.030  1.00  0.00     0.173 C 
HETATM   18  F1  UNL     1      -6.424   3.292   1.017  1.00  0.00    -0.265 F 
ENDBRANCH  16  17
ENDBRANCH  15  16
ENDBRANCH  14  15
ENDBRANCH  13  14
ENDBRANCH   6  13
BRANCH   1  19
HETATM   19  O1  UNL     1       3.134   1.475  -0.517  1.00  0.00    -0.350 OA
BRANCH  19  20
HETATM   20  C2  UNL     1       4.152   0.619  -0.864  1.00  0.00     0.125 C 
HETATM   21  C1  UNL     1       5.050   0.950   0.057  1.00  0.00     0.037 C 
ENDBRANCH  19  20
ENDBRANCH   1  19
TORSDOF 7
