REMARK  0 active torsions:
REMARK  status: ('A' for Active; 'I' for Inactive)
ROOT
HETATM    1  C1  UNL     1       4.855   2.667  -1.372  1.00  0.00     0.017 C 
HETATM    2  C2  UNL     1       3.836   2.060  -0.937  1.00  0.00    -0.082 C 
HETATM    3  C3  UNL     1       2.618   1.303  -0.413  1.00  0.00    -0.000 C 
HETATM    4  C4  UNL     1       1.656   2.251  -0.355  1.00  0.00     0.016 C 
HETATM    5  C5  UNL     1       0.320   2.715  -0.078  1.00  0.00    -0.002 C 
HETATM    6  C6  UNL     1      -0.969   2.758   0.287  1.00  0.00    -0.022 C 
HETATM    7  C7  UNL     1      -1.995   1.872   0.804  1.00  0.00     0.010 C 
HETATM    8  C8  UNL     1      -3.270   1.762   0.013  1.00  0.00     0.034 C 
HETATM    9  C9  UNL     1      -3.972   0.437   0.413  1.00  0.00     0.169 C 
HETATM   10  O1  UNL     1      -3.463  -0.693   0.017  1.00  0.00    -0.382 OA
HETATM   11  C10 UNL     1      -2.963  -1.822  -0.372  1.00  0.00     0.162 C 
HETATM   12  C11 UNL     1      -1.835  -2.509  -0.358  1.00  0.00     0.021 A 
HETATM   13  C12 UNL     1      -0.475  -2.971  -0.163  1.00  0.00     0.057 A 
HETATM   14  C13 UNL     1       0.802  -2.949   0.250  1.00  0.00     0.025 C 
HETATM   15  C14 UNL     1       1.566  -1.961   0.993  1.00  0.00     0.110 C 
HETATM   16  C15 UNL     1       2.576  -1.242   0.169  1.00  0.00     0.024 C 
HETATM   17  N1  UNL     1       3.226  -2.261  -0.348  1.00  0.00    -0.250 NA
HETATM   18  C16 UNL     1       2.828  -3.605  -0.504  1.00  0.00     0.232 C 
HETATM   19  N2  UNL     1       1.623  -4.011  -0.099  1.00  0.00    -0.250 NA
HETATM   20  C17 UNL     1       3.196   0.001  -0.285  1.00  0.00     0.103 C 
HETATM   21  O2  UNL     1      -1.085  -1.583   0.331  1.00  0.00     0.000 OA
HETATM   22  C18 UNL     1      -1.112  -0.238  -0.169  1.00  0.00     0.001 C 
HETATM   23  C19 UNL     1      -1.543   0.504   1.059  1.00  0.00     0.008 C 
ENDROOT
TORSDOF 0
