REMARK  10 active torsions:
REMARK  status: ('A' for Active; 'I' for Inactive)
REMARK    1  A    between atoms: C2_2  and  O1_3 
REMARK    2  A    between atoms: O1_3  and  C3_4 
REMARK    3  A    between atoms: C3_4  and  C4_5 
REMARK    4  A    between atoms: C3_4  and  C7_11 
REMARK    5  A    between atoms: C4_5  and  O2_6 
REMARK    6  A    between atoms: O2_6  and  C5_7 
REMARK    7  A    between atoms: C5_7  and  C6_8 
REMARK    8  A    between atoms: C6_8  and  O3_9 
REMARK    9  A    between atoms: C9_13  and  N1_14 
REMARK   10  A    between atoms: N1_14  and  C10_15 
ROOT
HETATM    1  C7  UNL     1      -0.202  -0.172  -1.048  1.00  0.00     0.091 A 
HETATM    2  C8  UNL     1       0.940  -1.043  -1.426  1.00  0.00     0.012 A 
HETATM    3  C9  UNL     1       1.035  -0.233  -0.333  1.00  0.00     0.017 A 
ENDROOT
BRANCH   1   4
HETATM    4  C3  UNL     1      -1.419  -0.980  -0.578  1.00  0.00     0.158 C 
BRANCH   4   5
HETATM    5  O1  UNL     1      -1.102  -1.732   0.511  1.00  0.00    -0.383 OA
BRANCH   5   6
HETATM    6  C2  UNL     1      -1.221  -3.094   0.398  1.00  0.00     0.163 C 
HETATM    7  C1  UNL     1      -2.578  -3.609   0.081  1.00  0.00     0.033 C 
ENDBRANCH   5   6
ENDBRANCH   4   5
BRANCH   4   8
HETATM    8  C4  UNL     1      -2.591  -0.068  -0.264  1.00  0.00     0.200 C 
BRANCH   8   9
HETATM    9  O2  UNL     1      -2.261   0.769   0.774  1.00  0.00    -0.386 OA
BRANCH   9  10
HETATM   10  C5  UNL     1      -3.264   1.641   1.138  1.00  0.00     0.195 C 
BRANCH  10  11
HETATM   11  C6  UNL     1      -3.700   2.564   0.034  1.00  0.00     0.211 C 
BRANCH  11  12
HETATM   12  O3  UNL     1      -4.723   3.387   0.559  1.00  0.00    -0.311 OA
HETATM   13 BR1  UNL     1      -5.404   4.516  -0.746  1.00  0.00     0.099 Br
ENDBRANCH  11  12
ENDBRANCH  10  11
ENDBRANCH   9  10
ENDBRANCH   8   9
ENDBRANCH   4   8
ENDBRANCH   1   4
BRANCH   3  14
HETATM   14  N1  UNL     1       2.089  -0.015   0.621  1.00  0.00    -0.359 N 
HETATM   15  H15 UNL     1       1.971  -0.214   1.638  1.00  0.00     0.166 HD
BRANCH  14  16
HETATM   16  C10 UNL     1       3.385   0.481   0.346  1.00  0.00     0.034 A 
HETATM   17  C11 UNL     1       4.319  -0.488   0.008  1.00  0.00     0.032 A 
HETATM   18  C12 UNL     1       5.616  -0.058  -0.272  1.00  0.00     0.046 A 
HETATM   19  C13 UNL     1       5.925   1.281  -0.206  1.00  0.00     0.138 A 
HETATM   20  F1  UNL     1       7.214   1.611  -0.493  1.00  0.00    -0.204 F 
HETATM   21  C14 UNL     1       4.979   2.234   0.135  1.00  0.00     0.074 A 
HETATM   22 CL1  UNL     1       5.430   3.937   0.206  1.00  0.00    -0.081 Cl
HETATM   23  C15 UNL     1       3.686   1.837   0.417  1.00  0.00     0.056 A 
ENDBRANCH  14  16
ENDBRANCH   3  14
TORSDOF 10
