REMARK  3 active torsions:
REMARK  status: ('A' for Active; 'I' for Inactive)
REMARK    1  A    between atoms: C2_2  and  O1_3 
REMARK    2  A    between atoms: O1_3  and  C3_4 
REMARK    3  A    between atoms: C7_10  and  N3_11 
ROOT
HETATM    1  C3  UNL     1      -2.907   0.219   0.236  1.00  0.00     0.107 A 
HETATM    2  C4  UNL     1      -2.371   1.445   0.557  1.00  0.00     0.072 A 
HETATM    3  C5  UNL     1      -1.018   1.736   0.476  1.00  0.00     0.077 A 
HETATM    4  N1  UNL     1      -0.487   2.930   0.784  1.00  0.00    -0.241 NA
HETATM    5  C6  UNL     1       0.864   3.056   0.648  1.00  0.00     0.236 A 
HETATM    6  N2  UNL     1       1.665   2.036   0.222  1.00  0.00    -0.223 NA
HETATM    7  C7  UNL     1       1.111   0.827  -0.088  1.00  0.00     0.150 A 
HETATM    8  C14 UNL     1      -0.252   0.678   0.041  1.00  0.00     0.075 A 
HETATM    9  C15 UNL     1      -0.690  -0.566  -0.299  1.00  0.00     0.121 A 
HETATM   10  C16 UNL     1      -2.053  -0.795  -0.196  1.00  0.00     0.136 A 
HETATM   11  O2  UNL     1      -2.557  -2.065  -0.535  1.00  0.00    -0.344 OA
HETATM   12  C17 UNL     1      -1.693  -3.173  -0.696  1.00  0.00     0.202 C 
HETATM   13  C18 UNL     1      -0.360  -2.795  -1.266  1.00  0.00     0.202 C 
HETATM   14  O3  UNL     1       0.139  -1.585  -0.731  1.00  0.00    -0.345 OA
ENDROOT
BRANCH   7  15
HETATM   15  N3  UNL     1       2.140  -0.070  -0.503  1.00  0.00    -0.285 N 
HETATM   16  C8  UNL     1       2.323  -0.172  -1.916  1.00  0.00     0.131 C 
HETATM   17  C9  UNL     1       3.427  -0.465  -2.555  1.00  0.00     0.102 C 
HETATM   18  N4  UNL     1       4.567  -0.146  -2.122  1.00  0.00    -0.257 NA
HETATM   19  C10 UNL     1       4.942  -0.007  -0.735  1.00  0.00     0.126 C 
HETATM   20  C11 UNL     1       4.367  -0.256   0.431  1.00  0.00     0.010 C 
HETATM   21  C12 UNL     1       5.092   0.028   1.697  1.00  0.00     0.052 C 
HETATM   22  C13 UNL     1       2.980  -0.826   0.409  1.00  0.00     0.287 C 
HETATM   23  F1  UNL     1       2.512  -0.782   1.701  1.00  0.00    -0.195 F 
HETATM   24 CL1  UNL     1       3.192  -2.527  -0.057  1.00  0.00    -0.054 Cl
ENDBRANCH   7  15
BRANCH   1  25
HETATM   25  O1  UNL     1      -4.237  -0.085   0.310  1.00  0.00    -0.348 OA
BRANCH  25  26
HETATM   26  C2  UNL     1      -5.284   0.743   0.708  1.00  0.00     0.171 C 
HETATM   27  C1  UNL     1      -5.352   1.938  -0.200  1.00  0.00     0.034 C 
ENDBRANCH  25  26
ENDBRANCH   1  25
TORSDOF 3
