REMARK  5 active torsions:
REMARK  status: ('A' for Active; 'I' for Inactive)
REMARK    1  A    between atoms: C2_2  and  N6_21 
REMARK    2  A    between atoms: C3_3  and  C4_4 
REMARK    3  A    between atoms: C4_4  and  N1_5 
REMARK    4  A    between atoms: N1_5  and  C5_6 
REMARK    5  A    between atoms: C12_16  and  N5_17 
ROOT
HETATM    1  C5  UNL     1       0.539  -0.997  -0.238  1.00  0.00     0.154 A 
HETATM    2  N2  UNL     1       0.838  -2.255   0.119  1.00  0.00    -0.222 NA
HETATM    3  C6  UNL     1       0.281  -2.918   1.144  1.00  0.00     0.236 A 
HETATM    4  N3  UNL     1      -0.648  -2.256   1.860  1.00  0.00    -0.239 NA
HETATM    5  C7  UNL     1      -1.017  -0.991   1.581  1.00  0.00     0.099 A 
HETATM    6  C8  UNL     1      -0.416  -0.357   0.522  1.00  0.00     0.104 A 
HETATM    7  N4  UNL     1      -0.796   0.958   0.226  1.00  0.00    -0.381 N 
HETATM    8  C9  UNL     1      -1.783   1.698   0.972  1.00  0.00     0.159 A 
HETATM    9  C10 UNL     1      -2.369   0.938   2.077  1.00  0.00    -0.026 A 
HETATM   10  C11 UNL     1      -3.332   1.549   2.851  1.00  0.00     0.033 A 
HETATM   11  C12 UNL     1      -3.921   0.891   3.903  1.00  0.00     0.006 A 
HETATM   12  C13 UNL     1      -3.547  -0.414   4.201  1.00  0.00     0.024 A 
HETATM   13  C14 UNL     1      -2.589  -1.083   3.465  1.00  0.00     0.016 A 
HETATM   14  C15 UNL     1      -2.034  -0.372   2.422  1.00  0.00     0.003 A 
HETATM   15  H9  UNL     1      -0.370   1.460  -0.562  1.00  0.00     0.160 HD
ENDROOT
BRANCH   1  16
HETATM   16  N1  UNL     1       1.195  -0.394  -1.342  1.00  0.00    -0.369 N 
HETATM   17  H7  UNL     1       1.040   0.562  -1.695  1.00  0.00     0.161 HD
BRANCH  16  18
HETATM   18  C4  UNL     1       2.189  -1.153  -2.086  1.00  0.00     0.150 C 
BRANCH  18  19
HETATM   19  C3  UNL     1       2.790  -0.412  -3.197  1.00  0.00     0.019 C 
HETATM   20  C2  UNL     1       3.712   0.160  -3.941  1.00  0.00     0.031 C 
HETATM   21  C1  UNL     1       3.703   0.925  -5.239  1.00  0.00     0.070 C 
BRANCH  20  22
HETATM   22  N6  UNL     1       4.991  -0.013  -3.340  1.00  0.00    -0.229 N 
HETATM   23  F1  UNL     1       5.875  -1.034  -3.523  1.00  0.00    -0.102 F 
HETATM   24  H17 UNL     1       5.829   0.144  -2.766  1.00  0.00     0.199 HD
ENDBRANCH  20  22
ENDBRANCH  18  19
ENDBRANCH  16  18
ENDBRANCH   1  16
BRANCH  11  25
HETATM   25  N5  UNL     1      -4.922   1.353   4.798  1.00  0.00    -0.303 NA
HETATM   26  H13 UNL     1      -4.613   2.172   5.399  1.00  0.00     0.124 HD
HETATM   27  H14 UNL     1      -5.019   2.107   5.532  1.00  0.00     0.124 HD
ENDBRANCH  11  25
TORSDOF 5
