REMARK  6 active torsions:
REMARK  status: ('A' for Active; 'I' for Inactive)
REMARK    1  A    between atoms: C2_2  and  C3_3 
REMARK    2  A    between atoms: C3_3  and  O1_4 
REMARK    3  A    between atoms: O1_4  and  C4_5 
REMARK    4  A    between atoms: N2_18  and  C14_19 
REMARK    5  A    between atoms: C14_19  and  C18_24 
REMARK    6  A    between atoms: C15_20  and  C16_21 
ROOT
HETATM    1  C4  UNL     1      -1.859  -0.098  -0.210  1.00  0.00     0.071 C 
HETATM    2  C5  UNL     1      -1.250  -0.549   0.892  1.00  0.00     0.064 C 
HETATM    3  C6  UNL     1      -0.058  -0.083   1.643  1.00  0.00     0.062 C 
HETATM    4  N1  UNL     1       0.097   0.082   2.906  1.00  0.00    -0.261 NA
HETATM    5  C7  UNL     1       1.243   0.826   3.409  1.00  0.00     0.145 C 
HETATM    6  C8  UNL     1       1.539   0.937   2.171  1.00  0.00     0.062 C 
HETATM    7  C9  UNL     1       1.183   1.719   0.938  1.00  0.00     0.202 C 
HETATM    8  O2  UNL     1       1.999   2.439   0.193  1.00  0.00    -0.375 OA
HETATM    9  C10 UNL     1       1.146   3.416  -0.443  1.00  0.00     0.195 C 
HETATM   10  C11 UNL     1       0.149   2.713  -1.376  1.00  0.00     0.194 C 
HETATM   11  O3  UNL     1      -0.583   1.806  -0.778  1.00  0.00    -0.383 OA
HETATM   12  C12 UNL     1      -1.591   1.085  -1.145  1.00  0.00     0.232 C 
HETATM   13  C13 UNL     1       0.979   0.249   0.586  1.00  0.00     0.176 C 
HETATM   14  N2  UNL     1       2.351   0.175   1.239  1.00  0.00    -0.336 N 
ENDROOT
BRANCH  14  15
HETATM   15  C14 UNL     1       3.553  -0.479   0.758  1.00  0.00     0.026 C 
HETATM   16  C15 UNL     1       3.337  -1.661   0.204  1.00  0.00     0.028 C 
BRANCH  16  17
HETATM   17  C16 UNL     1       3.986  -2.790  -0.439  1.00  0.00     0.031 C 
HETATM   18  C17 UNL     1       3.745  -3.966  -0.985  1.00  0.00     0.188 C 
HETATM   19  F1  UNL     1       4.825  -4.625  -1.455  1.00  0.00    -0.219 F 
ENDBRANCH  16  17
BRANCH  15  20
HETATM   20  C18 UNL     1       4.914   0.060   0.871  1.00  0.00     0.171 C 
HETATM   21 CL1  UNL     1       5.182   1.585   0.029  1.00  0.00    -0.124 Cl
ENDBRANCH  15  20
ENDBRANCH  14  15
BRANCH   1  22
HETATM   22  O1  UNL     1      -2.985  -0.850  -0.605  1.00  0.00    -0.353 OA
BRANCH  22  23
HETATM   23  C3  UNL     1      -4.118  -0.156  -1.026  1.00  0.00     0.175 C 
BRANCH  23  24
HETATM   24  C2  UNL     1      -5.287  -1.078  -1.376  1.00  0.00     0.022 C 
HETATM   25  C1  UNL     1      -5.674  -1.891  -0.155  1.00  0.00     0.007 C 
ENDBRANCH  23  24
ENDBRANCH  22  23
ENDBRANCH   1  22
TORSDOF 6
