REMARK  3 active torsions:
REMARK  status: ('A' for Active; 'I' for Inactive)
REMARK    1  A    between atoms: C2_2  and  O1_3 
REMARK    2  A    between atoms: O1_3  and  C3_4 
REMARK    3  A    between atoms: C7_10  and  N3_11 
ROOT
HETATM    1  C3  UNL     1       2.368  -0.120   0.346  1.00  0.00     0.107 A 
HETATM    2  C4  UNL     1       2.053  -1.306  -0.270  1.00  0.00     0.072 A 
HETATM    3  C5  UNL     1       0.754  -1.649  -0.598  1.00  0.00     0.077 A 
HETATM    4  N1  UNL     1       0.382  -2.787  -1.204  1.00  0.00    -0.241 NA
HETATM    5  C6  UNL     1      -0.901  -3.059  -1.500  1.00  0.00     0.236 A 
HETATM    6  N2  UNL     1      -1.867  -2.152  -1.177  1.00  0.00    -0.223 NA
HETATM    7  C7  UNL     1      -1.530  -0.982  -0.559  1.00  0.00     0.145 A 
HETATM    8  C12 UNL     1      -0.205  -0.738  -0.272  1.00  0.00     0.075 A 
HETATM    9  C13 UNL     1       0.011   0.459   0.337  1.00  0.00     0.121 A 
HETATM   10  C14 UNL     1       1.331   0.760   0.646  1.00  0.00     0.136 A 
HETATM   11  O2  UNL     1       1.636   1.974   1.274  1.00  0.00    -0.344 OA
HETATM   12  C15 UNL     1       0.678   3.037   1.173  1.00  0.00     0.202 C 
HETATM   13  C16 UNL     1      -0.705   2.472   1.441  1.00  0.00     0.202 C 
HETATM   14  O3  UNL     1      -0.976   1.350   0.647  1.00  0.00    -0.345 OA
ENDROOT
BRANCH   7  15
HETATM   15  N3  UNL     1      -2.704  -0.220  -0.305  1.00  0.00    -0.327 N 
HETATM   16  C8  UNL     1      -3.503   0.232   0.846  1.00  0.00     0.156 C 
HETATM   17  C9  UNL     1      -4.819  -0.470   0.864  1.00  0.00     0.007 C 
HETATM   18  C10 UNL     1      -5.557  -0.987  -0.105  1.00  0.00    -0.013 C 
HETATM   19  P1  UNL     1      -4.946  -0.663  -1.615  1.00  0.00     0.012 P 
HETATM   20  C11 UNL     1      -3.340   0.289  -1.530  1.00  0.00     0.309 C 
HETATM   21  F1  UNL     1      -3.755   1.617  -1.354  1.00  0.00    -0.221 F 
ENDBRANCH   7  15
BRANCH   1  22
HETATM   22  O1  UNL     1       3.638   0.252   0.684  1.00  0.00    -0.348 OA
BRANCH  22  23
HETATM   23  C2  UNL     1       4.810  -0.467   0.475  1.00  0.00     0.171 C 
HETATM   24  C1  UNL     1       5.032  -0.724  -0.984  1.00  0.00     0.034 C 
ENDBRANCH  22  23
ENDBRANCH   1  22
TORSDOF 3
