REMARK  2 active torsions:
REMARK  status: ('A' for Active; 'I' for Inactive)
REMARK    1  A    between atoms: C6_9  and  N3_10 
REMARK    2  A    between atoms: N3_10  and  C7_11 
ROOT
HETATM    1  C1  UNL     1       5.694   1.750  -1.905  1.00  0.00     0.210 C 
HETATM    2  O1  UNL     1       4.481   1.480  -1.510  1.00  0.00    -0.353 OA
HETATM    3  C2  UNL     1       3.299   1.252  -1.139  1.00  0.00     0.106 A 
HETATM    4  C3  UNL     1       2.301   2.227  -1.263  1.00  0.00     0.072 A 
HETATM    5  C4  UNL     1       0.985   1.983  -0.853  1.00  0.00     0.077 A 
HETATM    6  N1  UNL     1       0.039   2.924  -0.976  1.00  0.00    -0.241 NA
HETATM    7  C5  UNL     1      -1.231   2.723  -0.593  1.00  0.00     0.236 A 
HETATM    8  N2  UNL     1      -1.541   1.509  -0.063  1.00  0.00    -0.223 NA
HETATM    9  C6  UNL     1      -0.582   0.566   0.058  1.00  0.00     0.144 A 
HETATM   10  C14 UNL     1       0.707   0.743  -0.321  1.00  0.00     0.075 A 
HETATM   11  C15 UNL     1       1.637  -0.257  -0.171  1.00  0.00     0.121 A 
HETATM   12  C16 UNL     1       2.927   0.020  -0.587  1.00  0.00     0.136 A 
HETATM   13  O2  UNL     1       3.915  -0.961  -0.459  1.00  0.00    -0.344 OA
HETATM   14  C17 UNL     1       3.475  -2.288  -0.228  1.00  0.00     0.202 C 
HETATM   15  C18 UNL     1       2.338  -2.308   0.802  1.00  0.00     0.202 C 
HETATM   16  O3  UNL     1       1.270  -1.477   0.375  1.00  0.00    -0.345 OA
ENDROOT
BRANCH   9  17
HETATM   17  N3  UNL     1      -1.070  -0.635   0.625  1.00  0.00    -0.343 N 
HETATM   18  H6  UNL     1      -0.946  -1.608   0.958  1.00  0.00     0.167 HD
BRANCH  17  19
HETATM   19  C7  UNL     1      -2.443  -0.783   1.013  1.00  0.00     0.014 C 
HETATM   20  C8  UNL     1      -3.213  -1.041  -0.032  1.00  0.00     0.028 C 
HETATM   21  C9  UNL     1      -4.671  -1.268  -0.123  1.00  0.00     0.046 C 
HETATM   22  C10 UNL     1      -5.581  -0.839   0.764  1.00  0.00     0.137 C 
HETATM   23  F1  UNL     1      -6.886  -1.132   0.532  1.00  0.00    -0.204 F 
HETATM   24  C11 UNL     1      -5.349  -0.065   1.998  1.00  0.00     0.069 C 
HETATM   25 CL1  UNL     1      -6.701   0.853   2.627  1.00  0.00    -0.081 Cl
HETATM   26  C12 UNL     1      -4.179  -0.047   2.625  1.00  0.00     0.006 C 
HETATM   27  C13 UNL     1      -2.849  -0.639   2.457  1.00  0.00     0.086 C 
ENDBRANCH  17  19
ENDBRANCH   9  17
TORSDOF 2
