REMARK  9 active torsions:
REMARK  status: ('A' for Active; 'I' for Inactive)
REMARK    1  A    between atoms: C2_2  and  O1_3 
REMARK    2  A    between atoms: O1_3  and  C3_4 
REMARK    3  A    between atoms: C4_5  and  C5_6 
REMARK    4  A    between atoms: C5_6  and  C6_7 
REMARK    5  A    between atoms: C7_9  and  N1_10 
REMARK    6  A    between atoms: C7_9  and  N3_13 
REMARK    7  A    between atoms: N1_10  and  C8_11 
REMARK    8  A    between atoms: C8_11  and  N2_12 
REMARK    9  A    between atoms: N3_13  and  C9_14 
ROOT
HETATM    1  C6  UNL     1      -0.259  -0.413   0.175  1.00  0.00     0.062 C 
HETATM    2 CL1  UNL     1      -0.217   0.995  -0.866  1.00  0.00    -0.085 Cl
HETATM    3  C7  UNL     1      -1.258  -1.278   0.100  1.00  0.00     0.157 C 
ENDROOT
BRANCH   3   4
HETATM    4  N1  UNL     1      -1.323  -2.414   0.916  1.00  0.00    -0.168 NA
BRANCH   4   5
HETATM    5  C8  UNL     1      -1.512  -3.547   0.329  1.00  0.00     0.095 C 
BRANCH   5   6
HETATM    6  N2  UNL     1      -1.681  -4.737  -0.102  1.00  0.00    -0.241 NA
HETATM    7  H10 UNL     1      -1.662  -4.834  -1.150  1.00  0.00     0.199 HD
ENDBRANCH   5   6
ENDBRANCH   4   5
ENDBRANCH   3   4
BRANCH   3   8
HETATM    8  N3  UNL     1      -2.297  -1.060  -0.828  1.00  0.00    -0.339 N 
HETATM    9  H11 UNL     1      -2.470  -1.614  -1.711  1.00  0.00     0.167 HD
BRANCH   8  10
HETATM   10  C9  UNL     1      -3.213  -0.002  -0.577  1.00  0.00     0.033 A 
HETATM   11  C10 UNL     1      -4.268   0.309  -1.409  1.00  0.00     0.032 A 
HETATM   12  C11 UNL     1      -5.152   1.338  -1.156  1.00  0.00     0.044 A 
HETATM   13  C12 UNL     1      -4.999   2.118  -0.017  1.00  0.00     0.116 A 
HETATM   14  F1  UNL     1      -5.835   3.141   0.285  1.00  0.00    -0.206 F 
HETATM   15  C13 UNL     1      -3.959   1.848   0.849  1.00  0.00     0.044 A 
HETATM   16  C14 UNL     1      -3.111   0.807   0.540  1.00  0.00     0.032 A 
ENDBRANCH   8  10
ENDBRANCH   3   8
BRANCH   1  17
HETATM   17  C5  UNL     1       0.876  -0.535   1.100  1.00  0.00     0.084 C 
BRANCH  17  18
HETATM   18  C4  UNL     1       2.197  -0.625   0.431  1.00  0.00     0.003 C 
HETATM   19  C3  UNL     1       3.164   0.256   0.633  1.00  0.00     0.131 C 
BRANCH  19  20
HETATM   20  O1  UNL     1       4.437   0.702   0.377  1.00  0.00    -0.364 OA
BRANCH  20  21
HETATM   21  C2  UNL     1       5.079   0.564  -0.878  1.00  0.00     0.170 C 
HETATM   22  C1  UNL     1       6.464   1.154  -0.832  1.00  0.00     0.034 C 
ENDBRANCH  20  21
ENDBRANCH  19  20
ENDBRANCH  17  18
ENDBRANCH   1  17
TORSDOF 9
