REMARK  4 active torsions:
REMARK  status: ('A' for Active; 'I' for Inactive)
REMARK    1  A    between atoms: C2_2  and  O1_3 
REMARK    2  A    between atoms: O1_3  and  C3_4 
REMARK    3  A    between atoms: C7_9  and  N2_10 
REMARK    4  A    between atoms: N2_10  and  C8_11 
ROOT
HETATM    1  C3  UNL     1      -2.492   0.476  -0.358  1.00  0.00     0.102 C 
HETATM    2  C4  UNL     1      -1.965   1.686  -0.138  1.00  0.00     0.028 C 
HETATM    3  C5  UNL     1      -0.553   1.615   0.164  1.00  0.00     0.091 A 
HETATM    4  C6  UNL     1       0.377   2.680  -0.038  1.00  0.00     0.105 A 
HETATM    5  N1  UNL     1       1.453   2.107  -0.459  1.00  0.00    -0.246 NA
HETATM    6  C7  UNL     1       1.280   0.689  -0.565  1.00  0.00     0.137 A 
HETATM    7  C14 UNL     1       0.044   0.353  -0.200  1.00  0.00     0.037 A 
HETATM    8  C15 UNL     1      -0.574  -0.954  -0.334  1.00  0.00     0.116 C 
HETATM    9  C16 UNL     1      -1.919  -0.863  -0.444  1.00  0.00     0.136 C 
HETATM   10  O2  UNL     1      -2.653  -2.007  -0.624  1.00  0.00    -0.344 OA
HETATM   11  C17 UNL     1      -2.082  -3.244  -0.183  1.00  0.00     0.202 C 
HETATM   12  C18 UNL     1      -0.633  -3.387  -0.586  1.00  0.00     0.202 C 
HETATM   13  O3  UNL     1       0.070  -2.155  -0.352  1.00  0.00    -0.345 OA
ENDROOT
BRANCH   6  14
HETATM   14  N2  UNL     1       2.338  -0.186  -1.010  1.00  0.00    -0.340 N 
HETATM   15  H9  UNL     1       2.111  -0.910  -1.744  1.00  0.00     0.167 HD
BRANCH  14  16
HETATM   16  C8  UNL     1       3.619  -0.003  -0.420  1.00  0.00     0.035 A 
HETATM   17  C9  UNL     1       4.111  -0.616   0.715  1.00  0.00     0.032 A 
HETATM   18  C10 UNL     1       5.388  -0.322   1.154  1.00  0.00     0.046 A 
HETATM   19  C11 UNL     1       6.176   0.585   0.462  1.00  0.00     0.138 A 
HETATM   20  F1  UNL     1       7.416   0.856   0.908  1.00  0.00    -0.204 F 
HETATM   21  C12 UNL     1       5.708   1.202  -0.662  1.00  0.00     0.074 A 
HETATM   22 CL1  UNL     1       6.727   2.356  -1.534  1.00  0.00    -0.081 Cl
HETATM   23  C13 UNL     1       4.419   0.898  -1.097  1.00  0.00     0.056 A 
ENDBRANCH  14  16
ENDBRANCH   6  14
BRANCH   1  24
HETATM   24  O1  UNL     1      -3.883   0.469  -0.613  1.00  0.00    -0.349 OA
BRANCH  24  25
HETATM   25  C2  UNL     1      -4.668   0.945   0.467  1.00  0.00     0.171 C 
HETATM   26  C1  UNL     1      -6.159   0.914   0.130  1.00  0.00     0.034 C 
ENDBRANCH  24  25
ENDBRANCH   1  24
TORSDOF 4
