REMARK  3 active torsions:
REMARK  status: ('A' for Active; 'I' for Inactive)
REMARK    1  A    between atoms: N1_1  and  C1_2 
REMARK    2  A    between atoms: C7_11  and  N4_12 
REMARK    3  A    between atoms: N4_12  and  C8_13 
ROOT
HETATM    1  C1  UNL     1      -4.156   1.059   0.439  1.00  0.00     0.199 C 
HETATM    2  C2  UNL     1      -3.692   0.738  -0.789  1.00  0.00     0.162 A 
HETATM    3  C3  UNL     1      -4.339   0.176  -1.879  1.00  0.00     0.091 A 
HETATM    4  C4  UNL     1      -3.005   0.343  -2.351  1.00  0.00     0.101 A 
HETATM    5  O1  UNL     1      -1.828   0.859  -1.720  1.00  0.00    -0.324 OA
HETATM    6  C5  UNL     1      -1.196  -0.120  -0.851  1.00  0.00     0.248 A 
HETATM    7  N2  UNL     1      -1.155  -1.325  -0.398  1.00  0.00    -0.372 NA
HETATM    8  C6  UNL     1      -0.788  -2.328   0.252  1.00  0.00     0.304 A 
HETATM    9  N3  UNL     1       0.269  -1.682   0.890  1.00  0.00    -0.210 NA
HETATM   10  C7  UNL     1       0.475  -0.343   0.597  1.00  0.00     0.162 A 
HETATM   11  C14 UNL     1      -0.119   0.549  -0.193  1.00  0.00     0.141 A 
HETATM   12  N5  UNL     1       0.465   1.873  -0.071  1.00  0.00    -0.372 N 
HETATM   13  C15 UNL     1      -0.408   2.226   1.065  1.00  0.00     0.214 C 
HETATM   14  C16 UNL     1      -1.742   1.810   0.833  1.00  0.00    -0.085 C 
HETATM   15  C17 UNL     1      -2.856   1.456   0.660  1.00  0.00    -0.068 C 
HETATM   16  H11 UNL     1       1.067   1.609  -0.867  1.00  0.00     0.160 HD
ENDROOT
BRANCH  10  17
HETATM   17  N4  UNL     1       1.673   0.030   1.361  1.00  0.00    -0.339 N 
HETATM   18  H7  UNL     1       1.965   0.621   2.165  1.00  0.00     0.167 HD
BRANCH  17  19
HETATM   19  C8  UNL     1       2.807  -0.640   0.815  1.00  0.00     0.035 A 
HETATM   20  C9  UNL     1       2.902  -1.175  -0.449  1.00  0.00     0.032 A 
HETATM   21  C10 UNL     1       3.927  -1.866  -1.041  1.00  0.00     0.046 A 
HETATM   22  C11 UNL     1       5.065  -2.076  -0.272  1.00  0.00     0.138 A 
HETATM   23  F1  UNL     1       6.081  -2.755  -0.820  1.00  0.00    -0.204 F 
HETATM   24  C12 UNL     1       5.081  -1.580   1.007  1.00  0.00     0.074 A 
HETATM   25 CL1  UNL     1       6.534  -1.817   1.981  1.00  0.00    -0.081 Cl
HETATM   26  C13 UNL     1       4.001  -0.893   1.531  1.00  0.00     0.056 A 
ENDBRANCH  17  19
ENDBRANCH  10  17
BRANCH   1  27
HETATM   27  N1  UNL     1      -4.422   1.457   1.737  1.00  0.00     0.095 N 
HETATM   28  H1  UNL     1      -4.931   2.323   1.950  1.00  0.00     0.314 HD
HETATM   29  H2  UNL     1      -4.884   2.239   2.150  1.00  0.00     0.314 HD
ENDBRANCH   1  27
TORSDOF 3
