REMARK  4 active torsions:
REMARK  status: ('A' for Active; 'I' for Inactive)
REMARK    1  A    between atoms: C2_2  and  O1_3 
REMARK    2  A    between atoms: O1_3  and  C3_4 
REMARK    3  A    between atoms: C7_10  and  N3_11 
REMARK    4  A    between atoms: N3_11  and  C8_12 
ROOT
HETATM    1  C3  UNL     1       2.992  -0.146  -0.238  1.00  0.00     0.107 A 
HETATM    2  C4  UNL     1       2.538   1.107  -0.541  1.00  0.00     0.072 A 
HETATM    3  C5  UNL     1       1.185   1.342  -0.496  1.00  0.00     0.077 A 
HETATM    4  N1  UNL     1       0.707   2.585  -0.796  1.00  0.00    -0.241 NA
HETATM    5  C6  UNL     1      -0.623   2.815  -0.755  1.00  0.00     0.236 A 
HETATM    6  N2  UNL     1      -1.506   1.866  -0.427  1.00  0.00    -0.223 NA
HETATM    7  C7  UNL     1      -1.125   0.643  -0.125  1.00  0.00     0.144 A 
HETATM    8  C14 UNL     1       0.228   0.406  -0.167  1.00  0.00     0.075 A 
HETATM    9  C15 UNL     1       0.727  -0.842   0.131  1.00  0.00     0.121 A 
HETATM   10  C16 UNL     1       2.080  -1.154   0.107  1.00  0.00     0.136 A 
HETATM   11  O2  UNL     1       2.532  -2.450   0.420  1.00  0.00    -0.344 OA
HETATM   12  C17 UNL     1       1.680  -3.511   0.011  1.00  0.00     0.202 C 
HETATM   13  C18 UNL     1       0.248  -3.264   0.345  1.00  0.00     0.202 C 
HETATM   14  O3  UNL     1      -0.068  -1.903   0.483  1.00  0.00    -0.345 OA
ENDROOT
BRANCH   7  15
HETATM   15  N3  UNL     1      -2.075  -0.325   0.205  1.00  0.00    -0.340 N 
HETATM   16  H8  UNL     1      -2.136  -1.328   0.455  1.00  0.00     0.167 HD
BRANCH  15  17
HETATM   17  C8  UNL     1      -3.465   0.007   0.271  1.00  0.00     0.036 A 
HETATM   18  C9  UNL     1      -4.560  -0.788  -0.087  1.00  0.00     0.029 A 
HETATM   19  C10 UNL     1      -5.883  -0.434   0.010  1.00  0.00     0.005 A 
HETATM   20  C11 UNL     1      -6.169   0.817   0.504  1.00  0.00     0.042 A 
HETATM   21  C12 UNL     1      -5.151   1.667   0.883  1.00  0.00     0.118 A 
HETATM   22  F1  UNL     1      -5.582   2.849   1.344  1.00  0.00    -0.206 F 
HETATM   23  C13 UNL     1      -3.842   1.253   0.761  1.00  0.00     0.071 A 
ENDBRANCH  15  17
ENDBRANCH   7  15
BRANCH   1  24
HETATM   24  O1  UNL     1       4.335  -0.434  -0.266  1.00  0.00    -0.348 OA
BRANCH  24  25
HETATM   25  C2  UNL     1       5.329   0.500  -0.588  1.00  0.00     0.171 C 
HETATM   26  C1  UNL     1       5.405   1.685   0.321  1.00  0.00     0.034 C 
ENDBRANCH  24  25
ENDBRANCH   1  24
TORSDOF 4
