REMARK  3 active torsions:
REMARK  status: ('A' for Active; 'I' for Inactive)
REMARK    1  A    between atoms: C4_5  and  N1_6 
REMARK    2  A    between atoms: N1_6  and  C5_7 
REMARK    3  A    between atoms: C7_9  and  C8_10 
ROOT
HETATM    1  C5  UNL     1       1.385  -0.027  -0.854  1.00  0.00     0.131 A 
HETATM    2  C6  UNL     1       0.477  -0.242   0.189  1.00  0.00     0.082 A 
HETATM    3  C7  UNL     1      -0.725   0.459   0.370  1.00  0.00     0.064 A 
HETATM    4  N2  UNL     1      -0.954   1.400  -0.580  1.00  0.00    -0.242 NA
HETATM    5  C14 UNL     1      -0.091   1.617  -1.589  1.00  0.00     0.235 A 
HETATM    6  N3  UNL     1       1.059   0.935  -1.746  1.00  0.00    -0.224 NA
ENDROOT
BRANCH   1   7
HETATM    7  N1  UNL     1       2.525  -0.863  -0.814  1.00  0.00    -0.341 N 
HETATM    8  H3  UNL     1       2.209  -1.748  -1.272  1.00  0.00     0.167 HD
BRANCH   7   9
HETATM    9  C4  UNL     1       3.815  -0.634  -0.295  1.00  0.00     0.035 A 
HETATM   10  C3  UNL     1       4.137   0.633   0.120  1.00  0.00     0.032 A 
HETATM   11  C2  UNL     1       5.409   0.822   0.628  1.00  0.00     0.046 A 
HETATM   12  C1  UNL     1       6.278  -0.265   0.691  1.00  0.00     0.138 A 
HETATM   13  F1  UNL     1       7.508  -0.040   1.191  1.00  0.00    -0.204 F 
HETATM   14  C16 UNL     1       5.925  -1.547   0.261  1.00  0.00     0.074 A 
HETATM   15  C15 UNL     1       4.658  -1.733  -0.245  1.00  0.00     0.056 A 
HETATM   16 CL1  UNL     1       7.046  -2.898   0.358  1.00  0.00    -0.081 Cl
ENDBRANCH   7   9
ENDBRANCH   1   7
BRANCH   3  17
HETATM   17  C8  UNL     1      -1.583   0.128   1.501  1.00  0.00     0.072 C 
HETATM   18  C9  UNL     1      -2.910   0.076   1.439  1.00  0.00     0.118 A 
HETATM   19  O1  UNL     1      -3.996  -0.187   2.259  1.00  0.00    -0.283 OA
HETATM   20  C11 UNL     1      -3.897   0.298   0.364  1.00  0.00     0.161 A 
HETATM   21  C10 UNL     1      -4.869   0.037   1.197  1.00  0.00     0.223 A 
HETATM   22  O3  UNL     1      -6.086   0.127   0.593  1.00  0.00    -0.326 OA
HETATM   23  C13 UNL     1      -6.394   0.230  -0.755  1.00  0.00     0.204 C 
HETATM   24  C12 UNL     1      -5.224   0.251  -1.693  1.00  0.00     0.203 C 
HETATM   25  O2  UNL     1      -4.044   0.634  -0.983  1.00  0.00    -0.342 OA
ENDBRANCH   3  17
TORSDOF 3
