REMARK  3 active torsions:
REMARK  status: ('A' for Active; 'I' for Inactive)
REMARK    1  A    between atoms: O1_2  and  C2_3 
REMARK    2  A    between atoms: C8_11  and  N3_12 
REMARK    3  A    between atoms: N3_12  and  C9_13 
ROOT
HETATM    1  C2  UNL     1      -2.125  -0.973   0.906  1.00  0.00     0.067 C 
HETATM    2  C3  UNL     1      -1.274  -1.087  -0.141  1.00  0.00     0.036 C 
HETATM    3  C4  UNL     1      -0.398  -1.164  -1.320  1.00  0.00     0.104 A 
HETATM    4  C5  UNL     1      -1.044  -2.017  -2.334  1.00  0.00     0.118 A 
HETATM    5  N1  UNL     1      -0.587  -3.130  -2.851  1.00  0.00    -0.256 NA
HETATM    6  C6  UNL     1       0.667  -3.687  -2.473  1.00  0.00     0.232 A 
HETATM    7  N2  UNL     1       1.374  -3.069  -1.587  1.00  0.00    -0.243 NA
HETATM    8  C7  UNL     1       0.910  -1.856  -1.001  1.00  0.00     0.075 A 
HETATM    9  C8  UNL     1       1.704  -1.304  -0.096  1.00  0.00     0.117 C 
HETATM   10  P1  UNL     1      -0.035   0.545  -2.000  1.00  0.00     0.035 P 
HETATM   11  O2  UNL     1      -0.334   1.735  -0.835  1.00  0.00    -0.374 OA
HETATM   12  C15 UNL     1      -1.153   2.766  -1.159  1.00  0.00     0.115 C 
HETATM   13  B1  UNL     1      -2.633   2.366  -1.480  1.00  0.00     0.215 B 
HETATM   14  C16 UNL     1      -2.953   0.918  -2.053  1.00  0.00     0.111 C 
HETATM   15  O3  UNL     1      -2.433   0.022  -1.196  1.00  0.00    -0.394 OA
HETATM   16  C17 UNL     1      -2.989  -0.072   0.018  1.00  0.00     0.230 C 
HETATM   17  H12 UNL     1       1.323   0.572  -2.524  1.00  0.00     0.089 HD
HETATM   18  H15 UNL     1      -3.515   3.043  -1.058  1.00  0.00    -0.022 HD
ENDROOT
BRANCH   1  19
HETATM   19  O1  UNL     1      -2.728  -1.095   2.149  1.00  0.00    -0.358 OA
HETATM   20  C1  UNL     1      -2.954  -2.459   2.557  1.00  0.00     0.209 C 
ENDBRANCH   1  19
BRANCH   9  21
HETATM   21  N3  UNL     1       1.566  -0.126   0.680  1.00  0.00    -0.364 N 
HETATM   22  H8  UNL     1       0.753   0.286   1.210  1.00  0.00     0.165 HD
BRANCH  21  23
HETATM   23  C9  UNL     1       2.591   0.815   0.921  1.00  0.00     0.033 A 
HETATM   24  C10 UNL     1       2.973   1.924   0.196  1.00  0.00     0.032 A 
HETATM   25  C11 UNL     1       4.012   2.731   0.606  1.00  0.00     0.046 A 
HETATM   26  C12 UNL     1       4.687   2.439   1.753  1.00  0.00     0.138 A 
HETATM   27  F1  UNL     1       5.691   3.249   2.115  1.00  0.00    -0.204 F 
HETATM   28  C13 UNL     1       4.356   1.340   2.531  1.00  0.00     0.074 A 
HETATM   29 CL1  UNL     1       5.246   1.004   3.989  1.00  0.00    -0.081 Cl
HETATM   30  C14 UNL     1       3.301   0.548   2.086  1.00  0.00     0.056 A 
ENDBRANCH  21  23
ENDBRANCH   9  21
TORSDOF 3
