REMARK  6 active torsions:
REMARK  status: ('A' for Active; 'I' for Inactive)
REMARK    1  A    between atoms: N1_1  and  C1_2 
REMARK    2  A    between atoms: C1_2  and  N2_3 
REMARK    3  A    between atoms: N2_3  and  C2_4 
REMARK    4  A    between atoms: C2_4  and  C3_5 
REMARK    5  A    between atoms: C12_16  and  N5_17 
REMARK    6  A    between atoms: N5_17  and  C13_18 
ROOT
HETATM    1  C1  UNL     1       0.465  -0.389  -1.800  1.00  0.00     0.106 C 
HETATM    2  C9  UNL     1      -0.314  -1.274  -1.221  1.00  0.00     0.051 A 
HETATM    3  C10 UNL     1      -0.042  -2.661  -1.742  1.00  0.00     0.196 A 
HETATM    4  N3  UNL     1      -0.934  -3.575  -1.054  1.00  0.00    -0.278 NA
HETATM    5  C11 UNL     1      -1.782  -3.175  -0.164  1.00  0.00     0.229 A 
HETATM    6  N4  UNL     1      -2.019  -1.833   0.313  1.00  0.00    -0.224 NA
HETATM    7  C12 UNL     1      -1.289  -0.879  -0.212  1.00  0.00     0.141 A 
ENDROOT
BRANCH   1   8
HETATM    8  N1  UNL     1       1.172  -1.276  -2.641  1.00  0.00    -0.385 N 
HETATM    9  H1  UNL     1       1.695  -1.923  -3.253  1.00  0.00     0.157 HD
HETATM   10  H2  UNL     1       2.093  -1.739  -2.851  1.00  0.00     0.157 HD
ENDBRANCH   1   8
BRANCH   1  11
HETATM   11  N2  UNL     1       0.976   0.902  -2.044  1.00  0.00    -0.372 N 
HETATM   12  H3  UNL     1       0.307   1.593  -2.494  1.00  0.00     0.161 HD
BRANCH  11  13
HETATM   13  C2  UNL     1       2.372   1.119  -1.642  1.00  0.00     0.159 C 
BRANCH  13  14
HETATM   14  C3  UNL     1       2.556   0.895  -0.184  1.00  0.00    -0.041 A 
HETATM   15  C4  UNL     1       2.884  -0.396   0.243  1.00  0.00     0.009 A 
HETATM   16  C5  UNL     1       3.051  -0.581   1.606  1.00  0.00     0.001 A 
HETATM   17  C6  UNL     1       2.925   0.385   2.577  1.00  0.00     0.000 A 
HETATM   18  C7  UNL     1       2.599   1.651   2.113  1.00  0.00     0.001 A 
HETATM   19  C8  UNL     1       2.422   1.889   0.766  1.00  0.00     0.009 A 
ENDBRANCH  13  14
ENDBRANCH  11  13
ENDBRANCH   1  11
BRANCH   7  20
HETATM   20  N5  UNL     1      -1.330   0.489   0.081  1.00  0.00    -0.344 N 
HETATM   21  H14 UNL     1      -0.605   1.141  -0.290  1.00  0.00     0.167 HD
BRANCH  20  22
HETATM   22  C13 UNL     1      -2.421   0.919   0.915  1.00  0.00     0.016 A 
HETATM   23  C14 UNL     1      -2.849   2.179   0.861  1.00  0.00     0.049 A 
HETATM   24  C15 UNL     1      -3.960   2.332   1.809  1.00  0.00     0.032 A 
HETATM   25 CL1  UNL     1      -4.841   3.827   2.081  1.00  0.00    -0.085 Cl
HETATM   26  C16 UNL     1      -4.159   1.160   2.397  1.00  0.00     0.003 A 
HETATM   27  C17 UNL     1      -3.191   0.135   1.882  1.00  0.00     0.086 A 
ENDBRANCH  20  22
ENDBRANCH   7  20
TORSDOF 6
