REMARK  2 active torsions:
REMARK  status: ('A' for Active; 'I' for Inactive)
REMARK    1  A    between atoms: C7_7  and  N1_8 
REMARK    2  A    between atoms: N1_8  and  C8_9 
ROOT
HETATM    1  C1  UNL     1       7.100   0.550  -0.153  1.00  0.00     0.018 C 
HETATM    2  C2  UNL     1       6.032   0.005  -0.028  1.00  0.00    -0.077 C 
HETATM    3  C3  UNL     1       4.761  -0.638   0.141  1.00  0.00     0.025 A 
HETATM    4  C4  UNL     1       4.801  -2.015   0.229  1.00  0.00     0.021 A 
HETATM    5  C5  UNL     1       3.600  -2.671   0.394  1.00  0.00     0.004 A 
HETATM    6  C6  UNL     1       2.446  -1.926   0.461  1.00  0.00     0.030 A 
HETATM    7  C7  UNL     1       2.368  -0.568   0.377  1.00  0.00     0.041 A 
HETATM    8  C18 UNL     1       3.577   0.075   0.213  1.00  0.00    -0.017 A 
HETATM    9  C19 UNL     1       3.671   1.564   0.106  1.00  0.00     0.052 C 
ENDROOT
BRANCH   7  10
HETATM   10  N1  UNL     1       1.247   0.287   0.419  1.00  0.00    -0.339 N 
HETATM   11  H5  UNL     1       1.293   1.318   0.412  1.00  0.00     0.167 HD
BRANCH  10  12
HETATM   12  C8  UNL     1      -0.016  -0.331   0.476  1.00  0.00     0.156 C 
HETATM   13  N2  UNL     1      -0.419  -1.505   0.171  1.00  0.00    -0.269 NA
HETATM   14  C9  UNL     1      -1.742  -1.791  -0.425  1.00  0.00     0.164 C 
HETATM   15  C10 UNL     1      -2.530  -0.560  -0.333  1.00  0.00     0.061 C 
HETATM   16  C11 UNL     1      -2.312  -0.032   1.047  1.00  0.00     0.025 C 
HETATM   17  C16 UNL     1      -3.985  -0.593  -0.500  1.00  0.00    -0.052 C 
HETATM   18  C12 UNL     1      -1.095   0.503   0.973  1.00  0.00     0.111 C 
HETATM   19  O1  UNL     1      -1.132   1.848   1.418  1.00  0.00    -0.345 OA
HETATM   20  C13 UNL     1      -1.662   2.833   0.541  1.00  0.00     0.202 C 
HETATM   21  C14 UNL     1      -3.142   2.594   0.276  1.00  0.00     0.201 C 
HETATM   22  O2  UNL     1      -3.368   1.355  -0.312  1.00  0.00    -0.361 OA
HETATM   23  C15 UNL     1      -4.528   0.650  -0.486  1.00  0.00     0.138 C 
HETATM   24  C17 UNL     1      -4.934  -1.740  -0.677  1.00  0.00     0.046 C 
ENDBRANCH  10  12
ENDBRANCH   7  10
TORSDOF 2
