REMARK  3 active torsions:
REMARK  status: ('A' for Active; 'I' for Inactive)
REMARK    1  A    between atoms: C5_6  and  N1_7 
REMARK    2  A    between atoms: N1_7  and  C6_8 
REMARK    3  A    between atoms: C10_14  and  O1_15 
ROOT
HETATM    1  C1  UNL     1       7.392   0.473  -0.740  1.00  0.00    -0.003 C 
HETATM    2  C2  UNL     1       6.387  -0.169  -0.516  1.00  0.00    -0.166 C 
HETATM    3  B1  UNL     1       5.110  -0.971  -0.257  1.00  0.00     0.318 B 
HETATM    4  C3  UNL     1       4.763  -1.575   1.161  1.00  0.00    -0.056 A 
HETATM    5  C4  UNL     1       3.426  -1.584   1.279  1.00  0.00     0.014 A 
HETATM    6  C5  UNL     1       2.744  -1.042   0.083  1.00  0.00     0.019 A 
HETATM    7  C17 UNL     1       3.665  -0.676  -0.829  1.00  0.00    -0.029 A 
ENDROOT
BRANCH   6   8
HETATM    8  N1  UNL     1       1.312  -0.927  -0.053  1.00  0.00    -0.341 N 
HETATM    9  H4  UNL     1       1.132  -1.898  -0.366  1.00  0.00     0.167 HD
BRANCH   8  10
HETATM   10  C6  UNL     1       0.721   0.328   0.255  1.00  0.00     0.144 A 
HETATM   11  N2  UNL     1       1.593   1.273   0.643  1.00  0.00    -0.223 NA
HETATM   12  C7  UNL     1       1.090   2.505   0.955  1.00  0.00     0.236 A 
HETATM   13  N3  UNL     1      -0.222   2.776   0.880  1.00  0.00    -0.241 NA
HETATM   14  C8  UNL     1      -1.117   1.870   0.501  1.00  0.00     0.077 A 
HETATM   15  C9  UNL     1      -2.442   2.165   0.432  1.00  0.00     0.072 A 
HETATM   16  C14 UNL     1      -0.598   0.632   0.190  1.00  0.00     0.075 A 
HETATM   17  C10 UNL     1      -3.300   1.165   0.029  1.00  0.00     0.106 A 
HETATM   18  C12 UNL     1      -2.829  -0.096  -0.295  1.00  0.00     0.136 A 
HETATM   19  C13 UNL     1      -1.476  -0.344  -0.208  1.00  0.00     0.121 A 
HETATM   20  O3  UNL     1      -3.670  -1.140  -0.709  1.00  0.00    -0.344 OA
HETATM   21  O2  UNL     1      -1.082  -1.612  -0.544  1.00  0.00    -0.345 OA
HETATM   22  C15 UNL     1      -1.883  -2.766  -0.489  1.00  0.00     0.202 C 
HETATM   23  C16 UNL     1      -3.345  -2.450  -0.288  1.00  0.00     0.202 C 
BRANCH  17  24
HETATM   24  O1  UNL     1      -4.644   1.432  -0.051  1.00  0.00    -0.353 OA
HETATM   25  C11 UNL     1      -5.168   2.707   0.271  1.00  0.00     0.210 C 
ENDBRANCH  17  24
ENDBRANCH   8  10
ENDBRANCH   6   8
TORSDOF 3
