REMARK  4 active torsions:
REMARK  status: ('A' for Active; 'I' for Inactive)
REMARK    1  A    between atoms: C7_7  and  C8_8 
REMARK    2  A    between atoms: C12_14  and  O1_15 
REMARK    3  A    between atoms: C14_17  and  O2_18 
REMARK    4  A    between atoms: O2_18  and  C15_19 
ROOT
HETATM    1  C1  UNL     1       4.096   1.695   3.246  1.00  0.00     0.018 C 
HETATM    2  C2  UNL     1       3.823   1.582   2.064  1.00  0.00    -0.078 C 
HETATM    3  C3  UNL     1       3.494   1.429   0.672  1.00  0.00     0.017 A 
HETATM    4  C4  UNL     1       4.098   2.179  -0.307  1.00  0.00     0.020 A 
HETATM    5  C5  UNL     1       3.733   1.978  -1.620  1.00  0.00     0.002 A 
HETATM    6  C6  UNL     1       2.771   1.024  -1.879  1.00  0.00     0.014 A 
HETATM    7  C7  UNL     1       2.130   0.238  -0.912  1.00  0.00    -0.005 A 
HETATM    8  C19 UNL     1       2.540   0.486   0.380  1.00  0.00     0.034 A 
ENDROOT
BRANCH   7   9
HETATM    9  C8  UNL     1       1.161  -0.720  -1.421  1.00  0.00     0.081 A 
HETATM   10  N1  UNL     1       1.665  -1.483  -2.438  1.00  0.00    -0.240 NA
HETATM   11  C9  UNL     1       0.924  -2.424  -3.042  1.00  0.00     0.234 A 
HETATM   12  N2  UNL     1      -0.356  -2.650  -2.661  1.00  0.00    -0.241 NA
HETATM   13  C10 UNL     1      -0.894  -1.928  -1.670  1.00  0.00     0.073 A 
HETATM   14  C11 UNL     1      -2.195  -2.070  -1.207  1.00  0.00     0.072 A 
HETATM   15  C18 UNL     1      -0.125  -0.964  -1.056  1.00  0.00     0.025 A 
HETATM   16  C12 UNL     1      -2.683  -1.268  -0.173  1.00  0.00     0.103 A 
HETATM   17  C14 UNL     1      -1.879  -0.299   0.427  1.00  0.00     0.103 A 
HETATM   18  C17 UNL     1      -0.590  -0.171  -0.044  1.00  0.00     0.055 A 
BRANCH  16  19
HETATM   19  O1  UNL     1      -3.984  -1.418   0.281  1.00  0.00    -0.353 OA
HETATM   20  C13 UNL     1      -4.848  -2.372  -0.276  1.00  0.00     0.210 C 
ENDBRANCH  16  19
BRANCH  17  21
HETATM   21  O2  UNL     1      -2.382   0.489   1.453  1.00  0.00    -0.346 OA
BRANCH  21  22
HETATM   22  C15 UNL     1      -1.528   1.458   2.029  1.00  0.00     0.212 C 
HETATM   23  C16 UNL     1      -2.274   2.170   3.092  1.00  0.00     0.417 C 
HETATM   24  O3  UNL     1      -2.770   2.830   3.986  1.00  0.00    -0.428 OA
ENDBRANCH  21  22
ENDBRANCH  17  21
ENDBRANCH   7   9
TORSDOF 4
