REMARK  2 active torsions:
REMARK  status: ('A' for Active; 'I' for Inactive)
REMARK    1  A    between atoms: C4_4  and  N1_5 
REMARK    2  A    between atoms: N1_5  and  C5_6 
ROOT
HETATM    1  C1  UNL     1       4.690   2.216  -0.240  1.00  0.00     0.017 C 
HETATM    2  C2  UNL     1       4.247   1.091  -0.321  1.00  0.00    -0.080 C 
HETATM    3  C3  UNL     1       3.742  -0.250  -0.411  1.00  0.00     0.025 A 
HETATM    4  C4  UNL     1       2.664  -0.831   0.103  1.00  0.00     0.048 A 
HETATM    5  C16 UNL     1       2.619  -2.226  -0.279  1.00  0.00     0.027 A 
HETATM    6  C17 UNL     1       3.675  -2.469  -1.025  1.00  0.00    -0.019 A 
HETATM    7  C18 UNL     1       4.506  -1.271  -1.208  1.00  0.00     0.077 A 
ENDROOT
BRANCH   4   8
HETATM    8  N1  UNL     1       1.763  -0.101   0.905  1.00  0.00    -0.339 N 
HETATM    9  H2  UNL     1       1.570  -0.393   1.895  1.00  0.00     0.167 HD
BRANCH   8  10
HETATM   10  C5  UNL     1       0.915   1.054   0.813  1.00  0.00     0.144 A 
HETATM   11  N2  UNL     1       1.627   2.178   0.992  1.00  0.00    -0.223 NA
HETATM   12  C6  UNL     1       0.967   3.354   0.947  1.00  0.00     0.236 A 
HETATM   13  N3  UNL     1      -0.373   3.456   0.732  1.00  0.00    -0.241 NA
HETATM   14  C7  UNL     1      -1.055   2.304   0.557  1.00  0.00     0.077 A 
HETATM   15  C8  UNL     1      -2.415   2.284   0.340  1.00  0.00     0.072 A 
HETATM   16  C13 UNL     1      -0.435   1.083   0.593  1.00  0.00     0.075 A 
HETATM   17  C9  UNL     1      -3.165   1.137   0.163  1.00  0.00     0.106 A 
HETATM   18  O1  UNL     1      -4.412   1.021  -0.040  1.00  0.00    -0.353 OA
HETATM   19  C11 UNL     1      -2.440  -0.056   0.216  1.00  0.00     0.136 A 
HETATM   20  C10 UNL     1      -5.697   0.902  -0.249  1.00  0.00     0.210 C 
HETATM   21  C12 UNL     1      -1.057  -0.131   0.432  1.00  0.00     0.121 A 
HETATM   22  O3  UNL     1      -3.016  -1.330   0.057  1.00  0.00    -0.344 OA
HETATM   23  O2  UNL     1      -0.387  -1.335   0.477  1.00  0.00    -0.345 OA
HETATM   24  C14 UNL     1      -0.901  -2.490  -0.186  1.00  0.00     0.202 C 
HETATM   25  C15 UNL     1      -2.318  -2.370  -0.616  1.00  0.00     0.202 C 
ENDBRANCH   8  10
ENDBRANCH   4   8
TORSDOF 2
