REMARK  3 active torsions:
REMARK  status: ('A' for Active; 'I' for Inactive)
REMARK    1  A    between atoms: C7_7  and  N1_8 
REMARK    2  A    between atoms: N1_8  and  C8_9 
REMARK    3  A    between atoms: C11_14  and  O1_15 
ROOT
HETATM    1  C1  UNL     1       7.039   1.980  -0.779  1.00  0.00     0.018 C 
HETATM    2  C2  UNL     1       6.227   1.121  -0.567  1.00  0.00    -0.078 C 
HETATM    3  C3  UNL     1       5.244   0.083  -0.304  1.00  0.00     0.019 A 
HETATM    4  C4  UNL     1       5.618  -1.175   0.120  1.00  0.00     0.021 A 
HETATM    5  C5  UNL     1       4.625  -2.097   0.345  1.00  0.00     0.004 A 
HETATM    6  C6  UNL     1       3.320  -1.754   0.149  1.00  0.00     0.029 A 
HETATM    7  C7  UNL     1       2.886  -0.519  -0.272  1.00  0.00     0.035 A 
HETATM    8  C18 UNL     1       3.910   0.377  -0.487  1.00  0.00     0.050 A 
ENDROOT
BRANCH   7   9
HETATM    9  N1  UNL     1       1.540  -0.130  -0.489  1.00  0.00    -0.339 N 
HETATM   10  H5  UNL     1       1.349   0.855  -0.792  1.00  0.00     0.167 HD
BRANCH   9  11
HETATM   11  C8  UNL     1       0.425  -0.993  -0.319  1.00  0.00     0.154 A 
HETATM   12  N2  UNL     1       0.441  -2.243  -0.548  1.00  0.00    -0.251 NA
HETATM   13  C9  UNL     1      -0.851  -2.846  -0.280  1.00  0.00     0.281 A 
HETATM   14  N3  UNL     1      -1.695  -1.757   0.161  1.00  0.00    -0.331 N 
HETATM   15  C10 UNL     1      -3.044  -1.730   0.559  1.00  0.00     0.128 A 
HETATM   16  C17 UNL     1      -0.892  -0.583   0.138  1.00  0.00     0.114 A 
HETATM   17  C11 UNL     1      -3.539  -0.560   0.913  1.00  0.00     0.096 A 
HETATM   18  C13 UNL     1      -2.817   0.734   0.936  1.00  0.00     0.238 A 
HETATM   19  O2  UNL     1      -3.477   1.702   0.185  1.00  0.00    -0.370 OA
HETATM   20  C16 UNL     1      -1.414   0.577   0.499  1.00  0.00     0.112 A 
HETATM   21  C14 UNL     1      -2.636   2.600  -0.449  1.00  0.00     0.196 C 
HETATM   22  C15 UNL     1      -1.429   2.956   0.399  1.00  0.00     0.201 C 
HETATM   23  O3  UNL     1      -0.668   1.752   0.492  1.00  0.00    -0.348 OA
BRANCH  17  24
HETATM   24  O1  UNL     1      -4.869  -0.556   1.301  1.00  0.00    -0.356 OA
HETATM   25  C12 UNL     1      -5.880   0.014   0.492  1.00  0.00     0.209 C 
ENDBRANCH  17  24
ENDBRANCH   9  11
ENDBRANCH   7   9
TORSDOF 3
