REMARK  3 active torsions:
REMARK  status: ('A' for Active; 'I' for Inactive)
REMARK    1  A    between atoms: O1_2  and  C2_3 
REMARK    2  A    between atoms: C6_9  and  N3_10 
REMARK    3  A    between atoms: N3_10  and  C7_11 
ROOT
HETATM    1  C2  UNL     1       3.218   0.367  -0.082  1.00  0.00     0.106 A 
HETATM    2  C3  UNL     1       2.793   1.343   0.796  1.00  0.00     0.072 A 
HETATM    3  C4  UNL     1       1.491   1.334   1.293  1.00  0.00     0.077 A 
HETATM    4  N1  UNL     1       1.020   2.254   2.155  1.00  0.00    -0.241 NA
HETATM    5  C5  UNL     1      -0.247   2.171   2.589  1.00  0.00     0.236 A 
HETATM    6  N2  UNL     1      -1.051   1.182   2.175  1.00  0.00    -0.223 NA
HETATM    7  C6  UNL     1      -0.650   0.227   1.315  1.00  0.00     0.144 A 
HETATM    8  C13 UNL     1       0.659   0.294   0.854  1.00  0.00     0.075 A 
HETATM    9  C14 UNL     1       1.033  -0.699  -0.017  1.00  0.00     0.121 A 
HETATM   10  C15 UNL     1       2.337  -0.628  -0.470  1.00  0.00     0.136 A 
HETATM   11  O2  UNL     1       2.754  -1.617  -1.354  1.00  0.00    -0.344 OA
HETATM   12  C16 UNL     1       1.755  -2.248  -2.132  1.00  0.00     0.202 C 
HETATM   13  C17 UNL     1       0.688  -2.763  -1.169  1.00  0.00     0.202 C 
HETATM   14  O3  UNL     1       0.150  -1.698  -0.406  1.00  0.00    -0.345 OA
ENDROOT
BRANCH   7  15
HETATM   15  N3  UNL     1      -1.631  -0.719   1.004  1.00  0.00    -0.340 N 
HETATM   16  H6  UNL     1      -1.546  -1.750   1.220  1.00  0.00     0.167 HD
BRANCH  15  17
HETATM   17  C7  UNL     1      -2.834  -0.297   0.352  1.00  0.00     0.033 A 
HETATM   18  C8  UNL     1      -3.057   1.026   0.040  1.00  0.00     0.029 A 
HETATM   19  C9  UNL     1      -4.231   1.453  -0.588  1.00  0.00     0.002 A 
HETATM   20  C10 UNL     1      -5.206   0.559  -0.916  1.00  0.00     0.000 A 
HETATM   21  C11 UNL     1      -5.024  -0.797  -0.619  1.00  0.00     0.002 A 
HETATM   22  C12 UNL     1      -3.835  -1.183   0.010  1.00  0.00     0.029 A 
ENDBRANCH  15  17
ENDBRANCH   7  15
BRANCH   1  23
HETATM   23  O1  UNL     1       4.510   0.437  -0.530  1.00  0.00    -0.353 OA
HETATM   24  C1  UNL     1       5.334   1.489  -0.080  1.00  0.00     0.210 C 
ENDBRANCH   1  23
TORSDOF 3
