REMARK  3 active torsions:
REMARK  status: ('A' for Active; 'I' for Inactive)
REMARK    1  A    between atoms: C14_18  and  C15_19 
REMARK    2  A    between atoms: C15_19  and  O1_20 
REMARK    3  A    between atoms: O1_20  and  C16_21 
ROOT
HETATM    1  C1  UNL     1       0.170   2.999   1.126  1.00  0.00     0.024 A 
HETATM    2  C2  UNL     1      -0.405   1.787   1.109  1.00  0.00    -0.020 A 
HETATM    3  C3  UNL     1      -1.494   1.073   1.766  1.00  0.00     0.017 C 
HETATM    4  C4  UNL     1      -1.027   0.028   2.666  1.00  0.00     0.001 C 
HETATM    5  C5  UNL     1      -1.394  -1.264   2.453  1.00  0.00     0.044 C 
HETATM    6  C6  UNL     1      -1.210  -2.635   3.036  1.00  0.00     0.015 C 
HETATM    7 CL1  UNL     1      -0.451  -3.590   4.356  1.00  0.00    -0.089 Cl
HETATM    8  C7  UNL     1      -1.898  -3.494   2.253  1.00  0.00     0.012 C 
HETATM    9  C8  UNL     1      -2.697  -3.153   1.025  1.00  0.00     0.144 C 
HETATM   10  N1  UNL     1      -2.191  -3.847  -0.096  1.00  0.00    -0.397 N 
HETATM   11  C9  UNL     1      -0.906  -3.521  -0.563  1.00  0.00     0.205 C 
HETATM   12  C10 UNL     1      -0.525  -4.251  -1.832  1.00  0.00     0.057 C 
HETATM   13  N2  UNL     1      -0.564  -2.159  -0.737  1.00  0.00    -0.182 N 
HETATM   14  C11 UNL     1       0.165  -1.683  -1.687  1.00  0.00     0.327 A 
HETATM   15  N3  UNL     1      -0.407  -0.879  -0.653  1.00  0.00    -0.004 NA
HETATM   16  C12 UNL     1       0.126   0.266  -0.382  1.00  0.00     0.644 A 
HETATM   17  C13 UNL     1       0.561   1.612   0.108  1.00  0.00     0.010 A 
HETATM   18  C14 UNL     1       1.434   1.375  -0.837  1.00  0.00     0.057 A 
HETATM   19  H10 UNL     1      -2.851  -4.278  -0.749  1.00  0.00     0.155 HD
ENDROOT
BRANCH  18  20
HETATM   20  C15 UNL     1       2.304   2.560  -1.084  1.00  0.00     0.175 C 
BRANCH  20  21
HETATM   21  O1  UNL     1       2.172   3.002  -2.401  1.00  0.00    -0.391 OA
BRANCH  21  22
HETATM   22  C16 UNL     1       2.961   4.117  -2.653  1.00  0.00     0.163 C 
HETATM   23  C17 UNL     1       2.511   5.219  -1.695  1.00  0.00     0.033 C 
ENDBRANCH  21  22
ENDBRANCH  20  21
ENDBRANCH  18  20
TORSDOF 3
