REMARK  3 active torsions:
REMARK  status: ('A' for Active; 'I' for Inactive)
REMARK    1  A    between atoms: O1_2  and  C2_3 
REMARK    2  A    between atoms: C6_8  and  N2_9 
REMARK    3  A    between atoms: N2_9  and  C7_10 
ROOT
HETATM    1  C2  UNL     1      -3.244   1.083  -0.541  1.00  0.00     0.046 C 
HETATM    2  C3  UNL     1      -1.932   1.297  -0.395  1.00  0.00     0.044 C 
HETATM    3  C4  UNL     1      -0.841   0.334  -0.393  1.00  0.00     0.008 C 
HETATM    4  C5  UNL     1       0.202   0.914  -0.939  1.00  0.00     0.097 C 
HETATM    5  N1  UNL     1       1.150   0.250  -1.452  1.00  0.00    -0.229 NA
HETATM    6  C6  UNL     1       1.627  -0.973  -0.932  1.00  0.00     0.127 C 
HETATM    7  C13 UNL     1       0.677  -1.576  -0.197  1.00  0.00     0.060 C 
HETATM    8  C14 UNL     1      -0.671  -1.091   0.069  1.00  0.00     0.183 C 
HETATM    9  O2  UNL     1      -1.714  -1.850  -0.441  1.00  0.00    -0.377 OA
HETATM   10  C15 UNL     1      -2.794  -1.600   0.435  1.00  0.00     0.169 C 
HETATM   11  C16 UNL     1      -4.051  -1.296  -0.280  1.00  0.00     0.033 C 
HETATM   12  C17 UNL     1      -4.277   0.084  -0.744  1.00  0.00     0.066 C 
ENDROOT
BRANCH   6  13
HETATM   13  N2  UNL     1       2.864  -1.669  -1.012  1.00  0.00    -0.341 N 
HETATM   14  H5  UNL     1       2.968  -2.636  -1.388  1.00  0.00     0.167 HD
BRANCH  13  15
HETATM   15  C7  UNL     1       3.873  -0.771  -0.486  1.00  0.00     0.035 A 
HETATM   16  C8  UNL     1       3.868  -0.709   0.912  1.00  0.00     0.032 A 
HETATM   17  C9  UNL     1       4.766   0.093   1.626  1.00  0.00     0.046 A 
HETATM   18  C10 UNL     1       5.677   0.836   0.887  1.00  0.00     0.138 A 
HETATM   19  F1  UNL     1       6.544   1.622   1.600  1.00  0.00    -0.204 F 
HETATM   20  C11 UNL     1       5.681   0.771  -0.492  1.00  0.00     0.074 A 
HETATM   21 CL1  UNL     1       6.839   1.715  -1.397  1.00  0.00    -0.081 Cl
HETATM   22  C12 UNL     1       4.799  -0.016  -1.177  1.00  0.00     0.056 A 
ENDBRANCH  13  15
ENDBRANCH   6  13
BRANCH   1  23
HETATM   23  O1  UNL     1      -3.693   2.426  -0.440  1.00  0.00    -0.360 OA
HETATM   24  C1  UNL     1      -3.783   2.876   0.916  1.00  0.00     0.209 C 
ENDBRANCH   1  23
TORSDOF 3
