REMARK  4 active torsions:
REMARK  status: ('A' for Active; 'I' for Inactive)
REMARK    1  A    between atoms: C2_2  and  C3_3 
REMARK    2  A    between atoms: C2_2  and  C5_5 
REMARK    3  A    between atoms: C6_6  and  C7_7 
REMARK    4  A    between atoms: C12_13  and  C13_15 
ROOT
HETATM    1  C7  UNL     1       0.537   0.716  -0.456  1.00  0.00     0.104 C 
HETATM    2  C8  UNL     1       0.432   1.739  -1.540  1.00  0.00     0.285 C 
HETATM    3  N1  UNL     1       1.441   2.721  -1.617  1.00  0.00     0.084 N 
HETATM    4  C9  UNL     1       2.745   2.383  -1.169  1.00  0.00     0.273 C 
HETATM    5  C10 UNL     1       2.860   0.874  -1.154  1.00  0.00     0.066 C 
HETATM    6  C11 UNL     1       1.943   0.424  -0.071  1.00  0.00    -0.046 C 
HETATM    7  C12 UNL     1       2.522  -0.124   0.984  1.00  0.00     0.043 C 
HETATM    8 CL1  UNL     1       4.278  -0.335   1.144  1.00  0.00    -0.086 Cl
HETATM    9  H11 UNL     1       1.458   3.147  -2.546  1.00  0.00     0.315 HD
ENDROOT
BRANCH   1  10
HETATM   10  C6  UNL     1      -0.099  -0.575  -0.815  1.00  0.00     0.089 C 
HETATM   11  C5  UNL     1      -1.154  -0.964  -0.122  1.00  0.00     0.101 C 
HETATM   12  O2  UNL     1      -1.689  -2.175  -0.517  1.00  0.00    -0.346 OA
HETATM   13  C15 UNL     1      -1.612  -2.593  -1.882  1.00  0.00     0.202 C 
HETATM   14  C14 UNL     1      -0.270  -2.346  -2.501  1.00  0.00     0.202 C 
HETATM   15  O1  UNL     1       0.444  -1.310  -1.858  1.00  0.00    -0.350 OA
BRANCH  11  16
HETATM   16  C2  UNL     1      -1.809  -0.297   0.976  1.00  0.00    -0.044 C 
HETATM   17  C1  UNL     1      -2.866  -0.785   1.597  1.00  0.00     0.041 C 
BRANCH  16  18
HETATM   18  C3  UNL     1      -1.923   0.835   1.910  1.00  0.00     0.033 C 
HETATM   19  C4  UNL     1      -3.104   0.667   2.856  1.00  0.00     0.010 C 
ENDBRANCH  16  18
ENDBRANCH  11  16
ENDBRANCH   1  10
BRANCH   7  20
HETATM   20  C13 UNL     1       1.908  -0.671   2.224  1.00  0.00     0.273 C 
HETATM   21  F1  UNL     1       2.225  -2.027   2.369  1.00  0.00    -0.250 F 
ENDBRANCH   7  20
TORSDOF 4
