REMARK  1 active torsions:
REMARK  status: ('A' for Active; 'I' for Inactive)
REMARK    1  A    between atoms: C1_2  and  N2_3 
ROOT
HETATM    1  N2  UNL     1      -1.899   1.738   0.309  1.00  0.00    -0.246 NA
HETATM    2  C2  UNL     1      -1.030   0.982  -0.281  1.00  0.00     0.049 C 
HETATM    3  C3  UNL     1       0.286   1.470  -0.771  1.00  0.00     0.066 C 
HETATM    4  C4  UNL     1       1.406   0.662  -0.121  1.00  0.00    -0.033 C 
HETATM    5  C5  UNL     1       0.860  -0.540   0.401  1.00  0.00     0.089 A 
HETATM    6  C6  UNL     1       2.159  -1.173   0.774  1.00  0.00     0.121 A 
HETATM    7  C7  UNL     1       1.294  -2.100   1.147  1.00  0.00     0.128 A 
HETATM    8  N3  UNL     1      -0.072  -1.910   0.974  1.00  0.00    -0.381 N 
HETATM    9  C8  UNL     1      -1.130  -1.594   0.138  1.00  0.00     0.041 A 
HETATM   10  C9  UNL     1      -1.855  -2.717  -0.184  1.00  0.00     0.033 A 
HETATM   11  C10 UNL     1      -2.980  -2.778  -1.006  1.00  0.00     0.044 A 
HETATM   12  C11 UNL     1      -3.357  -1.558  -1.519  1.00  0.00     0.117 A 
HETATM   13  F1  UNL     1      -4.446  -1.552  -2.329  1.00  0.00    -0.206 F 
HETATM   14  C12 UNL     1      -2.651  -0.406  -1.215  1.00  0.00     0.058 A 
HETATM   15  C13 UNL     1      -1.539  -0.381  -0.396  1.00  0.00     0.018 A 
HETATM   16  O1  UNL     1       3.517  -0.822   0.697  1.00  0.00    -0.374 OA
HETATM   17  C14 UNL     1       3.892   0.445   0.158  1.00  0.00     0.169 C 
HETATM   18  C15 UNL     1       2.797   1.369  -0.221  1.00  0.00     0.032 C 
HETATM   19  H7  UNL     1      -0.469  -2.109   1.916  1.00  0.00     0.160 HD
ENDROOT
BRANCH   1  20
HETATM   20  C1  UNL     1      -1.507   3.113   0.468  1.00  0.00     0.223 C 
HETATM   21  N1  UNL     1      -1.290   3.558   1.661  1.00  0.00    -0.293 NA
HETATM   22  H1  UNL     1      -1.414   2.884   2.443  1.00  0.00     0.187 HD
ENDBRANCH   1  20
TORSDOF 1
