REMARK  2 active torsions:
REMARK  status: ('A' for Active; 'I' for Inactive)
REMARK    1  A    between atoms: O1_2  and  C2_3 
REMARK    2  A    between atoms: C6_9  and  N3_10 
ROOT
HETATM    1  C2  UNL     1       2.908  -0.150   0.040  1.00  0.00     0.106 A 
HETATM    2  C3  UNL     1       2.683  -1.511   0.050  1.00  0.00     0.072 A 
HETATM    3  C4  UNL     1       1.391  -2.028   0.053  1.00  0.00     0.077 A 
HETATM    4  N1  UNL     1       1.084  -3.330   0.049  1.00  0.00    -0.241 NA
HETATM    5  C5  UNL     1      -0.241  -3.659   0.038  1.00  0.00     0.236 A 
HETATM    6  N2  UNL     1      -1.285  -2.779   0.033  1.00  0.00    -0.223 NA
HETATM    7  C6  UNL     1      -0.932  -1.460   0.038  1.00  0.00     0.146 A 
HETATM    8  C12 UNL     1       0.393  -1.087   0.046  1.00  0.00     0.075 A 
HETATM    9  C13 UNL     1       0.562   0.269   0.035  1.00  0.00     0.121 A 
HETATM   10  C14 UNL     1       1.858   0.762   0.032  1.00  0.00     0.136 A 
HETATM   11  O2  UNL     1       2.113   2.128   0.022  1.00  0.00    -0.344 OA
HETATM   12  C15 UNL     1       1.073   3.039   0.384  1.00  0.00     0.202 C 
HETATM   13  C16 UNL     1      -0.190   2.543  -0.302  1.00  0.00     0.202 C 
HETATM   14  O3  UNL     1      -0.447   1.190   0.022  1.00  0.00    -0.345 OA
ENDROOT
BRANCH   7  15
HETATM   15  N3  UNL     1      -2.142  -0.685   0.101  1.00  0.00    -0.337 N 
HETATM   16  C7  UNL     1      -2.622  -0.465  -1.242  1.00  0.00     0.094 A 
HETATM   17  C8  UNL     1      -3.712   0.250  -1.501  1.00  0.00     0.041 A 
HETATM   18  C9  UNL     1      -4.486   0.852  -0.422  1.00  0.00     0.033 A 
HETATM   19 CL1  UNL     1      -5.927   1.817  -0.593  1.00  0.00    -0.085 Cl
HETATM   20  C10 UNL     1      -4.000   0.610   0.785  1.00  0.00     0.017 A 
HETATM   21  C11 UNL     1      -2.822  -0.157   1.270  1.00  0.00     0.159 A 
ENDBRANCH   7  15
BRANCH   1  22
HETATM   22  O1  UNL     1       4.194   0.373   0.037  1.00  0.00    -0.353 OA
HETATM   23  C1  UNL     1       5.349  -0.435   0.044  1.00  0.00     0.210 C 
ENDBRANCH   1  22
TORSDOF 2
