REMARK  1 active torsions:
REMARK  status: ('A' for Active; 'I' for Inactive)
REMARK    1  A    between atoms: O1_2  and  C2_3 
ROOT
HETATM    1  C2  UNL     1       3.280  -0.946   0.445  1.00  0.00     0.073 C 
HETATM    2  C3  UNL     1       3.784  -0.964  -0.813  1.00  0.00     0.148 C 
HETATM    3  C4  UNL     1       3.014  -0.800  -2.089  1.00  0.00     0.099 C 
HETATM    4  N1  UNL     1       1.925  -0.629  -2.858  1.00  0.00    -0.258 NA
HETATM    5  C5  UNL     1       0.731  -0.542  -2.012  1.00  0.00     0.229 C 
HETATM    6  N2  UNL     1       0.287  -0.031  -0.942  1.00  0.00    -0.249 NA
HETATM    7  C6  UNL     1      -1.044  -0.175  -0.377  1.00  0.00     0.150 C 
HETATM    8  C7  UNL     1      -0.985  -1.373   0.551  1.00  0.00     0.084 C 
HETATM    9  C8  UNL     1       0.496  -1.711   0.863  1.00  0.00     0.172 C 
HETATM   10  O2  UNL     1       1.117  -0.682   1.483  1.00  0.00    -0.388 OA
HETATM   11  C9  UNL     1       2.444  -0.882   1.712  1.00  0.00     0.200 C 
HETATM   12  C10 UNL     1      -1.955  -0.601  -1.528  1.00  0.00     0.223 C 
HETATM   13  O3  UNL     1      -3.197  -0.066  -1.533  1.00  0.00    -0.386 OA
HETATM   14  C11 UNL     1      -3.776   0.276  -0.344  1.00  0.00     0.182 C 
HETATM   15  C12 UNL     1      -3.570   1.789  -0.184  1.00  0.00     0.108 C 
HETATM   16  C13 UNL     1      -3.605   2.187   1.255  1.00  0.00     0.020 C 
HETATM   17 CL1  UNL     1      -5.084   2.532   2.166  1.00  0.00    -0.089 Cl
HETATM   18  C14 UNL     1      -2.415   2.283   1.874  1.00  0.00     0.013 C 
HETATM   19  C15 UNL     1      -1.230   1.427   1.487  1.00  0.00     0.151 C 
HETATM   20  N3  UNL     1      -1.400   1.031   0.174  1.00  0.00    -0.350 N 
HETATM   21  C16 UNL     1      -2.123   1.977  -0.607  1.00  0.00     0.280 C 
HETATM   22  F1  UNL     1      -1.976   1.867  -1.963  1.00  0.00    -0.226 F 
ENDROOT
BRANCH   1  23
HETATM   23  O1  UNL     1       4.618  -1.153   0.835  1.00  0.00    -0.387 OA
HETATM   24  C1  UNL     1       5.250  -0.375   1.832  1.00  0.00     0.202 C 
ENDBRANCH   1  23
TORSDOF 1
