REMARK  3 active torsions:
REMARK  status: ('A' for Active; 'I' for Inactive)
REMARK    1  A    between atoms: C2_2  and  N1_3 
REMARK    2  A    between atoms: N1_3  and  C3_4 
REMARK    3  A    between atoms: C8_10  and  O1_11 
ROOT
HETATM    1  C3  UNL     1       0.730  -0.384   0.384  1.00  0.00     0.158 C 
HETATM    2  C4  UNL     1       0.320  -0.019   1.566  1.00  0.00     0.129 C 
HETATM    3  N2  UNL     1      -0.593   0.860   1.615  1.00  0.00    -0.279 NA
HETATM    4  C5  UNL     1      -1.335   1.137   0.413  1.00  0.00     0.191 C 
HETATM    5  C6  UNL     1      -2.754   0.795   0.432  1.00  0.00    -0.002 A 
HETATM    6  C7  UNL     1      -3.789   1.733   0.319  1.00  0.00     0.048 A 
HETATM    7  C8  UNL     1      -5.147   1.503   0.329  1.00  0.00     0.066 A 
HETATM    8  C9  UNL     1      -5.537   0.188   0.467  1.00  0.00     0.039 A 
HETATM    9  C10 UNL     1      -4.565  -0.785   0.583  1.00  0.00     0.040 A 
HETATM   10  C11 UNL     1      -3.212  -0.504   0.568  1.00  0.00     0.085 A 
HETATM   11  O2  UNL     1      -2.482  -1.681   0.703  1.00  0.00    -0.303 OA
HETATM   12  C12 UNL     1      -2.750  -2.694  -0.241  1.00  0.00     0.260 C 
HETATM   13  N3  UNL     1      -1.640  -2.966  -0.882  1.00  0.00    -0.230 NA
HETATM   14  C13 UNL     1      -0.442  -2.240  -0.535  1.00  0.00     0.237 C 
HETATM   15  N4  UNL     1      -0.481  -1.080   0.051  1.00  0.00    -0.222 NA
ENDROOT
BRANCH   1  16
HETATM   16  N1  UNL     1       1.847  -0.290  -0.492  1.00  0.00    -0.344 N 
HETATM   17  H4  UNL     1       1.542  -0.245  -1.487  1.00  0.00     0.163 HD
BRANCH  16  18
HETATM   18  C2  UNL     1       3.170  -0.276   0.144  1.00  0.00     0.145 A 
HETATM   19  C1  UNL     1       3.242  -1.602   0.901  1.00  0.00     0.067 C 
HETATM   20  N5  UNL     1       3.220   0.825   1.052  1.00  0.00    -0.268 NA
HETATM   21  C14 UNL     1       4.023   1.797   1.064  1.00  0.00     0.116 A 
HETATM   22  C15 UNL     1       5.098   2.002   0.122  1.00  0.00     0.058 A 
HETATM   23  C16 UNL     1       5.067   0.995  -0.724  1.00  0.00     0.118 A 
HETATM   24  F1  UNL     1       6.030   1.026  -1.701  1.00  0.00    -0.209 F 
HETATM   25  C17 UNL     1       4.235  -0.192  -0.893  1.00  0.00     0.194 A 
HETATM   26 CL1  UNL     1       5.285  -1.628  -0.767  1.00  0.00    -0.113 Cl
ENDBRANCH  16  18
ENDBRANCH   1  16
BRANCH   7  27
HETATM   27  O1  UNL     1      -6.032   2.562   0.204  1.00  0.00    -0.361 OA
HETATM   28  H8  UNL     1      -5.897   3.210  -0.545  1.00  0.00     0.217 HD
ENDBRANCH   7  27
TORSDOF 3
