REMARK  6 active torsions:
REMARK  status: ('A' for Active; 'I' for Inactive)
REMARK    1  A    between atoms: C2_2  and  C3_3 
REMARK    2  A    between atoms: C3_3  and  C4_4 
REMARK    3  A    between atoms: C3_3  and  N1_9 
REMARK    4  A    between atoms: C5_5  and  C6_7 
REMARK    5  A    between atoms: N1_9  and  C7_10 
REMARK    6  A    between atoms: C11_16  and  O1_17 
ROOT
HETATM    1  C7  UNL     1      -0.495   1.074  -0.753  1.00  0.00     0.145 A 
HETATM    2  N2  UNL     1      -0.920   1.321  -2.002  1.00  0.00    -0.223 NA
HETATM    3  C8  UNL     1      -0.225   1.184  -3.115  1.00  0.00     0.236 A 
HETATM    4  N3  UNL     1       1.044   0.751  -2.989  1.00  0.00    -0.241 NA
HETATM    5  C9  UNL     1       1.565   0.475  -1.776  1.00  0.00     0.077 A 
HETATM    6  C10 UNL     1       2.869   0.038  -1.726  1.00  0.00     0.072 A 
HETATM    7  C11 UNL     1       3.439  -0.255  -0.507  1.00  0.00     0.106 A 
HETATM    8  C13 UNL     1       2.665  -0.094   0.630  1.00  0.00     0.136 A 
HETATM    9  C14 UNL     1       1.348   0.346   0.591  1.00  0.00     0.121 A 
HETATM   10  C15 UNL     1       0.803   0.632  -0.641  1.00  0.00     0.075 A 
HETATM   11  O2  UNL     1       0.590   0.501   1.732  1.00  0.00    -0.345 OA
HETATM   12  C16 UNL     1       1.118   0.268   3.019  1.00  0.00     0.202 C 
HETATM   13  C17 UNL     1       2.621   0.275   3.056  1.00  0.00     0.202 C 
HETATM   14  O3  UNL     1       3.176  -0.371   1.901  1.00  0.00    -0.344 OA
ENDROOT
BRANCH   1  15
HETATM   15  N1  UNL     1      -1.340   1.265   0.380  1.00  0.00    -0.334 N 
HETATM   16  H6  UNL     1      -1.286   1.794   1.279  1.00  0.00     0.168 HD
BRANCH  15  17
HETATM   17  C3  UNL     1      -2.557   0.550   0.227  1.00  0.00     0.077 C 
BRANCH  17  18
HETATM   18  C2  UNL     1      -2.765  -0.334   1.193  1.00  0.00    -0.126 C 
HETATM   19  C1  UNL     1      -3.212  -0.910   2.290  1.00  0.00     0.099 C 
ENDBRANCH  17  18
BRANCH  17  20
HETATM   20  C4  UNL     1      -3.567   0.656  -0.803  1.00  0.00     0.060 C 
HETATM   21  C5  UNL     1      -4.725   0.239  -1.289  1.00  0.00     0.043 C 
HETATM   22 CL1  UNL     1      -5.573   0.789  -2.748  1.00  0.00    -0.086 Cl
BRANCH  21  23
HETATM   23  C6  UNL     1      -5.603  -0.802  -0.731  1.00  0.00     0.273 C 
HETATM   24  F1  UNL     1      -5.805  -1.848  -1.608  1.00  0.00    -0.250 F 
ENDBRANCH  21  23
ENDBRANCH  17  20
ENDBRANCH  15  17
ENDBRANCH   1  15
BRANCH   7  25
HETATM   25  O1  UNL     1       4.737  -0.698  -0.345  1.00  0.00    -0.353 OA
HETATM   26  C12 UNL     1       5.664  -0.917  -1.373  1.00  0.00     0.210 C 
ENDBRANCH   7  25
TORSDOF 6
