REMARK  3 active torsions:
REMARK  status: ('A' for Active; 'I' for Inactive)
REMARK    1  A    between atoms: O1_1  and  C1_2 
REMARK    2  A    between atoms: C5_8  and  N3_9 
REMARK    3  A    between atoms: N3_9  and  C6_10 
ROOT
HETATM    1  C1  UNL     1      -4.193  -0.755  -0.493  1.00  0.00     0.104 A 
HETATM    2  C2  UNL     1      -3.527  -1.941  -0.721  1.00  0.00     0.072 A 
HETATM    3  C3  UNL     1      -2.149  -1.928  -0.757  1.00  0.00     0.077 A 
HETATM    4  N1  UNL     1      -1.463  -3.064  -0.977  1.00  0.00    -0.241 NA
HETATM    5  C4  UNL     1      -0.120  -3.091  -1.018  1.00  0.00     0.236 A 
HETATM    6  N2  UNL     1       0.593  -1.940  -0.835  1.00  0.00    -0.224 NA
HETATM    7  C5  UNL     1      -0.029  -0.773  -0.611  1.00  0.00     0.141 A 
HETATM    8  C13 UNL     1      -1.394  -0.780  -0.575  1.00  0.00     0.075 A 
HETATM    9  C14 UNL     1      -2.098   0.373  -0.352  1.00  0.00     0.121 A 
HETATM   10  C15 UNL     1      -3.475   0.426  -0.304  1.00  0.00     0.136 A 
HETATM   11  O2  UNL     1      -4.115   1.641  -0.071  1.00  0.00    -0.344 OA
HETATM   12  C16 UNL     1      -3.478   2.515   0.868  1.00  0.00     0.202 C 
HETATM   13  C17 UNL     1      -2.001   2.561   0.693  1.00  0.00     0.202 C 
HETATM   14  O3  UNL     1      -1.485   1.584  -0.156  1.00  0.00    -0.345 OA
ENDROOT
BRANCH   7  15
HETATM   15  N3  UNL     1       0.769   0.388  -0.427  1.00  0.00    -0.363 N 
HETATM   16  H4  UNL     1       0.671   1.397  -0.253  1.00  0.00     0.162 HD
BRANCH  15  17
HETATM   17  C6  UNL     1       2.194   0.133  -0.496  1.00  0.00     0.131 C 
HETATM   18  C7  UNL     1       3.044   1.318  -0.393  1.00  0.00     0.002 C 
HETATM   19  C8  UNL     1       4.316   1.517  -0.191  1.00  0.00     0.001 C 
HETATM   20  C9  UNL     1       5.261   0.399  -0.001  1.00  0.00     0.044 C 
HETATM   21  C10 UNL     1       5.022  -0.828   0.497  1.00  0.00     0.137 C 
HETATM   22  F1  UNL     1       6.068  -1.685   0.570  1.00  0.00    -0.204 F 
HETATM   23  C11 UNL     1       3.704  -1.306   0.971  1.00  0.00     0.071 C 
HETATM   24 CL1  UNL     1       3.842  -2.550   2.219  1.00  0.00    -0.081 Cl
HETATM   25  C12 UNL     1       2.500  -0.889   0.541  1.00  0.00     0.029 C 
ENDBRANCH  15  17
ENDBRANCH   7  15
BRANCH   1  26
HETATM   26  O1  UNL     1      -5.584  -0.746  -0.453  1.00  0.00    -0.358 OA
HETATM   27  H1  UNL     1      -6.170  -0.311  -1.154  1.00  0.00     0.217 HD
ENDBRANCH   1  26
TORSDOF 3
