REMARK  1 active torsions:
REMARK  status: ('A' for Active; 'I' for Inactive)
REMARK    1  A    between atoms: O1_2  and  C2_3 
ROOT
HETATM    1  C2  UNL     1       2.882  -0.562  -0.165  1.00  0.00     0.045 C 
HETATM    2  C3  UNL     1       1.631  -0.278   0.078  1.00  0.00     0.021 C 
HETATM    3  C4  UNL     1       0.266  -0.354   0.481  1.00  0.00     0.100 C 
HETATM    4  C5  UNL     1      -0.538  -1.162  -0.521  1.00  0.00     0.099 C 
HETATM    5  N1  UNL     1      -1.780  -1.477  -0.890  1.00  0.00    -0.291 NA
HETATM    6  C6  UNL     1      -2.935  -1.748  -0.116  1.00  0.00     0.161 C 
HETATM    7  C7  UNL     1      -2.903  -1.068   1.196  1.00  0.00     0.034 C 
HETATM    8  C8  UNL     1      -2.792   0.070   0.461  1.00  0.00     0.031 C 
HETATM    9  C9  UNL     1      -3.690   0.130  -0.766  1.00  0.00     0.034 C 
HETATM   10  C10 UNL     1      -4.224  -1.079  -0.612  1.00  0.00    -0.053 C 
HETATM   11  C11 UNL     1      -5.640  -1.365  -0.943  1.00  0.00     0.046 C 
HETATM   12  N2  UNL     1      -1.811   1.169   0.553  1.00  0.00    -0.359 N 
HETATM   13  C12 UNL     1      -0.310   1.069   0.578  1.00  0.00     0.022 C 
HETATM   14  C13 UNL     1      -0.037   2.329   0.615  1.00  0.00     0.028 C 
HETATM   15  C14 UNL     1       1.026   3.309   0.584  1.00  0.00     0.026 C 
HETATM   16  C15 UNL     1       2.334   3.194   0.477  1.00  0.00     0.134 C 
HETATM   17  O2  UNL     1       3.223   2.114   0.350  1.00  0.00    -0.363 OA
HETATM   18  C16 UNL     1       3.640   1.589  -0.898  1.00  0.00     0.181 C 
HETATM   19  C17 UNL     1       4.052   0.130  -0.717  1.00  0.00     0.091 C 
HETATM   20  H13 UNL     1      -2.298   2.076   0.556  1.00  0.00     0.166 HD
ENDROOT
BRANCH   1  21
HETATM   21  O1  UNL     1       2.440  -1.739   0.366  1.00  0.00    -0.360 OA
HETATM   22  C1  UNL     1       3.213  -2.703   1.030  1.00  0.00     0.209 C 
ENDBRANCH   1  21
TORSDOF 1
