REMARK  4 active torsions:
REMARK  status: ('A' for Active; 'I' for Inactive)
REMARK    1  A    between atoms: C2_2  and  N1_3 
REMARK    2  A    between atoms: N1_3  and  C3_4 
REMARK    3  A    between atoms: C4_6  and  N3_7 
REMARK    4  A    between atoms: C6_9  and  C7_10 
ROOT
HETATM    1  C7  UNL     1       1.472   0.280   0.306  1.00  0.00    -0.040 C 
HETATM    2  C8  UNL     1       1.346  -1.121   0.582  1.00  0.00     0.032 C 
HETATM    3  C9  UNL     1       0.642  -1.981   1.271  1.00  0.00     0.135 C 
HETATM    4  O1  UNL     1      -0.251  -2.667   2.094  1.00  0.00    -0.363 OA
HETATM    5  C10 UNL     1      -1.508  -1.965   2.339  1.00  0.00     0.176 C 
HETATM    6  C11 UNL     1      -1.947  -1.594   0.930  1.00  0.00     0.057 C 
HETATM    7  C12 UNL     1      -3.166  -0.715   0.896  1.00  0.00     0.278 C 
HETATM    8  N4  UNL     1      -3.243  -0.195  -0.462  1.00  0.00     0.121 N 
HETATM    9  C13 UNL     1      -4.563  -0.244  -1.001  1.00  0.00     0.301 C 
HETATM   10  C14 UNL     1      -5.240   1.070  -1.192  1.00  0.00     0.198 C 
HETATM   11  O2  UNL     1      -4.472   2.018  -1.825  1.00  0.00    -0.385 OA
HETATM   12  C15 UNL     1      -3.130   1.726  -1.865  1.00  0.00     0.231 C 
HETATM   13  C16 UNL     1      -2.659   1.140  -0.527  1.00  0.00     0.382 C 
HETATM   14  O3  UNL     1      -1.270   1.132  -0.538  1.00  0.00    -0.355 OA
HETATM   15  C17 UNL     1      -0.713   1.488   0.661  1.00  0.00     0.175 C 
HETATM   16  C18 UNL     1       0.776   1.500   0.739  1.00  0.00     0.066 C 
ENDROOT
BRANCH   1  17
HETATM   17  C6  UNL     1       2.464   0.453  -0.565  1.00  0.00     0.039 A 
HETATM   18  C3  UNL     1       3.469  -0.220  -1.350  1.00  0.00     0.135 A 
HETATM   19  N2  UNL     1       3.990   0.850  -1.827  1.00  0.00    -0.239 NA
HETATM   20  C4  UNL     1       3.067   1.685  -1.143  1.00  0.00     0.267 A 
BRANCH  18  21
HETATM   21  N1  UNL     1       3.806  -1.588  -1.542  1.00  0.00    -0.354 N 
HETATM   22  H4  UNL     1       2.949  -2.144  -1.788  1.00  0.00     0.166 HD
BRANCH  21  23
HETATM   23  C2  UNL     1       5.155  -2.060  -1.406  1.00  0.00     0.063 C 
HETATM   24  C1  UNL     1       5.875  -2.215  -0.304  1.00  0.00     0.049 C 
ENDBRANCH  21  23
ENDBRANCH  18  21
BRANCH  20  25
HETATM   25  N3  UNL     1       3.604   2.488  -0.084  1.00  0.00    -0.280 NA
HETATM   26  C5  UNL     1       4.794   2.334   0.366  1.00  0.00     0.145 C 
ENDBRANCH  20  25
ENDBRANCH   1  17
TORSDOF 4
