REMARK  8 active torsions:
REMARK  status: ('A' for Active; 'I' for Inactive)
REMARK    1  A    between atoms: C5_6  and  N1_7 
REMARK    2  A    between atoms: N1_7  and  C6_8 
REMARK    3  A    between atoms: C9_13  and  C10_14 
REMARK    4  A    between atoms: C10_14  and  O1_15 
REMARK    5  A    between atoms: O1_15  and  C11_16 
REMARK    6  A    between atoms: C11_16  and  C12_17 
REMARK    7  A    between atoms: C12_17  and  C13_18 
REMARK    8  A    between atoms: C13_18  and  N4_19 
ROOT
HETATM    1  C6  UNL     1       2.935  -0.325   0.350  1.00  0.00     0.111 A 
HETATM    2  N2  UNL     1       3.311  -1.498  -0.103  1.00  0.00    -0.228 NA
HETATM    3  C7  UNL     1       2.593  -2.163  -1.122  1.00  0.00     0.235 A 
HETATM    4  N3  UNL     1       1.555  -1.654  -1.643  1.00  0.00    -0.246 NA
HETATM    5  C8  UNL     1       1.087  -0.390  -1.208  1.00  0.00     0.041 A 
HETATM    6  C9  UNL     1      -0.013   0.109  -1.803  1.00  0.00     0.026 C 
HETATM    7  C17 UNL     1       1.730   0.414  -0.148  1.00  0.00     0.137 A 
ENDROOT
BRANCH   6   8
HETATM    8  C10 UNL     1      -0.705   1.392  -1.544  1.00  0.00     0.197 C 
BRANCH   8   9
HETATM    9  O1  UNL     1      -2.013   1.222  -1.143  1.00  0.00    -0.387 OA
BRANCH   9  10
HETATM   10  C11 UNL     1      -2.840   0.577  -2.019  1.00  0.00     0.169 C 
BRANCH  10  11
HETATM   11  C12 UNL     1      -4.258   0.489  -1.441  1.00  0.00     0.056 C 
BRANCH  11  12
HETATM   12  C13 UNL     1      -4.152  -0.285  -0.145  1.00  0.00     0.277 C 
BRANCH  12  13
HETATM   13  N4  UNL     1      -5.423  -0.442   0.504  1.00  0.00     0.113 N 
HETATM   14  C14 UNL     1      -5.195  -1.202   1.740  1.00  0.00     0.301 C 
HETATM   15  C15 UNL     1      -6.278  -0.653   2.651  1.00  0.00     0.200 C 
HETATM   16  O2  UNL     1      -6.211   0.714   2.321  1.00  0.00    -0.361 OA
HETATM   17  C16 UNL     1      -6.016   0.798   0.953  1.00  0.00     0.440 C 
ENDBRANCH  12  13
ENDBRANCH  11  12
ENDBRANCH  10  11
ENDBRANCH   9  10
ENDBRANCH   8   9
ENDBRANCH   6   8
BRANCH   1  18
HETATM   18  N1  UNL     1       3.763   0.232   1.389  1.00  0.00    -0.344 N 
HETATM   19  H4  UNL     1       3.244   0.710   2.188  1.00  0.00     0.167 HD
BRANCH  18  20
HETATM   20  C5  UNL     1       5.192   0.079   1.224  1.00  0.00     0.034 A 
HETATM   21  C4  UNL     1       5.902  -1.061   1.608  1.00  0.00     0.029 A 
HETATM   22  C3  UNL     1       7.276  -1.082   1.400  1.00  0.00     0.004 A 
HETATM   23  C2  UNL     1       7.953  -0.029   0.834  1.00  0.00     0.019 A 
HETATM   24  C1  UNL     1       7.280   1.123   0.439  1.00  0.00     0.013 A 
HETATM   25 BR1  UNL     1       8.163   2.613  -0.347  1.00  0.00    -0.051 Br
HETATM   26  C18 UNL     1       5.915   1.130   0.652  1.00  0.00     0.048 A 
ENDBRANCH  18  20
ENDBRANCH   1  18
TORSDOF 8
