REMARK  3 active torsions:
REMARK  status: ('A' for Active; 'I' for Inactive)
REMARK    1  A    between atoms: N1_1  and  C1_2 
REMARK    2  A    between atoms: C6_8  and  N3_9 
REMARK    3  A    between atoms: N3_9  and  C7_10 
ROOT
HETATM    1  C1  UNL     1      -4.254   0.761  -1.275  1.00  0.00     0.021 C 
HETATM    2  C2  UNL     1      -3.110   1.450  -1.303  1.00  0.00     0.004 C 
HETATM    3  C3  UNL     1      -1.789   2.130  -1.294  1.00  0.00     0.049 C 
HETATM    4  C4  UNL     1      -0.763   1.040  -1.092  1.00  0.00     0.124 C 
HETATM    5  N2  UNL     1      -0.678   0.521   0.226  1.00  0.00    -0.383 N 
HETATM    6  C5  UNL     1      -0.096  -0.805   0.262  1.00  0.00     0.128 A 
HETATM    7  C6  UNL     1       1.268  -0.783   0.268  1.00  0.00     0.160 A 
HETATM    8  N4  UNL     1       2.103  -1.864   0.269  1.00  0.00    -0.222 NA
HETATM    9  C13 UNL     1       1.561  -3.084   0.266  1.00  0.00     0.238 A 
HETATM   10  N5  UNL     1       0.220  -3.132   0.264  1.00  0.00    -0.216 NA
HETATM   11  C14 UNL     1      -0.637  -2.110   0.263  1.00  0.00     0.197 A 
HETATM   12  O1  UNL     1      -1.769  -2.986   0.273  1.00  0.00    -0.329 OA
HETATM   13  C15 UNL     1      -2.923  -2.488   0.905  1.00  0.00     0.205 C 
HETATM   14  C16 UNL     1      -3.512  -1.398   0.126  1.00  0.00     0.002 C 
HETATM   15  C17 UNL     1      -4.205  -0.522  -0.581  1.00  0.00     0.026 C 
HETATM   16  H8  UNL     1      -0.747   0.454   1.237  1.00  0.00     0.159 HD
ENDROOT
BRANCH   7  17
HETATM   17  N3  UNL     1       1.806   0.519   0.377  1.00  0.00    -0.339 N 
HETATM   18  H9  UNL     1       1.389   1.447   0.500  1.00  0.00     0.167 HD
BRANCH  17  19
HETATM   19  C7  UNL     1       3.185   0.759   0.337  1.00  0.00     0.035 A 
HETATM   20  C8  UNL     1       3.884   1.754   1.016  1.00  0.00     0.032 A 
HETATM   21  C9  UNL     1       5.241   1.972   0.941  1.00  0.00     0.046 A 
HETATM   22  C10 UNL     1       5.941   1.119   0.117  1.00  0.00     0.138 A 
HETATM   23  F1  UNL     1       7.274   1.359   0.066  1.00  0.00    -0.204 F 
HETATM   24  C11 UNL     1       5.287   0.103  -0.588  1.00  0.00     0.074 A 
HETATM   25 CL1  UNL     1       6.384  -0.849  -1.565  1.00  0.00    -0.081 Cl
HETATM   26  C12 UNL     1       3.926  -0.068  -0.475  1.00  0.00     0.056 A 
ENDBRANCH  17  19
ENDBRANCH   7  17
BRANCH   1  27
HETATM   27  N1  UNL     1      -5.666   0.797  -1.577  1.00  0.00    -0.399 N 
HETATM   28  H1  UNL     1      -5.977   0.504  -2.529  1.00  0.00     0.156 HD
HETATM   29  H2  UNL     1      -6.323   1.117  -0.826  1.00  0.00     0.156 HD
ENDBRANCH   1  27
TORSDOF 3
