REMARK  5 active torsions:
REMARK  status: ('A' for Active; 'I' for Inactive)
REMARK    1  A    between atoms: C1_1  and  C2_2 
REMARK    2  A    between atoms: C3_3  and  O1_4 
REMARK    3  A    between atoms: O1_4  and  C4_5 
REMARK    4  A    between atoms: C13_16  and  C14_17 
REMARK    5  A    between atoms: C18_23  and  C19_24 
ROOT
HETATM    1  C4  UNL     1       2.310  -0.238   0.441  1.00  0.00     0.092 C 
HETATM    2  C5  UNL     1       1.558  -0.911  -0.423  1.00  0.00     0.174 C 
HETATM    3  O2  UNL     1       0.324  -1.446  -0.255  1.00  0.00    -0.335 OA
HETATM    4  C6  UNL     1      -0.865  -1.222  -0.932  1.00  0.00     0.344 C 
HETATM    5  O3  UNL     1      -1.917  -1.962  -0.317  1.00  0.00    -0.358 OA
HETATM    6  C7  UNL     1      -3.231  -1.820  -0.489  1.00  0.00     0.164 C 
HETATM    7  C8  UNL     1      -4.473  -1.608  -0.530  1.00  0.00     0.015 A 
HETATM    8  C9  UNL     1      -5.169  -0.841   0.477  1.00  0.00     0.008 A 
HETATM    9  C10 UNL     1      -6.130  -0.118   1.270  1.00  0.00     0.017 A 
HETATM   10  C11 UNL     1      -5.215   0.199   2.299  1.00  0.00     0.028 A 
HETATM   11  C12 UNL     1      -4.171  -0.476   1.622  1.00  0.00     0.054 A 
HETATM   12  C13 UNL     1      -4.847  -0.905   0.527  1.00  0.00     0.008 A 
HETATM   13  C14 UNL     1      -5.670  -1.331  -0.647  1.00  0.00     0.023 A 
HETATM   14  N1  UNL     1      -2.967  -0.444   2.274  1.00  0.00    -0.373 N 
HETATM   15  C15 UNL     1      -1.616  -0.121   2.098  1.00  0.00     0.203 C 
HETATM   16  N2  UNL     1      -0.592  -0.878   2.434  1.00  0.00    -0.256 NA
HETATM   17  C16 UNL     1       0.714  -0.362   2.168  1.00  0.00     0.120 C 
HETATM   18  C17 UNL     1       1.890   0.058   1.804  1.00  0.00     0.058 C 
HETATM   19  H9  UNL     1      -3.033  -0.764   3.267  1.00  0.00     0.161 HD
ENDROOT
BRANCH   1  20
HETATM   20  O1  UNL     1       3.540   0.180  -0.032  1.00  0.00    -0.339 OA
BRANCH  20  21
HETATM   21  C3  UNL     1       3.837   1.496  -0.464  1.00  0.00     0.164 A 
HETATM   22  C2  UNL     1       4.954   1.846  -0.837  1.00  0.00    -0.029 A 
HETATM   23  C18 UNL     1       4.179   1.059  -2.233  1.00  0.00     0.086 A 
BRANCH  22  24
HETATM   24  C1  UNL     1       5.706   2.074  -1.109  1.00  0.00     0.003 A 
HETATM   25  N3  UNL     1       6.619   2.343  -1.461  1.00  0.00    -0.291 NA
HETATM   26  C19 UNL     1       5.612   1.560  -2.327  1.00  0.00     0.132 A 
HETATM   27  H17 UNL     1       7.456   2.487  -2.049  1.00  0.00     0.127 HD
ENDBRANCH  22  24
ENDBRANCH  20  21
ENDBRANCH   1  20
TORSDOF 5
