REMARK  4 active torsions:
REMARK  status: ('A' for Active; 'I' for Inactive)
REMARK    1  A    between atoms: C2_2  and  C3_3 
REMARK    2  A    between atoms: C3_3  and  N1_4 
REMARK    3  A    between atoms: C6_7  and  N2_8 
REMARK    4  A    between atoms: N2_8  and  C7_9 
ROOT
HETATM    1  C7  UNL     1      -0.066   4.181   1.031  1.00  0.00     0.245 C 
HETATM    2  C8  UNL     1       1.252   4.784   0.995  1.00  0.00     0.078 C 
HETATM    3  N3  UNL     1       2.287   5.272   0.981  1.00  0.00    -0.196 NA
ENDROOT
BRANCH   1   4
HETATM    4  N2  UNL     1      -0.038   2.774   0.712  1.00  0.00    -0.362 N 
HETATM    5  H9  UNL     1       0.986   2.559   0.648  1.00  0.00     0.162 HD
BRANCH   4   6
HETATM    6  C6  UNL     1      -1.241   1.977   0.558  1.00  0.00     0.139 A 
HETATM    7  C5  UNL     1      -1.300   0.606   0.245  1.00  0.00     0.053 A 
HETATM    8  C4  UNL     1      -0.070   0.249   0.128  1.00  0.00     0.103 C 
HETATM    9  C10 UNL     1      -2.523   0.090   0.139  1.00  0.00     0.071 A 
HETATM   10  N1  UNL     1       0.903  -0.761  -0.133  1.00  0.00    -0.389 N 
HETATM   11  C15 UNL     1       0.215  -1.874  -0.548  1.00  0.00     0.124 C 
HETATM   12  C14 UNL     1      -0.017  -2.436  -1.841  1.00  0.00     0.046 C 
HETATM   13  C13 UNL     1      -0.999  -3.599  -1.426  1.00  0.00     0.169 C 
HETATM   14  O1  UNL     1      -1.999  -3.179  -0.727  1.00  0.00    -0.387 OA
HETATM   15  C12 UNL     1      -3.011  -2.553  -0.345  1.00  0.00     0.197 C 
HETATM   16  C11 UNL     1      -3.118  -1.074  -0.078  1.00  0.00     0.032 C 
HETATM   17  N5  UNL     1      -3.522   0.961   0.347  1.00  0.00    -0.241 NA
HETATM   18  C9  UNL     1      -3.500   2.230   0.636  1.00  0.00     0.235 A 
HETATM   19  N4  UNL     1      -2.302   2.754   0.745  1.00  0.00    -0.224 NA
BRANCH  10  20
HETATM   20  C3  UNL     1       2.318  -0.828  -0.142  1.00  0.00     0.122 C 
BRANCH  20  21
HETATM   21  C2  UNL     1       3.030   0.382   0.355  1.00  0.00     0.015 C 
HETATM   22  C1  UNL     1       4.525   0.146   0.293  1.00  0.00     0.006 C 
ENDBRANCH  20  21
ENDBRANCH  10  20
ENDBRANCH   4   6
ENDBRANCH   1   4
TORSDOF 4
