REMARK  3 active torsions:
REMARK  status: ('A' for Active; 'I' for Inactive)
REMARK    1  A    between atoms: O1_2  and  C2_3 
REMARK    2  A    between atoms: C6_9  and  N3_10 
REMARK    3  A    between atoms: N3_10  and  C7_11 
ROOT
HETATM    1  C2  UNL     1       3.398  -0.162  -0.281  1.00  0.00     0.106 A 
HETATM    2  C3  UNL     1       2.995   1.113  -0.625  1.00  0.00     0.072 A 
HETATM    3  C4  UNL     1       1.647   1.347  -0.471  1.00  0.00     0.077 A 
HETATM    4  N1  UNL     1       1.210   2.579  -0.796  1.00  0.00    -0.241 NA
HETATM    5  C5  UNL     1      -0.086   2.886  -0.674  1.00  0.00     0.236 A 
HETATM    6  N2  UNL     1      -0.975   1.992  -0.233  1.00  0.00    -0.223 NA
HETATM    7  C6  UNL     1      -0.590   0.770   0.098  1.00  0.00     0.144 A 
HETATM    8  C13 UNL     1       0.729   0.428  -0.016  1.00  0.00     0.075 A 
HETATM    9  C14 UNL     1       1.136  -0.824   0.320  1.00  0.00     0.121 A 
HETATM   10  C15 UNL     1       2.492  -1.098   0.178  1.00  0.00     0.136 A 
HETATM   11  O2  UNL     1       2.908  -2.389   0.525  1.00  0.00    -0.344 OA
HETATM   12  C16 UNL     1       1.976  -3.431   0.282  1.00  0.00     0.202 C 
HETATM   13  C17 UNL     1       0.636  -3.137   0.913  1.00  0.00     0.202 C 
HETATM   14  O3  UNL     1       0.294  -1.794   0.779  1.00  0.00    -0.345 OA
ENDROOT
BRANCH   7  15
HETATM   15  N3  UNL     1      -1.608  -0.108   0.559  1.00  0.00    -0.340 N 
HETATM   16  H6  UNL     1      -1.755  -1.065   0.933  1.00  0.00     0.167 HD
BRANCH  15  17
HETATM   17  C7  UNL     1      -2.974   0.328   0.574  1.00  0.00     0.035 A 
HETATM   18  C8  UNL     1      -3.412   1.096  -0.506  1.00  0.00     0.032 A 
HETATM   19  C9  UNL     1      -4.687   1.599  -0.602  1.00  0.00     0.046 A 
HETATM   20  C10 UNL     1      -5.621   1.352   0.408  1.00  0.00     0.138 A 
HETATM   21  F1  UNL     1      -6.888   1.806   0.395  1.00  0.00    -0.204 F 
HETATM   22  C11 UNL     1      -5.221   0.598   1.487  1.00  0.00     0.074 A 
HETATM   23 CL1  UNL     1      -6.292   0.217   2.819  1.00  0.00    -0.081 Cl
HETATM   24  C12 UNL     1      -3.948   0.110   1.559  1.00  0.00     0.056 A 
ENDBRANCH  15  17
ENDBRANCH   7  15
BRANCH   1  25
HETATM   25  O1  UNL     1       4.746  -0.483  -0.407  1.00  0.00    -0.353 OA
HETATM   26  C1  UNL     1       5.692   0.458  -0.873  1.00  0.00     0.210 C 
ENDBRANCH   1  25
TORSDOF 3
