REMARK  7 active torsions:
REMARK  status: ('A' for Active; 'I' for Inactive)
REMARK    1  A    between atoms: C5_6  and  C6_7 
REMARK    2  A    between atoms: C6_7  and  O2_8 
REMARK    3  A    between atoms: O2_8  and  C7_9 
REMARK    4  A    between atoms: C7_9  and  C8_10 
REMARK    5  A    between atoms: C8_10  and  C9_12 
REMARK    6  A    between atoms: C9_12  and  N1_13 
REMARK    7  A    between atoms: N1_13  and  C10_14 
ROOT
HETATM    1  C10 UNL     1       2.550   0.096  -1.403  1.00  0.00     0.140 A 
HETATM    2  N2  UNL     1       2.889  -0.450  -2.574  1.00  0.00    -0.224 NA
HETATM    3  C11 UNL     1       4.059  -1.039  -2.839  1.00  0.00     0.236 A 
HETATM    4  N3  UNL     1       4.986  -1.101  -1.869  1.00  0.00    -0.241 NA
HETATM    5  C12 UNL     1       4.764  -0.588  -0.647  1.00  0.00     0.075 A 
HETATM    6  C13 UNL     1       5.688  -0.631   0.377  1.00  0.00     0.035 A 
HETATM    7  C14 UNL     1       5.446  -0.099   1.629  1.00  0.00     0.042 A 
HETATM    8  C15 UNL     1       4.202   0.489   1.802  1.00  0.00     0.103 A 
HETATM    9  C16 UNL     1       3.270   0.539   0.788  1.00  0.00     0.118 A 
HETATM   10  C17 UNL     1       3.534   0.004  -0.449  1.00  0.00     0.074 A 
HETATM   11  O3  UNL     1       2.088   1.161   1.137  1.00  0.00    -0.345 OA
HETATM   12  C18 UNL     1       2.145   2.156   2.143  1.00  0.00     0.202 C 
HETATM   13  C19 UNL     1       2.655   1.420   3.389  1.00  0.00     0.202 C 
HETATM   14  O4  UNL     1       4.002   1.016   3.093  1.00  0.00    -0.346 OA
ENDROOT
BRANCH   1  15
HETATM   15  N1  UNL     1       1.272   0.700  -1.271  1.00  0.00    -0.373 N 
HETATM   16  H17 UNL     1       0.757   1.192  -0.524  1.00  0.00     0.161 HD
BRANCH  15  17
HETATM   17  C9  UNL     1       0.371   0.683  -2.404  1.00  0.00     0.139 C 
BRANCH  17  18
HETATM   18  C8  UNL     1      -0.095  -0.719  -2.767  1.00  0.00     0.099 C 
HETATM   19 BR1  UNL     1      -1.298  -0.652  -4.264  1.00  0.00    -0.087 Br
BRANCH  18  20
HETATM   20  C7  UNL     1      -0.809  -1.242  -1.522  1.00  0.00     0.185 C 
BRANCH  20  21
HETATM   21  O2  UNL     1      -1.856  -0.318  -1.300  1.00  0.00    -0.389 OA
BRANCH  21  22
HETATM   22  C6  UNL     1      -2.534  -0.761  -0.167  1.00  0.00     0.174 C 
BRANCH  22  23
HETATM   23  C5  UNL     1      -3.654   0.229   0.069  1.00  0.00     0.040 C 
HETATM   24  C2  UNL     1      -4.410  -0.222   1.291  1.00  0.00     0.123 C 
HETATM   25  C1  UNL     1      -3.808   0.350   2.556  1.00  0.00     0.040 C 
HETATM   26  O1  UNL     1      -5.693   0.257   1.063  1.00  0.00    -0.386 OA
HETATM   27  C3  UNL     1      -5.957  -0.146  -0.246  1.00  0.00     0.168 C 
HETATM   28  C4  UNL     1      -4.676   0.148  -1.020  1.00  0.00     0.035 C 
ENDBRANCH  22  23
ENDBRANCH  21  22
ENDBRANCH  20  21
ENDBRANCH  18  20
ENDBRANCH  17  18
ENDBRANCH  15  17
ENDBRANCH   1  15
TORSDOF 7
