REMARK  4 active torsions:
REMARK  status: ('A' for Active; 'I' for Inactive)
REMARK    1  A    between atoms: C4_5  and  N1_6 
REMARK    2  A    between atoms: N1_6  and  C5_7 
REMARK    3  A    between atoms: C9_13  and  O1_14 
REMARK    4  A    between atoms: O1_14  and  C10_15 
ROOT
HETATM    1  C5  UNL     1      -0.861   0.803   0.230  1.00  0.00     0.144 A 
HETATM    2  N2  UNL     1      -1.251   2.062   0.341  1.00  0.00    -0.223 NA
HETATM    3  C6  UNL     1      -0.349   3.083   0.246  1.00  0.00     0.236 A 
HETATM    4  N3  UNL     1       0.942   2.796   0.038  1.00  0.00    -0.241 NA
HETATM    5  C7  UNL     1       1.403   1.542  -0.083  1.00  0.00     0.077 A 
HETATM    6  C8  UNL     1       2.732   1.269  -0.296  1.00  0.00     0.072 A 
HETATM    7  C9  UNL     1       3.199  -0.021  -0.420  1.00  0.00     0.108 A 
HETATM    8  C11 UNL     1       2.248  -1.040  -0.317  1.00  0.00     0.136 A 
HETATM    9  C12 UNL     1       0.908  -0.746  -0.102  1.00  0.00     0.121 A 
HETATM   10  C13 UNL     1       0.475   0.544   0.017  1.00  0.00     0.075 A 
HETATM   11  O2  UNL     1       0.049  -1.809  -0.015  1.00  0.00    -0.345 OA
HETATM   12  C14 UNL     1       0.418  -3.077   0.545  1.00  0.00     0.202 C 
HETATM   13  C15 UNL     1       1.859  -3.397   0.273  1.00  0.00     0.202 C 
HETATM   14  O3  UNL     1       2.553  -2.388  -0.418  1.00  0.00    -0.344 OA
ENDROOT
BRANCH   1  15
HETATM   15  N1  UNL     1      -1.845  -0.183   0.340  1.00  0.00    -0.342 N 
HETATM   16  H4  UNL     1      -2.098  -1.171   0.338  1.00  0.00     0.167 HD
BRANCH  15  17
HETATM   17  C4  UNL     1      -3.202   0.264   0.565  1.00  0.00     0.039 A 
HETATM   18  C3  UNL     1      -4.127   0.163   1.752  1.00  0.00     0.089 A 
HETATM   19  C2  UNL     1      -5.328   0.854   1.220  1.00  0.00     0.023 A 
HETATM   20  C1  UNL     1      -5.221   1.302  -0.020  1.00  0.00     0.136 A 
HETATM   21  F1  UNL     1      -6.148   1.961  -0.747  1.00  0.00    -0.205 F 
HETATM   22  C16 UNL     1      -3.851   0.912  -0.418  1.00  0.00     0.095 A 
HETATM   23 CL1  UNL     1      -3.252   1.310  -2.026  1.00  0.00    -0.079 Cl
ENDBRANCH  15  17
ENDBRANCH   1  15
BRANCH   7  24
HETATM   24  O1  UNL     1       4.502  -0.411  -0.633  1.00  0.00    -0.339 OA
BRANCH  24  25
HETATM   25  C10 UNL     1       5.606   0.463  -0.761  1.00  0.00     0.255 C 
HETATM   26  I1  UNL     1       5.831   1.611   1.019  1.00  0.00    -0.061 I 
ENDBRANCH  24  25
ENDBRANCH   7  24
TORSDOF 4
