REMARK  6 active torsions:
REMARK  status: ('A' for Active; 'I' for Inactive)
REMARK    1  A    between atoms: N1_1  and  C1_2 
REMARK    2  A    between atoms: N2_7  and  C5_8 
REMARK    3  A    between atoms: C5_8  and  C6_9 
REMARK    4  A    between atoms: C6_9  and  O2_10 
REMARK    5  A    between atoms: O2_10  and  C7_11 
REMARK    6  A    between atoms: N3_22  and  C16_23 
ROOT
HETATM    1  C7  UNL     1      -0.402   1.039   0.040  1.00  0.00     0.105 A 
HETATM    2  C8  UNL     1       0.302  -0.039  -0.443  1.00  0.00     0.048 A 
HETATM    3  C9  UNL     1       1.668  -0.174  -0.339  1.00  0.00    -0.031 A 
HETATM    4  C10 UNL     1       2.369   0.835   0.287  1.00  0.00     0.000 A 
HETATM    5  C11 UNL     1       1.735   1.938   0.793  1.00  0.00     0.113 A 
HETATM    6  C12 UNL     1       0.346   2.040   0.669  1.00  0.00     0.136 A 
HETATM    7  O3  UNL     1      -0.132   3.215   1.232  1.00  0.00    -0.344 OA
HETATM    8  C13 UNL     1       0.626   3.884   2.254  1.00  0.00     0.202 C 
HETATM    9  C14 UNL     1       1.984   4.155   1.699  1.00  0.00     0.202 C 
HETATM   10  O4  UNL     1       2.553   2.872   1.394  1.00  0.00    -0.345 OA
HETATM   11  C15 UNL     1       3.837   0.607   0.354  1.00  0.00     0.151 C 
HETATM   12  N3  UNL     1       4.192   0.047  -0.938  1.00  0.00    -0.234 NA
HETATM   13  N4  UNL     1       3.744  -1.269  -0.971  1.00  0.00    -0.254 NA
HETATM   14  C21 UNL     1       2.313  -1.381  -0.899  1.00  0.00     0.144 C 
HETATM   15  H25 UNL     1       4.160  -1.798  -1.789  1.00  0.00     0.141 HD
ENDROOT
BRANCH   1  16
HETATM   16  O2  UNL     1      -1.709   1.368   0.050  1.00  0.00    -0.346 OA
BRANCH  16  17
HETATM   17  C6  UNL     1      -2.843   0.740  -0.411  1.00  0.00     0.206 C 
BRANCH  17  18
HETATM   18  C5  UNL     1      -3.112  -0.567   0.242  1.00  0.00     0.302 C 
BRANCH  18  19
HETATM   19  N2  UNL     1      -4.310  -1.215  -0.255  1.00  0.00     0.128 N 
HETATM   20  C1  UNL     1      -5.464  -0.348  -0.189  1.00  0.00     0.474 C 
HETATM   21  C2  UNL     1      -6.731  -1.051   0.192  1.00  0.00     0.235 C 
HETATM   22  O1  UNL     1      -6.755  -2.275  -0.475  1.00  0.00    -0.385 OA
HETATM   23  C3  UNL     1      -5.798  -3.145   0.015  1.00  0.00     0.198 C 
HETATM   24  C4  UNL     1      -4.525  -2.482   0.412  1.00  0.00     0.301 C 
BRANCH  20  25
HETATM   25  N1  UNL     1      -5.667   0.313  -1.462  1.00  0.00     0.114 N 
HETATM   26  H1  UNL     1      -6.220  -0.281  -2.124  1.00  0.00     0.315 HD
HETATM   27  H2  UNL     1      -6.161   1.232  -1.339  1.00  0.00     0.315 HD
ENDBRANCH  20  25
ENDBRANCH  18  19
ENDBRANCH  17  18
ENDBRANCH  16  17
ENDBRANCH   1  16
BRANCH  12  28
HETATM   28  C16 UNL     1       5.631   0.061  -1.063  1.00  0.00     0.137 A 
HETATM   29  C17 UNL     1       6.240  -0.758   0.031  1.00  0.00    -0.001 A 
HETATM   30  C18 UNL     1       6.964  -1.705  -0.555  1.00  0.00    -0.001 A 
HETATM   31  C19 UNL     1       6.895  -1.593  -2.019  1.00  0.00     0.016 A 
HETATM   32  C20 UNL     1       6.113  -0.557  -2.300  1.00  0.00     0.011 A 
HETATM   33 BR1  UNL     1       5.595   0.151  -4.009  1.00  0.00    -0.054 Br
ENDBRANCH  12  28
TORSDOF 6
