REMARK  6 active torsions:
REMARK  status: ('A' for Active; 'I' for Inactive)
REMARK    1  A    between atoms: C4_4  and  N1_5 
REMARK    2  A    between atoms: N1_5  and  C5_6 
REMARK    3  A    between atoms: C7_8  and  B1_9 
REMARK    4  A    between atoms: B1_9  and  C8_10 
REMARK    5  A    between atoms: C9_11  and  O1_12 
REMARK    6  A    between atoms: C9_11  and  C10_13 
ROOT
HETATM    1  C5  UNL     1      -1.150  -0.495  -0.693  1.00  0.00     0.130 A 
HETATM    2  C6  UNL     1       0.159  -0.424  -1.120  1.00  0.00     0.065 A 
HETATM    3  C7  UNL     1       0.585  -0.751  -2.385  1.00  0.00    -0.004 A 
HETATM    4  N2  UNL     1      -0.326  -1.172  -3.280  1.00  0.00    -0.259 NA
HETATM    5  C14 UNL     1      -1.599  -1.247  -2.885  1.00  0.00     0.234 A 
HETATM    6  N3  UNL     1      -1.973  -0.925  -1.660  1.00  0.00    -0.225 NA
ENDROOT
BRANCH   3   7
HETATM    7  B1  UNL     1       2.063  -0.650  -2.799  1.00  0.00     0.246 B 
HETATM    8  H7  UNL     1       2.640  -1.676  -2.949  1.00  0.00    -0.015 HD
BRANCH   7   9
HETATM    9  C8  UNL     1       2.864   0.688  -2.592  1.00  0.00    -0.036 C 
HETATM   10  C9  UNL     1       3.649   1.593  -1.999  1.00  0.00     0.087 C 
BRANCH  10  11
HETATM   11  O1  UNL     1       4.019   2.845  -2.518  1.00  0.00    -0.359 OA
HETATM   12  H9  UNL     1       3.467   3.339  -3.187  1.00  0.00     0.217 HD
ENDBRANCH  10  11
BRANCH  10  13
HETATM   13  C10 UNL     1       4.181   1.258  -0.675  1.00  0.00     0.122 C 
HETATM   14  C11 UNL     1       3.901   0.107  -0.085  1.00  0.00     0.174 C 
HETATM   15  O2  UNL     1       4.396  -0.233   1.173  1.00  0.00    -0.358 OA
HETATM   16  C12 UNL     1       5.456   0.494   1.771  1.00  0.00     0.201 C 
HETATM   17  C13 UNL     1       5.413   1.933   1.367  1.00  0.00     0.202 C 
HETATM   18  O3  UNL     1       4.997   2.094   0.043  1.00  0.00    -0.344 OA
ENDBRANCH  10  13
ENDBRANCH   7   9
ENDBRANCH   3   7
BRANCH   1  19
HETATM   19  N1  UNL     1      -1.486  -0.134   0.636  1.00  0.00    -0.341 N 
HETATM   20  H5  UNL     1      -0.696   0.179   1.244  1.00  0.00     0.167 HD
BRANCH  19  21
HETATM   21  C4  UNL     1      -2.770  -0.150   1.232  1.00  0.00     0.034 A 
HETATM   22  C3  UNL     1      -3.948  -0.520   0.625  1.00  0.00     0.038 A 
HETATM   23  C2  UNL     1      -5.190  -0.530   1.219  1.00  0.00    -0.038 A 
HETATM   24  C1  UNL     1      -6.404  -0.950   0.468  1.00  0.00     0.050 C 
HETATM   25  C17 UNL     1      -5.279  -0.141   2.529  1.00  0.00     0.040 A 
HETATM   26  C16 UNL     1      -4.141   0.238   3.185  1.00  0.00     0.026 A 
HETATM   27 CL1  UNL     1      -6.838  -0.138   3.326  1.00  0.00    -0.084 Cl
HETATM   28  C15 UNL     1      -2.930   0.230   2.547  1.00  0.00     0.031 A 
ENDBRANCH  19  21
ENDBRANCH   1  19
TORSDOF 6
