REMARK  7 active torsions:
REMARK  status: ('A' for Active; 'I' for Inactive)
REMARK    1  A    between atoms: C5_6  and  N1_7 
REMARK    2  A    between atoms: N1_7  and  C6_8 
REMARK    3  A    between atoms: C8_12  and  C9_13 
REMARK    4  A    between atoms: C9_13  and  O1_14 
REMARK    5  A    between atoms: O1_14  and  C10_15 
REMARK    6  A    between atoms: C10_15  and  C11_16 
REMARK    7  A    between atoms: C11_16  and  C12_17 
ROOT
HETATM    1  C9  UNL     1       0.134   1.828  -0.058  1.00  0.00     0.102 C 
HETATM    2  C16 UNL     1       0.788   2.883   0.459  1.00  0.00     0.101 C 
HETATM    3  C17 UNL     1       2.210   3.237   0.726  1.00  0.00     0.234 C 
HETATM    4  O3  UNL     1       2.387   4.551   0.231  1.00  0.00    -0.383 OA
HETATM    5  C18 UNL     1       1.844   5.434   1.169  1.00  0.00     0.194 C 
HETATM    6  C19 UNL     1       0.549   4.885   1.741  1.00  0.00     0.201 C 
HETATM    7  O4  UNL     1      -0.027   3.927   0.859  1.00  0.00    -0.348 OA
ENDROOT
BRANCH   1   8
HETATM    8  C8  UNL     1      -1.375   1.807  -0.183  1.00  0.00     0.175 A 
HETATM    9  N3  UNL     1      -1.679   1.650  -1.547  1.00  0.00    -0.270 NA
HETATM   10  C7  UNL     1      -2.295   0.776  -2.209  1.00  0.00     0.229 A 
HETATM   11  N2  UNL     1      -2.828  -0.334  -1.457  1.00  0.00    -0.229 NA
HETATM   12  C6  UNL     1      -2.601  -0.299  -0.161  1.00  0.00     0.108 A 
HETATM   13  C20 UNL     1      -1.876   0.682   0.671  1.00  0.00     0.112 A 
BRANCH  12  14
HETATM   14  N1  UNL     1      -3.175  -1.448   0.481  1.00  0.00    -0.344 N 
HETATM   15  H4  UNL     1      -2.656  -1.932   1.276  1.00  0.00     0.167 HD
BRANCH  14  16
HETATM   16  C5  UNL     1      -4.453  -1.991   0.100  1.00  0.00     0.034 A 
HETATM   17  C4  UNL     1      -5.487  -1.504   0.884  1.00  0.00     0.029 A 
HETATM   18  C3  UNL     1      -6.801  -1.883   0.695  1.00  0.00     0.004 A 
HETATM   19  C2  UNL     1      -7.084  -2.793  -0.330  1.00  0.00     0.019 A 
HETATM   20  C1  UNL     1      -6.047  -3.282  -1.117  1.00  0.00     0.013 A 
HETATM   21 BR1  UNL     1      -6.289  -4.519  -2.540  1.00  0.00    -0.051 Br
HETATM   22  C21 UNL     1      -4.757  -2.887  -0.904  1.00  0.00     0.048 A 
ENDBRANCH  14  16
ENDBRANCH  12  14
ENDBRANCH   1   8
BRANCH   1  23
HETATM   23  O1  UNL     1       0.488   0.593  -0.576  1.00  0.00    -0.350 OA
BRANCH  23  24
HETATM   24  C10 UNL     1       1.809   0.075  -0.380  1.00  0.00     0.177 C 
BRANCH  24  25
HETATM   25  C11 UNL     1       1.825  -1.334  -0.891  1.00  0.00     0.062 C 
BRANCH  25  26
HETATM   26  C12 UNL     1       3.169  -2.007  -0.738  1.00  0.00     0.227 C 
HETATM   27  C13 UNL     1       3.595  -2.090   0.687  1.00  0.00     0.062 C 
HETATM   28  C14 UNL     1       5.048  -2.413   0.869  1.00  0.00     0.172 C 
HETATM   29  O2  UNL     1       5.883  -1.853  -0.082  1.00  0.00    -0.363 OA
HETATM   30  C15 UNL     1       5.411  -2.019  -1.374  1.00  0.00     0.437 C 
HETATM   31  N4  UNL     1       4.189  -1.257  -1.477  1.00  0.00     0.111 N 
HETATM   32  H18 UNL     1       3.884  -1.032  -2.431  1.00  0.00     0.319 HD
ENDBRANCH  25  26
ENDBRANCH  24  25
ENDBRANCH  23  24
ENDBRANCH   1  23
TORSDOF 7
