REMARK  7 active torsions:
REMARK  status: ('A' for Active; 'I' for Inactive)
REMARK    1  A    between atoms: C5_6  and  N1_7 
REMARK    2  A    between atoms: N1_7  and  C6_8 
REMARK    3  A    between atoms: C9_14  and  O1_15 
REMARK    4  A    between atoms: O1_15  and  C10_16 
REMARK    5  A    between atoms: C10_16  and  C11_17 
REMARK    6  A    between atoms: C11_17  and  C12_18 
REMARK    7  A    between atoms: C12_18  and  N4_19 
ROOT
HETATM    1  C6  UNL     1      -3.598  -0.626   1.066  1.00  0.00     0.139 C 
HETATM    2  N2  UNL     1      -4.080  -1.819   1.116  1.00  0.00    -0.224 NA
HETATM    3  C7  UNL     1      -3.175  -2.909   1.018  1.00  0.00     0.228 C 
HETATM    4  N3  UNL     1      -1.870  -2.877   0.909  1.00  0.00    -0.283 NA
HETATM    5  C8  UNL     1      -1.241  -1.607   0.906  1.00  0.00     0.109 C 
HETATM    6  B1  UNL     1       0.121  -1.416   0.208  1.00  0.00     0.263 B 
HETATM    7  C9  UNL     1       0.473   0.001  -0.399  1.00  0.00     0.035 C 
HETATM    8  C17 UNL     1      -0.490   0.913  -0.437  1.00  0.00     0.119 C 
HETATM    9  O3  UNL     1      -0.138   2.129  -0.985  1.00  0.00    -0.345 OA
HETATM   10  C18 UNL     1      -1.124   2.982  -1.519  1.00  0.00     0.202 C 
HETATM   11  C19 UNL     1      -2.507   2.406  -1.405  1.00  0.00     0.202 C 
HETATM   12  O4  UNL     1      -2.636   1.752  -0.132  1.00  0.00    -0.345 OA
HETATM   13  C20 UNL     1      -1.827   0.618   0.091  1.00  0.00     0.115 C 
HETATM   14  C21 UNL     1      -2.202  -0.533   0.658  1.00  0.00     0.040 C 
HETATM   15  H7  UNL     1       1.034  -2.100   0.508  1.00  0.00    -0.016 HD
ENDROOT
BRANCH   7  16
HETATM   16  O1  UNL     1       1.764   0.207  -0.856  1.00  0.00    -0.365 OA
BRANCH  16  17
HETATM   17  C10 UNL     1       2.561  -0.823  -1.402  1.00  0.00     0.175 C 
BRANCH  17  18
HETATM   18  C11 UNL     1       3.911  -0.331  -1.840  1.00  0.00     0.057 C 
BRANCH  18  19
HETATM   19  C12 UNL     1       4.715   0.260  -0.735  1.00  0.00     0.274 C 
BRANCH  19  20
HETATM   20  N4  UNL     1       5.013  -0.593   0.367  1.00  0.00     0.092 N 
HETATM   21  C13 UNL     1       5.766   0.198   1.328  1.00  0.00     0.298 C 
HETATM   22  C14 UNL     1       7.135   0.561   0.797  1.00  0.00     0.198 C 
HETATM   23  O2  UNL     1       7.627  -0.431  -0.054  1.00  0.00    -0.388 OA
HETATM   24  C15 UNL     1       7.150  -1.690   0.299  1.00  0.00     0.198 C 
HETATM   25  C16 UNL     1       5.650  -1.834   0.064  1.00  0.00     0.298 C 
ENDBRANCH  19  20
ENDBRANCH  18  19
ENDBRANCH  17  18
ENDBRANCH  16  17
ENDBRANCH   7  16
BRANCH   1  26
HETATM   26  N1  UNL     1      -4.444   0.500   1.186  1.00  0.00    -0.340 N 
HETATM   27  H4  UNL     1      -3.979   1.347   1.568  1.00  0.00     0.167 HD
BRANCH  26  28
HETATM   28  C5  UNL     1      -5.819   0.498   0.829  1.00  0.00     0.035 A 
HETATM   29  C4  UNL     1      -6.521   1.674   1.066  1.00  0.00     0.029 A 
HETATM   30  C3  UNL     1      -7.856   1.847   0.776  1.00  0.00     0.004 A 
HETATM   31  C2  UNL     1      -8.582   0.827   0.219  1.00  0.00     0.024 A 
HETATM   32  C1  UNL     1      -7.910  -0.348  -0.026  1.00  0.00     0.036 A 
HETATM   33 CL1  UNL     1      -8.756  -1.713  -0.739  1.00  0.00    -0.084 Cl
HETATM   34  C22 UNL     1      -6.580  -0.495   0.272  1.00  0.00     0.053 A 
ENDBRANCH  26  28
ENDBRANCH   1  26
TORSDOF 7
