REMARK  6 active torsions:
REMARK  status: ('A' for Active; 'I' for Inactive)
REMARK    1  A    between atoms: C2_2  and  O1_3 
REMARK    2  A    between atoms: O1_3  and  C3_4 
REMARK    3  A    between atoms: C3_4  and  C4_5 
REMARK    4  A    between atoms: C4_5  and  C5_6 
REMARK    5  A    between atoms: C5_6  and  C6_7 
REMARK    6  A    between atoms: C6_7  and  C7_8 
ROOT
HETATM    1  C7  UNL     1       0.630  -0.729  -1.663  1.00  0.00     0.076 C 
HETATM    2  C8  UNL     1      -0.376  -1.624  -1.558  1.00  0.00     0.079 C 
HETATM    3  C9  UNL     1       0.050  -3.044  -1.243  1.00  0.00     0.094 C 
HETATM    4  C10 UNL     1      -0.722  -3.463  -0.013  1.00  0.00    -0.020 C 
HETATM    5  C11 UNL     1      -1.636  -3.320   0.896  1.00  0.00    -0.004 C 
HETATM    6  C12 UNL     1      -2.689  -2.472   1.334  1.00  0.00    -0.003 C 
HETATM    7  C13 UNL     1      -3.665  -1.734   1.785  1.00  0.00    -0.007 C 
HETATM    8  C14 UNL     1      -4.714  -0.750   2.079  1.00  0.00     0.148 C 
HETATM    9  N1  UNL     1      -4.959   0.229   1.086  1.00  0.00    -0.372 N 
HETATM   10  C15 UNL     1      -4.192   1.299   0.701  1.00  0.00     0.136 C 
HETATM   11  N2  UNL     1      -4.613   2.369   1.253  1.00  0.00    -0.226 NA
HETATM   12  C16 UNL     1      -3.950   3.631   1.062  1.00  0.00     0.235 C 
HETATM   13  N3  UNL     1      -2.801   3.823   0.366  1.00  0.00    -0.244 NA
HETATM   14  C17 UNL     1      -2.250   2.555  -0.129  1.00  0.00     0.070 C 
HETATM   15  C18 UNL     1      -0.926   2.355  -0.303  1.00  0.00     0.030 C 
HETATM   16  C19 UNL     1      -0.564   1.068  -0.740  1.00  0.00     0.205 C 
HETATM   17  O2  UNL     1       0.090   0.631  -1.890  1.00  0.00    -0.349 OA
HETATM   18  C20 UNL     1      -3.304   1.614  -0.428  1.00  0.00     0.242 C 
HETATM   19  O3  UNL     1      -2.918   0.611  -1.184  1.00  0.00    -0.370 OA
HETATM   20  C21 UNL     1      -3.679  -0.290  -1.820  1.00  0.00     0.196 C 
HETATM   21  C22 UNL     1      -2.590  -1.136  -2.599  1.00  0.00     0.201 C 
HETATM   22  O4  UNL     1      -1.723  -1.661  -1.650  1.00  0.00    -0.350 OA
HETATM   23  H22 UNL     1      -5.846   0.181   0.528  1.00  0.00     0.161 HD
ENDROOT
BRANCH   1  24
HETATM   24  C6  UNL     1       2.093  -0.791  -1.572  1.00  0.00     0.067 C 
BRANCH  24  25
HETATM   25  C5  UNL     1       2.708   0.043  -0.482  1.00  0.00     0.009 C 
BRANCH  25  26
HETATM   26  C4  UNL     1       4.221  -0.213  -0.593  1.00  0.00     0.027 C 
BRANCH  26  27
HETATM   27  C3  UNL     1       4.958   0.578   0.476  1.00  0.00     0.167 C 
BRANCH  27  28
HETATM   28  O1  UNL     1       6.309   0.364   0.392  1.00  0.00    -0.391 OA
BRANCH  28  29
HETATM   29  C2  UNL     1       7.083   1.023   1.316  1.00  0.00     0.163 C 
HETATM   30  C1  UNL     1       6.999   2.513   1.291  1.00  0.00     0.033 C 
ENDBRANCH  28  29
ENDBRANCH  27  28
ENDBRANCH  26  27
ENDBRANCH  25  26
ENDBRANCH  24  25
ENDBRANCH   1  24
TORSDOF 6
