REMARK  6 active torsions:
REMARK  status: ('A' for Active; 'I' for Inactive)
REMARK    1  A    between atoms: C2_2  and  C3_3 
REMARK    2  A    between atoms: C7_8  and  C8_9 
REMARK    3  A    between atoms: C8_9  and  O1_10 
REMARK    4  A    between atoms: O1_10  and  C9_11 
REMARK    5  A    between atoms: C13_17  and  N4_18 
REMARK    6  A    between atoms: N4_18  and  C14_19 
ROOT
HETATM    1  C9  UNL     1       0.176   0.326  -0.134  1.00  0.00     0.107 A 
HETATM    2  C10 UNL     1       0.330   1.158  -1.224  1.00  0.00     0.072 A 
HETATM    3  C11 UNL     1       1.571   1.617  -1.616  1.00  0.00     0.077 A 
HETATM    4  N2  UNL     1       1.778   2.427  -2.667  1.00  0.00    -0.241 NA
HETATM    5  C12 UNL     1       2.994   2.867  -3.038  1.00  0.00     0.236 A 
HETATM    6  N3  UNL     1       4.057   2.468  -2.311  1.00  0.00    -0.223 NA
HETATM    7  C13 UNL     1       3.911   1.654  -1.244  1.00  0.00     0.144 A 
HETATM    8  C18 UNL     1       2.645   1.199  -0.861  1.00  0.00     0.075 A 
HETATM    9  C19 UNL     1       2.503   0.367   0.230  1.00  0.00     0.121 A 
HETATM   10  C20 UNL     1       1.263  -0.091   0.621  1.00  0.00     0.136 A 
HETATM   11  O2  UNL     1       1.209  -0.923   1.729  1.00  0.00    -0.344 OA
HETATM   12  C21 UNL     1       2.273  -1.840   1.906  1.00  0.00     0.202 C 
HETATM   13  C22 UNL     1       3.625  -1.278   1.606  1.00  0.00     0.202 C 
HETATM   14  O3  UNL     1       3.615  -0.028   0.960  1.00  0.00    -0.345 OA
ENDROOT
BRANCH   1  15
HETATM   15  O1  UNL     1      -1.070  -0.130   0.254  1.00  0.00    -0.346 OA
BRANCH  15  16
HETATM   16  C8  UNL     1      -2.280   0.177  -0.376  1.00  0.00     0.212 C 
BRANCH  16  17
HETATM   17  C7  UNL     1      -3.370  -0.556   0.411  1.00  0.00     0.252 C 
HETATM   18  C3  UNL     1      -4.727  -0.415  -0.199  1.00  0.00     0.043 C 
HETATM   19  C4  UNL     1      -5.656   0.414   0.691  1.00  0.00     0.012 C 
HETATM   20  C5  UNL     1      -5.738  -0.300   2.020  1.00  0.00     0.031 C 
HETATM   21  C6  UNL     1      -4.378  -0.641   2.568  1.00  0.00     0.270 C 
HETATM   22  N1  UNL     1      -3.302  -0.036   1.782  1.00  0.00     0.090 N 
HETATM   23  H11 UNL     1      -2.423  -0.428   2.186  1.00  0.00     0.316 HD
BRANCH  18  24
HETATM   24  C2  UNL     1      -4.717   0.139  -1.577  1.00  0.00    -0.030 C 
HETATM   25  C1  UNL     1      -5.323   1.256  -1.936  1.00  0.00     0.007 C 
ENDBRANCH  18  24
ENDBRANCH  16  17
ENDBRANCH  15  16
ENDBRANCH   1  15
BRANCH   7  26
HETATM   26  N4  UNL     1       5.061   1.257  -0.504  1.00  0.00    -0.340 N 
HETATM   27  H17 UNL     1       5.233   1.950   0.261  1.00  0.00     0.167 HD
BRANCH  26  28
HETATM   28  C14 UNL     1       5.874   0.132  -0.717  1.00  0.00     0.036 A 
HETATM   29  C15 UNL     1       6.188  -0.638  -1.747  1.00  0.00     0.053 A 
HETATM   30  C16 UNL     1       7.031  -1.407  -0.839  1.00  0.00     0.038 A 
HETATM   31 CL1  UNL     1       8.096  -2.812  -0.921  1.00  0.00    -0.084 Cl
HETATM   32  C17 UNL     1       6.713  -0.633   0.188  1.00  0.00     0.053 A 
ENDBRANCH  26  28
ENDBRANCH   7  26
TORSDOF 6
