REMARK  7 active torsions:
REMARK  status: ('A' for Active; 'I' for Inactive)
REMARK    1  A    between atoms: C1_2  and  C2_3 
REMARK    2  A    between atoms: C2_3  and  C3_4 
REMARK    3  A    between atoms: C6_7  and  O1_8 
REMARK    4  A    between atoms: O1_8  and  C7_9 
REMARK    5  A    between atoms: C7_9  and  C8_10 
REMARK    6  A    between atoms: C8_10  and  C9_11 
REMARK    7  A    between atoms: C9_11  and  N1_12 
ROOT
HETATM    1  C3  UNL     1       4.431   2.366   0.002  1.00  0.00     0.057 A 
HETATM    2  C4  UNL     1       3.103   1.831   0.348  1.00  0.00    -0.037 A 
HETATM    3  C5  UNL     1       1.849   1.453   0.776  1.00  0.00     0.048 A 
HETATM    4  C6  UNL     1       1.287   0.349   0.217  1.00  0.00     0.105 A 
HETATM    5  C14 UNL     1       1.982  -0.343  -0.745  1.00  0.00     0.136 A 
HETATM    6  C15 UNL     1       3.257   0.049  -1.175  1.00  0.00     0.112 A 
HETATM    7  C16 UNL     1       3.883   1.165  -0.643  1.00  0.00    -0.006 A 
HETATM    8  O3  UNL     1       3.792  -0.775  -2.154  1.00  0.00    -0.345 OA
HETATM    9  C17 UNL     1       3.401  -2.135  -2.133  1.00  0.00     0.202 C 
HETATM   10  C18 UNL     1       1.892  -2.110  -2.417  1.00  0.00     0.202 C 
HETATM   11  O4  UNL     1       1.329  -1.472  -1.272  1.00  0.00    -0.344 OA
ENDROOT
BRANCH   4  12
HETATM   12  O1  UNL     1       0.046  -0.050   0.622  1.00  0.00    -0.348 OA
BRANCH  12  13
HETATM   13  C7  UNL     1      -0.769   0.544   1.575  1.00  0.00     0.177 C 
BRANCH  13  14
HETATM   14  C8  UNL     1      -2.051  -0.312   1.638  1.00  0.00     0.057 C 
BRANCH  14  15
HETATM   15  C9  UNL     1      -2.670  -0.294   0.276  1.00  0.00     0.274 C 
BRANCH  15  16
HETATM   16  N1  UNL     1      -3.846  -1.080   0.219  1.00  0.00     0.092 N 
HETATM   17  C10 UNL     1      -4.432  -1.092  -1.125  1.00  0.00     0.298 C 
HETATM   18  C11 UNL     1      -5.343   0.094  -1.329  1.00  0.00     0.198 C 
HETATM   19  O2  UNL     1      -6.343   0.068  -0.392  1.00  0.00    -0.388 OA
HETATM   20  C12 UNL     1      -5.808   0.222   0.886  1.00  0.00     0.198 C 
HETATM   21  C13 UNL     1      -4.837  -0.895   1.214  1.00  0.00     0.298 C 
ENDBRANCH  15  16
ENDBRANCH  14  15
ENDBRANCH  13  14
ENDBRANCH  12  13
ENDBRANCH   4  12
BRANCH   1  22
HETATM   22  C2  UNL     1       5.558   2.231   0.973  1.00  0.00     0.029 C 
BRANCH  22  23
HETATM   23  C1  UNL     1       5.836   0.789   1.263  1.00  0.00     0.115 C 
HETATM   24 CL1  UNL     1       6.323  -0.104  -0.174  1.00  0.00    -0.130 Cl
ENDBRANCH  22  23
ENDBRANCH   1  22
TORSDOF 7
