REMARK  5 active torsions:
REMARK  status: ('A' for Active; 'I' for Inactive)
REMARK    1  A    between atoms: C10_15  and  O1_16 
REMARK    2  A    between atoms: O1_16  and  C11_17 
REMARK    3  A    between atoms: C11_17  and  C12_18 
REMARK    4  A    between atoms: C12_18  and  C13_19 
REMARK    5  A    between atoms: C13_19  and  N4_20 
ROOT
HETATM    1 CL1  UNL     1       9.479   0.650  -1.803  1.00  0.00    -0.084 Cl
HETATM    2  C1  UNL     1       7.824   0.562  -1.189  1.00  0.00     0.036 A 
HETATM    3  C2  UNL     1       7.070   1.719  -1.156  1.00  0.00     0.025 A 
HETATM    4  C3  UNL     1       5.778   1.707  -0.688  1.00  0.00     0.016 A 
HETATM    5  C4  UNL     1       5.305   0.489  -0.266  1.00  0.00    -0.003 A 
HETATM    6  C5  UNL     1       6.049  -0.668  -0.295  1.00  0.00     0.046 A 
HETATM    7  C6  UNL     1       7.341  -0.671  -0.761  1.00  0.00     0.054 A 
HETATM    8  N1  UNL     1       5.616  -1.950   0.126  1.00  0.00    -0.341 N 
HETATM    9  C7  UNL     1       4.315  -2.110   0.634  1.00  0.00     0.127 A 
HETATM   10  N2  UNL     1       3.502  -3.148   1.039  1.00  0.00    -0.224 NA
HETATM   11  C8  UNL     1       2.191  -2.617   1.430  1.00  0.00     0.090 A 
HETATM   12  N3  UNL     1       1.302  -1.839   1.653  1.00  0.00    -0.295 NA
HETATM   13  B1  UNL     1       2.002  -0.464   1.156  1.00  0.00     0.342 B 
HETATM   14  C9  UNL     1       0.963  -0.180  -0.092  1.00  0.00    -0.063 C 
HETATM   15  C10 UNL     1       0.292  -1.353   0.246  1.00  0.00     0.057 C 
HETATM   16  C18 UNL     1       0.743  -2.613   1.004  1.00  0.00     0.193 A 
HETATM   17  C19 UNL     1       1.575   1.040  -0.527  1.00  0.00     0.031 C 
HETATM   18  C20 UNL     1       2.862   1.488   0.214  1.00  0.00     0.042 C 
HETATM   19  C21 UNL     1       3.920   0.438   0.250  1.00  0.00    -0.044 A 
HETATM   20  C22 UNL     1       3.520  -0.817   0.665  1.00  0.00    -0.020 A 
HETATM   21  H4  UNL     1       6.015  -2.894   0.169  1.00  0.00     0.167 HD
ENDROOT
BRANCH  15  22
HETATM   22  O1  UNL     1      -0.889  -0.987  -0.339  1.00  0.00    -0.354 OA
BRANCH  22  23
HETATM   23  C11 UNL     1      -1.648   0.131  -0.127  1.00  0.00     0.177 C 
BRANCH  23  24
HETATM   24  C12 UNL     1      -3.142  -0.090  -0.263  1.00  0.00     0.057 C 
BRANCH  24  25
HETATM   25  C13 UNL     1      -3.866   1.219  -0.052  1.00  0.00     0.274 C 
BRANCH  25  26
HETATM   26  N4  UNL     1      -5.286   1.147  -0.131  1.00  0.00     0.092 N 
HETATM   27  C14 UNL     1      -5.868   0.418   0.988  1.00  0.00     0.298 C 
HETATM   28  C15 UNL     1      -7.358   0.718   0.933  1.00  0.00     0.198 C 
HETATM   29  O2  UNL     1      -7.903   0.245  -0.270  1.00  0.00    -0.388 OA
HETATM   30  C16 UNL     1      -6.951  -0.333  -1.079  1.00  0.00     0.198 C 
HETATM   31  C17 UNL     1      -5.807   0.625  -1.378  1.00  0.00     0.298 C 
ENDBRANCH  25  26
ENDBRANCH  24  25
ENDBRANCH  23  24
ENDBRANCH  22  23
ENDBRANCH  15  22
TORSDOF 5
