REMARK  4 active torsions:
REMARK  status: ('A' for Active; 'I' for Inactive)
REMARK    1  A    between atoms: C2_3  and  C3_4 
REMARK    2  A    between atoms: C4_5  and  C5_6 
REMARK    3  A    between atoms: C5_6  and  N1_9 
REMARK    4  A    between atoms: N1_9  and  C7_10 
ROOT
HETATM    1  C7  UNL     1       0.416  -0.703   0.779  1.00  0.00     0.140 A 
HETATM    2  N2  UNL     1       1.378  -1.410   1.322  1.00  0.00    -0.224 NA
HETATM    3  C8  UNL     1       1.257  -1.621   2.738  1.00  0.00     0.229 A 
HETATM    4  N3  UNL     1       0.297  -1.165   3.450  1.00  0.00    -0.278 NA
HETATM    5  C9  UNL     1      -0.816  -0.376   2.997  1.00  0.00     0.195 A 
HETATM    6  C10 UNL     1      -0.714  -0.181   1.534  1.00  0.00     0.041 A 
HETATM    7  C11 UNL     1      -1.686   0.468   0.918  1.00  0.00     0.080 C 
HETATM    8  C12 UNL     1      -2.815   0.984   1.722  1.00  0.00     0.033 C 
HETATM    9  C13 UNL     1      -3.880   1.651   1.319  1.00  0.00    -0.022 C 
HETATM   10  C14 UNL     1      -4.063   1.977  -0.127  1.00  0.00     0.054 C 
HETATM   11  C15 UNL     1      -3.208   1.027  -0.934  1.00  0.00     0.179 C 
HETATM   12  O1  UNL     1      -1.948   0.820  -0.389  1.00  0.00    -0.350 OA
ENDROOT
BRANCH   1  13
HETATM   13  N1  UNL     1       0.544  -0.497  -0.618  1.00  0.00    -0.343 N 
HETATM   14  H6  UNL     1       0.175   0.429  -0.990  1.00  0.00     0.167 HD
BRANCH  13  15
HETATM   15  C5  UNL     1       1.117  -1.406  -1.542  1.00  0.00     0.027 C 
HETATM   16  C6  UNL     1       1.065  -2.520  -2.244  1.00  0.00     0.235 C 
HETATM   17 BR1  UNL     1       0.096  -4.084  -2.699  1.00  0.00    -0.191 Br
BRANCH  15  18
HETATM   18  C4  UNL     1       2.437  -0.956  -2.027  1.00  0.00     0.026 C 
HETATM   19  C3  UNL     1       3.064   0.171  -1.646  1.00  0.00    -0.001 C 
BRANCH  19  20
HETATM   20  C2  UNL     1       4.272   0.997  -1.814  1.00  0.00    -0.005 C 
HETATM   21  C1  UNL     1       4.553   2.138  -1.214  1.00  0.00     0.259 C 
HETATM   22 CL1  UNL     1       6.107   2.633  -1.811  1.00  0.00    -0.251 Cl
ENDBRANCH  19  20
ENDBRANCH  15  18
ENDBRANCH  13  15
ENDBRANCH   1  13
TORSDOF 4
