REMARK  3 active torsions:
REMARK  status: ('A' for Active; 'I' for Inactive)
REMARK    1  A    between atoms: N1_1  and  C1_2 
REMARK    2  A    between atoms: C12_15  and  N4_16 
REMARK    3  A    between atoms: N4_16  and  C13_17 
ROOT
HETATM    1  C1  UNL     1       4.819  -0.729   0.074  1.00  0.00     0.026 A 
HETATM    2  C2  UNL     1       5.082   0.606  -0.139  1.00  0.00     0.032 A 
HETATM    3  C3  UNL     1       4.154   1.599   0.074  1.00  0.00     0.040 A 
HETATM    4  C4  UNL     1       2.888   1.212   0.529  1.00  0.00     0.084 A 
HETATM    5  C5  UNL     1       2.593  -0.122   0.754  1.00  0.00    -0.004 A 
HETATM    6  C6  UNL     1       3.568  -1.088   0.522  1.00  0.00     0.040 A 
HETATM    7  C7  UNL     1       1.368  -0.822   1.237  1.00  0.00     0.161 C 
HETATM    8  N2  UNL     1       0.262  -0.369   0.415  1.00  0.00    -0.380 N 
HETATM    9  C8  UNL     1      -0.124   0.944  -0.014  1.00  0.00     0.109 A 
HETATM   10  C9  UNL     1       0.603   2.133   0.144  1.00  0.00     0.107 A 
HETATM   11  C10 UNL     1       0.052   3.305  -0.329  1.00  0.00     0.059 A 
HETATM   12  C11 UNL     1      -1.185   3.253  -0.936  1.00  0.00     0.122 A 
HETATM   13  N3  UNL     1      -1.852   2.093  -1.071  1.00  0.00    -0.241 NA
HETATM   14  C12 UNL     1      -1.364   0.921  -0.628  1.00  0.00     0.157 A 
HETATM   15  O1  UNL     1       1.883   2.182   0.767  1.00  0.00    -0.308 OA
HETATM   16  H8  UNL     1      -0.338  -1.163   0.099  1.00  0.00     0.160 HD
ENDROOT
BRANCH  14  17
HETATM   17  N4  UNL     1      -2.113  -0.273  -0.796  1.00  0.00    -0.339 N 
HETATM   18  H11 UNL     1      -1.527  -0.832  -1.483  1.00  0.00     0.167 HD
BRANCH  17  19
HETATM   19  C13 UNL     1      -3.330  -0.814  -0.309  1.00  0.00     0.035 A 
HETATM   20  C14 UNL     1      -3.534  -2.172  -0.417  1.00  0.00     0.032 A 
HETATM   21  C15 UNL     1      -4.765  -2.606   0.056  1.00  0.00     0.046 A 
HETATM   22  C16 UNL     1      -5.697  -1.730   0.588  1.00  0.00     0.138 A 
HETATM   23  F1  UNL     1      -6.889  -2.176   1.039  1.00  0.00    -0.204 F 
HETATM   24  C17 UNL     1      -5.428  -0.359   0.669  1.00  0.00     0.074 A 
HETATM   25 CL1  UNL     1      -6.611   0.737   1.340  1.00  0.00    -0.081 Cl
HETATM   26  C18 UNL     1      -4.210   0.118   0.209  1.00  0.00     0.056 A 
ENDBRANCH  17  19
ENDBRANCH  14  17
BRANCH   1  27
HETATM   27  N1  UNL     1       5.773  -1.757  -0.146  1.00  0.00    -0.399 N 
HETATM   28  H1  UNL     1       6.593  -1.651   0.493  1.00  0.00     0.156 HD
HETATM   29  H2  UNL     1       5.681  -2.537  -0.858  1.00  0.00     0.156 HD
ENDBRANCH   1  27
TORSDOF 3
