REMARK  7 active torsions:
REMARK  status: ('A' for Active; 'I' for Inactive)
REMARK    1  A    between atoms: C6_7  and  C7_8 
REMARK    2  A    between atoms: C7_8  and  C8_9 
REMARK    3  A    between atoms: C8_9  and  O2_10 
REMARK    4  A    between atoms: O2_10  and  C9_11 
REMARK    5  A    between atoms: C15_19  and  C16_20 
REMARK    6  A    between atoms: C21_26  and  N1_27 
REMARK    7  A    between atoms: C22_28  and  N2_29 
ROOT
HETATM    1  C9  UNL     1       1.142   0.850  -0.224  1.00  0.00     0.108 A 
HETATM    2  C10 UNL     1       1.546   2.097  -0.202  1.00  0.00     0.133 A 
HETATM    3  O3  UNL     1       0.715   3.204  -0.293  1.00  0.00    -0.344 OA
HETATM    4  C11 UNL     1       1.122   4.495  -0.602  1.00  0.00     0.202 C 
HETATM    5  C12 UNL     1       2.572   4.806  -0.427  1.00  0.00     0.202 C 
HETATM    6  O4  UNL     1       3.382   3.710  -0.065  1.00  0.00    -0.346 OA
HETATM    7  C13 UNL     1       2.982   2.401  -0.076  1.00  0.00     0.101 A 
HETATM    8  C14 UNL     1       3.798   1.397   0.024  1.00  0.00     0.024 A 
HETATM    9  C15 UNL     1       3.468  -0.052   0.033  1.00  0.00     0.071 A 
HETATM   10  C21 UNL     1       2.018  -0.357  -0.133  1.00  0.00     0.180 A 
ENDROOT
BRANCH   1  11
HETATM   11  O2  UNL     1      -0.143   0.553  -0.338  1.00  0.00    -0.350 OA
BRANCH  11  12
HETATM   12  C8  UNL     1      -1.166  -0.013   0.329  1.00  0.00     0.176 C 
BRANCH  12  13
HETATM   13  C7  UNL     1      -2.457  -0.199  -0.426  1.00  0.00     0.032 C 
BRANCH  13  14
HETATM   14  C6  UNL     1      -3.531  -0.834   0.420  1.00  0.00    -0.005 C 
HETATM   15  C2  UNL     1      -4.804  -1.008  -0.387  1.00  0.00     0.009 C 
HETATM   16  C1  UNL     1      -4.552  -1.647  -1.729  1.00  0.00     0.012 C 
HETATM   17  C3  UNL     1      -5.772  -1.889   0.390  1.00  0.00     0.172 C 
HETATM   18  O1  UNL     1      -5.651  -1.616   1.728  1.00  0.00    -0.391 OA
HETATM   19  C4  UNL     1      -5.342  -0.282   1.961  1.00  0.00     0.168 C 
HETATM   20  C5  UNL     1      -3.900   0.042   1.610  1.00  0.00     0.031 C 
ENDBRANCH  13  14
ENDBRANCH  12  13
ENDBRANCH  11  12
ENDBRANCH   1  11
BRANCH  10  21
HETATM   21  N1  UNL     1       1.572  -1.134   1.005  1.00  0.00    -0.272 NA
HETATM   22  C22 UNL     1       1.669  -0.737   2.239  1.00  0.00     0.194 C 
BRANCH  22  23
HETATM   23  N2  UNL     1       1.120  -1.779   3.093  1.00  0.00    -0.394 N 
HETATM   24  H28 UNL     1       0.062  -1.820   3.035  1.00  0.00     0.156 HD
HETATM   25  H29 UNL     1       0.697  -2.493   3.676  1.00  0.00     0.156 HD
ENDBRANCH  22  23
ENDBRANCH  10  21
BRANCH   9  26
HETATM   26  C16 UNL     1       4.311  -0.809  -0.930  1.00  0.00    -0.063 A 
HETATM   27  C17 UNL     1       5.115  -0.316  -1.838  1.00  0.00     0.045 A 
HETATM   28  C18 UNL     1       5.748  -1.413  -2.562  1.00  0.00     0.113 A 
HETATM   29  F1  UNL     1       6.647  -1.473  -3.581  1.00  0.00    -0.206 F 
HETATM   30  C19 UNL     1       5.335  -2.588  -2.103  1.00  0.00     0.020 A 
HETATM   31  C20 UNL     1       4.362  -2.292  -0.998  1.00  0.00     0.065 A 
ENDBRANCH   9  26
TORSDOF 7
