REMARK  7 active torsions:
REMARK  status: ('A' for Active; 'I' for Inactive)
REMARK    1  A    between atoms: C5_6  and  C6_7 
REMARK    2  A    between atoms: C6_7  and  C7_8 
REMARK    3  A    between atoms: C10_13  and  C11_14 
REMARK    4  A    between atoms: C11_14  and  O1_15 
REMARK    5  A    between atoms: O1_15  and  C12_16 
REMARK    6  A    between atoms: C12_16  and  C13_17 
REMARK    7  A    between atoms: C13_17  and  C14_18 
ROOT
HETATM    1  C7  UNL     1      -3.011   0.139   0.095  1.00  0.00     0.060 A 
HETATM    2  N1  UNL     1      -2.703   0.801   1.159  1.00  0.00    -0.247 NA
HETATM    3  C8  UNL     1      -1.380   0.875   1.635  1.00  0.00     0.233 A 
HETATM    4  N2  UNL     1      -0.412   0.272   1.014  1.00  0.00    -0.243 NA
HETATM    5  C9  UNL     1      -0.707  -0.470  -0.162  1.00  0.00     0.076 A 
HETATM    6  C10 UNL     1       0.352  -1.043  -0.710  1.00  0.00     0.030 C 
HETATM    7  C18 UNL     1      -2.056  -0.620  -0.761  1.00  0.00     0.166 A 
HETATM    8  C19 UNL     1      -2.431  -2.083  -0.668  1.00  0.00     0.218 C 
HETATM    9  O3  UNL     1      -3.423  -2.472  -1.531  1.00  0.00    -0.385 OA
HETATM   10  C20 UNL     1      -3.353  -1.926  -2.788  1.00  0.00     0.194 C 
HETATM   11  C21 UNL     1      -2.136  -1.093  -3.026  1.00  0.00     0.196 C 
HETATM   12  O4  UNL     1      -2.030  -0.132  -2.054  1.00  0.00    -0.363 OA
ENDROOT
BRANCH   6  13
HETATM   13  C11 UNL     1       1.711  -0.910  -0.132  1.00  0.00     0.197 C 
BRANCH  13  14
HETATM   14  O1  UNL     1       2.593  -0.323  -1.013  1.00  0.00    -0.387 OA
BRANCH  14  15
HETATM   15  C12 UNL     1       3.879  -0.172  -0.542  1.00  0.00     0.169 C 
BRANCH  15  16
HETATM   16  C13 UNL     1       3.968   0.682   0.690  1.00  0.00     0.041 C 
BRANCH  16  17
HETATM   17  C14 UNL     1       5.426   0.768   1.095  1.00  0.00     0.053 C 
HETATM   18  C15 UNL     1       6.002  -0.592   1.395  1.00  0.00     0.041 C 
HETATM   19  C16 UNL     1       7.092  -0.857   0.377  1.00  0.00     0.169 C 
HETATM   20  O2  UNL     1       8.176  -0.041   0.726  1.00  0.00    -0.381 OA
HETATM   21  C17 UNL     1       8.100   1.147  -0.004  1.00  0.00     0.241 C 
HETATM   22  S1  UNL     1       6.331   1.446  -0.335  1.00  0.00    -0.138 SA
ENDBRANCH  16  17
ENDBRANCH  15  16
ENDBRANCH  14  15
ENDBRANCH  13  14
ENDBRANCH   6  13
BRANCH   1  23
HETATM   23  C6  UNL     1      -4.400   0.080  -0.377  1.00  0.00     0.097 C 
BRANCH  23  24
HETATM   24  C5  UNL     1      -5.260   0.859   0.531  1.00  0.00    -0.050 A 
HETATM   25  C4  UNL     1      -5.878   0.291   1.645  1.00  0.00     0.007 A 
HETATM   26  C3  UNL     1      -6.681   1.012   2.497  1.00  0.00     0.004 A 
HETATM   27  C2  UNL     1      -6.879   2.363   2.227  1.00  0.00     0.042 A 
HETATM   28  C1  UNL     1      -6.291   2.983   1.134  1.00  0.00     0.116 A 
HETATM   29  F1  UNL     1      -6.498   4.295   0.893  1.00  0.00    -0.206 F 
HETATM   30  C22 UNL     1      -5.495   2.210   0.315  1.00  0.00     0.049 A 
ENDBRANCH  23  24
ENDBRANCH   1  23
TORSDOF 7
