REMARK  5 active torsions:
REMARK  status: ('A' for Active; 'I' for Inactive)
REMARK    1  A    between atoms: C4_5  and  N1_6 
REMARK    2  A    between atoms: C8_12  and  C9_13 
REMARK    3  A    between atoms: C9_13  and  C10_14 
REMARK    4  A    between atoms: C10_14  and  C11_15 
REMARK    5  A    between atoms: C11_15  and  N4_16 
ROOT
HETATM    1  N1  UNL     1       4.225   0.696  -1.282  1.00  0.00    -0.281 N 
HETATM    2  N2  UNL     1       4.736   1.197  -2.510  1.00  0.00    -0.291 N 
HETATM    3  C5  UNL     1       3.856   1.034  -3.644  1.00  0.00     0.223 C 
HETATM    4  N3  UNL     1       2.693   0.471  -3.527  1.00  0.00    -0.245 NA
HETATM    5  C6  UNL     1       2.221  -0.020  -2.253  1.00  0.00     0.065 A 
HETATM    6  C7  UNL     1       0.906   0.005  -2.085  1.00  0.00     0.039 A 
HETATM    7  C8  UNL     1       0.102  -0.418  -0.915  1.00  0.00    -0.020 A 
HETATM    8  C16 UNL     1       0.572  -0.910   0.213  1.00  0.00     0.108 A 
HETATM    9  O2  UNL     1      -0.479  -1.173   1.037  1.00  0.00    -0.346 OA
HETATM   10  C17 UNL     1      -0.327  -2.218   2.009  1.00  0.00     0.202 C 
HETATM   11  C18 UNL     1       0.978  -2.101   2.737  1.00  0.00     0.202 C 
HETATM   12  O3  UNL     1       2.065  -1.711   1.933  1.00  0.00    -0.346 OA
HETATM   13  C19 UNL     1       1.917  -1.189   0.673  1.00  0.00     0.101 A 
HETATM   14  C20 UNL     1       2.982  -0.963  -0.071  1.00  0.00     0.046 A 
HETATM   15  C21 UNL     1       3.305  -0.454  -1.387  1.00  0.00     0.185 A 
HETATM   16  H4  UNL     1       5.685   1.663  -2.610  1.00  0.00     0.188 HD
ENDROOT
BRANCH   7  17
HETATM   17  C9  UNL     1      -1.300  -0.188  -1.284  1.00  0.00     0.043 C 
BRANCH  17  18
HETATM   18  C10 UNL     1      -2.348  -0.579  -0.307  1.00  0.00     0.024 C 
BRANCH  18  19
HETATM   19  C11 UNL     1      -3.691  -0.210  -0.964  1.00  0.00     0.117 C 
BRANCH  19  20
HETATM   20  N4  UNL     1      -4.808  -0.538  -0.198  1.00  0.00    -0.408 N 
HETATM   21  C12 UNL     1      -6.096  -0.179  -0.717  1.00  0.00     0.143 C 
HETATM   22  C13 UNL     1      -6.918   0.644   0.234  1.00  0.00     0.187 C 
HETATM   23  O1  UNL     1      -6.656   0.474   1.562  1.00  0.00    -0.388 OA
HETATM   24  C14 UNL     1      -5.292   0.499   1.882  1.00  0.00     0.187 C 
HETATM   25  C15 UNL     1      -4.740  -0.756   1.182  1.00  0.00     0.143 C 
ENDBRANCH  19  20
ENDBRANCH  18  19
ENDBRANCH  17  18
ENDBRANCH   7  17
BRANCH   1  26
HETATM   26  C4  UNL     1       4.682   1.383  -0.095  1.00  0.00     0.036 A 
HETATM   27  C3  UNL     1       6.059   0.921   0.284  1.00  0.00     0.089 A 
HETATM   28  C2  UNL     1       6.334   1.738   1.506  1.00  0.00     0.021 A 
HETATM   29  C1  UNL     1       5.305   2.509   1.760  1.00  0.00     0.115 A 
HETATM   30  F1  UNL     1       5.101   3.408   2.752  1.00  0.00    -0.206 F 
HETATM   31  C22 UNL     1       4.256   2.304   0.769  1.00  0.00     0.069 A 
ENDBRANCH   1  26
TORSDOF 5
