REMARK  5 active torsions:
REMARK  status: ('A' for Active; 'I' for Inactive)
REMARK    1  A    between atoms: C2_2  and  O1_3 
REMARK    2  A    between atoms: O1_3  and  N1_4 
REMARK    3  A    between atoms: N1_4  and  C3_5 
REMARK    4  A    between atoms: C6_10  and  N4_11 
REMARK    5  A    between atoms: N4_11  and  C7_12 
ROOT
HETATM    1  C3  UNL     1      -1.817   0.740   0.587  1.00  0.00     0.079 C 
HETATM    2  C4  UNL     1      -0.694   1.229   0.108  1.00  0.00     0.101 A 
HETATM    3  N2  UNL     1      -0.742   2.551   0.098  1.00  0.00    -0.239 NA
HETATM    4  C5  UNL     1       0.329   3.234  -0.358  1.00  0.00     0.236 A 
HETATM    5  N3  UNL     1       1.445   2.589  -0.801  1.00  0.00    -0.223 NA
HETATM    6  C6  UNL     1       1.484   1.243  -0.786  1.00  0.00     0.145 A 
HETATM    7  C13 UNL     1       0.405   0.534  -0.328  1.00  0.00     0.077 A 
HETATM    8  C14 UNL     1       0.841  -0.690  -0.526  1.00  0.00     0.120 C 
HETATM    9  O2  UNL     1       2.125  -0.723  -1.011  1.00  0.00    -0.345 OA
HETATM   10  C15 UNL     1       2.831  -1.969  -0.833  1.00  0.00     0.202 C 
HETATM   11  C16 UNL     1       2.027  -3.067  -1.478  1.00  0.00     0.202 C 
HETATM   12  O3  UNL     1       0.885  -3.225  -0.619  1.00  0.00    -0.344 OA
HETATM   13  C17 UNL     1       0.240  -2.001  -0.338  1.00  0.00     0.127 C 
HETATM   14  C18 UNL     1      -0.954  -2.369   0.100  1.00  0.00     0.068 C 
HETATM   15  C19 UNL     1      -1.010  -3.849   0.077  1.00  0.00     0.227 C 
HETATM   16  O4  UNL     1      -2.087  -4.165  -0.750  1.00  0.00    -0.384 OA
HETATM   17  C20 UNL     1      -3.288  -3.641  -0.379  1.00  0.00     0.188 C 
HETATM   18  C21 UNL     1      -3.279  -2.595   0.686  1.00  0.00     0.149 C 
HETATM   19  N5  UNL     1      -2.119  -1.701   0.554  1.00  0.00    -0.372 N 
HETATM   20  C22 UNL     1      -2.600  -0.428   0.944  1.00  0.00     0.184 C 
ENDROOT
BRANCH   6  21
HETATM   21  N4  UNL     1       2.762   0.887  -1.309  1.00  0.00    -0.340 N 
HETATM   22  H8  UNL     1       3.187   0.527  -2.240  1.00  0.00     0.167 HD
BRANCH  21  23
HETATM   23  C7  UNL     1       3.831   1.119  -0.319  1.00  0.00     0.035 A 
HETATM   24  C8  UNL     1       5.159   0.853  -0.594  1.00  0.00     0.029 A 
HETATM   25  C9  UNL     1       6.220   1.036   0.259  1.00  0.00     0.004 A 
HETATM   26  C10 UNL     1       5.900   1.534   1.504  1.00  0.00     0.024 A 
HETATM   27  C11 UNL     1       4.606   1.829   1.868  1.00  0.00     0.036 A 
HETATM   28 CL1  UNL     1       4.167   2.461   3.438  1.00  0.00    -0.084 Cl
HETATM   29  C12 UNL     1       3.610   1.612   0.946  1.00  0.00     0.053 A 
ENDBRANCH  21  23
ENDBRANCH   6  21
BRANCH   1  30
HETATM   30  N1  UNL     1      -2.696   1.833   0.929  1.00  0.00    -0.267 N 
HETATM   31  H6  UNL     1      -2.708   1.995   1.956  1.00  0.00     0.194 HD
BRANCH  30  32
HETATM   32  O1  UNL     1      -3.307   2.409  -0.109  1.00  0.00    -0.281 OA
BRANCH  32  33
HETATM   33  C2  UNL     1      -4.492   2.975   0.320  1.00  0.00     0.196 C 
HETATM   34  C1  UNL     1      -5.179   3.627  -0.863  1.00  0.00     0.036 C 
ENDBRANCH  32  33
ENDBRANCH  30  32
ENDBRANCH   1  30
TORSDOF 5
