REMARK  6 active torsions:
REMARK  status: ('A' for Active; 'I' for Inactive)
REMARK    1  A    between atoms: B1_2  and  C1_3 
REMARK    2  A    between atoms: C3_6  and  O2_7 
REMARK    3  A    between atoms: O2_7  and  C4_8 
REMARK    4  A    between atoms: C4_8  and  C5_9 
REMARK    5  A    between atoms: C5_9  and  C6_10 
REMARK    6  A    between atoms: C6_10  and  N1_11 
ROOT
HETATM    1  C1  UNL     1       3.984  -0.429  -0.330  1.00  0.00    -0.013 A 
HETATM    2  C2  UNL     1       3.033  -0.967   0.527  1.00  0.00     0.148 A 
HETATM    3  F1  UNL     1       3.316  -2.246   0.877  1.00  0.00    -0.203 F 
HETATM    4  C3  UNL     1       1.919  -0.225   0.954  1.00  0.00     0.109 A 
HETATM    5  C11 UNL     1       1.848   1.058   0.461  1.00  0.00     0.072 A 
HETATM    6  C12 UNL     1       2.761   1.637  -0.387  1.00  0.00     0.072 A 
HETATM    7  N2  UNL     1       2.588   2.904  -0.805  1.00  0.00    -0.241 NA
HETATM    8  C13 UNL     1       3.482   3.487  -1.645  1.00  0.00     0.233 A 
HETATM    9  N3  UNL     1       4.550   2.742  -2.041  1.00  0.00    -0.253 NA
HETATM   10  C14 UNL     1       4.735   1.475  -1.631  1.00  0.00     0.131 A 
HETATM   11  C15 UNL     1       3.829   0.856  -0.768  1.00  0.00     0.011 A 
ENDROOT
BRANCH   4  12
HETATM   12  O2  UNL     1       1.151  -0.953   1.771  1.00  0.00    -0.348 OA
BRANCH  12  13
HETATM   13  C4  UNL     1      -0.019  -0.755   2.454  1.00  0.00     0.177 C 
BRANCH  13  14
HETATM   14  C5  UNL     1      -1.246  -0.448   1.620  1.00  0.00     0.046 C 
BRANCH  14  15
HETATM   15  C6  UNL     1      -1.566  -1.520   0.653  1.00  0.00     0.119 C 
BRANCH  15  16
HETATM   16  N1  UNL     1      -2.672  -1.409  -0.187  1.00  0.00    -0.408 N 
HETATM   17  C7  UNL     1      -3.979  -1.483   0.355  1.00  0.00     0.143 C 
HETATM   18  C8  UNL     1      -4.452  -0.133   0.788  1.00  0.00     0.187 C 
HETATM   19  O3  UNL     1      -3.645   0.891   0.310  1.00  0.00    -0.388 OA
HETATM   20  C9  UNL     1      -3.330   0.728  -1.036  1.00  0.00     0.187 C 
HETATM   21  C10 UNL     1      -2.600  -0.546  -1.322  1.00  0.00     0.143 C 
ENDBRANCH  15  16
ENDBRANCH  14  15
ENDBRANCH  13  14
ENDBRANCH  12  13
ENDBRANCH   4  12
BRANCH   1  22
HETATM   22  B1  UNL     1       5.393  -1.312  -0.896  1.00  0.00     0.414 B 
HETATM   23  O1  UNL     1       7.028  -1.898  -0.793  1.00  0.00    -0.335 OA
ENDBRANCH   1  22
TORSDOF 6
