REMARK  6 active torsions:
REMARK  status: ('A' for Active; 'I' for Inactive)
REMARK    1  A    between atoms: C1_2  and  C2_3 
REMARK    2  A    between atoms: C2_3  and  C3_4 
REMARK    3  A    between atoms: C3_4  and  C4_5 
REMARK    4  A    between atoms: C5_6  and  N1_7 
REMARK    5  A    between atoms: N1_7  and  C6_8 
REMARK    6  A    between atoms: C7_10  and  N3_11 
ROOT
HETATM    1  C6  UNL     1       0.462  -0.736  -0.704  1.00  0.00     0.163 A 
HETATM    2  N2  UNL     1      -0.543  -0.817  -1.716  1.00  0.00    -0.375 N 
HETATM    3  C7  UNL     1      -1.914  -0.647  -1.599  1.00  0.00     0.319 C 
HETATM    4  C12 UNL     1      -2.630   0.480  -2.240  1.00  0.00     0.057 C 
HETATM    5  C13 UNL     1      -2.732   1.876  -1.881  1.00  0.00     0.004 C 
HETATM    6  O2  UNL     1      -1.421   2.619  -1.733  1.00  0.00     0.000 OA
HETATM    7  C14 UNL     1      -0.707   1.761  -0.746  1.00  0.00     0.061 A 
HETATM    8  C15 UNL     1      -0.475   1.453  -2.105  1.00  0.00     0.003 A 
HETATM    9  C16 UNL     1      -0.128   0.858  -0.898  1.00  0.00     0.100 A 
HETATM   10  C17 UNL     1       0.192   0.307   0.309  1.00  0.00     0.055 A 
HETATM   11  C18 UNL     1      -0.548   1.447   0.539  1.00  0.00     0.108 A 
HETATM   12  C19 UNL     1      -1.247   2.546   0.139  1.00  0.00     0.071 A 
HETATM   13  O3  UNL     1      -1.886   3.494   0.829  1.00  0.00    -0.353 OA
HETATM   14  C20 UNL     1      -1.529   3.810   2.187  1.00  0.00     0.201 C 
HETATM   15  C21 UNL     1      -0.679   2.680   2.719  1.00  0.00     0.196 C 
HETATM   16  O4  UNL     1      -0.639   1.540   1.938  1.00  0.00    -0.372 OA
HETATM   17  H11 UNL     1      -0.181  -1.220  -2.608  1.00  0.00     0.157 HD
ENDROOT
BRANCH   1  18
HETATM   18  N1  UNL     1       1.818  -0.651  -1.181  1.00  0.00    -0.381 N 
HETATM   19  H9  UNL     1       1.865  -0.774  -2.241  1.00  0.00     0.160 HD
BRANCH  18  20
HETATM   20  C5  UNL     1       3.022  -0.455  -0.485  1.00  0.00     0.080 C 
HETATM   21  C4  UNL     1       3.760  -1.004   0.484  1.00  0.00    -0.010 C 
BRANCH  21  22
HETATM   22  C3  UNL     1       5.049  -0.393   0.897  1.00  0.00     0.031 C 
BRANCH  22  23
HETATM   23  C2  UNL     1       6.174  -1.368   0.648  1.00  0.00     0.035 C 
BRANCH  23  24
HETATM   24  C1  UNL     1       7.513  -0.797   1.044  1.00  0.00     0.222 C 
HETATM   25  F1  UNL     1       7.765   0.350   0.310  1.00  0.00    -0.255 F 
ENDBRANCH  23  24
ENDBRANCH  22  23
ENDBRANCH  21  22
ENDBRANCH  18  20
ENDBRANCH   1  18
BRANCH   3  26
HETATM   26  N3  UNL     1      -2.416  -0.902  -0.234  1.00  0.00     0.115 NA
HETATM   27  C8  UNL     1      -3.865  -0.912  -0.208  1.00  0.00     0.301 C 
HETATM   28  C9  UNL     1      -4.244  -1.315   1.205  1.00  0.00     0.198 C 
HETATM   29  O1  UNL     1      -4.125  -2.698   1.283  1.00  0.00    -0.388 OA
HETATM   30  C10 UNL     1      -3.251  -3.162   0.342  1.00  0.00     0.198 C 
HETATM   31  C11 UNL     1      -2.042  -2.282   0.131  1.00  0.00     0.301 C 
ENDBRANCH   3  26
TORSDOF 6
