REMARK  8 active torsions:
REMARK  status: ('A' for Active; 'I' for Inactive)
REMARK    1  A    between atoms: C4_4  and  C5_5 
REMARK    2  A    between atoms: C5_5  and  C6_7 
REMARK    3  A    between atoms: N1_11  and  C9_12 
REMARK    4  A    between atoms: C13_18  and  C14_19 
REMARK    5  A    between atoms: C14_19  and  C15_20 
REMARK    6  A    between atoms: C15_20  and  C16_21 
REMARK    7  A    between atoms: C16_21  and  N4_22 
REMARK    8  A    between atoms: C20_27  and  O2_28 
ROOT
HETATM    1  C9  UNL     1      -2.190   1.578  -0.875  1.00  0.00     0.121 C 
HETATM    2  N2  UNL     1      -1.714   2.680  -0.339  1.00  0.00    -0.235 NA
HETATM    3  C10 UNL     1      -0.368   2.946  -0.789  1.00  0.00     0.181 C 
HETATM    4  N3  UNL     1       0.405   2.574  -1.828  1.00  0.00    -0.259 NA
HETATM    5  C11 UNL     1       1.694   3.166  -1.748  1.00  0.00     0.107 A 
HETATM    6  C12 UNL     1       1.834   1.901  -1.279  1.00  0.00     0.113 A 
HETATM    7  C13 UNL     1       1.100   0.670  -1.029  1.00  0.00    -0.055 C 
HETATM    8  C21 UNL     1      -0.165   0.282  -1.230  1.00  0.00    -0.039 C 
HETATM    9  C22 UNL     1      -0.511  -1.108  -0.806  1.00  0.00     0.203 C 
HETATM   10  O3  UNL     1      -1.817  -1.351  -1.101  1.00  0.00    -0.386 OA
HETATM   11  C23 UNL     1      -2.140  -0.522  -2.177  1.00  0.00     0.184 C 
HETATM   12  C24 UNL     1      -1.415   0.778  -1.841  1.00  0.00     0.111 C 
ENDROOT
BRANCH   1  13
HETATM   13  N1  UNL     1      -3.504   1.160  -0.539  1.00  0.00    -0.314 N 
HETATM   14  C2  UNL     1      -3.473   0.647   0.806  1.00  0.00     0.011 A 
HETATM   15  C1  UNL     1      -2.370   0.522   1.781  1.00  0.00     0.068 C 
HETATM   16  C3  UNL     1      -4.593   0.181   1.369  1.00  0.00     0.010 A 
HETATM   17  C4  UNL     1      -5.916   0.144   0.692  1.00  0.00     0.070 A 
HETATM   18  C7  UNL     1      -5.833   0.696  -0.683  1.00  0.00     0.002 A 
HETATM   19  C8  UNL     1      -4.740   1.155  -1.238  1.00  0.00     0.095 A 
BRANCH  17  20
HETATM   20  C5  UNL     1      -6.393  -1.283   0.596  1.00  0.00     0.210 C 
HETATM   21  F1  UNL     1      -6.532  -1.872   1.830  1.00  0.00    -0.246 F 
BRANCH  20  22
HETATM   22  C6  UNL     1      -7.634  -1.354  -0.232  1.00  0.00     0.260 C 
HETATM   23  F2  UNL     1      -8.667  -0.597   0.296  1.00  0.00    -0.253 F 
ENDBRANCH  20  22
ENDBRANCH  17  20
ENDBRANCH   1  13
BRANCH   7  24
HETATM   24  C14 UNL     1       2.146  -0.188  -0.425  1.00  0.00     0.038 C 
BRANCH  24  25
HETATM   25  C15 UNL     1       2.705   0.380   0.866  1.00  0.00     0.034 C 
BRANCH  25  26
HETATM   26  C16 UNL     1       3.740  -0.606   1.358  1.00  0.00     0.276 C 
BRANCH  26  27
HETATM   27  N4  UNL     1       4.819  -0.812   0.421  1.00  0.00     0.121 N 
HETATM   28  C17 UNL     1       5.660   0.333   0.274  1.00  0.00     0.301 C 
HETATM   29  C18 UNL     1       6.935   0.151   1.085  1.00  0.00     0.198 C 
HETATM   30  O1  UNL     1       6.608  -0.655   2.196  1.00  0.00    -0.385 OA
HETATM   31  C19 UNL     1       6.490  -1.952   1.735  1.00  0.00     0.231 C 
HETATM   32  C20 UNL     1       5.492  -2.060   0.603  1.00  0.00     0.380 C 
BRANCH  32  33
HETATM   33  O2  UNL     1       4.534  -3.033   0.862  1.00  0.00    -0.366 OA
HETATM   34  H27 UNL     1       4.281  -3.537   0.046  1.00  0.00     0.212 HD
ENDBRANCH  32  33
ENDBRANCH  26  27
ENDBRANCH  25  26
ENDBRANCH  24  25
ENDBRANCH   7  24
TORSDOF 8
