REMARK  4 active torsions:
REMARK  status: ('A' for Active; 'I' for Inactive)
REMARK    1  A    between atoms: C6_7  and  C7_8 
REMARK    2  A    between atoms: C7_8  and  C8_9 
REMARK    3  A    between atoms: C8_9  and  O1_10 
REMARK    4  A    between atoms: O1_10  and  C9_11 
ROOT
HETATM    1  C9  UNL     1       1.915  -0.652  -0.311  1.00  0.00     0.102 A 
HETATM    2  C10 UNL     1       3.056  -0.079   0.007  1.00  0.00     0.133 A 
HETATM    3  O2  UNL     1       2.871   1.285   0.147  1.00  0.00    -0.344 OA
HETATM    4  C11 UNL     1       3.841   2.071   0.829  1.00  0.00     0.202 C 
HETATM    5  C12 UNL     1       5.250   1.625   0.600  1.00  0.00     0.202 C 
HETATM    6  O3  UNL     1       5.403   0.214   0.544  1.00  0.00    -0.346 OA
HETATM    7  C13 UNL     1       4.378  -0.639   0.214  1.00  0.00     0.107 A 
HETATM    8  C14 UNL     1       4.892  -1.850   0.164  1.00  0.00     0.075 A 
HETATM    9  C15 UNL     1       4.404  -3.187  -0.116  1.00  0.00     0.109 A 
HETATM   10  N2  UNL     1       4.147  -4.530  -0.348  1.00  0.00    -0.224 NA
HETATM   11  C16 UNL     1       3.048  -3.601  -0.459  1.00  0.00     0.174 A 
HETATM   12  N3  UNL     1       1.906  -3.099  -0.635  1.00  0.00    -0.263 NA
HETATM   13  C17 UNL     1       1.180  -1.888  -0.629  1.00  0.00     0.218 A 
ENDROOT
BRANCH   1  14
HETATM   14  O1  UNL     1       0.944   0.343  -0.386  1.00  0.00    -0.351 OA
BRANCH  14  15
HETATM   15  C8  UNL     1      -0.426   0.156  -0.102  1.00  0.00     0.177 C 
BRANCH  15  16
HETATM   16  C7  UNL     1      -1.143   1.468  -0.236  1.00  0.00     0.062 C 
BRANCH  16  17
HETATM   17  C6  UNL     1      -2.614   1.405   0.045  1.00  0.00     0.226 C 
HETATM   18  C2  UNL     1      -3.408   0.498  -0.820  1.00  0.00     0.015 C 
HETATM   19  C1  UNL     1      -2.822   0.170  -2.164  1.00  0.00     0.012 C 
HETATM   20  C3  UNL     1      -3.733  -0.824  -0.142  1.00  0.00     0.008 C 
HETATM   21  C4  UNL     1      -4.570  -0.499   1.074  1.00  0.00     0.030 C 
HETATM   22  C5  UNL     1      -4.051   0.679   1.835  1.00  0.00     0.270 C 
HETATM   23  N1  UNL     1      -2.748   1.126   1.463  1.00  0.00     0.088 N 
HETATM   24  H11 UNL     1      -2.581   2.028   1.959  1.00  0.00     0.316 HD
ENDBRANCH  16  17
ENDBRANCH  15  16
ENDBRANCH  14  15
ENDBRANCH   1  14
TORSDOF 4
