REMARK  4 active torsions:
REMARK  status: ('A' for Active; 'I' for Inactive)
REMARK    1  A    between atoms: O1_2  and  C2_3 
REMARK    2  A    between atoms: C8_11  and  N2_12 
REMARK    3  A    between atoms: N2_12  and  C9_13 
REMARK    4  A    between atoms: C14_18  and  N3_19 
ROOT
HETATM    1  C2  UNL     1      -5.310  -0.319  -0.554  1.00  0.00     0.081 A 
HETATM    2  C3  UNL     1      -5.853  -1.533  -0.386  1.00  0.00     0.040 A 
HETATM    3  C4  UNL     1      -4.755  -2.426   0.050  1.00  0.00     0.041 A 
HETATM    4  C5  UNL     1      -3.574  -1.808   0.152  1.00  0.00     0.092 A 
HETATM    5  O2  UNL     1      -2.314  -2.250   0.518  1.00  0.00    -0.277 OA
HETATM    6  C6  UNL     1      -1.101  -1.589   0.409  1.00  0.00     0.249 A 
HETATM    7  N1  UNL     1      -0.129  -2.406   0.585  1.00  0.00    -0.244 NA
HETATM    8  C7  UNL     1       1.250  -2.068   0.541  1.00  0.00     0.211 A 
HETATM    9  C8  UNL     1       1.475  -0.611   0.265  1.00  0.00     0.045 A 
HETATM   10  C15 UNL     1       0.427   0.214   0.086  1.00  0.00     0.121 A 
HETATM   11  N4  UNL     1      -0.954  -0.197   0.140  1.00  0.00    -0.316 N 
HETATM   12  C16 UNL     1      -1.783   0.940  -0.104  1.00  0.00     0.160 C 
HETATM   13  C17 UNL     1      -3.205   0.663  -0.340  1.00  0.00     0.010 C 
HETATM   14  C18 UNL     1      -3.902  -0.445  -0.233  1.00  0.00     0.029 A 
ENDROOT
BRANCH   9  15
HETATM   15  N2  UNL     1       2.727  -0.035   0.191  1.00  0.00    -0.355 N 
HETATM   16  H8  UNL     1       2.769  -0.131   1.265  1.00  0.00     0.166 HD
BRANCH  15  17
HETATM   17  C9  UNL     1       3.998   0.545   0.159  1.00  0.00     0.059 A 
HETATM   18  C10 UNL     1       4.091   1.933   0.354  1.00  0.00     0.032 A 
HETATM   19  C11 UNL     1       5.327   2.567   0.323  1.00  0.00     0.002 A 
HETATM   20  C12 UNL     1       6.368   1.698   0.090  1.00  0.00     0.002 A 
HETATM   21  C13 UNL     1       6.362   0.337  -0.111  1.00  0.00     0.031 A 
HETATM   22  C14 UNL     1       5.103  -0.235  -0.068  1.00  0.00     0.052 A 
BRANCH  22  23
HETATM   23  N3  UNL     1       5.047  -1.640  -0.272  1.00  0.00    -0.397 N 
HETATM   24  H13 UNL     1       4.654  -1.878  -1.219  1.00  0.00     0.156 HD
HETATM   25  H14 UNL     1       5.309  -2.463   0.308  1.00  0.00     0.156 HD
ENDBRANCH  22  23
ENDBRANCH  15  17
ENDBRANCH   9  15
BRANCH   1  26
HETATM   26  O1  UNL     1      -6.257   0.564  -0.957  1.00  0.00    -0.355 OA
HETATM   27  C1  UNL     1      -6.239   1.949  -0.853  1.00  0.00     0.210 C 
ENDBRANCH   1  26
TORSDOF 4
