REMARK  3 active torsions:
REMARK  status: ('A' for Active; 'I' for Inactive)
REMARK    1  A    between atoms: C6_6  and  N1_7 
REMARK    2  A    between atoms: N1_7  and  C7_8 
REMARK    3  A    between atoms: C13_17  and  N4_18 
ROOT
HETATM    1  C7  UNL     1      -0.153   0.110   0.427  1.00  0.00     0.141 C 
HETATM    2  N2  UNL     1       0.019   0.967   1.404  1.00  0.00    -0.226 NA
HETATM    3  C8  UNL     1      -1.020   1.640   2.098  1.00  0.00     0.234 C 
HETATM    4  N3  UNL     1      -0.731   2.482   1.250  1.00  0.00    -0.254 NA
HETATM    5  C9  UNL     1      -1.164   3.741   0.914  1.00  0.00     0.116 C 
HETATM    6  C10 UNL     1      -1.920   4.283  -0.072  1.00  0.00     0.018 C 
HETATM    7  C11 UNL     1      -2.342   3.103  -0.966  1.00  0.00     0.196 C 
HETATM    8  O1  UNL     1      -1.819   1.988  -0.412  1.00  0.00    -0.385 OA
HETATM    9  C12 UNL     1      -2.048   0.808  -1.051  1.00  0.00     0.211 C 
HETATM   10  C13 UNL     1      -1.479  -0.248  -0.091  1.00  0.00     0.315 C 
ENDROOT
BRANCH   1  11
HETATM   11  N1  UNL     1       1.052  -0.418  -0.099  1.00  0.00    -0.343 N 
HETATM   12  H7  UNL     1       0.880  -1.294  -0.653  1.00  0.00     0.167 HD
BRANCH  11  13
HETATM   13  C6  UNL     1       2.380   0.050   0.008  1.00  0.00     0.034 A 
HETATM   14  C5  UNL     1       2.844   1.175   0.640  1.00  0.00     0.029 A 
HETATM   15  C4  UNL     1       4.165   1.555   0.700  1.00  0.00     0.003 A 
HETATM   16  C3  UNL     1       5.125   0.778   0.095  1.00  0.00     0.007 A 
HETATM   17  C2  UNL     1       4.708  -0.359  -0.550  1.00  0.00    -0.060 A 
HETATM   18  C1  UNL     1       5.739  -1.188  -1.198  1.00  0.00     0.048 C 
HETATM   19  C18 UNL     1       3.384  -0.689  -0.579  1.00  0.00     0.036 A 
ENDBRANCH  11  13
ENDBRANCH   1  11
BRANCH  10  20
HETATM   20  N4  UNL     1      -1.555  -1.574  -0.543  1.00  0.00     0.106 N 
HETATM   21  C14 UNL     1      -2.807  -1.982  -1.120  1.00  0.00     0.299 C 
HETATM   22  C15 UNL     1      -3.861  -2.375  -0.121  1.00  0.00     0.198 C 
HETATM   23  O2  UNL     1      -3.370  -2.487   1.160  1.00  0.00    -0.388 OA
HETATM   24  C16 UNL     1      -2.225  -3.299   1.068  1.00  0.00     0.198 C 
HETATM   25  C17 UNL     1      -1.086  -2.553   0.413  1.00  0.00     0.299 C 
ENDBRANCH  10  20
TORSDOF 3
