REMARK  7 active torsions:
REMARK  status: ('A' for Active; 'I' for Inactive)
REMARK    1  A    between atoms: C1_2  and  C2_5 
REMARK    2  A    between atoms: C6_9  and  N1_10 
REMARK    3  A    between atoms: N1_10  and  C7_11 
REMARK    4  A    between atoms: C11_17  and  C12_18 
REMARK    5  A    between atoms: C12_18  and  C13_19 
REMARK    6  A    between atoms: C13_19  and  C14_20 
REMARK    7  A    between atoms: C14_20  and  N4_21 
ROOT
HETATM    1  C7  UNL     1      -2.834  -1.292   2.044  1.00  0.00     0.143 A 
HETATM    2  N2  UNL     1      -3.030  -1.916   3.192  1.00  0.00    -0.223 NA
HETATM    3  C8  UNL     1      -2.025  -2.554   3.850  1.00  0.00     0.236 A 
HETATM    4  N3  UNL     1      -0.812  -2.516   3.269  1.00  0.00    -0.241 NA
HETATM    5  C9  UNL     1      -0.557  -1.904   2.119  1.00  0.00     0.075 A 
HETATM    6  C10 UNL     1       0.732  -1.934   1.605  1.00  0.00     0.042 A 
HETATM    7  C11 UNL     1       1.053  -1.318   0.404  1.00  0.00    -0.020 A 
HETATM    8  C19 UNL     1       0.003  -0.661  -0.258  1.00  0.00     0.109 A 
HETATM    9  C20 UNL     1      -1.290  -0.639   0.271  1.00  0.00     0.119 A 
HETATM   10  C21 UNL     1      -1.583  -1.262   1.464  1.00  0.00     0.075 A 
HETATM   11  O2  UNL     1      -2.296   0.025  -0.417  1.00  0.00    -0.345 OA
HETATM   12  C22 UNL     1      -2.061   1.230  -1.126  1.00  0.00     0.202 C 
HETATM   13  C23 UNL     1      -0.631   1.329  -1.591  1.00  0.00     0.202 C 
HETATM   14  O3  UNL     1       0.007   0.040  -1.460  1.00  0.00    -0.346 OA
ENDROOT
BRANCH   1  15
HETATM   15  N1  UNL     1      -3.909  -0.691   1.405  1.00  0.00    -0.355 N 
HETATM   16  H4  UNL     1      -4.058  -1.028   0.425  1.00  0.00     0.166 HD
BRANCH  15  17
HETATM   17  C6  UNL     1      -4.998   0.187   1.423  1.00  0.00    -0.036 C 
HETATM   18  C5  UNL     1      -5.151   1.547   1.330  1.00  0.00     0.012 C 
HETATM   19  C4  UNL     1      -6.178   2.235   0.756  1.00  0.00     0.001 C 
HETATM   20  C3  UNL     1      -7.279   1.692   0.146  1.00  0.00    -0.001 C 
HETATM   21  C2  UNL     1      -7.569   0.373  -0.011  1.00  0.00    -0.016 C 
HETATM   22  B1  UNL     1      -6.773  -0.617   1.581  1.00  0.00     0.253 B 
BRANCH  21  23
HETATM   23  C1  UNL     1      -8.246  -0.536  -0.951  1.00  0.00     0.403 C 
HETATM   24  F1  UNL     1      -7.503  -1.719  -0.984  1.00  0.00    -0.167 F 
HETATM   25  F2  UNL     1      -8.223   0.093  -2.173  1.00  0.00    -0.167 F 
HETATM   26  F3  UNL     1      -9.493  -0.843  -0.503  1.00  0.00    -0.167 F 
ENDBRANCH  21  23
ENDBRANCH  15  17
ENDBRANCH   1  15
BRANCH   7  27
HETATM   27  C12 UNL     1       2.300  -1.262  -0.335  1.00  0.00     0.043 C 
BRANCH  27  28
HETATM   28  C13 UNL     1       3.040   0.027  -0.360  1.00  0.00     0.035 C 
BRANCH  28  29
HETATM   29  C14 UNL     1       4.284  -0.228  -1.226  1.00  0.00     0.273 C 
BRANCH  29  30
HETATM   30  N4  UNL     1       5.107   0.925  -1.378  1.00  0.00     0.092 N 
HETATM   31  C15 UNL     1       6.244   0.639  -2.245  1.00  0.00     0.298 C 
HETATM   32  C16 UNL     1       7.132  -0.408  -1.611  1.00  0.00     0.198 C 
HETATM   33  O1  UNL     1       7.542  -0.034  -0.358  1.00  0.00    -0.388 OA
HETATM   34  C17 UNL     1       6.553   0.387   0.494  1.00  0.00     0.198 C 
HETATM   35  C18 UNL     1       5.661   1.420  -0.130  1.00  0.00     0.298 C 
ENDBRANCH  29  30
ENDBRANCH  28  29
ENDBRANCH  27  28
ENDBRANCH   7  27
TORSDOF 7
