REMARK  1 active torsions:
REMARK  status: ('A' for Active; 'I' for Inactive)
REMARK    1  A    between atoms: C11_15  and  C12_16 
ROOT
HETATM    1  F1  UNL     1       2.216  -3.870   1.657  1.00  0.00    -0.208 F 
HETATM    2  C1  UNL     1       1.411  -2.833   1.356  1.00  0.00     0.124 C 
HETATM    3  C2  UNL     1       2.622  -2.383   1.107  1.00  0.00     0.088 C 
HETATM    4  C3  UNL     1       3.529  -1.363   0.681  1.00  0.00     0.013 C 
HETATM    5  C4  UNL     1       4.138  -0.296   0.262  1.00  0.00     0.028 C 
HETATM    6  C5  UNL     1       5.634  -0.482   0.220  1.00  0.00     0.224 C 
HETATM    7  O1  UNL     1       6.232   0.764   0.265  1.00  0.00    -0.384 OA
HETATM    8  C6  UNL     1       5.826   1.438  -0.881  1.00  0.00     0.187 C 
HETATM    9  C7  UNL     1       4.418   1.999  -0.709  1.00  0.00     0.149 C 
HETATM   10  N1  UNL     1       3.579   0.972  -0.146  1.00  0.00    -0.380 N 
HETATM   11  C8  UNL     1       2.154   1.114   0.044  1.00  0.00     0.125 C 
HETATM   12  C9  UNL     1       1.737   1.288   1.479  1.00  0.00     0.046 C 
HETATM   13  C10 UNL     1       0.171   1.176   1.524  1.00  0.00     0.170 C 
HETATM   14  O2  UNL     1      -0.038   0.038   0.853  1.00  0.00    -0.376 OA
HETATM   15  C11 UNL     1      -1.348  -0.525   0.778  1.00  0.00     0.199 C 
HETATM   16  C22 UNL     1      -0.979  -1.904   1.216  1.00  0.00     0.037 C 
HETATM   17  C23 UNL     1      -0.034  -2.786   1.447  1.00  0.00     0.068 C 
HETATM   18 CL1  UNL     1      -0.596  -4.370   2.021  1.00  0.00    -0.082 Cl
ENDROOT
BRANCH  15  19
HETATM   19  C12 UNL     1      -1.681  -0.509  -0.673  1.00  0.00     0.084 A 
HETATM   20  N2  UNL     1      -0.696  -0.989  -1.473  1.00  0.00    -0.242 NA
HETATM   21  C13 UNL     1      -0.774  -0.995  -2.825  1.00  0.00     0.234 A 
HETATM   22  N3  UNL     1      -1.869  -0.509  -3.476  1.00  0.00    -0.241 NA
HETATM   23  C14 UNL     1      -2.881  -0.020  -2.709  1.00  0.00     0.073 A 
HETATM   24  C15 UNL     1      -4.037   0.477  -3.276  1.00  0.00     0.035 A 
HETATM   25  C19 UNL     1      -2.782  -0.024  -1.337  1.00  0.00     0.057 A 
HETATM   26  C16 UNL     1      -5.067   0.956  -2.457  1.00  0.00     0.042 A 
HETATM   27  C17 UNL     1      -4.944   0.938  -1.066  1.00  0.00     0.103 A 
HETATM   28  C18 UNL     1      -3.780   0.438  -0.528  1.00  0.00     0.116 A 
HETATM   29  O4  UNL     1      -5.940   1.400  -0.203  1.00  0.00    -0.346 OA
HETATM   30  O3  UNL     1      -3.787   0.474   0.848  1.00  0.00    -0.345 OA
HETATM   31  C20 UNL     1      -4.936   0.137   1.632  1.00  0.00     0.202 C 
HETATM   32  C21 UNL     1      -6.203   0.595   0.963  1.00  0.00     0.202 C 
ENDBRANCH  15  19
TORSDOF 1
