REMARK  6 active torsions:
REMARK  status: ('A' for Active; 'I' for Inactive)
REMARK    1  A    between atoms: C4_5  and  N1_6 
REMARK    2  A    between atoms: N1_6  and  C5_7 
REMARK    3  A    between atoms: C9_13  and  O1_14 
REMARK    4  A    between atoms: O1_14  and  C10_15 
REMARK    5  A    between atoms: C10_15  and  C11_16 
REMARK    6  A    between atoms: C11_16  and  N4_17 
ROOT
HETATM    1  C5  UNL     1       3.272  -1.746  -0.950  1.00  0.00     0.144 A 
HETATM    2  N2  UNL     1       3.670  -2.657  -1.888  1.00  0.00    -0.223 NA
HETATM    3  C6  UNL     1       2.671  -3.392  -2.454  1.00  0.00     0.236 A 
HETATM    4  N3  UNL     1       1.376  -3.269  -2.147  1.00  0.00    -0.241 NA
HETATM    5  C7  UNL     1       0.926  -2.376  -1.219  1.00  0.00     0.077 A 
HETATM    6  C8  UNL     1      -0.401  -2.257  -0.902  1.00  0.00     0.072 A 
HETATM    7  C9  UNL     1      -0.760  -1.336   0.050  1.00  0.00     0.107 A 
HETATM    8  C16 UNL     1       0.197  -0.552   0.667  1.00  0.00     0.136 A 
HETATM    9  C17 UNL     1       1.528  -0.705   0.316  1.00  0.00     0.121 A 
HETATM   10  C18 UNL     1       1.943  -1.618  -0.635  1.00  0.00     0.075 A 
HETATM   11  O3  UNL     1       2.513   0.066   0.917  1.00  0.00    -0.345 OA
HETATM   12  C19 UNL     1       2.246   1.023   1.929  1.00  0.00     0.202 C 
HETATM   13  C20 UNL     1       0.810   1.427   2.012  1.00  0.00     0.202 C 
HETATM   14  O4  UNL     1      -0.080   0.392   1.628  1.00  0.00    -0.344 OA
ENDROOT
BRANCH   1  15
HETATM   15  N1  UNL     1       4.287  -0.980  -0.333  1.00  0.00    -0.340 N 
HETATM   16  H3  UNL     1       4.335  -1.572   0.545  1.00  0.00     0.167 HD
BRANCH  15  17
HETATM   17  C4  UNL     1       5.117   0.153  -0.525  1.00  0.00     0.035 A 
HETATM   18  C3  UNL     1       5.812   0.594   0.580  1.00  0.00     0.032 A 
HETATM   19  C2  UNL     1       6.629   1.665   0.423  1.00  0.00     0.046 A 
HETATM   20  C1  UNL     1       6.751   2.281  -0.805  1.00  0.00     0.138 A 
HETATM   21  F1  UNL     1       7.599   3.358  -0.868  1.00  0.00    -0.204 F 
HETATM   22  C22 UNL     1       6.034   1.803  -1.886  1.00  0.00     0.074 A 
HETATM   23  C21 UNL     1       5.191   0.721  -1.779  1.00  0.00     0.056 A 
HETATM   24 CL1  UNL     1       6.297   2.690  -3.367  1.00  0.00    -0.081 Cl
ENDBRANCH  15  17
ENDBRANCH   1  15
BRANCH   7  25
HETATM   25  O1  UNL     1      -2.046  -1.093   0.487  1.00  0.00    -0.346 OA
BRANCH  25  26
HETATM   26  C10 UNL     1      -3.208  -1.763   0.030  1.00  0.00     0.206 C 
BRANCH  26  27
HETATM   27  C11 UNL     1      -4.410  -1.202   0.759  1.00  0.00     0.299 C 
BRANCH  27  28
HETATM   28  N4  UNL     1      -4.577   0.214   0.510  1.00  0.00     0.094 N 
HETATM   29  C12 UNL     1      -5.714   0.689   1.302  1.00  0.00     0.298 C 
HETATM   30  C13 UNL     1      -5.838   2.163   1.054  1.00  0.00     0.198 C 
HETATM   31  O2  UNL     1      -5.944   2.430  -0.309  1.00  0.00    -0.388 OA
HETATM   32  C14 UNL     1      -6.026   1.273  -1.070  1.00  0.00     0.198 C 
HETATM   33  C15 UNL     1      -4.729   0.513  -0.895  1.00  0.00     0.298 C 
ENDBRANCH  27  28
ENDBRANCH  26  27
ENDBRANCH  25  26
ENDBRANCH   7  25
TORSDOF 6
