REMARK  2 active torsions:
REMARK  status: ('A' for Active; 'I' for Inactive)
REMARK    1  A    between atoms: C6_7  and  N2_8 
REMARK    2  A    between atoms: N2_8  and  C7_9 
ROOT
HETATM    1  C1  UNL     1      -4.268  -1.315   0.049  1.00  0.00     0.023 C 
HETATM    2  C2  UNL     1      -3.121  -0.686  -0.156  1.00  0.00    -0.021 A 
HETATM    3  C3  UNL     1      -1.885  -1.034   0.523  1.00  0.00    -0.013 A 
HETATM    4  C4  UNL     1      -1.456  -1.908   1.419  1.00  0.00     0.008 A 
HETATM    5  C5  UNL     1      -0.118  -2.109   2.000  1.00  0.00     0.179 A 
HETATM    6  N1  UNL     1       0.806  -1.147   1.437  1.00  0.00    -0.268 NA
HETATM    7  C6  UNL     1       0.523  -0.257   0.571  1.00  0.00     0.133 A 
HETATM    8  C12 UNL     1      -0.836  -0.137   0.055  1.00  0.00     0.052 A 
HETATM    9  C13 UNL     1      -1.378   0.702  -0.845  1.00  0.00     0.101 A 
HETATM   10  O1  UNL     1      -0.850   1.744  -1.597  1.00  0.00    -0.311 OA
HETATM   11  P1  UNL     1      -1.992   3.004  -2.050  1.00  0.00     0.137 P 
HETATM   12  C14 UNL     1      -3.544   2.723  -1.485  1.00  0.00     0.178 C 
HETATM   13  O2  UNL     1      -3.642   1.556  -0.769  1.00  0.00    -0.343 OA
HETATM   14  C15 UNL     1      -2.818   0.440  -1.051  1.00  0.00     0.219 A 
ENDROOT
BRANCH   7  15
HETATM   15  N2  UNL     1       1.524   0.651   0.079  1.00  0.00    -0.363 N 
HETATM   16  H6  UNL     1       1.281   1.269  -0.720  1.00  0.00     0.162 HD
BRANCH  15  17
HETATM   17  C7  UNL     1       2.815   0.638   0.741  1.00  0.00     0.134 A 
HETATM   18  C8  UNL     1       3.764   1.599   0.164  1.00  0.00     0.046 A 
HETATM   19  C9  UNL     1       4.850   0.985  -0.286  1.00  0.00     0.136 A 
HETATM   20  F1  UNL     1       5.949   1.540  -0.885  1.00  0.00    -0.205 F 
HETATM   21  C10 UNL     1       4.678  -0.435  -0.028  1.00  0.00     0.070 A 
HETATM   22 CL1  UNL     1       5.840  -1.699  -0.434  1.00  0.00    -0.081 Cl
HETATM   23  C11 UNL     1       3.508  -0.686   0.569  1.00  0.00     0.029 A 
ENDBRANCH  15  17
ENDBRANCH   7  15
TORSDOF 2
