REMARK  9 active torsions:
REMARK  status: ('A' for Active; 'I' for Inactive)
REMARK    1  A    between atoms: C2_2  and  C3_3 
REMARK    2  A    between atoms: C4_4  and  O1_5 
REMARK    3  A    between atoms: O1_5  and  C5_6 
REMARK    4  A    between atoms: C5_6  and  C6_7 
REMARK    5  A    between atoms: C6_7  and  C7_8 
REMARK    6  A    between atoms: C7_8  and  N1_9 
REMARK    7  A    between atoms: C14_19  and  N4_20 
REMARK    8  A    between atoms: N4_20  and  C15_21 
REMARK    9  A    between atoms: C19_25  and  C20_26 
ROOT
HETATM    1  C3  UNL     1       0.804  -2.337   0.499  1.00  0.00    -0.025 C 
HETATM    2  C4  UNL     1       0.016  -1.347   0.155  1.00  0.00     0.078 C 
HETATM    3  C12 UNL     1       0.544  -0.107  -0.534  1.00  0.00     0.202 A 
HETATM    4  N2  UNL     1       0.607   0.990   0.371  1.00  0.00    -0.268 NA
HETATM    5  C13 UNL     1       1.633   1.737   0.518  1.00  0.00     0.229 A 
HETATM    6  N3  UNL     1       2.834   1.548  -0.214  1.00  0.00    -0.226 NA
HETATM    7  C14 UNL     1       2.889   0.570  -1.069  1.00  0.00     0.137 A 
HETATM    8  C22 UNL     1       1.771  -0.373  -1.322  1.00  0.00     0.222 A 
HETATM    9  O3  UNL     1       2.206  -1.703  -1.206  1.00  0.00    -0.371 OA
HETATM   10  C23 UNL     1       2.240  -2.092   0.134  1.00  0.00     0.205 C 
ENDROOT
BRANCH   7  11
HETATM   11  N4  UNL     1       4.108   0.450  -1.754  1.00  0.00    -0.342 N 
HETATM   12  H22 UNL     1       4.077   0.148  -2.776  1.00  0.00     0.167 HD
BRANCH  11  13
HETATM   13  C15 UNL     1       5.401   0.690  -1.220  1.00  0.00     0.034 A 
HETATM   14  C16 UNL     1       6.539   0.578  -2.027  1.00  0.00     0.029 A 
HETATM   15  C17 UNL     1       7.819   0.790  -1.576  1.00  0.00     0.003 A 
HETATM   16  C18 UNL     1       8.038   1.133  -0.269  1.00  0.00     0.016 A 
HETATM   17  C19 UNL     1       6.949   1.256   0.567  1.00  0.00     0.050 A 
HETATM   18  C21 UNL     1       5.686   1.031   0.063  1.00  0.00     0.045 A 
BRANCH  17  19
HETATM   19  C20 UNL     1       7.212   1.627   1.974  1.00  0.00     0.417 C 
HETATM   20  F1  UNL     1       6.157   2.301   2.569  1.00  0.00    -0.166 F 
HETATM   21  F2  UNL     1       8.273   2.523   1.984  1.00  0.00    -0.166 F 
HETATM   22  F3  UNL     1       7.533   0.569   2.781  1.00  0.00    -0.166 F 
ENDBRANCH  17  19
ENDBRANCH  11  13
ENDBRANCH   7  11
BRANCH   2  23
HETATM   23  O1  UNL     1      -1.342  -1.486   0.453  1.00  0.00    -0.353 OA
BRANCH  23  24
HETATM   24  C5  UNL     1      -2.217  -0.553  -0.102  1.00  0.00     0.177 C 
BRANCH  24  25
HETATM   25  C6  UNL     1      -3.679  -0.784   0.303  1.00  0.00     0.057 C 
BRANCH  25  26
HETATM   26  C7  UNL     1      -4.438   0.330  -0.401  1.00  0.00     0.274 C 
BRANCH  26  27
HETATM   27  N1  UNL     1      -5.847   0.317  -0.165  1.00  0.00     0.092 N 
HETATM   28  C8  UNL     1      -6.390   1.456  -0.917  1.00  0.00     0.298 C 
HETATM   29  C9  UNL     1      -7.839   1.673  -0.632  1.00  0.00     0.198 C 
HETATM   30  O2  UNL     1      -8.141   1.832   0.704  1.00  0.00    -0.388 OA
HETATM   31  C10 UNL     1      -6.965   1.789   1.434  1.00  0.00     0.198 C 
HETATM   32  C11 UNL     1      -6.241   0.457   1.204  1.00  0.00     0.298 C 
ENDBRANCH  26  27
ENDBRANCH  25  26
ENDBRANCH  24  25
ENDBRANCH  23  24
ENDBRANCH   2  23
BRANCH   1  33
HETATM   33  C2  UNL     1       0.468  -3.594   1.163  1.00  0.00     0.034 C 
HETATM   34  C1  UNL     1      -0.976  -3.760   1.486  1.00  0.00     0.010 C 
ENDBRANCH   1  33
TORSDOF 9
