REMARK  7 active torsions:
REMARK  status: ('A' for Active; 'I' for Inactive)
REMARK    1  A    between atoms: C1_2  and  C2_3 
REMARK    2  A    between atoms: N1_8  and  C6_9 
REMARK    3  A    between atoms: C9_15  and  O1_16 
REMARK    4  A    between atoms: O1_16  and  C10_17 
REMARK    5  A    between atoms: C10_17  and  C11_18 
REMARK    6  A    between atoms: C11_18  and  C12_19 
REMARK    7  A    between atoms: C12_19  and  N5_20 
ROOT
HETATM    1  C6  UNL     1      -4.705   0.528   0.254  1.00  0.00     0.133 C 
HETATM    2  N2  UNL     1      -4.489   1.700   0.719  1.00  0.00    -0.224 NA
HETATM    3  C7  UNL     1      -3.232   2.145   1.194  1.00  0.00     0.236 C 
HETATM    4  N3  UNL     1      -2.026   2.466   1.425  1.00  0.00    -0.235 NA
HETATM    5  C8  UNL     1      -1.010   2.204   0.476  1.00  0.00     0.237 C 
HETATM    6  N4  UNL     1      -0.073   1.799  -0.314  1.00  0.00    -0.216 NA
HETATM    7  C9  UNL     1       0.410   0.462  -0.122  1.00  0.00     0.198 C 
HETATM    8  C17 UNL     1      -0.365  -0.457   0.419  1.00  0.00     0.129 C 
HETATM    9  C18 UNL     1       0.095  -1.851   0.637  1.00  0.00     0.237 C 
HETATM   10  O3  UNL     1      -1.059  -2.637   0.795  1.00  0.00    -0.378 OA
HETATM   11  C19 UNL     1      -2.069  -2.268  -0.060  1.00  0.00     0.233 C 
HETATM   12  C20 UNL     1      -2.670  -0.937   0.256  1.00  0.00     0.080 C 
HETATM   13  C21 UNL     1      -3.939  -0.683   0.023  1.00  0.00     0.085 C 
HETATM   14  O4  UNL     1      -1.674  -0.102   0.802  1.00  0.00    -0.310 OA
ENDROOT
BRANCH   7  15
HETATM   15  O1  UNL     1       1.698   0.215  -0.530  1.00  0.00    -0.332 OA
BRANCH  15  16
HETATM   16  C10 UNL     1       2.774  -0.048   0.321  1.00  0.00     0.179 C 
BRANCH  16  17
HETATM   17  C11 UNL     1       4.084  -0.033  -0.469  1.00  0.00     0.057 C 
BRANCH  17  18
HETATM   18  C12 UNL     1       5.226  -0.322   0.484  1.00  0.00     0.274 C 
BRANCH  18  19
HETATM   19  N5  UNL     1       6.516  -0.333  -0.117  1.00  0.00     0.092 N 
HETATM   20  C13 UNL     1       6.909   0.969  -0.550  1.00  0.00     0.298 C 
HETATM   21  C14 UNL     1       8.271   0.989  -1.206  1.00  0.00     0.198 C 
HETATM   22  O2  UNL     1       8.438  -0.082  -2.082  1.00  0.00    -0.388 OA
HETATM   23  C15 UNL     1       8.260  -1.305  -1.406  1.00  0.00     0.198 C 
HETATM   24  C16 UNL     1       6.765  -1.369  -1.069  1.00  0.00     0.298 C 
ENDBRANCH  18  19
ENDBRANCH  17  18
ENDBRANCH  16  17
ENDBRANCH  15  16
ENDBRANCH   7  15
BRANCH   1  25
HETATM   25  N1  UNL     1      -6.101   0.535  -0.099  1.00  0.00    -0.332 N 
HETATM   26  C2  UNL     1      -7.309   1.080   0.484  1.00  0.00     0.157 C 
HETATM   27  C3  UNL     1      -8.402   0.243  -0.095  1.00  0.00     0.220 C 
HETATM   28  F2  UNL     1      -8.827  -0.729   0.784  1.00  0.00    -0.243 F 
HETATM   29  C4  UNL     1      -7.864  -0.312  -1.357  1.00  0.00     0.029 C 
HETATM   30  C5  UNL     1      -6.561  -0.116  -1.296  1.00  0.00     0.092 C 
BRANCH  26  31
HETATM   31  C1  UNL     1      -7.297   1.017   2.004  1.00  0.00     0.251 C 
HETATM   32  F1  UNL     1      -7.108  -0.275   2.439  1.00  0.00    -0.253 F 
ENDBRANCH  26  31
ENDBRANCH   1  25
TORSDOF 7
