REMARK  1 active torsions:
REMARK  status: ('A' for Active; 'I' for Inactive)
REMARK    1  A    between atoms: O1_2  and  C2_3 
ROOT
HETATM    1  C2  UNL     1       0.412   1.530   0.602  1.00  0.00     0.082 C 
HETATM    2  C3  UNL     1      -0.909   1.485   0.532  1.00  0.00     0.048 C 
HETATM    3  C4  UNL     1      -1.928   0.774  -0.223  1.00  0.00    -0.005 C 
HETATM    4  C5  UNL     1      -2.766   1.182  -1.228  1.00  0.00     0.032 C 
HETATM    5 CL1  UNL     1      -3.132   2.908  -1.413  1.00  0.00    -0.087 Cl
HETATM    6  C6  UNL     1      -3.189  -0.066  -1.975  1.00  0.00     0.076 C 
HETATM    7  C7  UNL     1      -4.276  -0.632  -1.078  1.00  0.00     0.103 C 
HETATM    8  N1  UNL     1      -4.018  -1.571  -0.191  1.00  0.00    -0.240 NA
HETATM    9  C8  UNL     1      -2.817  -1.718   0.533  1.00  0.00     0.171 C 
HETATM   10  C9  UNL     1      -2.329  -0.656  -0.076  1.00  0.00     0.007 C 
HETATM   11  C10 UNL     1      -1.937  -0.915  -1.543  1.00  0.00     0.059 C 
HETATM   12  O2  UNL     1      -1.591  -1.737   1.167  1.00  0.00    -0.334 OA
HETATM   13  C11 UNL     1      -0.533  -2.577   0.719  1.00  0.00     0.179 C 
HETATM   14  C12 UNL     1       0.695  -2.389   1.557  1.00  0.00     0.057 C 
HETATM   15  C13 UNL     1       1.201  -0.961   1.514  1.00  0.00     0.275 C 
HETATM   16  N2  UNL     1       1.525  -0.619   0.169  1.00  0.00     0.103 N 
HETATM   17  C14 UNL     1       2.828  -1.138  -0.216  1.00  0.00     0.299 C 
HETATM   18  C15 UNL     1       3.193  -0.476  -1.526  1.00  0.00     0.198 C 
HETATM   19  O3  UNL     1       3.431   0.890  -1.336  1.00  0.00    -0.387 OA
HETATM   20  C16 UNL     1       2.692   1.387  -0.266  1.00  0.00     0.210 C 
HETATM   21  C17 UNL     1       1.306   0.724  -0.219  1.00  0.00     0.302 C 
ENDROOT
BRANCH   1  22
HETATM   22  O1  UNL     1       0.971   2.417   1.531  1.00  0.00    -0.358 OA
HETATM   23  C1  UNL     1       0.500   3.753   1.529  1.00  0.00     0.209 C 
ENDBRANCH   1  22
TORSDOF 1
