REMARK  8 active torsions:
REMARK  status: ('A' for Active; 'I' for Inactive)
REMARK    1  A    between atoms: C2_3  and  C3_4 
REMARK    2  A    between atoms: C3_4  and  N1_5 
REMARK    3  A    between atoms: N1_5  and  C4_6 
REMARK    4  A    between atoms: C8_12  and  O1_13 
REMARK    5  A    between atoms: O1_13  and  C9_14 
REMARK    6  A    between atoms: C9_14  and  C10_15 
REMARK    7  A    between atoms: C10_15  and  C11_16 
REMARK    8  A    between atoms: C11_16  and  N4_17 
ROOT
HETATM    1 CL1  UNL     1       7.774   4.933  -0.933  1.00  0.00    -0.023 Cl
HETATM    2  C1  UNL     1       6.674   3.714  -0.368  1.00  0.00     0.006 C 
HETATM    3  C2  UNL     1       5.896   2.874   0.010  1.00  0.00    -0.070 C 
ENDROOT
BRANCH   3   4
HETATM    4  C3  UNL     1       4.936   1.832   0.458  1.00  0.00     0.217 C 
BRANCH   4   5
HETATM    5  N1  UNL     1       4.369   1.229  -0.702  1.00  0.00    -0.364 N 
HETATM    6  H3  UNL     1       4.616   1.523  -1.662  1.00  0.00     0.162 HD
BRANCH   5   7
HETATM    7  C4  UNL     1       3.413   0.167  -0.563  1.00  0.00     0.125 C 
HETATM    8  N2  UNL     1       3.549   0.308   0.798  1.00  0.00    -0.225 NA
HETATM    9  C5  UNL     1       3.735  -0.755   1.635  1.00  0.00     0.235 C 
HETATM   10  N3  UNL     1       3.382  -2.005   2.192  1.00  0.00    -0.246 NA
HETATM   11  C6  UNL     1       2.441  -2.690   1.437  1.00  0.00     0.045 C 
HETATM   12  C7  UNL     1       1.110  -2.411   1.692  1.00  0.00     0.065 C 
HETATM   13  C17 UNL     1       3.180  -3.415   0.427  1.00  0.00     0.073 C 
HETATM   14  C8  UNL     1       0.568  -1.707   0.543  1.00  0.00     0.081 C 
HETATM   15  C16 UNL     1       1.751  -1.812  -0.060  1.00  0.00     0.030 A 
HETATM   16  O3  UNL     1       2.994  -1.982  -0.573  1.00  0.00     0.000 OA
HETATM   17  C19 UNL     1       2.979  -1.612  -0.878  1.00  0.00     0.152 A 
HETATM   18  O4  UNL     1       4.291  -2.222  -1.062  1.00  0.00    -0.366 OA
HETATM   19  C20 UNL     1       2.857  -0.455  -1.738  1.00  0.00     0.070 C 
HETATM   20  C18 UNL     1       4.622  -3.143   0.134  1.00  0.00     0.181 C 
BRANCH  14  21
HETATM   21  O1  UNL     1      -0.344  -1.053  -0.237  1.00  0.00    -0.350 OA
BRANCH  21  22
HETATM   22  C9  UNL     1      -1.641  -0.869   0.262  1.00  0.00     0.177 C 
BRANCH  22  23
HETATM   23  C10 UNL     1      -2.560  -0.135  -0.676  1.00  0.00     0.046 C 
BRANCH  23  24
HETATM   24  C11 UNL     1      -3.928  -0.021  -0.002  1.00  0.00     0.119 C 
BRANCH  24  25
HETATM   25  N4  UNL     1      -4.852   0.670  -0.836  1.00  0.00    -0.408 N 
HETATM   26  C12 UNL     1      -4.610   2.059  -1.041  1.00  0.00     0.143 C 
HETATM   27  C13 UNL     1      -5.200   2.799   0.145  1.00  0.00     0.187 C 
HETATM   28  O2  UNL     1      -6.560   2.577   0.293  1.00  0.00    -0.388 OA
HETATM   29  C14 UNL     1      -6.905   1.239   0.407  1.00  0.00     0.187 C 
HETATM   30  C15 UNL     1      -6.235   0.363  -0.623  1.00  0.00     0.143 C 
ENDBRANCH  24  25
ENDBRANCH  23  24
ENDBRANCH  22  23
ENDBRANCH  21  22
ENDBRANCH  14  21
ENDBRANCH   5   7
ENDBRANCH   4   5
ENDBRANCH   3   4
TORSDOF 8
