REMARK  0 active torsions:
REMARK  status: ('A' for Active; 'I' for Inactive)
ROOT
HETATM    1  F1  UNL     1      -3.228   0.163  -1.761  1.00  0.00    -0.241 F 
HETATM    2  C1  UNL     1      -3.230   0.477  -0.452  1.00  0.00     0.244 C 
HETATM    3  C2  UNL     1      -3.282  -0.656   0.527  1.00  0.00     0.313 C 
HETATM    4  N1  UNL     1      -2.043  -1.397   0.792  1.00  0.00     0.101 NA
HETATM    5  C3  UNL     1      -1.055  -0.976  -0.058  1.00  0.00     0.309 C 
HETATM    6  C4  UNL     1      -1.102   0.555   0.144  1.00  0.00     0.100 C 
HETATM    7  C5  UNL     1      -2.105   1.394  -0.024  1.00  0.00     0.075 C 
HETATM    8 CL1  UNL     1      -1.824   3.106   0.240  1.00  0.00    -0.084 Cl
HETATM    9  N2  UNL     1      -0.049   1.396   0.683  1.00  0.00    -0.216 N 
HETATM   10  C6  UNL     1       0.748   0.679   1.743  1.00  0.00     0.240 C 
HETATM   11  N3  UNL     1       1.495  -0.211   1.287  1.00  0.00    -0.238 NA
HETATM   12  C7  UNL     1       1.448  -0.781  -0.115  1.00  0.00     0.100 A 
HETATM   13  C8  UNL     1       2.863  -0.684  -0.379  1.00  0.00     0.098 A 
HETATM   14  C9  UNL     1       2.977  -1.793  -1.156  1.00  0.00     0.039 A 
HETATM   15  C10 UNL     1       1.933  -2.610  -1.482  1.00  0.00     0.003 A 
HETATM   16  C11 UNL     1       0.605  -2.529  -1.138  1.00  0.00     0.012 A 
HETATM   17  C12 UNL     1       0.264  -1.440  -0.316  1.00  0.00     0.012 A 
HETATM   18  O1  UNL     1       3.199   0.562   0.367  1.00  0.00    -0.347 OA
HETATM   19  C13 UNL     1       2.063   1.421   0.224  1.00  0.00     0.204 C 
HETATM   20  C14 UNL     1       1.608   2.661   0.728  1.00  0.00     0.228 C 
HETATM   21  O2  UNL     1       0.155   2.733   0.178  1.00  0.00    -0.270 OA
HETATM   22  H4  UNL     1      -2.272  -2.402   0.732  1.00  0.00     0.317 HD
ENDROOT
TORSDOF 0
