REMARK  11 active torsions:
REMARK  status: ('A' for Active; 'I' for Inactive)
REMARK    1  A    between atoms: C2_2  and  O1_3 
REMARK    2  A    between atoms: O1_3  and  C3_4 
REMARK    3  A    between atoms: C3_4  and  C4_5 
REMARK    4  A    between atoms: C4_5  and  N1_6 
REMARK    5  A    between atoms: N1_6  and  C5_7 
REMARK    6  A    between atoms: C5_7  and  C6_8 
REMARK    7  A    between atoms: C6_8  and  C7_9 
REMARK    8  A    between atoms: C7_9  and  O2_10 
REMARK    9  A    between atoms: O2_10  and  C8_11 
REMARK   10  A    between atoms: C8_11  and  C9_12 
REMARK   11  A    between atoms: C11_16  and  C12_17 
ROOT
HETATM    1  C9  UNL     1      -1.665   0.582   1.106  1.00  0.00     0.171 C 
HETATM    2  N2  UNL     1      -0.964  -0.187   2.154  1.00  0.00    -0.271 NA
HETATM    3  C10 UNL     1      -1.265  -1.434   2.241  1.00  0.00     0.228 C 
HETATM    4  N3  UNL     1      -2.200  -2.161   1.461  1.00  0.00    -0.241 NA
HETATM    5  C11 UNL     1      -2.934  -1.664   0.524  1.00  0.00     0.079 C 
HETATM    6  C18 UNL     1      -2.879  -0.195   0.788  1.00  0.00     0.030 C 
HETATM    7  C19 UNL     1      -4.003   0.581   0.814  1.00  0.00     0.081 C 
HETATM    8  C20 UNL     1      -3.895   2.019   1.129  1.00  0.00     0.232 C 
HETATM    9  O3  UNL     1      -5.140   2.628   0.949  1.00  0.00    -0.383 OA
HETATM   10  C21 UNL     1      -6.071   2.173   1.877  1.00  0.00     0.194 C 
HETATM   11  C22 UNL     1      -6.356   0.720   1.510  1.00  0.00     0.201 C 
HETATM   12  O4  UNL     1      -5.359   0.305   0.597  1.00  0.00    -0.350 OA
ENDROOT
BRANCH   1  13
HETATM   13  C8  UNL     1      -0.697   0.531  -0.086  1.00  0.00     0.200 C 
BRANCH  13  14
HETATM   14  O2  UNL     1       0.518   1.087   0.241  1.00  0.00    -0.389 OA
BRANCH  14  15
HETATM   15  C7  UNL     1       1.367   1.016  -0.858  1.00  0.00     0.169 C 
BRANCH  15  16
HETATM   16  C6  UNL     1       2.739   1.613  -0.524  1.00  0.00     0.056 C 
BRANCH  16  17
HETATM   17  C5  UNL     1       3.568   1.484  -1.767  1.00  0.00     0.272 C 
BRANCH  17  18
HETATM   18  N1  UNL     1       4.873   2.005  -1.565  1.00  0.00     0.085 N 
HETATM   19  H10 UNL     1       5.373   2.293  -2.429  1.00  0.00     0.315 HD
BRANCH  18  20
HETATM   20  C4  UNL     1       5.711   1.251  -0.658  1.00  0.00     0.295 C 
BRANCH  20  21
HETATM   21  C3  UNL     1       6.104  -0.082  -1.177  1.00  0.00     0.197 C 
BRANCH  21  22
HETATM   22  O1  UNL     1       6.895  -0.777  -0.287  1.00  0.00    -0.390 OA
BRANCH  22  23
HETATM   23  C2  UNL     1       8.070  -0.109  -0.000  1.00  0.00     0.163 C 
HETATM   24  C1  UNL     1       8.939  -0.922   0.960  1.00  0.00     0.033 C 
ENDBRANCH  22  23
ENDBRANCH  21  22
ENDBRANCH  20  21
ENDBRANCH  18  20
ENDBRANCH  17  18
ENDBRANCH  16  17
ENDBRANCH  15  16
ENDBRANCH  14  15
ENDBRANCH  13  14
ENDBRANCH   1  13
BRANCH   5  25
HETATM   25  C12 UNL     1      -3.932  -2.052  -0.457  1.00  0.00    -0.005 A 
HETATM   26  C13 UNL     1      -4.519  -1.339  -1.440  1.00  0.00     0.017 A 
HETATM   27  C14 UNL     1      -5.484  -1.986  -2.178  1.00  0.00     0.045 A 
HETATM   28  C15 UNL     1      -5.869  -3.292  -1.970  1.00  0.00     0.138 A 
HETATM   29  F1  UNL     1      -6.830  -3.861  -2.740  1.00  0.00    -0.204 F 
HETATM   30  C16 UNL     1      -5.269  -4.019  -0.969  1.00  0.00     0.073 A 
HETATM   31 CL1  UNL     1      -5.784  -5.673  -0.737  1.00  0.00    -0.081 Cl
HETATM   32  C17 UNL     1      -4.284  -3.384  -0.202  1.00  0.00     0.041 A 
ENDBRANCH   5  25
TORSDOF 11
