REMARK  5 active torsions:
REMARK  status: ('A' for Active; 'I' for Inactive)
REMARK    1  A    between atoms: O1_2  and  C2_3 
REMARK    2  A    between atoms: C3_4  and  C4_5 
REMARK    3  A    between atoms: C9_13  and  C10_14 
REMARK    4  A    between atoms: C10_14  and  C11_15 
REMARK    5  A    between atoms: C11_15  and  N3_16 
ROOT
HETATM    1  C4  UNL     1       3.514   0.121  -1.140  1.00  0.00     0.072 A 
HETATM    2  N1  UNL     1       4.418  -0.564  -1.851  1.00  0.00    -0.241 NA
HETATM    3  C5  UNL     1       4.616  -1.848  -1.637  1.00  0.00     0.235 A 
HETATM    4  N2  UNL     1       3.865  -2.420  -0.675  1.00  0.00    -0.224 NA
HETATM    5  C6  UNL     1       2.947  -1.793   0.068  1.00  0.00     0.139 A 
HETATM    6  C7  UNL     1       2.751  -0.455  -0.164  1.00  0.00     0.040 A 
HETATM    7  C8  UNL     1       1.736   0.135   0.716  1.00  0.00     0.213 C 
HETATM    8  O2  UNL     1       0.562  -0.557   0.845  1.00  0.00    -0.377 OA
HETATM    9  C9  UNL     1      -0.139  -0.681  -0.362  1.00  0.00     0.146 C 
HETATM   10  C15 UNL     1      -0.449  -2.052  -0.745  1.00  0.00     0.005 C 
HETATM   11  C16 UNL     1      -0.292  -3.352  -0.816  1.00  0.00    -0.000 C 
HETATM   12  C17 UNL     1       0.738  -4.197  -0.265  1.00  0.00     0.017 C 
HETATM   13  C18 UNL     1       1.794  -3.915   0.444  1.00  0.00     0.090 C 
HETATM   14  N4  UNL     1       2.383  -2.744   0.963  1.00  0.00    -0.350 N 
HETATM   15  H25 UNL     1       2.628  -2.185   1.789  1.00  0.00     0.166 HD
ENDROOT
BRANCH   9  16
HETATM   16  C10 UNL     1      -1.382   0.218  -0.297  1.00  0.00     0.055 C 
BRANCH  16  17
HETATM   17  C11 UNL     1      -2.286  -0.181   0.846  1.00  0.00     0.118 C 
BRANCH  17  18
HETATM   18  N3  UNL     1      -3.417   0.684   0.852  1.00  0.00    -0.416 N 
HETATM   19  C12 UNL     1      -4.331   0.559  -0.220  1.00  0.00     0.095 C 
HETATM   20  B1  UNL     1      -5.807   0.836   0.299  1.00  0.00     0.328 B 
HETATM   21  O3  UNL     1      -6.202   0.494   1.641  1.00  0.00    -0.453 OA
HETATM   22  H16 UNL     1      -6.553   1.535  -0.324  1.00  0.00     0.009 HD
HETATM   23  C13 UNL     1      -5.175   0.420   2.555  1.00  0.00     0.161 C 
HETATM   24  C14 UNL     1      -3.920   1.097   2.109  1.00  0.00     0.140 C 
ENDBRANCH  17  18
ENDBRANCH  16  17
ENDBRANCH   9  16
BRANCH   1  25
HETATM   25  C3  UNL     1       3.351   1.523  -1.413  1.00  0.00     0.056 C 
HETATM   26  C2  UNL     1       2.763   2.658  -1.167  1.00  0.00     0.136 C 
BRANCH  26  27
HETATM   27  O1  UNL     1       2.686   3.980  -1.503  1.00  0.00    -0.368 OA
HETATM   28  C1  UNL     1       3.823   4.790  -1.786  1.00  0.00     0.208 C 
ENDBRANCH  26  27
ENDBRANCH   1  25
TORSDOF 5
