REMARK  8 active torsions:
REMARK  status: ('A' for Active; 'I' for Inactive)
REMARK    1  A    between atoms: O1_2  and  C2_3 
REMARK    2  A    between atoms: C7_8  and  O2_9 
REMARK    3  A    between atoms: O2_9  and  C8_10 
REMARK    4  A    between atoms: C8_10  and  C9_11 
REMARK    5  A    between atoms: C9_11  and  C10_12 
REMARK    6  A    between atoms: C10_12  and  N1_13 
REMARK    7  A    between atoms: C15_19  and  N2_20 
REMARK    8  A    between atoms: N2_20  and  C16_21 
ROOT
HETATM    1  C2  UNL     1      -0.798   1.225   1.885  1.00  0.00     0.102 A 
HETATM    2  C3  UNL     1      -0.042   0.448   2.769  1.00  0.00     0.054 A 
HETATM    3  C4  UNL     1       1.024  -0.254   2.245  1.00  0.00     0.012 A 
HETATM    4  C5  UNL     1       1.396  -0.244   0.919  1.00  0.00     0.025 A 
HETATM    5  C6  UNL     1       0.624   0.527   0.098  1.00  0.00     0.055 A 
HETATM    6  C7  UNL     1      -0.472   1.270   0.525  1.00  0.00     0.103 A 
HETATM    7  C15 UNL     1       2.460  -1.012   0.725  1.00  0.00     0.140 A 
HETATM    8  N3  UNL     1       2.746  -1.546   2.009  1.00  0.00    -0.227 NA
HETATM    9  C22 UNL     1       1.886  -1.058   2.802  1.00  0.00     0.100 A 
ENDROOT
BRANCH   6  10
HETATM   10  O2  UNL     1      -1.341   2.062  -0.129  1.00  0.00    -0.348 OA
BRANCH  10  11
HETATM   11  C8  UNL     1      -1.459   2.413  -1.454  1.00  0.00     0.177 C 
BRANCH  11  12
HETATM   12  C9  UNL     1      -1.707   1.280  -2.428  1.00  0.00     0.046 C 
BRANCH  12  13
HETATM   13  C10 UNL     1      -2.985   0.591  -2.060  1.00  0.00     0.119 C 
BRANCH  13  14
HETATM   14  N1  UNL     1      -3.074  -0.029  -0.806  1.00  0.00    -0.408 N 
HETATM   15  C11 UNL     1      -2.339  -1.224  -0.636  1.00  0.00     0.143 C 
HETATM   16  C12 UNL     1      -3.114  -2.509  -0.838  1.00  0.00     0.187 C 
HETATM   17  O3  UNL     1      -4.409  -2.475  -0.342  1.00  0.00    -0.388 OA
HETATM   18  C13 UNL     1      -5.082  -1.311  -0.685  1.00  0.00     0.187 C 
HETATM   19  C14 UNL     1      -4.349  -0.077  -0.207  1.00  0.00     0.143 C 
ENDBRANCH  13  14
ENDBRANCH  12  13
ENDBRANCH  11  12
ENDBRANCH  10  11
ENDBRANCH   6  10
BRANCH   1  20
HETATM   20  O1  UNL     1      -1.867   1.933   2.448  1.00  0.00    -0.353 OA
HETATM   21  C1  UNL     1      -2.135   1.866   3.812  1.00  0.00     0.210 C 
ENDBRANCH   1  20
BRANCH   7  22
HETATM   22  N2  UNL     1       3.076  -1.186  -0.570  1.00  0.00    -0.340 N 
HETATM   23  H20 UNL     1       2.707  -1.437  -1.481  1.00  0.00     0.167 HD
BRANCH  22  24
HETATM   24  C16 UNL     1       4.454  -0.876  -0.377  1.00  0.00     0.035 A 
HETATM   25  C17 UNL     1       5.109  -0.017  -1.197  1.00  0.00     0.032 A 
HETATM   26  C18 UNL     1       6.426   0.425  -1.181  1.00  0.00     0.046 A 
HETATM   27  C19 UNL     1       7.124  -0.157  -0.111  1.00  0.00     0.138 A 
HETATM   28  F1  UNL     1       8.453   0.166   0.068  1.00  0.00    -0.204 F 
HETATM   29  C20 UNL     1       6.597  -1.056   0.819  1.00  0.00     0.074 A 
HETATM   30 CL1  UNL     1       7.540  -1.716   2.113  1.00  0.00    -0.081 Cl
HETATM   31  C21 UNL     1       5.279  -1.344   0.601  1.00  0.00     0.056 A 
ENDBRANCH  22  24
ENDBRANCH   7  22
TORSDOF 8
