REMARK  8 active torsions:
REMARK  status: ('A' for Active; 'I' for Inactive)
REMARK    1  A    between atoms: O1_2  and  C2_3 
REMARK    2  A    between atoms: C6_7  and  N1_8 
REMARK    3  A    between atoms: N1_8  and  C7_9 
REMARK    4  A    between atoms: C15_21  and  O2_22 
REMARK    5  A    between atoms: O2_22  and  C16_23 
REMARK    6  A    between atoms: C16_23  and  C17_24 
REMARK    7  A    between atoms: C17_24  and  C18_25 
REMARK    8  A    between atoms: C18_25  and  N4_26 
ROOT
HETATM    1  C2  UNL     1       0.355  -2.386   0.561  1.00  0.00     0.103 C 
HETATM    2  C3  UNL     1       1.649  -2.680   0.534  1.00  0.00     0.079 C 
HETATM    3  C4  UNL     1       2.634  -1.812  -0.063  1.00  0.00     0.173 A 
HETATM    4  C5  UNL     1       3.964  -1.641  -0.344  1.00  0.00     0.097 A 
HETATM    5  C6  UNL     1       4.012  -0.370  -1.035  1.00  0.00     0.344 A 
HETATM    6  N2  UNL     1       2.868   0.334  -1.255  1.00  0.00    -0.004 NA
HETATM    7  C13 UNL     1       1.639   0.067  -0.936  1.00  0.00     0.249 A 
HETATM    8  N3  UNL     1       2.625  -0.666  -0.680  1.00  0.00     0.128 N 
HETATM    9  C14 UNL     1       0.284  -0.197  -0.601  1.00  0.00     0.094 C 
HETATM   10  C15 UNL     1      -0.318  -1.292  -0.147  1.00  0.00     0.105 C 
ENDROOT
BRANCH   5  11
HETATM   11  N1  UNL     1       5.366  -0.092  -1.367  1.00  0.00    -0.337 N 
HETATM   12  H6  UNL     1       5.710  -0.603  -2.197  1.00  0.00     0.164 HD
BRANCH  11  13
HETATM   13  C7  UNL     1       6.082   0.828  -0.554  1.00  0.00     0.033 A 
HETATM   14  C8  UNL     1       7.311   1.284  -0.970  1.00  0.00     0.032 A 
HETATM   15  C9  UNL     1       8.041   2.181  -0.228  1.00  0.00     0.046 A 
HETATM   16  C10 UNL     1       7.569   2.660   0.964  1.00  0.00     0.138 A 
HETATM   17  F1  UNL     1       8.156   3.539   1.803  1.00  0.00    -0.204 F 
HETATM   18  C11 UNL     1       6.337   2.198   1.376  1.00  0.00     0.074 A 
HETATM   19 CL1  UNL     1       5.581   2.706   2.875  1.00  0.00    -0.081 Cl
HETATM   20  C12 UNL     1       5.568   1.287   0.648  1.00  0.00     0.056 A 
ENDBRANCH  11  13
ENDBRANCH   5  11
BRANCH   1  21
HETATM   21  O1  UNL     1      -0.250  -3.264   1.351  1.00  0.00    -0.353 OA
HETATM   22  C1  UNL     1      -0.292  -3.290   2.745  1.00  0.00     0.210 C 
ENDBRANCH   1  21
BRANCH  10  23
HETATM   23  O2  UNL     1      -1.599  -1.228  -0.438  1.00  0.00    -0.348 OA
BRANCH  23  24
HETATM   24  C16 UNL     1      -2.627  -1.423   0.499  1.00  0.00     0.177 C 
BRANCH  24  25
HETATM   25  C17 UNL     1      -3.936  -1.615  -0.265  1.00  0.00     0.057 C 
BRANCH  25  26
HETATM   26  C18 UNL     1      -4.261  -0.401  -1.111  1.00  0.00     0.274 C 
BRANCH  26  27
HETATM   27  N4  UNL     1      -4.426   0.778  -0.319  1.00  0.00     0.092 N 
HETATM   28  C19 UNL     1      -5.583   0.782   0.510  1.00  0.00     0.298 C 
HETATM   29  C20 UNL     1      -6.745   1.595  -0.045  1.00  0.00     0.198 C 
HETATM   30  O3  UNL     1      -6.326   2.864  -0.409  1.00  0.00    -0.388 OA
HETATM   31  C21 UNL     1      -5.432   2.722  -1.469  1.00  0.00     0.198 C 
HETATM   32  C22 UNL     1      -4.212   1.950  -1.094  1.00  0.00     0.298 C 
ENDBRANCH  26  27
ENDBRANCH  25  26
ENDBRANCH  24  25
ENDBRANCH  23  24
ENDBRANCH  10  23
TORSDOF 8
