REMARK  5 active torsions:
REMARK  status: ('A' for Active; 'I' for Inactive)
REMARK    1  A    between atoms: O1_1  and  C1_2 
REMARK    2  A    between atoms: C2_3  and  C3_4 
REMARK    3  A    between atoms: C5_8  and  C6_9 
REMARK    4  A    between atoms: C6_9  and  N3_10 
REMARK    5  A    between atoms: N3_10  and  C7_11 
ROOT
HETATM    1  C1  UNL     1      -2.270   2.158  -1.712  1.00  0.00     0.135 A 
HETATM    2  C2  UNL     1      -0.978   1.689  -1.686  1.00  0.00     0.096 A 
HETATM    3  C3  UNL     1      -0.303   1.086  -0.689  1.00  0.00     0.080 A 
HETATM    4  N1  UNL     1      -1.271   0.041  -0.320  1.00  0.00    -0.225 NA
HETATM    5  C4  UNL     1      -1.123  -0.835   0.614  1.00  0.00     0.182 A 
HETATM    6  N2  UNL     1      -0.096  -1.012   1.443  1.00  0.00    -0.223 NA
HETATM    7  C5  UNL     1       0.963  -0.145   1.303  1.00  0.00     0.061 A 
HETATM    8  C13 UNL     1       0.350   0.495   0.297  1.00  0.00    -0.006 A 
HETATM    9  C14 UNL     1      -0.893   1.074  -0.072  1.00  0.00     0.143 A 
HETATM   10  C15 UNL     1      -2.106   1.648  -0.456  1.00  0.00     0.125 A 
HETATM   11  O2  UNL     1      -3.305   1.776   0.317  1.00  0.00    -0.369 OA
HETATM   12  C16 UNL     1      -4.297   0.763   0.211  1.00  0.00     0.126 C 
HETATM   13  C17 UNL     1      -4.294  -0.033   1.469  1.00  0.00     0.052 C 
HETATM   14  C18 UNL     1      -3.230  -1.096   1.438  1.00  0.00     0.128 C 
HETATM   15  N4  UNL     1      -2.435  -1.104   0.230  1.00  0.00    -0.356 N 
HETATM   16  C19 UNL     1      -3.344  -1.336  -0.851  1.00  0.00     0.128 C 
HETATM   17  C20 UNL     1      -4.237  -0.111  -0.976  1.00  0.00     0.052 C 
ENDROOT
BRANCH   7  18
HETATM   18  C6  UNL     1       2.189   0.666   1.331  1.00  0.00     0.179 C 
BRANCH  18  19
HETATM   19  N3  UNL     1       3.101   0.382   0.243  1.00  0.00    -0.384 N 
HETATM   20  H5  UNL     1       2.721   0.849  -0.624  1.00  0.00     0.160 HD
BRANCH  19  21
HETATM   21  C7  UNL     1       4.332  -0.361   0.079  1.00  0.00     0.030 A 
HETATM   22  C8  UNL     1       4.894  -0.444  -1.186  1.00  0.00     0.032 A 
HETATM   23  C9  UNL     1       6.092  -1.127  -1.264  1.00  0.00     0.046 A 
HETATM   24  C10 UNL     1       6.722  -1.700  -0.188  1.00  0.00     0.138 A 
HETATM   25  F1  UNL     1       7.863  -2.306  -0.488  1.00  0.00    -0.204 F 
HETATM   26  C11 UNL     1       6.131  -1.593   1.043  1.00  0.00     0.074 A 
HETATM   27 CL1  UNL     1       7.020  -2.358   2.361  1.00  0.00    -0.081 Cl
HETATM   28  C12 UNL     1       4.944  -0.929   1.174  1.00  0.00     0.056 A 
ENDBRANCH  19  21
ENDBRANCH  18  19
ENDBRANCH   7  18
BRANCH   1  29
HETATM   29  O1  UNL     1      -2.445   2.678  -2.984  1.00  0.00    -0.383 OA
HETATM   30  H1  UNL     1      -2.379   3.689  -3.091  1.00  0.00     0.210 HD
ENDBRANCH   1  29
TORSDOF 5
