REMARK  7 active torsions:
REMARK  status: ('A' for Active; 'I' for Inactive)
REMARK    1  A    between atoms: C2_2  and  C3_3 
REMARK    2  A    between atoms: C3_3  and  N1_4 
REMARK    3  A    between atoms: C7_9  and  O2_10 
REMARK    4  A    between atoms: O2_10  and  C8_11 
REMARK    5  A    between atoms: C11_14  and  N2_15 
REMARK    6  A    between atoms: N2_15  and  C12_16 
REMARK    7  A    between atoms: C21_29  and  O3_30 
ROOT
HETATM    1  C8  UNL     1      -0.386  -0.715   1.233  1.00  0.00     0.106 A 
HETATM    2  C9  UNL     1       0.851  -0.963   0.679  1.00  0.00     0.057 A 
HETATM    3  C10 UNL     1       1.939  -0.816   1.510  1.00  0.00     0.042 A 
HETATM    4  C11 UNL     1       3.147  -1.089   0.911  1.00  0.00     0.142 A 
HETATM    5  N3  UNL     1       4.313  -0.999   1.602  1.00  0.00    -0.224 NA
HETATM    6  C18 UNL     1       4.254  -0.625   2.922  1.00  0.00     0.236 A 
HETATM    7  N4  UNL     1       3.069  -0.360   3.502  1.00  0.00    -0.241 NA
HETATM    8  C19 UNL     1       1.882  -0.445   2.829  1.00  0.00     0.075 A 
HETATM    9  C20 UNL     1       0.648  -0.197   3.382  1.00  0.00     0.072 A 
HETATM   10  C21 UNL     1      -0.473  -0.339   2.562  1.00  0.00     0.103 A 
ENDROOT
BRANCH   1  11
HETATM   11  O2  UNL     1      -1.627  -0.774   0.672  1.00  0.00    -0.311 OA
BRANCH  11  12
HETATM   12  C7  UNL     1      -1.823  -1.074  -0.676  1.00  0.00     0.389 C 
HETATM   13  N1  UNL     1      -2.678  -0.020  -1.229  1.00  0.00     0.121 N 
HETATM   14  C4  UNL     1      -3.928  -0.515  -1.657  1.00  0.00     0.302 C 
HETATM   15  C5  UNL     1      -3.671  -1.711  -2.590  1.00  0.00     0.198 C 
HETATM   16  O1  UNL     1      -2.964  -2.696  -1.972  1.00  0.00    -0.385 OA
HETATM   17  C6  UNL     1      -2.489  -2.433  -0.727  1.00  0.00     0.232 C 
BRANCH  13  18
HETATM   18  C3  UNL     1      -2.614   1.096  -0.363  1.00  0.00     0.275 C 
BRANCH  18  19
HETATM   19  C2  UNL     1      -3.008   2.436  -0.818  1.00  0.00     0.026 C 
HETATM   20  C1  UNL     1      -4.452   2.534  -1.171  1.00  0.00     0.007 C 
ENDBRANCH  18  19
ENDBRANCH  13  18
ENDBRANCH  11  12
ENDBRANCH   1  11
BRANCH  10  21
HETATM   21  O3  UNL     1      -1.671  -0.063   3.226  1.00  0.00    -0.353 OA
HETATM   22  C22 UNL     1      -1.719   0.319   4.568  1.00  0.00     0.210 C 
ENDBRANCH  10  21
BRANCH   4  23
HETATM   23  N2  UNL     1       3.423  -1.468  -0.412  1.00  0.00    -0.340 N 
HETATM   24  H16 UNL     1       3.261  -2.373  -0.903  1.00  0.00     0.167 HD
BRANCH  23  25
HETATM   25  C12 UNL     1       4.016  -0.426  -1.174  1.00  0.00     0.035 A 
HETATM   26  C13 UNL     1       4.211   0.859  -0.684  1.00  0.00     0.032 A 
HETATM   27  C14 UNL     1       4.804   1.872  -1.420  1.00  0.00     0.046 A 
HETATM   28  C15 UNL     1       5.230   1.607  -2.711  1.00  0.00     0.138 A 
HETATM   29  F1  UNL     1       5.811   2.611  -3.409  1.00  0.00    -0.204 F 
HETATM   30  C16 UNL     1       5.064   0.337  -3.262  1.00  0.00     0.074 A 
HETATM   31 CL1  UNL     1       5.618   0.039  -4.886  1.00  0.00    -0.081 Cl
HETATM   32  C17 UNL     1       4.467  -0.631  -2.482  1.00  0.00     0.056 A 
ENDBRANCH  23  25
ENDBRANCH   4  23
TORSDOF 7
