REMARK  6 active torsions:
REMARK  status: ('A' for Active; 'I' for Inactive)
REMARK    1  A    between atoms: C3_3  and  N1_4 
REMARK    2  A    between atoms: N1_4  and  C4_5 
REMARK    3  A    between atoms: C5_6  and  O1_7 
REMARK    4  A    between atoms: C11_16  and  N4_17 
REMARK    5  A    between atoms: N4_17  and  C12_18 
REMARK    6  A    between atoms: C12_18  and  C13_19 
ROOT
HETATM    1  C1  UNL     1       0.373   0.605   1.006  1.00  0.00     0.047 C 
HETATM    2  C2  UNL     1       0.858  -0.546   0.587  1.00  0.00    -0.012 C 
HETATM    3  C3  UNL     1       2.290  -0.855   0.800  1.00  0.00     0.045 C 
HETATM    4  C7  UNL     1       2.781  -2.098   0.749  1.00  0.00     0.030 C 
HETATM    5  C8  UNL     1       2.306  -3.475   0.518  1.00  0.00     0.207 C 
HETATM    6  O2  UNL     1       0.907  -3.624   0.460  1.00  0.00    -0.330 OA
HETATM    7  C9  UNL     1      -0.077  -2.791  -0.064  1.00  0.00     0.180 A 
HETATM    8  N2  UNL     1      -1.100  -3.403  -0.662  1.00  0.00    -0.217 NA
HETATM    9  C10 UNL     1      -2.098  -2.695  -1.201  1.00  0.00     0.238 A 
HETATM   10  N3  UNL     1      -2.111  -1.361  -1.163  1.00  0.00    -0.224 NA
HETATM   11  C11 UNL     1      -1.139  -0.643  -0.592  1.00  0.00     0.140 A 
HETATM   12  C19 UNL     1      -0.136  -1.413  -0.050  1.00  0.00     0.071 A 
ENDROOT
BRANCH  11  13
HETATM   13  N4  UNL     1      -1.200   0.770  -0.651  1.00  0.00    -0.370 N 
HETATM   14  H11 UNL     1      -0.718   1.654  -0.441  1.00  0.00     0.161 HD
BRANCH  13  15
HETATM   15  C12 UNL     1      -2.369   1.376  -1.247  1.00  0.00     0.160 C 
BRANCH  15  16
HETATM   16  C13 UNL     1      -3.609   1.226  -0.449  1.00  0.00    -0.041 A 
HETATM   17  C14 UNL     1      -4.679   0.381  -0.437  1.00  0.00     0.009 A 
HETATM   18  C15 UNL     1      -5.691   0.491   0.475  1.00  0.00     0.001 A 
HETATM   19  C16 UNL     1      -5.702   1.466   1.449  1.00  0.00     0.000 A 
HETATM   20  C17 UNL     1      -4.652   2.334   1.474  1.00  0.00     0.001 A 
HETATM   21  C18 UNL     1      -3.615   2.223   0.542  1.00  0.00     0.009 A 
ENDBRANCH  15  16
ENDBRANCH  13  15
ENDBRANCH  11  13
BRANCH   3  22
HETATM   22  N1  UNL     1       3.099   0.255   1.063  1.00  0.00    -0.313 N 
HETATM   23  H3  UNL     1       2.971   1.010   1.770  1.00  0.00     0.176 HD
BRANCH  22  24
HETATM   24  C4  UNL     1       4.263   0.374   0.257  1.00  0.00     0.041 C 
HETATM   25  C5  UNL     1       5.266   0.465  -0.419  1.00  0.00     0.077 C 
BRANCH  25  26
HETATM   26  O1  UNL     1       6.399   0.577  -1.176  1.00  0.00    -0.307 OA
HETATM   27  C6  UNL     1       7.178   1.782  -1.156  1.00  0.00     0.223 C 
ENDBRANCH  25  26
ENDBRANCH  22  24
ENDBRANCH   3  22
TORSDOF 6
