REMARK  4 active torsions:
REMARK  status: ('A' for Active; 'I' for Inactive)
REMARK    1  A    between atoms: C7_7  and  N1_8 
REMARK    2  A    between atoms: N1_8  and  C8_9 
REMARK    3  A    between atoms: C12_15  and  O1_16 
REMARK    4  A    between atoms: O1_16  and  C13_17 
ROOT
HETATM    1  C1  UNL     1      -7.848   3.039   0.482  1.00  0.00     0.018 C 
HETATM    2  C2  UNL     1      -7.179   2.054   0.669  1.00  0.00    -0.078 C 
HETATM    3  C3  UNL     1      -6.389   0.872   0.909  1.00  0.00     0.019 A 
HETATM    4  C4  UNL     1      -6.884  -0.133   1.710  1.00  0.00     0.021 A 
HETATM    5  C5  UNL     1      -6.093  -1.245   1.916  1.00  0.00     0.004 A 
HETATM    6  C6  UNL     1      -4.859  -1.296   1.317  1.00  0.00     0.029 A 
HETATM    7  C7  UNL     1      -4.310  -0.333   0.512  1.00  0.00     0.034 A 
HETATM    8  C23 UNL     1      -5.142   0.756   0.339  1.00  0.00     0.050 A 
ENDROOT
BRANCH   7   9
HETATM    9  N1  UNL     1      -3.053  -0.336  -0.128  1.00  0.00    -0.344 N 
HETATM   10  H5  UNL     1      -2.770   0.493  -0.693  1.00  0.00     0.167 HD
BRANCH   9  11
HETATM   11  C8  UNL     1      -2.103  -1.383  -0.079  1.00  0.00     0.118 C 
HETATM   12  N2  UNL     1      -2.513  -2.581   0.108  1.00  0.00    -0.228 NA
HETATM   13  C9  UNL     1      -1.606  -3.666   0.144  1.00  0.00     0.235 C 
HETATM   14  N3  UNL     1      -0.319  -3.510  -0.038  1.00  0.00    -0.245 NA
HETATM   15  C10 UNL     1       0.161  -2.198  -0.304  1.00  0.00     0.053 C 
HETATM   16  C11 UNL     1       1.427  -2.089  -0.672  1.00  0.00     0.067 C 
HETATM   17  C22 UNL     1      -0.678  -1.026  -0.049  1.00  0.00     0.143 C 
HETATM   18  C12 UNL     1       2.009  -0.793  -0.993  1.00  0.00     0.103 C 
HETATM   19  C18 UNL     1       1.186   0.256  -0.920  1.00  0.00     0.109 C 
HETATM   20  O3  UNL     1       1.622   1.542  -1.188  1.00  0.00    -0.348 OA
HETATM   21  C21 UNL     1      -0.269   0.277  -0.579  1.00  0.00     0.198 C 
HETATM   22  C19 UNL     1       1.224   2.653  -0.412  1.00  0.00     0.201 C 
HETATM   23  C20 UNL     1      -0.274   2.553  -0.217  1.00  0.00     0.195 C 
HETATM   24  O4  UNL     1      -0.515   1.284   0.345  1.00  0.00    -0.376 OA
BRANCH  18  25
HETATM   25  O1  UNL     1       3.320  -0.662  -1.349  1.00  0.00    -0.343 OA
BRANCH  25  26
HETATM   26  C13 UNL     1       4.355  -0.068  -0.614  1.00  0.00     0.133 C 
HETATM   27  C14 UNL     1       5.681  -0.118  -1.331  1.00  0.00     0.058 C 
HETATM   28  C15 UNL     1       6.745   0.410  -0.393  1.00  0.00     0.170 C 
HETATM   29  O2  UNL     1       6.194   1.112   0.673  1.00  0.00    -0.391 OA
HETATM   30  C16 UNL     1       5.481   0.266   1.528  1.00  0.00     0.170 C 
HETATM   31  C17 UNL     1       4.522  -0.622   0.760  1.00  0.00     0.058 C 
ENDBRANCH  25  26
ENDBRANCH  18  25
ENDBRANCH   9  11
ENDBRANCH   7   9
TORSDOF 4
