REMARK  4 active torsions:
REMARK  status: ('A' for Active; 'I' for Inactive)
REMARK    1  A    between atoms: C7_7  and  C8_8 
REMARK    2  A    between atoms: C8_8  and  N1_9 
REMARK    3  A    between atoms: N1_9  and  C9_10 
REMARK    4  A    between atoms: N2_12  and  C11_13 
ROOT
HETATM    1  C9  UNL     1      -0.196  -0.491   0.434  1.00  0.00     0.133 C 
HETATM    2  C10 UNL     1      -1.231  -0.112  -0.301  1.00  0.00     0.142 C 
HETATM    3  N2  UNL     1      -2.588  -0.384  -0.582  1.00  0.00    -0.334 N 
HETATM    4  C16 UNL     1      -3.150  -1.337  -1.476  1.00  0.00     0.211 C 
HETATM    5  N3  UNL     1      -3.420  -2.379  -0.762  1.00  0.00    -0.235 NA
HETATM    6  C17 UNL     1      -3.178  -2.470   0.610  1.00  0.00     0.257 C 
HETATM    7  N4  UNL     1      -2.289  -2.669   1.522  1.00  0.00    -0.152 NA
HETATM    8  N5  UNL     1      -0.986  -2.902   1.077  1.00  0.00    -0.217 N 
HETATM    9  N6  UNL     1      -0.467  -1.601   1.312  1.00  0.00    -0.268 N 
HETATM   10  H18 UNL     1      -0.048  -3.164   0.727  1.00  0.00     0.210 HD
HETATM   11  H19 UNL     1      -0.190  -1.270   2.283  1.00  0.00     0.190 HD
ENDROOT
BRANCH   1  12
HETATM   12  N1  UNL     1       1.115   0.061   0.450  1.00  0.00    -0.370 N 
HETATM   13  H10 UNL     1       1.525   0.440   1.311  1.00  0.00     0.161 HD
BRANCH  12  14
HETATM   14  C8  UNL     1       1.818   0.049  -0.818  1.00  0.00     0.160 C 
BRANCH  14  15
HETATM   15  C7  UNL     1       3.166   0.626  -0.728  1.00  0.00    -0.035 A 
HETATM   16  C2  UNL     1       4.225  -0.063  -0.162  1.00  0.00    -0.054 A 
HETATM   17  C1  UNL     1       4.026  -1.428   0.380  1.00  0.00     0.049 C 
HETATM   18  C3  UNL     1       5.487   0.502  -0.089  1.00  0.00     0.007 A 
HETATM   19  C4  UNL     1       5.753   1.774  -0.574  1.00  0.00     0.001 A 
HETATM   20  C5  UNL     1       4.701   2.465  -1.139  1.00  0.00     0.001 A 
HETATM   21  C6  UNL     1       3.451   1.899  -1.209  1.00  0.00     0.009 A 
ENDBRANCH  14  15
ENDBRANCH  12  14
ENDBRANCH   1  12
BRANCH   3  22
HETATM   22  C11 UNL     1      -3.575   0.348   0.071  1.00  0.00     0.158 A 
HETATM   23  C12 UNL     1      -4.977   0.105  -0.183  1.00  0.00     0.004 A 
HETATM   24  C13 UNL     1      -5.688   1.193  -0.484  1.00  0.00    -0.000 A 
HETATM   25  C14 UNL     1      -4.722   2.287  -0.441  1.00  0.00     0.021 A 
HETATM   26  C15 UNL     1      -3.510   1.832  -0.127  1.00  0.00     0.038 A 
HETATM   27 CL1  UNL     1      -2.170   2.931  -0.008  1.00  0.00    -0.086 Cl
ENDBRANCH   3  22
TORSDOF 4
