REMARK  3 active torsions:
REMARK  status: ('A' for Active; 'I' for Inactive)
REMARK    1  A    between atoms: N1_1  and  C1_2 
REMARK    2  A    between atoms: C13_16  and  O1_17 
REMARK    3  A    between atoms: O1_17  and  C14_18 
ROOT
HETATM    1  C1  UNL     1      -2.617   1.297   0.944  1.00  0.00     0.264 C 
HETATM    2  C2  UNL     1      -3.783   0.365   0.915  1.00  0.00     0.011 A 
HETATM    3  C3  UNL     1      -4.483   0.240   2.167  1.00  0.00    -0.022 A 
HETATM    4  C4  UNL     1      -5.601  -0.623   2.309  1.00  0.00    -0.024 A 
HETATM    5  C5  UNL     1      -5.624  -1.116   0.983  1.00  0.00     0.033 A 
HETATM    6  C6  UNL     1      -5.546  -1.477  -0.203  1.00  0.00     0.023 A 
HETATM    7  C7  UNL     1      -4.472  -0.511   0.035  1.00  0.00     0.091 A 
HETATM    8  C8  UNL     1      -4.874  -1.384  -1.353  1.00  0.00     0.000 A 
HETATM    9  C9  UNL     1      -4.293  -1.301  -2.310  1.00  0.00    -0.037 C 
HETATM   10  N2  UNL     1      -3.589  -1.188  -3.432  1.00  0.00    -0.316 N 
HETATM   11  C10 UNL     1      -2.294  -1.049  -2.788  1.00  0.00     0.215 C 
HETATM   12  N3  UNL     1      -2.089  -0.326  -1.818  1.00  0.00    -0.243 NA
HETATM   13  C11 UNL     1      -1.117   0.079  -0.952  1.00  0.00     0.072 A 
HETATM   14  C12 UNL     1       0.172  -0.238  -1.269  1.00  0.00     0.072 A 
HETATM   15  C13 UNL     1       1.320   0.046  -0.507  1.00  0.00     0.107 A 
HETATM   16  C19 UNL     1       1.037   0.713   0.658  1.00  0.00     0.136 A 
HETATM   17  C20 UNL     1      -0.253   1.050   1.010  1.00  0.00     0.115 A 
HETATM   18  C21 UNL     1      -1.405   0.761   0.241  1.00  0.00     0.040 A 
HETATM   19  O3  UNL     1      -0.273   1.712   2.222  1.00  0.00    -0.345 OA
HETATM   20  C22 UNL     1       0.702   1.769   3.205  1.00  0.00     0.202 C 
HETATM   21  C23 UNL     1       2.063   1.288   2.811  1.00  0.00     0.202 C 
HETATM   22  O4  UNL     1       2.141   1.005   1.417  1.00  0.00    -0.344 OA
HETATM   23  H8  UNL     1      -4.533  -1.292  -3.828  1.00  0.00     0.176 HD
ENDROOT
BRANCH  15  24
HETATM   24  O1  UNL     1       2.472  -0.401  -1.081  1.00  0.00    -0.343 OA
BRANCH  24  25
HETATM   25  C14 UNL     1       3.785  -0.345  -0.624  1.00  0.00     0.133 C 
HETATM   26  C15 UNL     1       4.673   0.433  -1.599  1.00  0.00     0.058 C 
HETATM   27  C16 UNL     1       6.114   0.126  -1.290  1.00  0.00     0.170 C 
HETATM   28  O2  UNL     1       6.439  -1.179  -1.641  1.00  0.00    -0.391 OA
HETATM   29  C17 UNL     1       5.338  -1.999  -1.632  1.00  0.00     0.170 C 
HETATM   30  C18 UNL     1       4.381  -1.741  -0.512  1.00  0.00     0.058 C 
ENDBRANCH  24  25
ENDBRANCH  15  24
BRANCH   1  31
HETATM   31  N1  UNL     1      -2.996   2.571   0.310  1.00  0.00     0.088 N 
HETATM   32  H1  UNL     1      -3.180   3.295   1.058  1.00  0.00     0.313 HD
HETATM   33  H2  UNL     1      -3.875   2.456  -0.253  1.00  0.00     0.313 HD
ENDBRANCH   1  31
TORSDOF 3
