REMARK  2 active torsions:
REMARK  status: ('A' for Active; 'I' for Inactive)
REMARK    1  A    between atoms: C7_7  and  C8_8 
REMARK    2  A    between atoms: C14_16  and  O1_17 
ROOT
HETATM    1  C1  UNL     1       2.569   1.913   4.705  1.00  0.00     0.018 C 
HETATM    2  C2  UNL     1       2.522   1.236   3.708  1.00  0.00    -0.078 C 
HETATM    3  C3  UNL     1       2.491   0.426   2.524  1.00  0.00     0.017 A 
HETATM    4  C4  UNL     1       3.367  -0.615   2.350  1.00  0.00     0.020 A 
HETATM    5  C5  UNL     1       3.308  -1.363   1.212  1.00  0.00     0.002 A 
HETATM    6  C6  UNL     1       2.375  -1.062   0.260  1.00  0.00     0.013 A 
HETATM    7  C7  UNL     1       1.446  -0.024   0.351  1.00  0.00    -0.010 A 
HETATM    8  C17 UNL     1       1.583   0.670   1.528  1.00  0.00     0.034 A 
ENDROOT
BRANCH   7   9
HETATM    9  C8  UNL     1       0.468   0.243  -0.708  1.00  0.00     0.046 C 
HETATM   10  N1  UNL     1      -0.259   1.242  -0.392  1.00  0.00    -0.246 NA
HETATM   11  C9  UNL     1      -1.301   1.804  -1.146  1.00  0.00     0.232 C 
HETATM   12  N2  UNL     1      -2.500   2.170  -0.744  1.00  0.00    -0.254 NA
HETATM   13  C10 UNL     1      -2.825   1.989   0.640  1.00  0.00     0.118 C 
HETATM   14  C11 UNL     1      -2.773   0.694   0.821  1.00  0.00     0.019 C 
HETATM   15  C12 UNL     1      -2.539  -0.597   0.245  1.00  0.00    -0.000 C 
HETATM   16  C13 UNL     1      -2.229  -0.764  -1.023  1.00  0.00     0.004 C 
HETATM   17  C14 UNL     1      -1.889  -1.101  -2.365  1.00  0.00     0.141 C 
HETATM   18  C15 UNL     1      -0.603  -0.477  -2.837  1.00  0.00     0.042 C 
HETATM   19  C16 UNL     1       0.553  -0.643  -1.909  1.00  0.00     0.063 C 
BRANCH  17  20
HETATM   20  O1  UNL     1      -1.987  -2.434  -2.774  1.00  0.00    -0.392 OA
HETATM   21  H11 UNL     1      -1.434  -3.023  -2.178  1.00  0.00     0.210 HD
ENDBRANCH  17  20
ENDBRANCH   7   9
TORSDOF 2
