REMARK  3 active torsions:
REMARK  status: ('A' for Active; 'I' for Inactive)
REMARK    1  A    between atoms: C7_7  and  N1_8 
REMARK    2  A    between atoms: N1_8  and  C8_9 
REMARK    3  A    between atoms: O1_16  and  C12_17 
ROOT
HETATM    1  C1  UNL     1      -6.988   3.472   3.059  1.00  0.00     0.018 C 
HETATM    2  C2  UNL     1      -6.687   2.645   2.265  1.00  0.00    -0.078 C 
HETATM    3  C3  UNL     1      -6.312   1.643   1.280  1.00  0.00     0.019 A 
HETATM    4  C4  UNL     1      -6.982   1.440   0.081  1.00  0.00     0.021 A 
HETATM    5  C5  UNL     1      -6.563   0.470  -0.814  1.00  0.00     0.004 A 
HETATM    6  C6  UNL     1      -5.472  -0.308  -0.530  1.00  0.00     0.029 A 
HETATM    7  C7  UNL     1      -4.815  -0.086   0.679  1.00  0.00     0.035 A 
HETATM    8  C22 UNL     1      -5.211   0.867   1.582  1.00  0.00     0.050 A 
ENDROOT
BRANCH   7   9
HETATM    9  N1  UNL     1      -3.683  -0.973   0.852  1.00  0.00    -0.341 N 
HETATM   10  H5  UNL     1      -3.962  -1.971   1.133  1.00  0.00     0.167 HD
BRANCH   9  11
HETATM   11  C8  UNL     1      -2.251  -0.731   0.689  1.00  0.00     0.132 C 
HETATM   12  N2  UNL     1      -2.315   0.470   1.103  1.00  0.00    -0.225 NA
HETATM   13  C9  UNL     1      -1.391   1.456   1.275  1.00  0.00     0.229 C 
HETATM   14  N3  UNL     1      -0.394   2.144   1.560  1.00  0.00    -0.272 NA
HETATM   15  C10 UNL     1       0.798   1.782   2.215  1.00  0.00     0.229 C 
HETATM   16  S1  UNL     1       2.085   1.118   1.207  1.00  0.00    -0.104 SA
HETATM   17  C11 UNL     1       1.843  -0.428   0.442  1.00  0.00     0.058 A 
HETATM   18  O1  UNL     1       3.226  -0.212   0.380  1.00  0.00     0.000 OA
HETATM   19  C17 UNL     1       1.219  -1.535  -0.053  1.00  0.00     0.120 C 
HETATM   20  O3  UNL     1       2.220  -2.341  -0.571  1.00  0.00    -0.345 OA
HETATM   21  C20 UNL     1      -0.103  -2.105  -0.184  1.00  0.00     0.107 C 
HETATM   22  C18 UNL     1       2.108  -3.038  -1.819  1.00  0.00     0.202 C 
HETATM   23  C19 UNL     1       0.762  -3.703  -1.912  1.00  0.00     0.202 C 
HETATM   24  O4  UNL     1      -0.036  -3.345  -0.784  1.00  0.00    -0.346 OA
HETATM   25  C21 UNL     1      -1.362  -1.770   0.114  1.00  0.00     0.090 C 
BRANCH  18  26
HETATM   26  C12 UNL     1       3.852   0.343  -0.738  1.00  0.00    -0.006 C 
HETATM   27  C13 UNL     1       4.911  -0.630  -1.240  1.00  0.00     0.031 C 
HETATM   28  C14 UNL     1       5.781   0.167  -2.204  1.00  0.00     0.168 C 
HETATM   29  O2  UNL     1       6.632   1.024  -1.496  1.00  0.00    -0.391 OA
HETATM   30  C15 UNL     1       6.093   1.374  -0.267  1.00  0.00     0.168 C 
HETATM   31  C16 UNL     1       4.595   1.624  -0.351  1.00  0.00     0.031 C 
ENDBRANCH  18  26
ENDBRANCH   9  11
ENDBRANCH   7   9
TORSDOF 3
