REMARK  5 active torsions:
REMARK  status: ('A' for Active; 'I' for Inactive)
REMARK    1  A    between atoms: C7_7  and  N1_8 
REMARK    2  A    between atoms: N1_8  and  C8_9 
REMARK    3  A    between atoms: C11_14  and  C12_15 
REMARK    4  A    between atoms: C12_15  and  O1_16 
REMARK    5  A    between atoms: O1_16  and  C13_17 
ROOT
HETATM    1  C1  UNL     1       6.977   3.433  -0.895  1.00  0.00     0.018 C 
HETATM    2  C2  UNL     1       6.623   2.384  -0.426  1.00  0.00    -0.078 C 
HETATM    3  C3  UNL     1       6.174   1.126   0.134  1.00  0.00     0.019 A 
HETATM    4  C4  UNL     1       7.111   0.459   0.882  1.00  0.00     0.021 A 
HETATM    5  C5  UNL     1       6.823  -0.746   1.474  1.00  0.00     0.004 A 
HETATM    6  C6  UNL     1       5.570  -1.227   1.274  1.00  0.00     0.029 A 
HETATM    7  C7  UNL     1       4.556  -0.626   0.536  1.00  0.00     0.035 A 
HETATM    8  C23 UNL     1       4.902   0.602  -0.048  1.00  0.00     0.050 A 
ENDROOT
BRANCH   7   9
HETATM    9  N1  UNL     1       3.231  -1.045   0.257  1.00  0.00    -0.340 N 
HETATM   10  H5  UNL     1       3.554  -1.976  -0.057  1.00  0.00     0.167 HD
BRANCH   9  11
HETATM   11  C8  UNL     1       2.166  -0.138   0.464  1.00  0.00     0.144 A 
HETATM   12  N2  UNL     1       2.562   1.089   0.831  1.00  0.00    -0.223 NA
HETATM   13  C9  UNL     1       1.697   2.093   1.032  1.00  0.00     0.236 A 
HETATM   14  N3  UNL     1       0.405   1.782   0.838  1.00  0.00    -0.241 NA
HETATM   15  C10 UNL     1      -0.052   0.581   0.475  1.00  0.00     0.073 A 
HETATM   16  C11 UNL     1      -1.391   0.535   0.348  1.00  0.00     0.032 C 
HETATM   17  C18 UNL     1       0.843  -0.445   0.273  1.00  0.00     0.070 A 
HETATM   18  C19 UNL     1       0.422  -1.646  -0.002  1.00  0.00     0.086 C 
HETATM   19  C20 UNL     1       0.956  -3.001  -0.202  1.00  0.00     0.233 C 
HETATM   20  O4  UNL     1      -0.922  -1.872  -0.199  1.00  0.00    -0.350 OA
HETATM   21  O3  UNL     1       1.084  -3.174  -1.579  1.00  0.00    -0.383 OA
HETATM   22  C21 UNL     1      -0.170  -3.094  -2.188  1.00  0.00     0.194 C 
HETATM   23  C22 UNL     1      -1.289  -2.761  -1.259  1.00  0.00     0.201 C 
BRANCH  16  24
HETATM   24  C12 UNL     1      -2.105   1.804   0.630  1.00  0.00     0.198 C 
BRANCH  24  25
HETATM   25  O1  UNL     1      -3.422   1.597   0.871  1.00  0.00    -0.382 OA
BRANCH  25  26
HETATM   26  C13 UNL     1      -4.155   1.043  -0.130  1.00  0.00     0.125 C 
HETATM   27  C14 UNL     1      -5.287   1.904  -0.631  1.00  0.00     0.058 C 
HETATM   28  C15 UNL     1      -6.301   2.138   0.485  1.00  0.00     0.170 C 
HETATM   29  O2  UNL     1      -6.613   0.943   1.082  1.00  0.00    -0.391 OA
HETATM   30  C16 UNL     1      -6.234  -0.172   0.371  1.00  0.00     0.170 C 
HETATM   31  C17 UNL     1      -4.735  -0.303   0.194  1.00  0.00     0.058 C 
ENDBRANCH  25  26
ENDBRANCH  24  25
ENDBRANCH  16  24
ENDBRANCH   9  11
ENDBRANCH   7   9
TORSDOF 5
