REMARK  2 active torsions:
REMARK  status: ('A' for Active; 'I' for Inactive)
REMARK    1  A    between atoms: C6_7  and  O2_8 
REMARK    2  A    between atoms: O2_8  and  C7_9 
ROOT
HETATM    1  C7  UNL     1      -1.013  -1.055  -1.252  1.00  0.00     0.297 C 
HETATM    2  O3  UNL     1      -0.733  -0.059  -2.211  1.00  0.00    -0.333 OA
HETATM    3  C8  UNL     1      -0.919   1.153  -1.504  1.00  0.00     0.342 C 
HETATM    4  O4  UNL     1      -0.379   1.051  -0.225  1.00  0.00    -0.355 OA
HETATM    5  C9  UNL     1       0.676   0.152  -0.173  1.00  0.00     0.177 C 
HETATM    6  C10 UNL     1       1.774   0.659  -1.045  1.00  0.00     0.166 C 
HETATM    7  N1  UNL     1       2.609   1.672  -0.471  1.00  0.00    -0.348 N 
HETATM    8  C11 UNL     1       2.271   3.033  -0.795  1.00  0.00     0.088 A 
HETATM    9  C12 UNL     1       3.040   3.970  -0.275  1.00  0.00    -0.006 A 
HETATM   10  C13 UNL     1       4.220   3.828   0.609  1.00  0.00     0.058 A 
HETATM   11  C14 UNL     1       4.521   2.413   0.909  1.00  0.00     0.016 A 
HETATM   12  C15 UNL     1       3.739   1.510   0.377  1.00  0.00     0.087 A 
HETATM   13  C16 UNL     1       3.934   0.153   0.607  1.00  0.00    -0.026 C 
HETATM   14  C17 UNL     1       4.075  -0.960   0.788  1.00  0.00     0.018 C 
HETATM   15  N2  UNL     1       4.221  -2.291   0.998  1.00  0.00    -0.309 N 
HETATM   16  C18 UNL     1       3.046  -2.575   0.218  1.00  0.00     0.214 C 
HETATM   17  N3  UNL     1       1.847  -2.206   0.554  1.00  0.00    -0.255 NA
HETATM   18  C19 UNL     1       0.683  -2.463  -0.184  1.00  0.00     0.128 C 
HETATM   19  C20 UNL     1       0.240  -1.232  -0.459  1.00  0.00     0.022 C 
HETATM   20  H21 UNL     1       4.969  -2.719   1.547  1.00  0.00     0.177 HD
ENDROOT
BRANCH   1  21
HETATM   21  O2  UNL     1      -1.988  -0.581  -0.430  1.00  0.00    -0.347 OA
BRANCH  21  22
HETATM   22  C6  UNL     1      -3.127  -1.315  -0.293  1.00  0.00     0.157 C 
HETATM   23  C2  UNL     1      -3.459  -1.758   1.076  1.00  0.00    -0.037 C 
HETATM   24  C1  UNL     1      -2.481  -2.245   1.785  1.00  0.00     0.019 C 
HETATM   25  C3  UNL     1      -4.873  -1.613   1.534  1.00  0.00     0.203 C 
HETATM   26  O1  UNL     1      -5.277  -0.297   1.413  1.00  0.00    -0.387 OA
HETATM   27  C4  UNL     1      -4.813   0.329   0.279  1.00  0.00     0.171 C 
HETATM   28  C5  UNL     1      -4.366  -0.615  -0.809  1.00  0.00     0.063 C 
ENDBRANCH  21  22
ENDBRANCH   1  21
TORSDOF 2
