REMARK  2 active torsions:
REMARK  status: ('A' for Active; 'I' for Inactive)
REMARK    1  A    between atoms: C7_7  and  N1_8 
REMARK    2  A    between atoms: N1_8  and  C8_9 
ROOT
HETATM    1  C1  UNL     1       8.055  -2.320  -2.290  1.00  0.00     0.018 C 
HETATM    2  C2  UNL     1       7.302  -1.601  -1.670  1.00  0.00    -0.078 C 
HETATM    3  C3  UNL     1       6.433  -0.748  -0.927  1.00  0.00     0.019 A 
HETATM    4  C4  UNL     1       6.972   0.302  -0.217  1.00  0.00     0.021 A 
HETATM    5  C5  UNL     1       6.125   1.117   0.492  1.00  0.00     0.004 A 
HETATM    6  C6  UNL     1       4.774   0.873   0.479  1.00  0.00     0.029 A 
HETATM    7  C7  UNL     1       4.153  -0.148  -0.199  1.00  0.00     0.035 A 
HETATM    8  C23 UNL     1       5.074  -0.919  -0.885  1.00  0.00     0.050 A 
ENDROOT
BRANCH   7   9
HETATM    9  N1  UNL     1       2.769  -0.414  -0.200  1.00  0.00    -0.340 N 
HETATM   10  H5  UNL     1       2.533  -0.956  -1.037  1.00  0.00     0.167 HD
BRANCH   9  11
HETATM   11  C8  UNL     1       1.860  -0.003   0.783  1.00  0.00     0.143 A 
HETATM   12  N2  UNL     1       2.329   0.640   1.847  1.00  0.00    -0.223 NA
HETATM   13  C9  UNL     1       1.483   1.042   2.794  1.00  0.00     0.236 A 
HETATM   14  N3  UNL     1       0.129   0.818   2.719  1.00  0.00    -0.241 NA
HETATM   15  C10 UNL     1      -0.321   0.172   1.645  1.00  0.00     0.071 A 
HETATM   16  C11 UNL     1       0.527  -0.243   0.672  1.00  0.00     0.060 A 
HETATM   17  C22 UNL     1      -1.589   0.170   1.949  1.00  0.00     0.018 C 
HETATM   18  C12 UNL     1       0.087  -0.874  -0.388  1.00  0.00     0.152 C 
HETATM   19  O1  UNL     1      -0.854  -1.439  -1.202  1.00  0.00    -0.360 OA
HETATM   20  C13 UNL     1      -1.712  -0.614  -1.965  1.00  0.00     0.201 C 
HETATM   21  C14 UNL     1      -2.664  -1.340  -2.850  1.00  0.00     0.201 C 
HETATM   22  O2  UNL     1      -3.505  -0.398  -3.579  1.00  0.00    -0.361 OA
HETATM   23  C15 UNL     1      -4.202   0.461  -2.671  1.00  0.00     0.132 C 
HETATM   24  C16 UNL     1      -4.690   0.234  -1.466  1.00  0.00     0.023 C 
HETATM   25  C17 UNL     1      -5.298   0.195  -0.125  1.00  0.00     0.198 C 
HETATM   26  O3  UNL     1      -5.812   1.507   0.138  1.00  0.00    -0.376 OA
HETATM   27  C18 UNL     1      -6.072   1.502   1.569  1.00  0.00     0.261 C 
HETATM   28  C19 UNL     1      -4.772   1.213   2.141  1.00  0.00    -0.080 C 
HETATM   29  C20 UNL     1      -3.741   0.980   2.572  1.00  0.00    -0.101 C 
HETATM   30  C21 UNL     1      -2.446   0.681   3.086  1.00  0.00     0.123 C 
ENDBRANCH   9  11
ENDBRANCH   7   9
TORSDOF 2
