REMARK  1 active torsions:
REMARK  status: ('A' for Active; 'I' for Inactive)
REMARK    1  A    between atoms: C10_14  and  O2_15 
ROOT
HETATM    1  C1  UNL     1       3.379  -1.117   2.040  1.00  0.00     0.039 C 
HETATM    2  C2  UNL     1       2.143  -1.569   1.409  1.00  0.00     0.007 C 
HETATM    3  C3  UNL     1       2.156  -0.882   0.297  1.00  0.00     0.085 C 
HETATM    4  O1  UNL     1       3.033   0.014  -0.198  1.00  0.00    -0.303 OA
HETATM    5  C4  UNL     1       3.397   1.290   0.262  1.00  0.00     0.260 C 
HETATM    6  N1  UNL     1       2.701   2.011  -0.475  1.00  0.00    -0.230 NA
HETATM    7  C5  UNL     1       2.387   3.324  -0.761  1.00  0.00     0.231 C 
HETATM    8  N2  UNL     1       1.022   3.306  -0.729  1.00  0.00    -0.252 NA
HETATM    9  C6  UNL     1       0.582   2.080  -0.443  1.00  0.00     0.245 C 
HETATM   10  N3  UNL     1      -0.715   1.553  -0.252  1.00  0.00    -0.364 N 
HETATM   11  C7  UNL     1      -1.278   0.170  -0.068  1.00  0.00     0.043 C 
HETATM   12  C8  UNL     1      -2.013   0.146   1.086  1.00  0.00    -0.003 C 
HETATM   13  C9  UNL     1      -2.309   1.197   2.090  1.00  0.00     0.038 C 
HETATM   14  C10 UNL     1      -1.343  -1.217  -0.653  1.00  0.00     0.136 C 
HETATM   15  C12 UNL     1      -0.107  -2.085  -0.427  1.00  0.00     0.035 C 
HETATM   16  C13 UNL     1       0.924  -1.229  -0.504  1.00  0.00     0.025 C 
HETATM   17  C14 UNL     1       0.611  -0.681  -1.879  1.00  0.00     0.053 C 
HETATM   18  P1  UNL     1       1.278   0.954  -1.890  1.00  0.00     0.020 P 
HETATM   19  N4  UNL     1      -0.352  -0.935  -2.875  1.00  0.00    -0.385 N 
HETATM   20  C15 UNL     1      -1.596  -1.086  -2.167  1.00  0.00     0.168 C 
HETATM   21  H8  UNL     1      -1.436   2.296  -0.237  1.00  0.00     0.162 HD
HETATM   22  H17 UNL     1      -0.531  -1.083  -3.877  1.00  0.00     0.159 HD
ENDROOT
BRANCH  14  23
HETATM   23  O2  UNL     1      -2.435  -1.850  -0.142  1.00  0.00    -0.373 OA
HETATM   24  C11 UNL     1      -3.666  -1.385  -0.500  1.00  0.00     0.203 C 
ENDBRANCH  14  23
TORSDOF 1
