REMARK  4 active torsions:
REMARK  status: ('A' for Active; 'I' for Inactive)
REMARK    1  A    between atoms: C7_7  and  C8_8 
REMARK    2  A    between atoms: C17_21  and  C18_22 
REMARK    3  A    between atoms: C18_22  and  O3_23 
REMARK    4  A    between atoms: O3_23  and  C19_24 
ROOT
HETATM    1  C1  UNL     1      -3.393   2.928   1.288  1.00  0.00     0.013 C 
HETATM    2  C2  UNL     1      -4.419   2.294   1.228  1.00  0.00    -0.071 C 
HETATM    3  C3  UNL     1      -5.625   1.531   1.135  1.00  0.00     0.049 A 
HETATM    4  C4  UNL     1      -4.604   1.472   0.116  1.00  0.00     0.003 A 
HETATM    5  C5  UNL     1      -4.153   0.935  -1.003  1.00  0.00     0.036 A 
HETATM    6  C6  UNL     1      -3.760   0.357  -2.125  1.00  0.00     0.012 A 
HETATM    7  C7  UNL     1      -4.983   0.112  -1.345  1.00  0.00     0.009 A 
HETATM    8  C8  UNL     1      -5.597   0.647  -0.072  1.00  0.00     0.015 A 
HETATM    9  C9  UNL     1      -2.548   1.294  -2.002  1.00  0.00     0.189 C 
HETATM   10  O1  UNL     1      -1.899   1.153  -3.268  1.00  0.00    -0.376 OA
HETATM   11  C10 UNL     1      -2.133  -0.165  -3.690  1.00  0.00     0.195 C 
HETATM   12  C11 UNL     1      -1.696  -0.986  -2.483  1.00  0.00     0.201 C 
HETATM   13  O2  UNL     1      -1.151  -0.181  -1.498  1.00  0.00    -0.350 OA
HETATM   14  C12 UNL     1      -1.618   0.968  -0.915  1.00  0.00     0.092 C 
HETATM   15  C13 UNL     1      -1.219   1.432   0.254  1.00  0.00     0.071 A 
HETATM   16  C14 UNL     1      -1.457   2.461   1.084  1.00  0.00     0.151 A 
HETATM   17  N1  UNL     1      -0.794   2.675   2.232  1.00  0.00    -0.223 NA
HETATM   18  C15 UNL     1       0.193   1.891   2.705  1.00  0.00     0.236 A 
HETATM   19  N2  UNL     1       0.484   0.851   1.939  1.00  0.00    -0.241 NA
HETATM   20  C16 UNL     1      -0.182   0.649   0.799  1.00  0.00     0.073 A 
HETATM   21  C17 UNL     1       0.344  -0.480   0.246  1.00  0.00     0.032 C 
HETATM   22  N3  UNL     1      -2.264   3.609   1.333  1.00  0.00    -0.299 N 
HETATM   23  H23 UNL     1      -2.919   4.333   1.500  1.00  0.00     0.178 HD
ENDROOT
BRANCH  21  24
HETATM   24  C18 UNL     1       1.461  -1.296   0.864  1.00  0.00     0.198 C 
BRANCH  24  25
HETATM   25  O3  UNL     1       2.633  -0.993   0.219  1.00  0.00    -0.382 OA
BRANCH  25  26
HETATM   26  C19 UNL     1       3.749  -1.694   0.645  1.00  0.00     0.125 C 
HETATM   27  C20 UNL     1       4.767  -0.743   1.303  1.00  0.00     0.058 C 
HETATM   28  C21 UNL     1       5.942  -1.592   1.738  1.00  0.00     0.170 C 
HETATM   29  O4  UNL     1       6.501  -2.352   0.729  1.00  0.00    -0.391 OA
HETATM   30  C22 UNL     1       5.941  -2.102  -0.504  1.00  0.00     0.170 C 
HETATM   31  C23 UNL     1       4.464  -2.367  -0.493  1.00  0.00     0.058 C 
ENDBRANCH  25  26
ENDBRANCH  24  25
ENDBRANCH  21  24
TORSDOF 4
