REMARK  7 active torsions:
REMARK  status: ('A' for Active; 'I' for Inactive)
REMARK    1  A    between atoms: C6_7  and  N2_8 
REMARK    2  A    between atoms: N2_8  and  C7_9 
REMARK    3  A    between atoms: C9_13  and  C10_14 
REMARK    4  A    between atoms: C10_14  and  C11_15 
REMARK    5  A    between atoms: C11_15  and  O1_16 
REMARK    6  A    between atoms: O1_16  and  C12_17 
REMARK    7  A    between atoms: C17_23  and  C18_24 
ROOT
HETATM    1  C1  UNL     1       6.973   2.910   3.464  1.00  0.00     0.018 C 
HETATM    2  C2  UNL     1       6.369   2.672   2.449  1.00  0.00    -0.076 C 
HETATM    3  C3  UNL     1       5.663   2.368   1.239  1.00  0.00     0.033 A 
HETATM    4  C4  UNL     1       5.951   3.127   0.198  1.00  0.00     0.104 A 
HETATM    5  N1  UNL     1       5.214   2.767  -0.971  1.00  0.00    -0.392 N 
HETATM    6  C5  UNL     1       4.236   1.760  -1.216  1.00  0.00     0.176 A 
HETATM    7  C6  UNL     1       3.991   0.968   0.016  1.00  0.00     0.030 A 
HETATM    8  C22 UNL     1       4.677   1.288   1.132  1.00  0.00     0.048 A 
HETATM    9  H3  UNL     1       5.398   3.330  -1.850  1.00  0.00     0.159 HD
ENDROOT
BRANCH   7  10
HETATM   10  N2  UNL     1       3.144  -0.135   0.332  1.00  0.00    -0.342 N 
HETATM   11  H6  UNL     1       3.705  -1.008   0.106  1.00  0.00     0.167 HD
BRANCH  10  12
HETATM   12  C7  UNL     1       1.853  -0.343   0.841  1.00  0.00     0.144 A 
HETATM   13  N3  UNL     1       1.903   0.067   2.108  1.00  0.00    -0.223 NA
HETATM   14  C8  UNL     1       0.912   0.036   2.997  1.00  0.00     0.236 A 
HETATM   15  N4  UNL     1      -0.179  -0.473   2.456  1.00  0.00    -0.241 NA
HETATM   16  C9  UNL     1      -0.381  -0.927   1.208  1.00  0.00     0.073 A 
HETATM   17  C17 UNL     1       0.698  -0.855   0.354  1.00  0.00     0.070 A 
BRANCH  16  18
HETATM   18  C10 UNL     1      -1.571  -1.415   0.835  1.00  0.00     0.032 C 
BRANCH  18  19
HETATM   19  C11 UNL     1      -2.770  -1.963   0.281  1.00  0.00     0.198 C 
BRANCH  19  20
HETATM   20  O1  UNL     1      -3.687  -1.139  -0.286  1.00  0.00    -0.382 OA
BRANCH  20  21
HETATM   21  C12 UNL     1      -4.259  -0.160   0.468  1.00  0.00     0.125 C 
HETATM   22  C13 UNL     1      -4.308   1.175  -0.242  1.00  0.00     0.058 C 
HETATM   23  C14 UNL     1      -5.243   2.074   0.520  1.00  0.00     0.170 C 
HETATM   24  O2  UNL     1      -6.549   1.680   0.242  1.00  0.00    -0.391 OA
HETATM   25  C15 UNL     1      -6.638   0.373  -0.192  1.00  0.00     0.170 C 
HETATM   26  C16 UNL     1      -5.740  -0.561   0.603  1.00  0.00     0.058 C 
ENDBRANCH  20  21
ENDBRANCH  19  20
ENDBRANCH  18  19
ENDBRANCH  16  18
BRANCH  17  27
HETATM   27  C18 UNL     1       0.681  -1.191  -0.916  1.00  0.00     0.086 C 
HETATM   28  C19 UNL     1       1.614  -1.173  -2.056  1.00  0.00     0.233 C 
HETATM   29  O3  UNL     1       2.096  -2.444  -2.365  1.00  0.00    -0.383 OA
HETATM   30  C20 UNL     1       1.129  -3.417  -2.136  1.00  0.00     0.194 C 
HETATM   31  C21 UNL     1      -0.266  -2.879  -2.350  1.00  0.00     0.201 C 
HETATM   32  O4  UNL     1      -0.412  -1.728  -1.547  1.00  0.00    -0.350 OA
ENDBRANCH  17  27
ENDBRANCH  10  12
ENDBRANCH   7  10
TORSDOF 7
