REMARK  5 active torsions:
REMARK  status: ('A' for Active; 'I' for Inactive)
REMARK    1  A    between atoms: O1_1  and  C1_2 
REMARK    2  A    between atoms: C5_7  and  N1_8 
REMARK    3  A    between atoms: N1_8  and  C6_9 
REMARK    4  A    between atoms: C14_21  and  O3_22 
REMARK    5  A    between atoms: O3_22  and  C15_23 
ROOT
HETATM    1  C1  UNL     1      -0.032  -2.521  -2.029  1.00  0.00     0.168 C 
HETATM    2  C2  UNL     1      -1.297  -2.063  -2.792  1.00  0.00     0.206 C 
HETATM    3  O2  UNL     1      -1.761  -0.831  -2.148  1.00  0.00    -0.364 OA
HETATM    4  C3  UNL     1      -0.697  -0.234  -1.376  1.00  0.00     0.128 A 
HETATM    5  C4  UNL     1      -0.840  -0.087  -0.031  1.00  0.00     0.036 C 
HETATM    6  C5  UNL     1      -2.059   0.622   0.322  1.00  0.00     0.137 C 
HETATM    7  N2  UNL     1      -1.986   1.012   1.580  1.00  0.00    -0.224 NA
HETATM    8  C12 UNL     1      -0.793   0.633   2.312  1.00  0.00     0.229 C 
HETATM    9  N3  UNL     1       0.263  -0.071   1.996  1.00  0.00    -0.270 NA
HETATM   10  C13 UNL     1       0.305  -0.633   0.681  1.00  0.00     0.178 C 
HETATM   11  C14 UNL     1       1.544  -0.811  -0.053  1.00  0.00     0.177 C 
HETATM   12  P1  UNL     1       1.195  -1.223  -1.819  1.00  0.00    -0.048 P 
HETATM   13  C20 UNL     1       0.441   0.129  -2.297  1.00  0.00     0.024 A 
HETATM   14  H21 UNL     1       2.382  -1.471  -2.504  1.00  0.00     0.061 HD
ENDROOT
BRANCH   6  15
HETATM   15  N1  UNL     1      -3.142   0.805  -0.595  1.00  0.00    -0.341 N 
HETATM   16  H5  UNL     1      -2.981   0.918  -1.577  1.00  0.00     0.167 HD
BRANCH  15  17
HETATM   17  C6  UNL     1      -4.398   0.808   0.140  1.00  0.00     0.035 A 
HETATM   18  C7  UNL     1      -4.836   2.078   0.413  1.00  0.00     0.032 A 
HETATM   19  C8  UNL     1      -6.010   2.255   1.120  1.00  0.00     0.046 A 
HETATM   20  C9  UNL     1      -6.755   1.178   1.560  1.00  0.00     0.138 A 
HETATM   21  F1  UNL     1      -7.913   1.223   2.259  1.00  0.00    -0.204 F 
HETATM   22  C10 UNL     1      -6.287  -0.109   1.270  1.00  0.00     0.074 A 
HETATM   23 CL1  UNL     1      -7.107  -1.603   1.752  1.00  0.00    -0.081 Cl
HETATM   24  C11 UNL     1      -5.118  -0.298   0.565  1.00  0.00     0.056 A 
ENDBRANCH  15  17
ENDBRANCH   6  15
BRANCH  11  25
HETATM   25  O3  UNL     1       2.424   0.235  -0.059  1.00  0.00    -0.374 OA
BRANCH  25  26
HETATM   26  C15 UNL     1       3.701  -0.069   0.346  1.00  0.00     0.126 C 
HETATM   27  C16 UNL     1       4.786   0.333  -0.625  1.00  0.00     0.058 C 
HETATM   28  C17 UNL     1       6.033   0.553   0.209  1.00  0.00     0.170 C 
HETATM   29  O4  UNL     1       5.961   1.809   0.811  1.00  0.00    -0.391 OA
HETATM   30  C18 UNL     1       4.647   2.043   1.167  1.00  0.00     0.170 C 
HETATM   31  C19 UNL     1       3.923   0.791   1.604  1.00  0.00     0.058 C 
ENDBRANCH  25  26
ENDBRANCH  11  25
BRANCH   1  32
HETATM   32  O1  UNL     1      -0.379  -3.163  -0.848  1.00  0.00    -0.389 OA
HETATM   33  H1  UNL     1       0.008  -4.072  -0.838  1.00  0.00     0.210 HD
ENDBRANCH   1  32
TORSDOF 5
