REMARK  8 active torsions:
REMARK  status: ('A' for Active; 'I' for Inactive)
REMARK    1  A    between atoms: O1_1  and  C1_2 
REMARK    2  A    between atoms: C1_2  and  O2_3 
REMARK    3  A    between atoms: O2_3  and  C2_4 
REMARK    4  A    between atoms: C5_8  and  N1_9 
REMARK    5  A    between atoms: N1_9  and  C6_10 
REMARK    6  A    between atoms: C14_22  and  C15_23 
REMARK    7  A    between atoms: C15_23  and  O3_24 
REMARK    8  A    between atoms: O3_24  and  C16_25 
ROOT
HETATM    1  C2  UNL     1       0.019   0.689  -2.530  1.00  0.00     0.148 A 
HETATM    2  C3  UNL     1       1.426   1.060  -2.800  1.00  0.00    -0.015 A 
HETATM    3  B1  UNL     1       2.438   1.268  -1.421  1.00  0.00     0.194 B 
HETATM    4  C4  UNL     1       1.487   0.971   0.100  1.00  0.00    -0.034 A 
HETATM    5  C5  UNL     1       2.068   1.075   1.325  1.00  0.00     0.126 A 
HETATM    6  N2  UNL     1       1.342   0.849   2.435  1.00  0.00    -0.225 NA
HETATM    7  C12 UNL     1       0.040   0.520   2.336  1.00  0.00     0.235 A 
HETATM    8  N3  UNL     1      -0.519   0.422   1.118  1.00  0.00    -0.242 NA
HETATM    9  C13 UNL     1       0.163   0.637  -0.022  1.00  0.00     0.063 A 
HETATM   10  C14 UNL     1      -0.454   0.519  -1.174  1.00  0.00    -0.000 A 
ENDROOT
BRANCH   5  11
HETATM   11  N1  UNL     1       3.436   1.420   1.429  1.00  0.00    -0.341 N 
HETATM   12  H7  UNL     1       3.437   2.463   1.483  1.00  0.00     0.167 HD
BRANCH  11  13
HETATM   13  C6  UNL     1       4.657   0.678   1.467  1.00  0.00     0.035 A 
HETATM   14  C7  UNL     1       5.851   1.372   1.578  1.00  0.00     0.032 A 
HETATM   15  C8  UNL     1       6.965   0.557   1.606  1.00  0.00     0.046 A 
HETATM   16  C9  UNL     1       7.004  -0.819   1.537  1.00  0.00     0.138 A 
HETATM   17  F1  UNL     1       8.181  -1.482   1.577  1.00  0.00    -0.204 F 
HETATM   18  C10 UNL     1       5.758  -1.440   1.427  1.00  0.00     0.074 A 
HETATM   19 CL1  UNL     1       5.764  -3.197   1.337  1.00  0.00    -0.081 Cl
HETATM   20  C11 UNL     1       4.584  -0.698   1.391  1.00  0.00     0.056 A 
ENDBRANCH  11  13
ENDBRANCH   5  11
BRANCH  10  21
HETATM   21  C15 UNL     1      -1.920   0.132  -1.189  1.00  0.00     0.207 C 
BRANCH  21  22
HETATM   22  O3  UNL     1      -2.307   0.031   0.125  1.00  0.00    -0.381 OA
BRANCH  22  23
HETATM   23  C16 UNL     1      -3.638  -0.320   0.289  1.00  0.00     0.125 C 
HETATM   24  C17 UNL     1      -4.319   0.784   1.029  1.00  0.00     0.058 C 
HETATM   25  C18 UNL     1      -5.466   0.315   1.886  1.00  0.00     0.170 C 
HETATM   26  O4  UNL     1      -5.263  -0.893   2.510  1.00  0.00    -0.391 OA
HETATM   27  C19 UNL     1      -5.005  -1.933   1.629  1.00  0.00     0.170 C 
HETATM   28  C20 UNL     1      -3.668  -1.650   1.000  1.00  0.00     0.058 C 
ENDBRANCH  22  23
ENDBRANCH  21  22
ENDBRANCH  10  21
BRANCH   1  29
HETATM   29  O2  UNL     1      -0.183  -0.541  -3.214  1.00  0.00    -0.358 OA
BRANCH  29  30
HETATM   30  C1  UNL     1      -1.076  -0.404  -4.256  1.00  0.00     0.335 C 
BRANCH  30  31
HETATM   31  O1  UNL     1      -1.274  -1.631  -4.930  1.00  0.00    -0.377 OA
HETATM   32  H1  UNL     1      -0.528  -2.228  -4.690  1.00  0.00     0.212 HD
ENDBRANCH  30  31
ENDBRANCH  29  30
ENDBRANCH   1  29
TORSDOF 8
