REMARK  6 active torsions:
REMARK  status: ('A' for Active; 'I' for Inactive)
REMARK    1  A    between atoms: C2_2  and  O1_3 
REMARK    2  A    between atoms: O1_3  and  C3_4 
REMARK    3  A    between atoms: C3_4  and  C4_5 
REMARK    4  A    between atoms: C4_5  and  O2_6 
REMARK    5  A    between atoms: O2_6  and  C5_7 
REMARK    6  A    between atoms: N1_17  and  C13_18 
ROOT
HETATM    1  C5  UNL     1       1.074  -0.569   0.173  1.00  0.00     0.107 A 
HETATM    2  C6  UNL     1       0.622  -1.542   1.042  1.00  0.00     0.073 A 
HETATM    3  C7  UNL     1      -0.724  -1.705   1.283  1.00  0.00     0.083 A 
HETATM    4  C8  UNL     1      -1.567  -0.847   0.610  1.00  0.00     0.105 A 
HETATM    5  C9  UNL     1      -1.176   0.140  -0.268  1.00  0.00     0.134 A 
HETATM    6  C10 UNL     1       0.185   0.281  -0.490  1.00  0.00     0.138 A 
HETATM    7  O3  UNL     1       0.654   1.267  -1.373  1.00  0.00    -0.344 OA
HETATM    8  C11 UNL     1      -0.266   1.939  -2.245  1.00  0.00     0.202 C 
HETATM    9  C12 UNL     1      -1.577   2.185  -1.494  1.00  0.00     0.202 C 
HETATM   10  O4  UNL     1      -2.056   0.980  -0.927  1.00  0.00    -0.344 OA
HETATM   11  N1  UNL     1      -2.964  -0.933   0.780  1.00  0.00    -0.300 N 
HETATM   12  C19 UNL     1      -3.460  -1.949   1.676  1.00  0.00     0.237 A 
HETATM   13  N2  UNL     1      -2.679  -2.763   2.315  1.00  0.00    -0.169 NA
HETATM   14  N3  UNL     1      -1.272  -2.685   2.154  1.00  0.00    -0.275 N 
HETATM   15  H19 UNL     1      -0.606  -3.332   2.659  1.00  0.00     0.189 HD
ENDROOT
BRANCH  11  16
HETATM   16  C13 UNL     1      -4.026  -0.159   0.245  1.00  0.00     0.042 A 
HETATM   17  C14 UNL     1      -4.405   1.181   0.393  1.00  0.00     0.033 A 
HETATM   18  C15 UNL     1      -5.498   1.658  -0.280  1.00  0.00     0.046 A 
HETATM   19  C16 UNL     1      -6.271   0.887  -1.115  1.00  0.00     0.138 A 
HETATM   20  F1  UNL     1      -7.329   1.469  -1.727  1.00  0.00    -0.204 F 
HETATM   21  C17 UNL     1      -5.911  -0.436  -1.272  1.00  0.00     0.074 A 
HETATM   22 CL1  UNL     1      -6.922  -1.381  -2.344  1.00  0.00    -0.081 Cl
HETATM   23  C18 UNL     1      -4.800  -0.962  -0.602  1.00  0.00     0.057 A 
ENDBRANCH  11  16
BRANCH   1  24
HETATM   24  O2  UNL     1       2.416  -0.369  -0.099  1.00  0.00    -0.346 OA
BRANCH  24  25
HETATM   25  C4  UNL     1       3.470  -1.108   0.456  1.00  0.00     0.201 C 
BRANCH  25  26
HETATM   26  C3  UNL     1       4.789  -0.596  -0.081  1.00  0.00     0.194 C 
BRANCH  26  27
HETATM   27  O1  UNL     1       4.975   0.757   0.239  1.00  0.00    -0.389 OA
BRANCH  27  28
HETATM   28  C2  UNL     1       6.198   1.188  -0.274  1.00  0.00     0.163 C 
HETATM   29  C1  UNL     1       7.372   0.433   0.265  1.00  0.00     0.033 C 
ENDBRANCH  27  28
ENDBRANCH  26  27
ENDBRANCH  25  26
ENDBRANCH  24  25
ENDBRANCH   1  24
TORSDOF 6
