REMARK  9 active torsions:
REMARK  status: ('A' for Active; 'I' for Inactive)
REMARK    1  A    between atoms: C2_3  and  O1_4 
REMARK    2  A    between atoms: O1_4  and  C3_5 
REMARK    3  A    between atoms: C5_7  and  O2_8 
REMARK    4  A    between atoms: O2_8  and  C6_9 
REMARK    5  A    between atoms: C12_16  and  C13_17 
REMARK    6  A    between atoms: C13_17  and  N1_18 
REMARK    7  A    between atoms: C14_19  and  C15_20 
REMARK    8  A    between atoms: C15_20  and  N2_21 
REMARK    9  A    between atoms: N2_21  and  C16_22 
ROOT
HETATM    1  B1  UNL     1      -0.232  -2.373   4.645  1.00  0.00     0.192 B 
HETATM    2  C1  UNL     1       0.519  -2.904   3.140  1.00  0.00    -0.237 C 
HETATM    3  C2  UNL     1       1.152  -3.343   1.888  1.00  0.00     0.238 C 
ENDROOT
BRANCH   3   4
HETATM    4  O1  UNL     1       1.388  -2.258   1.047  1.00  0.00    -0.341 OA
BRANCH   4   5
HETATM    5  C3  UNL     1       0.433  -1.397   0.530  1.00  0.00     0.081 A 
HETATM    6  C4  UNL     1      -0.948  -1.446   0.751  1.00  0.00     0.074 A 
HETATM    7  C5  UNL     1      -1.795  -0.503   0.159  1.00  0.00     0.072 A 
HETATM    8  C11 UNL     1      -1.234   0.465  -0.638  1.00  0.00     0.046 A 
HETATM    9  C12 UNL     1       0.122   0.520  -0.858  1.00  0.00    -0.017 A 
HETATM   10  C14 UNL     1       0.956  -0.409  -0.276  1.00  0.00     0.001 A 
BRANCH   7  11
HETATM   11  O2  UNL     1      -3.094  -0.779   0.537  1.00  0.00    -0.346 OA
BRANCH  11  12
HETATM   12  C6  UNL     1      -4.157  -0.007   0.096  1.00  0.00     0.133 C 
HETATM   13  C7  UNL     1      -5.169  -0.830  -0.708  1.00  0.00     0.058 C 
HETATM   14  C8  UNL     1      -6.142   0.184  -1.288  1.00  0.00     0.170 C 
HETATM   15  O3  UNL     1      -6.768   0.918  -0.296  1.00  0.00    -0.391 OA
HETATM   16  C9  UNL     1      -5.914   1.596   0.541  1.00  0.00     0.170 C 
HETATM   17  C10 UNL     1      -4.987   0.601   1.237  1.00  0.00     0.058 C 
ENDBRANCH  11  12
ENDBRANCH   7  11
BRANCH   9  18
HETATM   18  C13 UNL     1       0.618   1.607  -1.739  1.00  0.00     0.306 C 
BRANCH  18  19
HETATM   19  N1  UNL     1       0.943   1.061  -3.060  1.00  0.00     0.082 N 
HETATM   20  H16 UNL     1       0.562   0.070  -3.108  1.00  0.00     0.313 HD
HETATM   21  H17 UNL     1       0.459   1.573  -3.826  1.00  0.00     0.313 HD
ENDBRANCH  18  19
ENDBRANCH   9  18
BRANCH  10  22
HETATM   22  C15 UNL     1       2.400  -0.252  -0.586  1.00  0.00     0.162 C 
BRANCH  22  23
HETATM   23  N2  UNL     1       3.087   0.322   0.540  1.00  0.00    -0.386 N 
HETATM   24  H20 UNL     1       2.634   0.585   1.445  1.00  0.00     0.160 HD
BRANCH  23  25
HETATM   25  C16 UNL     1       4.487   0.528   0.362  1.00  0.00     0.029 A 
HETATM   26  C17 UNL     1       5.100   0.188  -0.821  1.00  0.00     0.032 A 
HETATM   27  C18 UNL     1       6.463   0.408  -0.947  1.00  0.00     0.046 A 
HETATM   28  C19 UNL     1       7.206   0.951   0.068  1.00  0.00     0.138 A 
HETATM   29  F1  UNL     1       8.547   1.159  -0.077  1.00  0.00    -0.204 F 
HETATM   30  C20 UNL     1       6.599   1.292   1.249  1.00  0.00     0.074 A 
HETATM   31 CL1  UNL     1       7.459   1.989   2.600  1.00  0.00    -0.081 Cl
HETATM   32  C21 UNL     1       5.241   1.072   1.374  1.00  0.00     0.056 A 
ENDBRANCH  23  25
ENDBRANCH  22  23
ENDBRANCH  10  22
ENDBRANCH   4   5
ENDBRANCH   3   4
TORSDOF 9
