REMARK  8 active torsions:
REMARK  status: ('A' for Active; 'I' for Inactive)
REMARK    1  A    between atoms: C2_2  and  O1_3 
REMARK    2  A    between atoms: O1_3  and  C3_4 
REMARK    3  A    between atoms: C3_4  and  C4_5 
REMARK    4  A    between atoms: C4_5  and  C5_6 
REMARK    5  A    between atoms: C5_6  and  O2_7 
REMARK    6  A    between atoms: O2_7  and  C6_8 
REMARK    7  A    between atoms: C10_14  and  N3_15 
REMARK    8  A    between atoms: N3_15  and  C11_16 
ROOT
HETATM    1  C6  UNL     1       1.152  -1.505   0.199  1.00  0.00     0.107 A 
HETATM    2  C7  UNL     1       0.655  -1.909  -1.022  1.00  0.00     0.072 A 
HETATM    3  C8  UNL     1      -0.677  -1.794  -1.344  1.00  0.00     0.077 A 
HETATM    4  N1  UNL     1      -1.082  -2.224  -2.568  1.00  0.00    -0.241 NA
HETATM    5  C9  UNL     1      -2.409  -2.109  -2.869  1.00  0.00     0.236 A 
HETATM    6  N2  UNL     1      -3.348  -1.589  -2.017  1.00  0.00    -0.223 NA
HETATM    7  C10 UNL     1      -2.913  -1.169  -0.807  1.00  0.00     0.144 A 
HETATM    8  C17 UNL     1      -1.585  -1.261  -0.446  1.00  0.00     0.075 A 
HETATM    9  C18 UNL     1      -1.078  -0.860   0.766  1.00  0.00     0.121 A 
HETATM   10  C19 UNL     1       0.262  -0.964   1.122  1.00  0.00     0.136 A 
HETATM   11  O3  UNL     1       0.484  -0.481   2.408  1.00  0.00    -0.344 OA
HETATM   12  C20 UNL     1      -0.098   0.736   2.857  1.00  0.00     0.202 C 
HETATM   13  C21 UNL     1      -1.549   0.836   2.482  1.00  0.00     0.202 C 
HETATM   14  O4  UNL     1      -1.959  -0.310   1.712  1.00  0.00    -0.345 OA
ENDROOT
BRANCH   7  15
HETATM   15  N3  UNL     1      -3.805  -0.624   0.155  1.00  0.00    -0.340 N 
HETATM   16  H14 UNL     1      -3.959  -1.335   0.913  1.00  0.00     0.167 HD
BRANCH  15  17
HETATM   17  C11 UNL     1      -4.435   0.638   0.197  1.00  0.00     0.035 A 
HETATM   18  C12 UNL     1      -5.098   1.085   1.321  1.00  0.00     0.032 A 
HETATM   19  C13 UNL     1      -5.702   2.325   1.271  1.00  0.00     0.046 A 
HETATM   20  C14 UNL     1      -5.624   3.067   0.110  1.00  0.00     0.138 A 
HETATM   21  F1  UNL     1      -6.230   4.300   0.071  1.00  0.00    -0.204 F 
HETATM   22  C15 UNL     1      -4.954   2.610  -1.022  1.00  0.00     0.074 A 
HETATM   23 CL1  UNL     1      -4.856   3.549  -2.497  1.00  0.00    -0.081 Cl
HETATM   24  C16 UNL     1      -4.336   1.355  -0.985  1.00  0.00     0.056 A 
ENDBRANCH  15  17
ENDBRANCH   7  15
BRANCH   1  25
HETATM   25  O2  UNL     1       2.454  -1.556   0.674  1.00  0.00    -0.348 OA
BRANCH  25  26
HETATM   26  C5  UNL     1       3.440  -2.083  -0.200  1.00  0.00     0.178 C 
BRANCH  26  27
HETATM   27  C4  UNL     1       4.770  -2.099   0.442  1.00  0.00     0.053 C 
BRANCH  27  28
HETATM   28  C3  UNL     1       5.252  -0.801   0.942  1.00  0.00     0.169 C 
BRANCH  28  29
HETATM   29  O1  UNL     1       5.468   0.203   0.123  1.00  0.00    -0.391 OA
BRANCH  29  30
HETATM   30  C2  UNL     1       4.592   0.858  -0.646  1.00  0.00     0.163 C 
HETATM   31  C1  UNL     1       5.372   2.035  -1.329  1.00  0.00     0.033 C 
ENDBRANCH  29  30
ENDBRANCH  28  29
ENDBRANCH  27  28
ENDBRANCH  26  27
ENDBRANCH  25  26
ENDBRANCH   1  25
TORSDOF 8
