REMARK  7 active torsions:
REMARK  status: ('A' for Active; 'I' for Inactive)
REMARK    1  A    between atoms: C1_2  and  C2_3 
REMARK    2  A    between atoms: C2_3  and  O2_4 
REMARK    3  A    between atoms: O2_4  and  C3_5 
REMARK    4  A    between atoms: C6_8  and  N1_9 
REMARK    5  A    between atoms: N1_9  and  C7_10 
REMARK    6  A    between atoms: C16_23  and  O3_24 
REMARK    7  A    between atoms: O3_24  and  C17_25 
ROOT
HETATM    1  C3  UNL     1       0.812   0.198   0.220  1.00  0.00     0.103 A 
HETATM    2  C4  UNL     1      -0.551   0.124   0.051  1.00  0.00     0.057 A 
HETATM    3  C5  UNL     1      -1.164  -0.756  -0.808  1.00  0.00     0.042 A 
HETATM    4  C6  UNL     1      -2.528  -0.819  -0.966  1.00  0.00     0.142 A 
HETATM    5  N2  UNL     1      -2.963  -1.729  -1.839  1.00  0.00    -0.224 NA
HETATM    6  C13 UNL     1      -2.181  -2.549  -2.540  1.00  0.00     0.236 A 
HETATM    7  N3  UNL     1      -0.869  -2.474  -2.375  1.00  0.00    -0.241 NA
HETATM    8  C14 UNL     1      -0.334  -1.575  -1.505  1.00  0.00     0.075 A 
HETATM    9  C15 UNL     1       1.037  -1.525  -1.358  1.00  0.00     0.072 A 
HETATM   10  C16 UNL     1       1.664  -0.626  -0.481  1.00  0.00     0.104 A 
ENDROOT
BRANCH   4  11
HETATM   11  N1  UNL     1      -3.369   0.047  -0.234  1.00  0.00    -0.340 N 
HETATM   12  H5  UNL     1      -2.976   0.748   0.415  1.00  0.00     0.167 HD
BRANCH  11  13
HETATM   13  C7  UNL     1      -4.783   0.166  -0.202  1.00  0.00     0.035 A 
HETATM   14  C8  UNL     1      -5.503   1.131   0.488  1.00  0.00     0.032 A 
HETATM   15  C9  UNL     1      -6.874   1.183   0.477  1.00  0.00     0.046 A 
HETATM   16  C10 UNL     1      -7.622   0.268  -0.229  1.00  0.00     0.138 A 
HETATM   17  F1  UNL     1      -8.962   0.445  -0.146  1.00  0.00    -0.204 F 
HETATM   18  C11 UNL     1      -6.937  -0.703  -0.925  1.00  0.00     0.074 A 
HETATM   19 CL1  UNL     1      -7.948  -1.832  -1.798  1.00  0.00    -0.081 Cl
HETATM   20  C12 UNL     1      -5.563  -0.733  -0.897  1.00  0.00     0.056 A 
ENDBRANCH  11  13
ENDBRANCH   4  11
BRANCH   1  21
HETATM   21  O2  UNL     1       1.428   1.085   1.085  1.00  0.00    -0.342 OA
BRANCH  21  22
HETATM   22  C2  UNL     1       0.767   2.017   1.898  1.00  0.00     0.245 C 
BRANCH  22  23
HETATM   23  C1  UNL     1      -0.037   2.987   1.116  1.00  0.00     0.257 C 
HETATM   24  O1  UNL     1      -0.437   3.407   0.051  1.00  0.00    -0.305 OA
ENDBRANCH  22  23
ENDBRANCH  21  22
ENDBRANCH   1  21
BRANCH  10  25
HETATM   25  O3  UNL     1       3.013  -0.726  -0.473  1.00  0.00    -0.343 OA
BRANCH  25  26
HETATM   26  C17 UNL     1       4.013  -0.081   0.194  1.00  0.00     0.133 C 
HETATM   27  C18 UNL     1       5.052   0.566  -0.699  1.00  0.00     0.058 C 
HETATM   28  C19 UNL     1       6.277   0.863   0.122  1.00  0.00     0.170 C 
HETATM   29  O4  UNL     1       6.932  -0.290   0.538  1.00  0.00    -0.391 OA
HETATM   30  C20 UNL     1       6.131  -1.422   0.412  1.00  0.00     0.170 C 
HETATM   31  C21 UNL     1       4.765  -1.147   1.008  1.00  0.00     0.058 C 
ENDBRANCH  25  26
ENDBRANCH  10  25
TORSDOF 7
