REMARK  2 active torsions:
REMARK  status: ('A' for Active; 'I' for Inactive)
REMARK    1  A    between atoms: C4_5  and  N1_6 
REMARK    2  A    between atoms: N1_6  and  C5_7 
ROOT
HETATM    1  C5  UNL     1       0.149   0.643   0.611  1.00  0.00     0.144 A 
HETATM    2  N2  UNL     1       0.906   1.517   1.285  1.00  0.00    -0.223 NA
HETATM    3  C6  UNL     1       0.335   2.510   1.979  1.00  0.00     0.236 A 
HETATM    4  N3  UNL     1      -0.989   2.651   2.017  1.00  0.00    -0.239 NA
HETATM    5  C7  UNL     1      -1.834   1.818   1.368  1.00  0.00     0.096 A 
HETATM    6  C8  UNL     1      -1.206   0.820   0.673  1.00  0.00     0.075 A 
HETATM    7  C9  UNL     1      -1.969  -0.027   0.019  1.00  0.00     0.118 A 
HETATM    8  O1  UNL     1      -1.492  -1.076  -0.722  1.00  0.00    -0.347 OA
HETATM    9  C10 UNL     1      -2.418  -1.943  -1.340  1.00  0.00     0.201 C 
HETATM   10  C11 UNL     1      -3.574  -1.192  -1.962  1.00  0.00     0.198 C 
HETATM   11  O2  UNL     1      -3.760   0.077  -1.411  1.00  0.00    -0.352 OA
HETATM   12  C12 UNL     1      -3.451  -0.021  -0.050  1.00  0.00     0.324 A 
HETATM   13  O3  UNL     1      -3.941   1.042   0.698  1.00  0.00    -0.324 OA
HETATM   14  C13 UNL     1      -3.145   1.930   1.384  1.00  0.00     0.171 A 
ENDROOT
BRANCH   1  15
HETATM   15  N1  UNL     1       0.837  -0.378  -0.095  1.00  0.00    -0.340 N 
HETATM   16  H3  UNL     1       0.665  -1.219  -0.677  1.00  0.00     0.167 HD
BRANCH  15  17
HETATM   17  C4  UNL     1       2.260  -0.389  -0.108  1.00  0.00     0.035 A 
HETATM   18  C3  UNL     1       2.964   0.814  -0.206  1.00  0.00     0.032 A 
HETATM   19  C2  UNL     1       4.340   0.878  -0.197  1.00  0.00     0.046 A 
HETATM   20  C1  UNL     1       5.101  -0.243  -0.091  1.00  0.00     0.138 A 
HETATM   21  F1  UNL     1       6.448  -0.265  -0.075  1.00  0.00    -0.204 F 
HETATM   22  C15 UNL     1       4.480  -1.469   0.009  1.00  0.00     0.074 A 
HETATM   23  C14 UNL     1       3.106  -1.496  -0.003  1.00  0.00     0.056 A 
HETATM   24 CL1  UNL     1       5.321  -3.017   0.152  1.00  0.00    -0.081 Cl
ENDBRANCH  15  17
ENDBRANCH   1  15
TORSDOF 2
