REMARK  5 active torsions:
REMARK  status: ('A' for Active; 'I' for Inactive)
REMARK    1  A    between atoms: C4_5  and  C5_6 
REMARK    2  A    between atoms: C5_6  and  N1_7 
REMARK    3  A    between atoms: N1_7  and  C6_8 
REMARK    4  A    between atoms: C10_14  and  O1_15 
REMARK    5  A    between atoms: C12_17  and  O2_18 
ROOT
HETATM    1  C1  UNL     1      -3.350  -3.350  -1.151  1.00  0.00     0.012 C 
HETATM    2  C2  UNL     1      -2.302  -3.934  -0.747  1.00  0.00     0.005 C 
HETATM    3  C3  UNL     1      -1.140  -4.724  -0.414  1.00  0.00    -0.006 A 
HETATM    4 BR1  UNL     1       0.351  -5.578   0.178  1.00  0.00    -0.120 Br
HETATM    5  C4  UNL     1      -0.469  -4.101   0.669  1.00  0.00     0.150 A 
ENDROOT
BRANCH   5   6
HETATM    6  C5  UNL     1      -1.152  -2.876   1.097  1.00  0.00     0.106 C 
BRANCH   6   7
HETATM    7  N1  UNL     1      -0.406  -1.598   1.033  1.00  0.00    -0.378 N 
HETATM    8  H7  UNL     1       0.276  -1.702   1.761  1.00  0.00     0.160 HD
BRANCH   7   9
HETATM    9  C6  UNL     1      -0.832  -0.707   0.062  1.00  0.00     0.137 A 
HETATM   10  N2  UNL     1      -1.661  -0.527  -0.852  1.00  0.00    -0.224 NA
HETATM   11  C7  UNL     1      -2.247   0.074  -1.778  1.00  0.00     0.235 A 
HETATM   12  N3  UNL     1      -1.517   1.155  -1.675  1.00  0.00    -0.241 NA
HETATM   13  C8  UNL     1      -0.510   1.573  -0.937  1.00  0.00     0.075 A 
HETATM   14  C9  UNL     1       0.288   2.829  -1.019  1.00  0.00     0.072 A 
HETATM   15  C15 UNL     1      -0.168   0.554  -0.018  1.00  0.00     0.041 A 
HETATM   16  C10 UNL     1       1.301   2.769  -0.129  1.00  0.00     0.103 A 
HETATM   17  C12 UNL     1       1.770   1.825   0.835  1.00  0.00     0.102 A 
HETATM   18  C14 UNL     1       0.958   0.726   0.832  1.00  0.00     0.057 A 
BRANCH  16  19
HETATM   19  O1  UNL     1       1.936   3.936  -0.319  1.00  0.00    -0.353 OA
HETATM   20  C11 UNL     1       1.705   4.953  -1.200  1.00  0.00     0.210 C 
ENDBRANCH  16  19
BRANCH  17  21
HETATM   21  O2  UNL     1       2.784   2.416   1.263  1.00  0.00    -0.353 OA
HETATM   22  C13 UNL     1       3.695   1.841   2.282  1.00  0.00     0.210 C 
ENDBRANCH  17  21
ENDBRANCH   7   9
ENDBRANCH   6   7
ENDBRANCH   5   6
TORSDOF 5
