REMARK  4 active torsions:
REMARK  status: ('A' for Active; 'I' for Inactive)
REMARK    1  A    between atoms: O1_1  and  C1_2 
REMARK    2  A    between atoms: C5_6  and  C6_7 
REMARK    3  A    between atoms: C10_13  and  N3_14 
REMARK    4  A    between atoms: N3_14  and  C11_15 
ROOT
HETATM    1  C6  UNL     1      -2.066  -0.262  -0.354  1.00  0.00    -0.013 A 
HETATM    2  C7  UNL     1      -1.676  -1.466  -0.917  1.00  0.00     0.043 A 
HETATM    3  C8  UNL     1      -0.382  -1.943  -0.829  1.00  0.00     0.075 A 
HETATM    4  N1  UNL     1       0.051  -3.132  -1.353  1.00  0.00    -0.241 NA
HETATM    5  C9  UNL     1       1.330  -3.549  -1.223  1.00  0.00     0.236 A 
HETATM    6  N2  UNL     1       2.285  -2.844  -0.574  1.00  0.00    -0.223 NA
HETATM    7  C10 UNL     1       1.919  -1.642  -0.024  1.00  0.00     0.144 A 
HETATM    8  C17 UNL     1       0.612  -1.250  -0.175  1.00  0.00     0.075 A 
HETATM    9  C18 UNL     1       0.263  -0.032   0.407  1.00  0.00     0.119 A 
HETATM   10  C19 UNL     1      -1.038   0.395   0.290  1.00  0.00     0.110 A 
HETATM   11  O2  UNL     1      -1.284   1.611   0.896  1.00  0.00    -0.346 OA
HETATM   12  C20 UNL     1      -0.329   2.670   0.892  1.00  0.00     0.202 C 
HETATM   13  C21 UNL     1       0.987   2.132   1.343  1.00  0.00     0.202 C 
HETATM   14  O3  UNL     1       1.181   0.754   1.088  1.00  0.00    -0.345 OA
ENDROOT
BRANCH   7  15
HETATM   15  N3  UNL     1       2.950  -0.949   0.665  1.00  0.00    -0.340 N 
HETATM   16  H12 UNL     1       3.007  -0.753   1.710  1.00  0.00     0.167 HD
BRANCH  15  17
HETATM   17  C11 UNL     1       4.157  -0.311   0.221  1.00  0.00     0.035 A 
HETATM   18  C12 UNL     1       4.304   0.897  -0.407  1.00  0.00     0.032 A 
HETATM   19  C13 UNL     1       5.537   1.346  -0.776  1.00  0.00     0.046 A 
HETATM   20  C14 UNL     1       6.676   0.638  -0.549  1.00  0.00     0.138 A 
HETATM   21  F1  UNL     1       7.867   1.143  -0.954  1.00  0.00    -0.204 F 
HETATM   22  C15 UNL     1       6.567  -0.588   0.085  1.00  0.00     0.074 A 
HETATM   23 CL1  UNL     1       8.040  -1.461   0.379  1.00  0.00    -0.081 Cl
HETATM   24  C16 UNL     1       5.302  -1.059   0.469  1.00  0.00     0.056 A 
ENDBRANCH  15  17
ENDBRANCH   7  15
BRANCH   1  25
HETATM   25  C5  UNL     1      -3.465   0.125  -0.492  1.00  0.00     0.050 C 
HETATM   26  C1  UNL     1      -4.091   0.758   0.736  1.00  0.00     0.126 C 
HETATM   27  C2  UNL     1      -5.562   0.802   0.255  1.00  0.00     0.032 C 
HETATM   28  C3  UNL     1      -5.751  -0.582  -0.326  1.00  0.00     0.003 C 
HETATM   29  C4  UNL     1      -4.352  -1.149  -0.531  1.00  0.00     0.012 C 
BRANCH  26  30
HETATM   30  O1  UNL     1      -3.765   2.055   0.978  1.00  0.00    -0.395 OA
HETATM   31  H1  UNL     1      -4.343   2.755   0.642  1.00  0.00     0.210 HD
ENDBRANCH  26  30
ENDBRANCH   1  25
TORSDOF 4
