REMARK  5 active torsions:
REMARK  status: ('A' for Active; 'I' for Inactive)
REMARK    1  A    between atoms: C2_3  and  C3_4 
REMARK    2  A    between atoms: C4_5  and  C5_6 
REMARK    3  A    between atoms: C5_6  and  C6_7 
REMARK    4  A    between atoms: C8_9  and  C9_10 
REMARK    5  A    between atoms: N2_21  and  C17_22 
ROOT
HETATM    1  C6  UNL     1       2.111  -0.235  -0.347  1.00  0.00     0.119 C 
HETATM    2  C7  UNL     1       0.829   0.193  -1.027  1.00  0.00     0.089 C 
HETATM    3  C8  UNL     1      -0.195  -0.639  -0.320  1.00  0.00     0.067 C 
HETATM    4  N1  UNL     1       0.410  -1.600   0.333  1.00  0.00    -0.175 NA
HETATM    5  N2  UNL     1       1.795  -1.537   0.161  1.00  0.00    -0.264 N 
ENDROOT
BRANCH   3   6
HETATM    6  C9  UNL     1      -1.646  -0.474  -0.310  1.00  0.00    -0.007 A 
HETATM    7  C10 UNL     1      -2.397  -1.371   0.421  1.00  0.00     0.016 A 
HETATM    8  C11 UNL     1      -3.773  -1.260   0.466  1.00  0.00     0.040 A 
HETATM    9  C12 UNL     1      -4.324  -0.216  -0.252  1.00  0.00     0.102 A 
HETATM   10  C13 UNL     1      -3.607   0.706  -0.998  1.00  0.00     0.103 A 
HETATM   11  O2  UNL     1      -5.709  -0.116  -0.197  1.00  0.00    -0.346 OA
HETATM   12  C14 UNL     1      -2.237   0.554  -1.013  1.00  0.00     0.053 A 
HETATM   13  O1  UNL     1      -4.292   1.692  -1.661  1.00  0.00    -0.346 OA
HETATM   14  C15 UNL     1      -5.690   1.641  -1.870  1.00  0.00     0.202 C 
HETATM   15  C16 UNL     1      -6.414   0.996  -0.710  1.00  0.00     0.202 C 
ENDBRANCH   3   6
BRANCH   1  16
HETATM   16  C5  UNL     1       2.443   0.751   0.750  1.00  0.00     0.055 C 
BRANCH  16  17
HETATM   17  C4  UNL     1       2.635   2.117   0.235  1.00  0.00    -0.025 C 
HETATM   18  C3  UNL     1       1.872   3.113   0.645  1.00  0.00    -0.003 C 
BRANCH  18  19
HETATM   19  C2  UNL     1       1.732   4.546   0.403  1.00  0.00     0.011 C 
HETATM   20  C1  UNL     1       0.893   5.471   0.895  1.00  0.00     0.084 C 
HETATM   21 CL1  UNL     1       1.191   7.075   0.232  1.00  0.00    -0.097 Cl
ENDBRANCH  18  19
ENDBRANCH  16  17
ENDBRANCH   1  16
BRANCH   5  22
HETATM   22  C17 UNL     1       2.723  -2.583   0.442  1.00  0.00     0.053 A 
HETATM   23  C18 UNL     1       2.268  -3.787   0.945  1.00  0.00     0.031 A 
HETATM   24  C19 UNL     1       3.185  -4.808   1.220  1.00  0.00     0.002 A 
HETATM   25  C20 UNL     1       4.552  -4.643   0.998  1.00  0.00     0.000 A 
HETATM   26  C21 UNL     1       4.959  -3.405   0.487  1.00  0.00     0.002 A 
HETATM   27  C22 UNL     1       4.070  -2.386   0.211  1.00  0.00     0.031 A 
ENDBRANCH   5  22
TORSDOF 5
