REMARK  3 active torsions:
REMARK  status: ('A' for Active; 'I' for Inactive)
REMARK    1  A    between atoms: O1_2  and  C2_3 
REMARK    2  A    between atoms: C6_9  and  N3_10 
REMARK    3  A    between atoms: N3_10  and  C7_11 
ROOT
HETATM    1  C2  UNL     1      -3.760   0.753  -0.015  1.00  0.00     0.088 A 
HETATM    2  C3  UNL     1      -3.531   0.961  -1.310  1.00  0.00     0.066 A 
HETATM    3  C4  UNL     1      -2.285   0.184  -1.238  1.00  0.00     0.079 A 
HETATM    4  N1  UNL     1      -1.370  -0.127  -2.126  1.00  0.00    -0.243 NA
HETATM    5  C5  UNL     1      -0.176  -0.912  -1.898  1.00  0.00     0.235 C 
HETATM    6  N2  UNL     1       0.672  -0.951  -0.893  1.00  0.00    -0.223 NA
HETATM    7  C6  UNL     1       0.690  -0.220   0.318  1.00  0.00     0.151 C 
HETATM    8  C13 UNL     1      -0.150   0.403   1.142  1.00  0.00     0.187 C 
HETATM    9  O2  UNL     1      -1.536   0.530   1.012  1.00  0.00    -0.335 OA
HETATM   10  C14 UNL     1      -2.544  -0.054   0.213  1.00  0.00     0.155 A 
HETATM   11  C15 UNL     1      -2.917  -1.477   0.549  1.00  0.00     0.061 C 
ENDROOT
BRANCH   7  12
HETATM   12  N3  UNL     1       2.003  -0.065   0.888  1.00  0.00    -0.339 N 
HETATM   13  H6  UNL     1       2.206   0.360   1.817  1.00  0.00     0.167 HD
BRANCH  12  14
HETATM   14  C7  UNL     1       3.343  -0.359   0.529  1.00  0.00     0.035 A 
HETATM   15  C8  UNL     1       3.893   0.683  -0.227  1.00  0.00     0.029 A 
HETATM   16  C9  UNL     1       5.208   0.653  -0.710  1.00  0.00     0.004 A 
HETATM   17  C10 UNL     1       5.922  -0.483  -0.384  1.00  0.00     0.019 A 
HETATM   18  C11 UNL     1       5.422  -1.521   0.350  1.00  0.00     0.013 A 
HETATM   19 BR1  UNL     1       6.394  -3.085   0.804  1.00  0.00    -0.051 Br
HETATM   20  C12 UNL     1       4.127  -1.467   0.812  1.00  0.00     0.048 A 
ENDBRANCH  12  14
ENDBRANCH   7  12
BRANCH   1  21
HETATM   21  O1  UNL     1      -4.758   1.123   0.878  1.00  0.00    -0.357 OA
HETATM   22  C1  UNL     1      -5.679   2.149   0.642  1.00  0.00     0.209 C 
ENDBRANCH   1  21
TORSDOF 3
