REMARK  4 active torsions:
REMARK  status: ('A' for Active; 'I' for Inactive)
REMARK    1  A    between atoms: O1_2  and  O2_3 
REMARK    2  A    between atoms: O2_3  and  C2_4 
REMARK    3  A    between atoms: C7_11  and  N3_12 
REMARK    4  A    between atoms: N3_12  and  C8_13 
ROOT
HETATM    1  C2  UNL     1      -2.960   0.674  -1.045  1.00  0.00     0.107 A 
HETATM    2  C3  UNL     1      -3.887  -0.315  -0.872  1.00  0.00     0.042 A 
HETATM    3  C4  UNL     1      -3.429  -1.527  -0.406  1.00  0.00     0.035 A 
HETATM    4  C5  UNL     1      -2.091  -1.709  -0.133  1.00  0.00     0.072 A 
HETATM    5  N1  UNL     1      -1.747  -2.915   0.313  1.00  0.00    -0.241 NA
HETATM    6  C6  UNL     1      -0.465  -3.192   0.609  1.00  0.00     0.236 A 
HETATM    7  N2  UNL     1       0.425  -2.211   0.433  1.00  0.00    -0.224 NA
HETATM    8  C7  UNL     1       0.180  -0.975  -0.008  1.00  0.00     0.142 A 
HETATM    9  C14 UNL     1      -1.141  -0.722  -0.302  1.00  0.00     0.041 A 
HETATM   10  C15 UNL     1      -1.640   0.462  -0.765  1.00  0.00     0.057 A 
ENDROOT
BRANCH   8  11
HETATM   11  N3  UNL     1       1.119   0.052  -0.191  1.00  0.00    -0.340 N 
HETATM   12  H7  UNL     1       0.857   0.978  -0.548  1.00  0.00     0.167 HD
BRANCH  11  13
HETATM   13  C8  UNL     1       2.517   0.049   0.054  1.00  0.00     0.035 A 
HETATM   14  C9  UNL     1       3.394   1.085  -0.239  1.00  0.00     0.029 A 
HETATM   15  C10 UNL     1       4.742   1.052   0.014  1.00  0.00     0.004 A 
HETATM   16  C11 UNL     1       5.311  -0.059   0.594  1.00  0.00     0.019 A 
HETATM   17  C12 UNL     1       4.466  -1.120   0.904  1.00  0.00     0.013 A 
HETATM   18 BR1  UNL     1       5.331  -2.617   1.705  1.00  0.00    -0.051 Br
HETATM   19  C13 UNL     1       3.129  -1.032   0.629  1.00  0.00     0.048 A 
ENDBRANCH  11  13
ENDBRANCH   8  11
BRANCH   1  20
HETATM   20  O2  UNL     1      -3.413   1.897  -1.514  1.00  0.00    -0.198 OA
BRANCH  20  21
HETATM   21  O1  UNL     1      -3.043   3.060  -0.967  1.00  0.00    -0.240 OA
HETATM   22  C1  UNL     1      -3.594   3.096   0.321  1.00  0.00     0.247 C 
ENDBRANCH  20  21
ENDBRANCH   1  20
TORSDOF 4
