REMARK  2 active torsions:
REMARK  status: ('A' for Active; 'I' for Inactive)
REMARK    1  A    between atoms: O1_2  and  C2_3 
REMARK    2  A    between atoms: N3_14  and  C10_15 
ROOT
HETATM    1  C2  UNL     1      -1.564   0.941  -1.103  1.00  0.00     0.125 C 
HETATM    2  C3  UNL     1      -0.343   1.267  -1.917  1.00  0.00     0.058 C 
HETATM    3  C4  UNL     1      -1.194   0.794   0.374  1.00  0.00     0.049 C 
HETATM    4  C5  UNL     1      -0.566  -0.376   0.175  1.00  0.00     0.061 C 
HETATM    5  C6  UNL     1      -1.055  -1.241  -0.927  1.00  0.00     0.068 C 
HETATM    6  C7  UNL     1      -2.078  -0.442  -1.326  1.00  0.00     0.094 C 
HETATM    7  O2  UNL     1      -2.888  -1.576  -1.662  1.00  0.00    -0.304 OA
HETATM    8  C8  UNL     1      -3.094  -2.406  -0.491  1.00  0.00     0.431 C 
HETATM    9  N1  UNL     1      -2.511  -2.879   0.566  1.00  0.00    -0.360 NA
HETATM   10  C9  UNL     1      -1.197  -2.687   1.001  1.00  0.00     0.221 C 
HETATM   11  N2  UNL     1       0.019  -2.307   1.329  1.00  0.00    -0.163 NA
HETATM   12  N3  UNL     1       0.433  -1.004   1.006  1.00  0.00    -0.225 N 
ENDROOT
BRANCH  12  13
HETATM   13  C10 UNL     1       1.592  -0.301   1.397  1.00  0.00     0.113 A 
HETATM   14  C11 UNL     1       2.654  -0.748   0.746  1.00  0.00     0.046 A 
HETATM   15 BR1  UNL     1       2.467  -2.165  -0.524  1.00  0.00    -0.048 Br
HETATM   16  C12 UNL     1       3.997  -0.177   0.975  1.00  0.00     0.019 A 
HETATM   17  C13 UNL     1       4.182   0.804   1.843  1.00  0.00    -0.015 A 
HETATM   18  C14 UNL     1       3.298   1.576   2.755  1.00  0.00     0.108 A 
HETATM   19  S1  UNL     1       1.560   1.005   2.614  1.00  0.00    -0.105 SA
ENDBRANCH  12  13
BRANCH   1  20
HETATM   20  O1  UNL     1      -2.493   1.929  -1.262  1.00  0.00    -0.374 OA
HETATM   21  C1  UNL     1      -2.882   2.075  -2.566  1.00  0.00     0.203 C 
ENDBRANCH   1  20
TORSDOF 2
