REMARK  8 active torsions:
REMARK  status: ('A' for Active; 'I' for Inactive)
REMARK    1  A    between atoms: C3_3  and  C4_4 
REMARK    2  A    between atoms: C3_3  and  O2_21 
REMARK    3  A    between atoms: C4_4  and  C5_5 
REMARK    4  A    between atoms: C5_5  and  C6_6 
REMARK    5  A    between atoms: C6_6  and  C7_7 
REMARK    6  A    between atoms: C7_7  and  C8_8 
REMARK    7  A    between atoms: C8_8  and  N1_9 
REMARK    8  A    between atoms: N1_9  and  C9_10 
ROOT
HETATM    1  C9  UNL     1      -2.246  -0.088   0.727  1.00  0.00     0.155 A 
HETATM    2  N2  UNL     1      -1.663   0.711   1.631  1.00  0.00    -0.222 NA
HETATM    3  C10 UNL     1      -2.327   1.717   2.214  1.00  0.00     0.238 A 
HETATM    4  N3  UNL     1      -3.632   2.005   1.936  1.00  0.00    -0.216 NA
HETATM    5  C11 UNL     1      -4.277   1.235   1.032  1.00  0.00     0.196 A 
HETATM    6  C12 UNL     1      -3.564   0.202   0.447  1.00  0.00     0.128 A 
HETATM    7  N4  UNL     1      -4.060  -0.720  -0.514  1.00  0.00    -0.383 N 
HETATM    8  C13 UNL     1      -5.067  -0.555  -1.542  1.00  0.00     0.122 C 
HETATM    9  C14 UNL     1      -5.828   0.719  -1.410  1.00  0.00     0.046 C 
HETATM   10  C15 UNL     1      -6.485   0.949  -0.092  1.00  0.00     0.179 C 
HETATM   11  O1  UNL     1      -5.614   1.627   0.829  1.00  0.00    -0.333 OA
HETATM   12  H17 UNL     1      -3.604  -1.655  -0.433  1.00  0.00     0.159 HD
ENDROOT
BRANCH   1  13
HETATM   13  N1  UNL     1      -1.496  -1.148   0.134  1.00  0.00    -0.373 N 
HETATM   14  H15 UNL     1      -1.724  -1.859  -0.564  1.00  0.00     0.161 HD
BRANCH  13  15
HETATM   15  C8  UNL     1      -0.098  -1.332   0.530  1.00  0.00     0.121 C 
BRANCH  15  16
HETATM   16  C7  UNL     1       0.674  -0.153   0.028  1.00  0.00     0.020 C 
BRANCH  16  17
HETATM   17  C6  UNL     1       2.123  -0.271   0.411  1.00  0.00     0.002 C 
BRANCH  17  18
HETATM   18  C5  UNL     1       2.699  -1.521  -0.203  1.00  0.00     0.006 C 
BRANCH  18  19
HETATM   19  C4  UNL     1       4.170  -1.552   0.216  1.00  0.00     0.064 C 
BRANCH  19  20
HETATM   20  C3  UNL     1       4.810  -0.341  -0.304  1.00  0.00     0.041 C 
HETATM   21  C2  UNL     1       5.395   0.580   0.443  1.00  0.00     0.001 C 
HETATM   22  C1  UNL     1       5.441   0.437   1.921  1.00  0.00     0.038 C 
BRANCH  20  23
HETATM   23  O2  UNL     1       4.747  -0.244  -1.667  1.00  0.00    -0.361 OA
HETATM   24  C16 UNL     1       4.521   0.987  -2.319  1.00  0.00     0.209 C 
ENDBRANCH  20  23
ENDBRANCH  19  20
ENDBRANCH  18  19
ENDBRANCH  17  18
ENDBRANCH  16  17
ENDBRANCH  15  16
ENDBRANCH  13  15
ENDBRANCH   1  13
TORSDOF 8
