REMARK  5 active torsions:
REMARK  status: ('A' for Active; 'I' for Inactive)
REMARK    1  A    between atoms: O1_2  and  C2_3 
REMARK    2  A    between atoms: C6_9  and  N3_10 
REMARK    3  A    between atoms: N3_10  and  C7_11 
REMARK    4  A    between atoms: C7_11  and  C8_12 
REMARK    5  A    between atoms: C15_20  and  O2_21 
ROOT
HETATM    1  C2  UNL     1      -3.415   0.134   0.143  1.00  0.00     0.103 A 
HETATM    2  C3  UNL     1      -3.026  -1.024   0.827  1.00  0.00     0.072 A 
HETATM    3  C4  UNL     1      -1.697  -1.459   0.892  1.00  0.00     0.075 A 
HETATM    4  N1  UNL     1      -1.386  -2.578   1.563  1.00  0.00    -0.241 NA
HETATM    5  C5  UNL     1      -0.096  -2.986   1.616  1.00  0.00     0.236 A 
HETATM    6  N2  UNL     1       0.857  -2.242   0.981  1.00  0.00    -0.224 NA
HETATM    7  C6  UNL     1       0.524  -1.132   0.320  1.00  0.00     0.141 A 
HETATM    8  C13 UNL     1      -0.770  -0.670   0.233  1.00  0.00     0.042 A 
HETATM    9  C14 UNL     1      -1.086   0.472  -0.452  1.00  0.00     0.057 A 
HETATM   10  C15 UNL     1      -2.410   0.859  -0.487  1.00  0.00     0.102 A 
ENDROOT
BRANCH   7  11
HETATM   11  N3  UNL     1       1.601  -0.442  -0.300  1.00  0.00    -0.349 N 
HETATM   12  H6  UNL     1       1.626   0.432  -0.866  1.00  0.00     0.167 HD
BRANCH  11  13
HETATM   13  C7  UNL     1       2.926  -0.948  -0.192  1.00  0.00     0.102 C 
BRANCH  13  14
HETATM   14  C8  UNL     1       3.963  -0.281   0.252  1.00  0.00    -0.003 A 
HETATM   15  C9  UNL     1       5.330  -0.720   0.391  1.00  0.00     0.014 A 
HETATM   16  C10 UNL     1       6.053   0.273   0.879  1.00  0.00     0.002 A 
HETATM   17  C11 UNL     1       5.204   1.459   1.102  1.00  0.00     0.020 A 
HETATM   18  C12 UNL     1       3.967   1.098   0.720  1.00  0.00     0.022 A 
HETATM   19 BR1  UNL     1       2.485   2.300   0.815  1.00  0.00    -0.050 Br
ENDBRANCH  13  14
ENDBRANCH  11  13
ENDBRANCH   7  11
BRANCH  10  20
HETATM   20  O2  UNL     1      -2.813   1.996  -1.154  1.00  0.00    -0.353 OA
HETATM   21  C16 UNL     1      -1.923   2.850  -1.849  1.00  0.00     0.210 C 
ENDBRANCH  10  20
BRANCH   1  22
HETATM   22  O1  UNL     1      -4.726   0.542   0.092  1.00  0.00    -0.353 OA
HETATM   23  C1  UNL     1      -5.709  -0.235   0.753  1.00  0.00     0.210 C 
ENDBRANCH   1  22
TORSDOF 5
