REMARK  4 active torsions:
REMARK  status: ('A' for Active; 'I' for Inactive)
REMARK    1  A    between atoms: O1_2  and  C2_3 
REMARK    2  A    between atoms: C5_6  and  C6_7 
REMARK    3  A    between atoms: C14_17  and  C15_18 
REMARK    4  A    between atoms: N2_22  and  C18_23 
ROOT
HETATM    1  C2  UNL     1       0.025   4.020  -1.125  1.00  0.00     0.068 A 
HETATM    2  C3  UNL     1       1.155   3.490  -1.710  1.00  0.00     0.037 A 
HETATM    3  C4  UNL     1       1.462   2.149  -1.457  1.00  0.00     0.015 A 
HETATM    4  C5  UNL     1       0.641   1.371  -0.632  1.00  0.00    -0.017 A 
HETATM    5  C14 UNL     1      -0.491   1.869  -0.038  1.00  0.00    -0.014 A 
HETATM    6  C24 UNL     1      -0.734   3.193  -0.327  1.00  0.00     0.047 A 
ENDROOT
BRANCH   5   7
HETATM    7  C15 UNL     1      -1.360   0.994   0.781  1.00  0.00     0.193 A 
HETATM    8  C16 UNL     1      -2.794   1.356   0.428  1.00  0.00     0.058 A 
HETATM    9  C17 UNL     1      -3.734   2.494   0.605  1.00  0.00     0.070 C 
HETATM   10  N1  UNL     1      -3.117   0.262  -0.168  1.00  0.00    -0.178 NA
HETATM   11  N2  UNL     1      -1.824  -0.200   0.100  1.00  0.00    -0.255 N 
BRANCH  11  12
HETATM   12  C18 UNL     1      -1.584  -1.518  -0.387  1.00  0.00     0.054 A 
HETATM   13  C19 UNL     1      -1.961  -2.025  -1.613  1.00  0.00     0.031 A 
HETATM   14  C20 UNL     1      -1.686  -3.350  -1.978  1.00  0.00     0.002 A 
HETATM   15  C21 UNL     1      -1.023  -4.192  -1.111  1.00  0.00     0.000 A 
HETATM   16  C22 UNL     1      -0.616  -3.756   0.132  1.00  0.00     0.002 A 
HETATM   17  C23 UNL     1      -0.928  -2.442   0.407  1.00  0.00     0.031 A 
ENDBRANCH  11  12
ENDBRANCH   5   7
BRANCH   4  18
HETATM   18  C6  UNL     1       1.240   0.053  -0.491  1.00  0.00    -0.022 A 
HETATM   19  C7  UNL     1       1.598  -0.900  -1.420  1.00  0.00     0.015 A 
HETATM   20  C8  UNL     1       2.218  -2.056  -0.991  1.00  0.00     0.040 A 
HETATM   21  C9  UNL     1       2.490  -2.286   0.338  1.00  0.00     0.102 A 
HETATM   22  C10 UNL     1       2.140  -1.344   1.296  1.00  0.00     0.102 A 
HETATM   23  O3  UNL     1       3.125  -3.498   0.668  1.00  0.00    -0.346 OA
HETATM   24  C11 UNL     1       1.511  -0.171   0.864  1.00  0.00     0.052 A 
HETATM   25  O2  UNL     1       2.442  -1.640   2.609  1.00  0.00    -0.346 OA
HETATM   26  C12 UNL     1       2.825  -2.963   2.998  1.00  0.00     0.202 C 
HETATM   27  C13 UNL     1       3.760  -3.550   1.954  1.00  0.00     0.202 C 
ENDBRANCH   4  18
BRANCH   1  28
HETATM   28  O1  UNL     1      -0.308   5.347  -1.354  1.00  0.00    -0.356 OA
HETATM   29  C1  UNL     1      -1.457   5.874  -0.755  1.00  0.00     0.210 C 
ENDBRANCH   1  28
TORSDOF 4
