REMARK  1 active torsions:
REMARK  status: ('A' for Active; 'I' for Inactive)
REMARK    1  A    between atoms: O1_2  and  C2_3 
ROOT
HETATM    1  C2  UNL     1      -2.394   0.913  -0.866  1.00  0.00     0.082 A 
HETATM    2  C3  UNL     1      -1.808   2.026  -1.134  1.00  0.00     0.043 A 
HETATM    3  C4  UNL     1      -0.660   1.736  -0.311  1.00  0.00     0.092 A 
HETATM    4  C5  UNL     1       0.557   1.627  -1.216  1.00  0.00     0.066 C 
HETATM    5  C6  UNL     1       1.294   0.409  -1.289  1.00  0.00    -0.024 C 
HETATM    6  C7  UNL     1       1.931  -0.714  -1.560  1.00  0.00    -0.004 C 
HETATM    7  C8  UNL     1       2.716  -1.902  -1.308  1.00  0.00    -0.003 C 
HETATM    8  C9  UNL     1       3.246  -2.394  -0.175  1.00  0.00    -0.007 C 
HETATM    9  C10 UNL     1       2.805  -1.355   0.774  1.00  0.00     0.148 C 
HETATM   10  N1  UNL     1       1.808  -1.843   1.686  1.00  0.00    -0.370 N 
HETATM   11  C11 UNL     1       1.014  -0.687   1.907  1.00  0.00     0.147 C 
HETATM   12  C12 UNL     1       0.027  -1.276   1.132  1.00  0.00     0.186 C 
HETATM   13  O2  UNL     1      -0.623  -0.684  -0.044  1.00  0.00    -0.339 OA
HETATM   14  C13 UNL     1      -1.378   0.480   0.033  1.00  0.00     0.140 A 
HETATM   15  C14 UNL     1      -2.008   0.585   1.487  1.00  0.00     0.057 C 
HETATM   16  N2  UNL     1       0.884   0.639   2.485  1.00  0.00    -0.225 NA
HETATM   17  C15 UNL     1       0.616   1.758   1.780  1.00  0.00     0.206 C 
HETATM   18  N3  UNL     1      -0.327   2.481   0.890  1.00  0.00    -0.368 N 
HETATM   19  H13 UNL     1       1.773  -2.806   2.045  1.00  0.00     0.161 HD
HETATM   20  H19 UNL     1      -0.397   3.322   1.521  1.00  0.00     0.161 HD
ENDROOT
BRANCH   1  21
HETATM   21  O1  UNL     1      -3.628   0.468  -1.369  1.00  0.00    -0.357 OA
HETATM   22  C1  UNL     1      -3.857  -0.912  -1.592  1.00  0.00     0.209 C 
ENDBRANCH   1  21
TORSDOF 1
