REMARK  2 active torsions:
REMARK  status: ('A' for Active; 'I' for Inactive)
REMARK    1  A    between atoms: O1_2  and  C2_3 
REMARK    2  A    between atoms: C8_9  and  C9_10 
ROOT
HETATM    1  C2  UNL     1      -3.878   0.845  -0.186  1.00  0.00     0.053 C 
HETATM    2  C3  UNL     1      -2.666   1.320  -0.358  1.00  0.00     0.006 C 
HETATM    3  C4  UNL     1      -1.548   0.747   0.400  1.00  0.00     0.032 C 
HETATM    4  C5  UNL     1      -0.841   1.666   1.342  1.00  0.00     0.031 C 
HETATM    5  C6  UNL     1       0.249   0.818   2.013  1.00  0.00     0.111 C 
HETATM    6  C7  UNL     1       1.477   0.976   1.188  1.00  0.00     0.088 C 
HETATM    7  C8  UNL     1       1.482  -0.197   0.315  1.00  0.00     0.067 C 
HETATM    8  N1  UNL     1       0.633  -1.028   0.720  1.00  0.00    -0.180 NA
HETATM    9  N2  UNL     1      -0.072  -0.595   1.890  1.00  0.00    -0.289 N 
HETATM   10  C17 UNL     1      -0.898  -1.377   2.667  1.00  0.00     0.155 C 
HETATM   11  C18 UNL     1      -1.223  -2.193   3.598  1.00  0.00    -0.001 C 
HETATM   12  C19 UNL     1      -2.465  -2.746   4.012  1.00  0.00     0.028 C 
HETATM   13  C20 UNL     1      -3.622  -2.416   3.392  1.00  0.00     0.074 C 
HETATM   14  C21 UNL     1      -4.031  -1.593   2.330  1.00  0.00    -0.102 C 
HETATM   15  C22 UNL     1      -4.377  -0.911   1.476  1.00  0.00    -0.100 C 
HETATM   16  C23 UNL     1      -4.815  -0.063   0.447  1.00  0.00     0.158 C 
ENDROOT
BRANCH   7  17
HETATM   17  C9  UNL     1       2.311  -0.506  -0.869  1.00  0.00    -0.007 A 
HETATM   18  C10 UNL     1       2.120  -1.712  -1.507  1.00  0.00     0.016 A 
HETATM   19  C11 UNL     1       2.949  -1.994  -2.609  1.00  0.00     0.040 A 
HETATM   20  C12 UNL     1       3.909  -1.051  -2.994  1.00  0.00     0.102 A 
HETATM   21  C13 UNL     1       4.032   0.132  -2.299  1.00  0.00     0.103 A 
HETATM   22  O3  UNL     1       4.806  -1.155  -4.040  1.00  0.00    -0.346 OA
HETATM   23  C14 UNL     1       3.233   0.454  -1.203  1.00  0.00     0.053 A 
HETATM   24  O2  UNL     1       4.981   1.067  -2.679  1.00  0.00    -0.346 OA
HETATM   25  C15 UNL     1       6.128   0.779  -3.440  1.00  0.00     0.202 C 
HETATM   26  C16 UNL     1       6.139  -0.682  -3.822  1.00  0.00     0.202 C 
ENDBRANCH   7  17
BRANCH   1  27
HETATM   27  O1  UNL     1      -4.683   1.613  -1.062  1.00  0.00    -0.360 OA
HETATM   28  C1  UNL     1      -4.970   2.965  -0.857  1.00  0.00     0.209 C 
ENDBRANCH   1  27
TORSDOF 2
