REMARK  7 active torsions:
REMARK  status: ('A' for Active; 'I' for Inactive)
REMARK    1  A    between atoms: O1_2  and  C2_3 
REMARK    2  A    between atoms: C5_6  and  C6_7 
REMARK    3  A    between atoms: C6_7  and  C7_8 
REMARK    4  A    between atoms: C7_8  and  C8_9 
REMARK    5  A    between atoms: C8_9  and  N1_10 
REMARK    6  A    between atoms: N1_10  and  C9_11 
REMARK    7  A    between atoms: C22_26  and  N2_27 
ROOT
HETATM    1  C8  UNL     1      -0.619   0.029   0.251  1.00  0.00     0.094 C 
HETATM    2  C16 UNL     1      -1.601   1.030   0.916  1.00  0.00     0.026 C 
HETATM    3  C17 UNL     1      -0.844   1.885   1.594  1.00  0.00     0.012 C 
HETATM    4  C18 UNL     1      -0.212   2.742   0.810  1.00  0.00     0.115 C 
HETATM    5  O2  UNL     1      -0.051   4.086   1.172  1.00  0.00    -0.345 OA
HETATM    6  C19 UNL     1       0.637   4.972   0.302  1.00  0.00     0.202 C 
HETATM    7  C20 UNL     1       0.587   4.491  -1.125  1.00  0.00     0.202 C 
HETATM    8  O3  UNL     1       0.953   3.121  -1.251  1.00  0.00    -0.344 OA
HETATM    9  C21 UNL     1       0.306   2.196  -0.462  1.00  0.00     0.128 C 
HETATM   10  C22 UNL     1       0.094   0.891  -0.705  1.00  0.00     0.072 C 
ENDROOT
BRANCH   1  11
HETATM   11  C7  UNL     1       0.289  -0.453   1.322  1.00  0.00     0.046 C 
BRANCH  11  12
HETATM   12  C6  UNL     1       1.285  -1.492   1.019  1.00  0.00     0.044 C 
BRANCH  12  13
HETATM   13  C5  UNL     1       2.300  -1.198  -0.006  1.00  0.00    -0.025 A 
HETATM   14  C2  UNL     1       3.335  -0.201  -0.200  1.00  0.00     0.074 A 
HETATM   15  C3  UNL     1       3.646  -0.810  -1.357  1.00  0.00     0.038 A 
HETATM   16  C4  UNL     1       2.599  -1.819  -1.161  1.00  0.00     0.012 A 
BRANCH  14  17
HETATM   17  O1  UNL     1       3.825   0.907   0.477  1.00  0.00    -0.355 OA
HETATM   18  C1  UNL     1       5.234   1.076   0.640  1.00  0.00     0.210 C 
ENDBRANCH  14  17
ENDBRANCH  12  13
ENDBRANCH  11  12
ENDBRANCH   1  11
BRANCH   1  19
HETATM   19  N1  UNL     1      -1.440  -0.992  -0.359  1.00  0.00    -0.371 N 
HETATM   20  H10 UNL     1      -1.135  -1.146  -1.355  1.00  0.00     0.161 HD
BRANCH  19  21
HETATM   21  C9  UNL     1      -2.511  -1.763   0.138  1.00  0.00     0.035 A 
HETATM   22  C10 UNL     1      -3.053  -1.668   1.399  1.00  0.00     0.029 A 
HETATM   23  C11 UNL     1      -4.095  -2.436   1.871  1.00  0.00     0.002 A 
HETATM   24  C12 UNL     1      -4.626  -3.363   1.015  1.00  0.00     0.001 A 
HETATM   25  C13 UNL     1      -4.119  -3.498  -0.257  1.00  0.00     0.009 A 
HETATM   26  C14 UNL     1      -3.079  -2.707  -0.681  1.00  0.00    -0.036 A 
HETATM   27  C15 UNL     1      -2.573  -2.902  -2.077  1.00  0.00     0.050 C 
ENDBRANCH  19  21
ENDBRANCH   1  19
BRANCH  10  28
HETATM   28  N2  UNL     1       0.635   0.564  -1.993  1.00  0.00    -0.398 N 
HETATM   29  H23 UNL     1       1.542   0.901  -2.353  1.00  0.00     0.156 HD
HETATM   30  H24 UNL     1       0.095  -0.060  -2.637  1.00  0.00     0.156 HD
ENDBRANCH  10  28
TORSDOF 7
