REMARK  5 active torsions:
REMARK  status: ('A' for Active; 'I' for Inactive)
REMARK    1  A    between atoms: O1_1  and  S1_2 
REMARK    2  A    between atoms: S1_2  and  C1_3 
REMARK    3  A    between atoms: C7_9  and  C8_10 
REMARK    4  A    between atoms: C10_12  and  C11_13 
REMARK    5  A    between atoms: N2_24  and  C19_25 
ROOT
HETATM    1  C8  UNL     1      -0.809  -0.254   0.933  1.00  0.00     0.139 A 
HETATM    2  C9  UNL     1       0.535  -0.942   0.760  1.00  0.00     0.093 A 
HETATM    3  C10 UNL     1       1.383   0.084   0.126  1.00  0.00     0.067 A 
HETATM    4  N1  UNL     1       0.770   1.193  -0.014  1.00  0.00    -0.175 NA
HETATM    5  N2  UNL     1      -0.538   1.109   0.478  1.00  0.00    -0.261 N 
ENDROOT
BRANCH   1   6
HETATM    6  C7  UNL     1      -1.782  -0.951   0.066  1.00  0.00     0.009 C 
HETATM    7  C6  UNL     1      -3.082  -1.198   0.299  1.00  0.00    -0.040 A 
HETATM    8  C1  UNL     1      -3.923  -1.920  -0.693  1.00  0.00     0.131 A 
HETATM    9  C5  UNL     1      -3.644  -0.734   1.563  1.00  0.00     0.008 A 
HETATM   10  C2  UNL     1      -5.296  -2.032  -0.140  1.00  0.00    -0.005 A 
HETATM   11  C3  UNL     1      -5.811  -1.615   1.004  1.00  0.00    -0.002 A 
HETATM   12  C4  UNL     1      -4.905  -0.910   1.923  1.00  0.00     0.000 A 
BRANCH   8  13
HETATM   13  S1  UNL     1      -4.026  -1.016  -2.258  1.00  0.00    -0.002 SA
BRANCH  13  14
HETATM   14  O1  UNL     1      -4.513   0.611  -2.010  1.00  0.00    -0.329 OA
HETATM   15  H1  UNL     1      -4.587   1.013  -2.915  1.00  0.00     0.227 HD
ENDBRANCH  13  14
ENDBRANCH   8  13
ENDBRANCH   1   6
BRANCH   5  16
HETATM   16  C19 UNL     1      -1.367   2.264   0.472  1.00  0.00     0.053 A 
HETATM   17  C20 UNL     1      -2.163   2.640  -0.589  1.00  0.00     0.031 A 
HETATM   18  C21 UNL     1      -2.959   3.778  -0.558  1.00  0.00     0.002 A 
HETATM   19  C22 UNL     1      -2.927   4.551   0.609  1.00  0.00     0.000 A 
HETATM   20  C23 UNL     1      -2.157   4.237   1.706  1.00  0.00     0.002 A 
HETATM   21  C24 UNL     1      -1.402   3.089   1.579  1.00  0.00     0.031 A 
ENDBRANCH   5  16
BRANCH   3  22
HETATM   22  C11 UNL     1       2.774  -0.124  -0.300  1.00  0.00    -0.007 A 
HETATM   23  C12 UNL     1       3.466   0.940  -0.887  1.00  0.00     0.016 A 
HETATM   24  C13 UNL     1       4.775   0.751  -1.287  1.00  0.00     0.040 A 
HETATM   25  C14 UNL     1       5.406  -0.444  -1.125  1.00  0.00     0.102 A 
HETATM   26  C15 UNL     1       4.706  -1.478  -0.545  1.00  0.00     0.103 A 
HETATM   27  O3  UNL     1       6.701  -0.790  -1.471  1.00  0.00    -0.346 OA
HETATM   28  C16 UNL     1       3.401  -1.343  -0.127  1.00  0.00     0.053 A 
HETATM   29  O2  UNL     1       5.250  -2.747  -0.328  1.00  0.00    -0.346 OA
HETATM   30  C17 UNL     1       6.559  -3.080  -0.698  1.00  0.00     0.202 C 
HETATM   31  C18 UNL     1       7.364  -1.785  -0.746  1.00  0.00     0.202 C 
ENDBRANCH   3  22
TORSDOF 5
