REMARK  2 active torsions:
REMARK  status: ('A' for Active; 'I' for Inactive)
REMARK    1  A    between atoms: O1_2  and  C2_3 
REMARK    2  A    between atoms: C8_9  and  C9_10 
ROOT
HETATM    1  C2  UNL     1      -3.975   1.978  -0.164  1.00  0.00     0.050 C 
HETATM    2  C3  UNL     1      -3.813   2.558  -1.375  1.00  0.00     0.032 C 
HETATM    3  C4  UNL     1      -2.414   2.472  -1.923  1.00  0.00     0.001 C 
HETATM    4  C5  UNL     1      -1.383   1.888  -1.329  1.00  0.00     0.001 C 
HETATM    5  C6  UNL     1      -0.489   1.188  -0.445  1.00  0.00     0.139 C 
HETATM    6  C7  UNL     1       0.759   0.565  -1.112  1.00  0.00     0.093 C 
HETATM    7  C8  UNL     1       1.284  -0.071   0.154  1.00  0.00     0.067 C 
HETATM    8  N1  UNL     1       0.210  -0.353   0.800  1.00  0.00    -0.175 NA
HETATM    9  N2  UNL     1      -0.978  -0.016   0.189  1.00  0.00    -0.260 N 
HETATM   10  C17 UNL     1      -2.163  -0.839   0.363  1.00  0.00     0.060 A 
HETATM   11  C18 UNL     1      -2.090  -2.209   0.158  1.00  0.00     0.032 A 
HETATM   12  C19 UNL     1      -3.155  -3.036   0.353  1.00  0.00     0.002 A 
HETATM   13  C20 UNL     1      -4.310  -2.437   0.765  1.00  0.00     0.001 A 
HETATM   14  C21 UNL     1      -4.409  -1.088   0.974  1.00  0.00     0.010 A 
HETATM   15  C22 UNL     1      -3.362  -0.227   0.787  1.00  0.00    -0.024 A 
HETATM   16  C23 UNL     1      -3.292   1.254   0.898  1.00  0.00     0.105 C 
ENDROOT
BRANCH   7  17
HETATM   17  C9  UNL     1       2.657  -0.316   0.557  1.00  0.00    -0.007 A 
HETATM   18  C10 UNL     1       2.912  -0.920   1.748  1.00  0.00     0.016 A 
HETATM   19  C11 UNL     1       4.223  -1.178   2.167  1.00  0.00     0.040 A 
HETATM   20  C12 UNL     1       5.264  -0.794   1.323  1.00  0.00     0.102 A 
HETATM   21  C13 UNL     1       4.962  -0.171   0.098  1.00  0.00     0.103 A 
HETATM   22  O3  UNL     1       6.599  -0.969   1.581  1.00  0.00    -0.346 OA
HETATM   23  C14 UNL     1       3.673   0.069  -0.286  1.00  0.00     0.053 A 
HETATM   24  O2  UNL     1       6.131   0.120  -0.573  1.00  0.00    -0.346 OA
HETATM   25  C15 UNL     1       7.157  -0.869  -0.740  1.00  0.00     0.202 C 
HETATM   26  C16 UNL     1       7.472  -1.467   0.606  1.00  0.00     0.202 C 
ENDBRANCH   7  17
BRANCH   1  27
HETATM   27  O1  UNL     1      -5.301   2.329  -0.165  1.00  0.00    -0.360 OA
HETATM   28  C1  UNL     1      -6.388   1.882   0.538  1.00  0.00     0.209 C 
ENDBRANCH   1  27
TORSDOF 2
