REMARK  3 active torsions:
REMARK  status: ('A' for Active; 'I' for Inactive)
REMARK    1  A    between atoms: O1_1  and  C1_2 
REMARK    2  A    between atoms: C5_6  and  C6_7 
REMARK    3  A    between atoms: N1_20  and  C17_21 
ROOT
HETATM    1  C6  UNL     1       0.795  -0.499   0.614  1.00  0.00     0.125 C 
HETATM    2  C7  UNL     1       0.550  -1.950   0.454  1.00  0.00     0.035 C 
HETATM    3  C8  UNL     1      -0.520  -2.570   1.298  1.00  0.00     0.037 C 
HETATM    4  C9  UNL     1      -1.874  -2.458   0.640  1.00  0.00    -0.066 C 
HETATM    5  C10 UNL     1      -2.073  -2.289  -0.700  1.00  0.00     0.008 C 
HETATM    6  C11 UNL     1      -1.572  -1.168  -1.587  1.00  0.00     0.056 C 
HETATM    7  C12 UNL     1      -1.264  -0.070  -0.830  1.00  0.00     0.147 C 
HETATM    8  O2  UNL     1      -2.276   0.919  -0.598  1.00  0.00    -0.309 OA
HETATM    9  C13 UNL     1      -3.572   0.266  -0.415  1.00  0.00     0.353 C 
HETATM   10  O3  UNL     1      -3.627  -0.252   0.912  1.00  0.00    -0.329 OA
HETATM   11  C14 UNL     1      -4.030  -1.588   1.111  1.00  0.00     0.058 A 
HETATM   12  C15 UNL     1      -4.304  -2.933   1.351  1.00  0.00     0.022 A 
HETATM   13  C16 UNL     1      -2.957  -2.511   1.652  1.00  0.00     0.096 A 
HETATM   14  N1  UNL     1      -0.096   0.373  -0.150  1.00  0.00    -0.319 N 
ENDROOT
BRANCH   1  15
HETATM   15  C5  UNL     1       2.181  -0.227   0.152  1.00  0.00    -0.032 A 
HETATM   16  C4  UNL     1       3.202  -0.036   1.091  1.00  0.00     0.009 A 
HETATM   17  C3  UNL     1       4.533   0.217   0.837  1.00  0.00     0.003 A 
HETATM   18  C2  UNL     1       4.887   0.287  -0.494  1.00  0.00     0.036 A 
HETATM   19  C1  UNL     1       3.929   0.107  -1.470  1.00  0.00     0.066 A 
HETATM   20  C23 UNL     1       2.613  -0.143  -1.147  1.00  0.00     0.045 A 
BRANCH  19  21
HETATM   21  O1  UNL     1       4.292   0.179  -2.821  1.00  0.00    -0.361 OA
HETATM   22  H1  UNL     1       4.465  -0.710  -3.297  1.00  0.00     0.217 HD
ENDBRANCH  19  21
ENDBRANCH   1  15
BRANCH  14  23
HETATM   23  C17 UNL     1      -0.017   1.756  -0.339  1.00  0.00     0.037 A 
HETATM   24  C18 UNL     1      -0.598   2.409   0.748  1.00  0.00     0.029 A 
HETATM   25  C19 UNL     1      -0.659   3.806   0.816  1.00  0.00     0.002 A 
HETATM   26  C20 UNL     1      -0.120   4.517  -0.241  1.00  0.00     0.000 A 
HETATM   27  C21 UNL     1       0.462   3.904  -1.332  1.00  0.00     0.002 A 
HETATM   28  C22 UNL     1       0.499   2.532  -1.355  1.00  0.00     0.029 A 
ENDBRANCH  14  23
TORSDOF 3
