REMARK  0 active torsions:
REMARK  status: ('A' for Active; 'I' for Inactive)
ROOT
HETATM    1  C1  UNL     1       1.375   1.693   2.512  1.00  0.00     0.049 C 
HETATM    2  C2  UNL     1       0.856   1.669   1.159  1.00  0.00    -0.055 C 
HETATM    3  C3  UNL     1      -0.429   1.772   0.910  1.00  0.00    -0.017 C 
HETATM    4  C4  UNL     1      -0.964   1.838   2.246  1.00  0.00     0.025 C 
HETATM    5  C5  UNL     1      -2.143   1.878   2.750  1.00  0.00     0.178 A 
HETATM    6  C6  UNL     1      -3.580   1.916   3.195  1.00  0.00     0.169 A 
HETATM    7  N1  UNL     1      -3.409   1.752   1.888  1.00  0.00    -0.247 N 
HETATM    8  N2  UNL     1      -4.342   1.597   1.064  1.00  0.00    -0.340 NA
HETATM    9  C7  UNL     1      -5.299   1.537   0.279  1.00  0.00     0.210 C 
HETATM   10  P1  UNL     1      -5.322  -0.038  -0.661  1.00  0.00    -0.071 P 
HETATM   11  C8  UNL     1      -3.671  -0.535  -1.304  1.00  0.00     0.046 C 
HETATM   12  C9  UNL     1      -3.302  -1.932  -0.814  1.00  0.00     0.018 C 
HETATM   13  C10 UNL     1      -3.293  -2.843  -1.977  1.00  0.00    -0.021 C 
HETATM   14  C11 UNL     1      -2.354  -3.756  -2.153  1.00  0.00    -0.001 C 
HETATM   15  C12 UNL     1      -1.038  -3.639  -1.511  1.00  0.00     0.032 C 
HETATM   16  C13 UNL     1      -0.875  -2.566  -0.757  1.00  0.00     0.047 C 
HETATM   17  C14 UNL     1      -2.028  -1.983  -0.034  1.00  0.00     0.073 C 
HETATM   18  O1  UNL     1       0.440  -2.003  -0.665  1.00  0.00    -0.351 OA
HETATM   19  C15 UNL     1       0.421  -0.632  -0.297  1.00  0.00     0.214 C 
HETATM   20  C16 UNL     1       1.698   0.039  -0.326  1.00  0.00    -0.021 A 
HETATM   21  C17 UNL     1       2.661  -0.601  -1.065  1.00  0.00     0.049 A 
HETATM   22  C18 UNL     1       3.940  -0.042  -1.136  1.00  0.00     0.102 A 
HETATM   23  C19 UNL     1       4.240   1.135  -0.483  1.00  0.00     0.102 A 
HETATM   24  C20 UNL     1       3.287   1.794   0.267  1.00  0.00     0.052 A 
HETATM   25  C21 UNL     1       2.036   1.260   0.347  1.00  0.00    -0.019 A 
HETATM   26  O2  UNL     1       5.458   1.785  -0.480  1.00  0.00    -0.346 OA
HETATM   27  C22 UNL     1       6.633   1.105  -0.969  1.00  0.00     0.202 C 
HETATM   28  C23 UNL     1       6.300  -0.387  -0.995  1.00  0.00     0.202 C 
HETATM   29  O3  UNL     1       5.107  -0.468  -1.794  1.00  0.00    -0.346 OA
HETATM   30  H9  UNL     1      -6.379  -0.131  -1.628  1.00  0.00     0.064 HD
ENDROOT
TORSDOF 0
