REMARK  2 active torsions:
REMARK  status: ('A' for Active; 'I' for Inactive)
REMARK    1  A    between atoms: C5_6  and  C19_22 
REMARK    2  A    between atoms: N2_15  and  C13_16 
ROOT
HETATM    1 CL1  UNL     1      -4.126  -2.260  -0.669  1.00  0.00    -0.084 Cl
HETATM    2  C1  UNL     1      -2.447  -1.882  -0.996  1.00  0.00     0.041 A 
HETATM    3  C2  UNL     1      -1.740  -2.902  -1.564  1.00  0.00     0.024 A 
HETATM    4  C3  UNL     1      -0.417  -2.697  -1.857  1.00  0.00     0.002 A 
HETATM    5  C4  UNL     1       0.094  -1.465  -1.549  1.00  0.00     0.010 A 
HETATM    6  C5  UNL     1      -0.550  -0.357  -0.966  1.00  0.00    -0.025 A 
HETATM    7  C6  UNL     1      -1.921  -0.665  -0.698  1.00  0.00    -0.018 A 
HETATM    8  C7  UNL     1      -2.792   0.232  -0.129  1.00  0.00     0.065 C 
HETATM    9  C8  UNL     1      -2.349   0.261   1.349  1.00  0.00    -0.028 C 
HETATM   10  C9  UNL     1      -1.482   1.258   1.200  1.00  0.00     0.089 A 
HETATM   11  C10 UNL     1      -2.663   2.205   1.085  1.00  0.00     0.042 A 
HETATM   12  C11 UNL     1      -1.527   2.863   0.971  1.00  0.00     0.087 A 
HETATM   13  C12 UNL     1      -0.226   2.132   1.022  1.00  0.00     0.097 A 
HETATM   14  N1  UNL     1       0.867   1.511   1.303  1.00  0.00    -0.201 NA
HETATM   15  N2  UNL     1       1.362   0.695   0.237  1.00  0.00    -0.265 N 
HETATM   16  C19 UNL     1       0.370   0.734  -0.832  1.00  0.00     0.146 C 
HETATM   17  C20 UNL     1      -0.090   2.097  -0.492  1.00  0.00     0.069 C 
HETATM   18  O1  UNL     1      -3.951   1.564   1.199  1.00  0.00    -0.357 OA
HETATM   19  C21 UNL     1      -4.172   0.573   0.055  1.00  0.00     0.188 C 
ENDROOT
BRANCH  15  20
HETATM   20  C13 UNL     1       2.627   0.083   0.473  1.00  0.00     0.053 A 
HETATM   21  C14 UNL     1       3.449  -0.332  -0.555  1.00  0.00     0.031 A 
HETATM   22  C15 UNL     1       4.678  -0.943  -0.413  1.00  0.00     0.002 A 
HETATM   23  C16 UNL     1       5.141  -1.168   0.844  1.00  0.00     0.000 A 
HETATM   24  C17 UNL     1       4.366  -0.777   1.895  1.00  0.00     0.002 A 
HETATM   25  C18 UNL     1       3.143  -0.168   1.714  1.00  0.00     0.031 A 
ENDBRANCH  15  20
TORSDOF 2
