REMARK  0 active torsions:
REMARK  status: ('A' for Active; 'I' for Inactive)
ROOT
HETATM    1  C1  UNL     1      -2.926   2.937  -0.154  1.00  0.00     0.035 C 
HETATM    2  C2  UNL     1      -1.555   2.414   0.215  1.00  0.00     0.115 C 
HETATM    3  N1  UNL     1      -0.711   2.517  -0.930  1.00  0.00    -0.308 N 
HETATM    4  N2  UNL     1       0.347   1.762  -1.372  1.00  0.00    -0.187 NA
HETATM    5  C3  UNL     1       1.012   0.843  -0.792  1.00  0.00     0.042 C 
HETATM    6  C4  UNL     1       2.084   0.323  -1.717  1.00  0.00     0.085 C 
HETATM    7  C5  UNL     1       3.409   0.440  -1.055  1.00  0.00     0.003 C 
HETATM    8  C6  UNL     1       4.050  -0.650  -0.686  1.00  0.00     0.131 C 
HETATM    9  O1  UNL     1       4.479  -1.956  -0.414  1.00  0.00    -0.361 OA
HETATM   10  C7  UNL     1       3.452  -2.926  -0.231  1.00  0.00     0.200 C 
HETATM   11  C8  UNL     1       2.909  -2.724   1.176  1.00  0.00     0.194 C 
HETATM   12  O2  UNL     1       2.396  -1.430   1.286  1.00  0.00    -0.388 OA
HETATM   13  C9  UNL     1       1.312  -1.163   0.496  1.00  0.00     0.178 C 
HETATM   14  C10 UNL     1       0.845   0.296   0.564  1.00  0.00     0.061 C 
HETATM   15  C11 UNL     1      -0.421   0.426   1.236  1.00  0.00     0.034 C 
HETATM   16  C12 UNL     1      -1.638   0.918   0.529  1.00  0.00     0.037 C 
HETATM   17  C13 UNL     1      -2.025   0.158  -0.668  1.00  0.00    -0.013 C 
HETATM   18  C14 UNL     1      -2.953  -0.806  -0.639  1.00  0.00    -0.026 C 
HETATM   19  C15 UNL     1      -3.655  -1.171   0.619  1.00  0.00     0.055 C 
HETATM   20  C16 UNL     1      -3.655  -0.076   1.598  1.00  0.00    -0.003 C 
HETATM   21  C17 UNL     1      -2.740   0.885   1.568  1.00  0.00     0.022 C 
HETATM   22 CL1  UNL     1      -2.834   2.153   2.793  1.00  0.00    -0.088 Cl
HETATM   23  H5  UNL     1      -0.940   3.333  -1.565  1.00  0.00     0.182 HD
ENDROOT
TORSDOF 0
