REMARK  4 active torsions:
REMARK  status: ('A' for Active; 'I' for Inactive)
REMARK    1  A    between atoms: O1_2  and  C2_3 
REMARK    2  A    between atoms: C8_12  and  N3_13 
REMARK    3  A    between atoms: N3_13  and  C9_14 
REMARK    4  A    between atoms: C9_14  and  C10_15 
ROOT
HETATM    1  C2  UNL     1       4.914   0.456  -0.410  1.00  0.00     0.173 C 
HETATM    2  C3  UNL     1       4.928  -0.505  -1.390  1.00  0.00     0.073 C 
HETATM    3  C4  UNL     1       3.851  -1.312  -2.075  1.00  0.00     0.007 C 
HETATM    4  C5  UNL     1       2.513  -1.620  -2.221  1.00  0.00     0.141 C 
HETATM    5  O2  UNL     1       2.105  -0.701  -1.237  1.00  0.00    -0.303 OA
HETATM    6  C6  UNL     1       0.873  -0.860  -0.648  1.00  0.00     0.201 A 
HETATM    7  N1  UNL     1       0.237  -2.021  -0.826  1.00  0.00    -0.215 NA
HETATM    8  C7  UNL     1      -0.956  -2.363  -0.339  1.00  0.00     0.238 A 
HETATM    9  N2  UNL     1      -1.565  -1.442   0.398  1.00  0.00    -0.222 NA
HETATM   10  C8  UNL     1      -1.006  -0.232   0.640  1.00  0.00     0.156 A 
HETATM   11  C16 UNL     1       0.250   0.118   0.124  1.00  0.00     0.129 A 
HETATM   12  N4  UNL     1       0.550   1.441   0.559  1.00  0.00    -0.373 N 
HETATM   13  C17 UNL     1       1.701   1.834   1.409  1.00  0.00     0.214 C 
HETATM   14  C18 UNL     1       2.875   1.353   0.766  1.00  0.00    -0.084 C 
HETATM   15  C19 UNL     1       3.789   0.961   0.249  1.00  0.00    -0.061 C 
HETATM   16  H16 UNL     1      -0.145   2.159   0.223  1.00  0.00     0.160 HD
ENDROOT
BRANCH  10  17
HETATM   17  N3  UNL     1      -1.828   0.585   1.439  1.00  0.00    -0.369 N 
HETATM   18  H8  UNL     1      -1.469   1.544   1.672  1.00  0.00     0.161 HD
BRANCH  17  19
HETATM   19  C9  UNL     1      -3.129   0.319   2.015  1.00  0.00     0.160 C 
BRANCH  19  20
HETATM   20  C10 UNL     1      -4.190   0.060   1.035  1.00  0.00    -0.041 A 
HETATM   21  C11 UNL     1      -4.678  -1.120   0.518  1.00  0.00     0.009 A 
HETATM   22  C12 UNL     1      -5.688  -1.140  -0.419  1.00  0.00     0.001 A 
HETATM   23  C13 UNL     1      -6.286   0.003  -0.908  1.00  0.00     0.000 A 
HETATM   24  C14 UNL     1      -5.817   1.199  -0.406  1.00  0.00     0.001 A 
HETATM   25  C15 UNL     1      -4.805   1.213   0.531  1.00  0.00     0.009 A 
ENDBRANCH  19  20
ENDBRANCH  17  19
ENDBRANCH  10  17
BRANCH   1  26
HETATM   26  O1  UNL     1       6.212   0.824  -0.200  1.00  0.00    -0.367 OA
HETATM   27  C1  UNL     1       6.963   0.596   0.962  1.00  0.00     0.204 C 
ENDBRANCH   1  26
TORSDOF 4
