REMARK  2 active torsions:
REMARK  status: ('A' for Active; 'I' for Inactive)
REMARK    1  A    between atoms: C5_6  and  C6_7 
REMARK    2  A    between atoms: C13_16  and  C14_17 
ROOT
HETATM    1  C6  UNL     1      -1.679  -1.006  -0.423  1.00  0.00     0.172 C 
HETATM    2  C7  UNL     1      -0.659   0.029   0.093  1.00  0.00     0.002 C 
HETATM    3  C8  UNL     1      -0.719   1.194   0.736  1.00  0.00     0.012 C 
HETATM    4  C9  UNL     1      -1.793   2.254   0.576  1.00  0.00    -0.003 C 
HETATM    5  C10 UNL     1      -2.640   2.365  -0.504  1.00  0.00    -0.025 C 
HETATM    6  C11 UNL     1      -2.848   1.750  -1.821  1.00  0.00     0.048 C 
HETATM    7  C12 UNL     1      -2.219   0.601  -2.388  1.00  0.00     0.149 C 
HETATM    8  N1  UNL     1      -1.367  -0.326  -1.732  1.00  0.00    -0.291 N 
HETATM    9  N2  UNL     1      -0.053  -0.961  -1.743  1.00  0.00    -0.175 NA
HETATM   10  C13 UNL     1       0.502  -0.589  -0.562  1.00  0.00     0.096 C 
ENDROOT
BRANCH  10  11
HETATM   11  C14 UNL     1       1.770  -0.496   0.148  1.00  0.00    -0.002 A 
HETATM   12  C15 UNL     1       2.294  -0.225   1.343  1.00  0.00     0.017 A 
HETATM   13  C16 UNL     1       3.639  -0.153   1.559  1.00  0.00     0.040 A 
HETATM   14  C17 UNL     1       4.572  -0.353   0.576  1.00  0.00     0.102 A 
HETATM   15  C18 UNL     1       4.088  -0.643  -0.700  1.00  0.00     0.103 A 
HETATM   16  O2  UNL     1       5.917  -0.253   0.916  1.00  0.00    -0.346 OA
HETATM   17  C19 UNL     1       2.708  -0.709  -0.889  1.00  0.00     0.053 A 
HETATM   18  O1  UNL     1       5.114  -0.825  -1.601  1.00  0.00    -0.346 OA
HETATM   19  C20 UNL     1       6.435  -1.164  -1.268  1.00  0.00     0.202 C 
HETATM   20  C21 UNL     1       6.950  -0.556  -0.006  1.00  0.00     0.202 C 
ENDBRANCH  10  11
BRANCH   1  21
HETATM   21  C5  UNL     1      -3.008  -0.782   0.090  1.00  0.00    -0.028 A 
HETATM   22  C4  UNL     1      -2.992  -0.379   1.434  1.00  0.00     0.010 A 
HETATM   23  C3  UNL     1      -4.187  -0.127   2.119  1.00  0.00     0.002 A 
HETATM   24  C2  UNL     1      -5.407  -0.266   1.497  1.00  0.00     0.024 A 
HETATM   25  C1  UNL     1      -5.458  -0.659   0.181  1.00  0.00     0.034 A 
HETATM   26 CL1  UNL     1      -6.928  -0.878  -0.739  1.00  0.00    -0.084 Cl
HETATM   27  C22 UNL     1      -4.265  -0.896  -0.451  1.00  0.00     0.033 A 
ENDBRANCH   1  21
TORSDOF 2
