REMARK  1 active torsions:
REMARK  status: ('A' for Active; 'I' for Inactive)
REMARK    1  A    between atoms: C2_2  and  C3_3 
ROOT
HETATM    1  C1  UNL     1       0.311  -1.467   1.652  1.00  0.00     0.007 C 
HETATM    2  C2  UNL     1       0.380  -0.654   0.552  1.00  0.00    -0.014 C 
HETATM    3  C9  UNL     1      -0.882  -0.325  -0.187  1.00  0.00     0.023 A 
HETATM    4  C10 UNL     1      -1.977  -1.069  -0.735  1.00  0.00    -0.000 A 
HETATM    5  C11 UNL     1      -2.968  -0.487  -1.430  1.00  0.00     0.017 A 
HETATM    6  C12 UNL     1      -2.968   0.867  -1.642  1.00  0.00     0.040 A 
HETATM    7  C13 UNL     1      -1.932   1.602  -1.122  1.00  0.00     0.103 A 
HETATM    8  C14 UNL     1      -0.895   1.053  -0.404  1.00  0.00     0.114 A 
HETATM    9  O1  UNL     1       0.071   1.934   0.063  1.00  0.00    -0.345 OA
HETATM   10  C15 UNL     1      -0.286   3.263   0.399  1.00  0.00     0.202 C 
HETATM   11  C16 UNL     1      -1.161   3.877  -0.663  1.00  0.00     0.202 C 
HETATM   12  O2  UNL     1      -1.969   2.965  -1.354  1.00  0.00    -0.346 OA
HETATM   13  C17 UNL     1      -1.965  -2.507  -0.398  1.00  0.00     0.052 A 
HETATM   14  N1  UNL     1      -2.383  -3.066   0.754  1.00  0.00    -0.176 NA
HETATM   15  N2  UNL     1      -1.006  -3.412   0.858  1.00  0.00    -0.319 N 
HETATM   16  C18 UNL     1      -0.232  -2.856   1.952  1.00  0.00     0.167 C 
HETATM   17  C19 UNL     1      -1.846  -3.969  -0.265  1.00  0.00     0.273 A 
ENDROOT
BRANCH   2  18
HETATM   18  C3  UNL     1       1.698  -0.146   0.161  1.00  0.00    -0.025 A 
HETATM   19  C4  UNL     1       2.025   0.475  -1.017  1.00  0.00     0.012 A 
HETATM   20  C5  UNL     1       3.290   0.951  -1.244  1.00  0.00     0.001 A 
HETATM   21  C6  UNL     1       4.279   0.819  -0.295  1.00  0.00     0.000 A 
HETATM   22  C7  UNL     1       3.899   0.189   0.865  1.00  0.00     0.001 A 
HETATM   23  C8  UNL     1       2.654  -0.299   1.133  1.00  0.00     0.012 A 
ENDBRANCH   2  18
TORSDOF 1
