REMARK  9 active torsions:
REMARK  status: ('A' for Active; 'I' for Inactive)
REMARK    1  A    between atoms: O1_1  and  C1_2 
REMARK    2  A    between atoms: C2_3  and  C3_4 
REMARK    3  A    between atoms: C3_4  and  C4_5 
REMARK    4  A    between atoms: C4_5  and  C5_6 
REMARK    5  A    between atoms: C5_6  and  N1_7 
REMARK    6  A    between atoms: N1_7  and  C6_8 
REMARK    7  A    between atoms: C9_13  and  N4_14 
REMARK    8  A    between atoms: N4_14  and  C10_15 
REMARK    9  A    between atoms: C10_15  and  C11_16 
ROOT
HETATM    1  C6  UNL     1       0.173  -1.196   0.889  1.00  0.00     0.092 A 
HETATM    2  C7  UNL     1       0.474  -2.440   0.404  1.00  0.00     0.151 A 
HETATM    3  N2  UNL     1      -0.428  -3.400   0.085  1.00  0.00    -0.252 NA
HETATM    4  C8  UNL     1      -1.747  -3.116   0.258  1.00  0.00     0.235 A 
HETATM    5  N3  UNL     1      -2.051  -1.899   0.734  1.00  0.00    -0.222 NA
HETATM    6  C9  UNL     1      -1.171  -0.942   1.052  1.00  0.00     0.153 A 
ENDROOT
BRANCH   1   7
HETATM    7  N1  UNL     1       1.138  -0.240   1.223  1.00  0.00    -0.386 N 
HETATM    8  H10 UNL     1       0.860   0.683   1.613  1.00  0.00     0.159 HD
BRANCH   7   9
HETATM    9  C5  UNL     1       2.582  -0.270   1.126  1.00  0.00     0.120 C 
BRANCH   9  10
HETATM   10  C4  UNL     1       3.009  -0.203  -0.303  1.00  0.00     0.023 C 
BRANCH  10  11
HETATM   11  C3  UNL     1       4.495  -0.230  -0.522  1.00  0.00     0.030 C 
BRANCH  11  12
HETATM   12  C2  UNL     1       5.211   0.876   0.114  1.00  0.00    -0.003 C 
HETATM   13  C1  UNL     1       5.939   1.753  -0.573  1.00  0.00     0.127 C 
BRANCH  13  14
HETATM   14  O1  UNL     1       5.990   1.564  -1.967  1.00  0.00    -0.373 OA
HETATM   15  H1  UNL     1       6.886   1.405  -2.434  1.00  0.00     0.216 HD
ENDBRANCH  13  14
ENDBRANCH  11  12
ENDBRANCH  10  11
ENDBRANCH   9  10
ENDBRANCH   7   9
ENDBRANCH   1   7
BRANCH   6  16
HETATM   16  N4  UNL     1      -1.736   0.259   1.537  1.00  0.00    -0.369 N 
HETATM   17  H13 UNL     1      -1.033   0.986   1.779  1.00  0.00     0.161 HD
BRANCH  16  18
HETATM   18  C10 UNL     1      -3.092   0.651   1.751  1.00  0.00     0.160 C 
BRANCH  18  19
HETATM   19  C11 UNL     1      -3.839   0.645   0.469  1.00  0.00    -0.041 A 
HETATM   20  C12 UNL     1      -4.618  -0.321  -0.120  1.00  0.00     0.009 A 
HETATM   21  C13 UNL     1      -5.203  -0.089  -1.338  1.00  0.00     0.001 A 
HETATM   22  C14 UNL     1      -5.055   1.092  -2.034  1.00  0.00     0.000 A 
HETATM   23  C15 UNL     1      -4.273   2.068  -1.445  1.00  0.00     0.001 A 
HETATM   24  C16 UNL     1      -3.693   1.838  -0.237  1.00  0.00     0.009 A 
ENDBRANCH  18  19
ENDBRANCH  16  18
ENDBRANCH   6  16
TORSDOF 9
