REMARK  3 active torsions:
REMARK  status: ('A' for Active; 'I' for Inactive)
REMARK    1  A    between atoms: C2_3  and  C3_4 
REMARK    2  A    between atoms: C4_5  and  C5_6 
REMARK    3  A    between atoms: C5_6  and  C6_7 
ROOT
HETATM    1 CL1  UNL     1       5.715   0.551  -4.912  1.00  0.00    -0.023 Cl
HETATM    2  C1  UNL     1       4.645  -0.543  -4.061  1.00  0.00     0.009 C 
HETATM    3  C2  UNL     1       3.904  -1.326  -3.473  1.00  0.00    -0.062 C 
ENDROOT
BRANCH   3   4
HETATM    4  C3  UNL     1       3.038  -2.234  -2.783  1.00  0.00     0.061 C 
HETATM    5  C4  UNL     1       1.996  -1.698  -2.155  1.00  0.00    -0.016 C 
BRANCH   5   6
HETATM    6  C5  UNL     1       0.812  -2.121  -1.313  1.00  0.00     0.063 C 
BRANCH   6   7
HETATM    7  C6  UNL     1       0.845  -1.505   0.025  1.00  0.00     0.231 C 
HETATM    8  N1  UNL     1       0.833  -0.029   0.089  1.00  0.00     0.098 N 
HETATM    9  C7  UNL     1       0.383  -0.217   1.436  1.00  0.00     0.257 C 
HETATM   10  H6  UNL     1       1.798   0.373  -0.008  1.00  0.00     0.317 HD
HETATM   11  C8  UNL     1      -0.418   0.868   2.021  1.00  0.00    -0.038 A 
HETATM   12  C18 UNL     1      -0.347  -1.453   0.904  1.00  0.00     0.057 C 
HETATM   13  C9  UNL     1      -0.955   1.228   3.253  1.00  0.00     0.003 A 
HETATM   14  C13 UNL     1      -1.132   1.752   1.278  1.00  0.00     0.062 A 
HETATM   15  C10 UNL     1      -1.917   2.263   3.120  1.00  0.00    -0.010 A 
HETATM   16  C11 UNL     1      -1.955   2.529   1.809  1.00  0.00     0.029 A 
HETATM   17  C12 UNL     1      -1.973   2.773   0.511  1.00  0.00    -0.051 A 
HETATM   18  O2  UNL     1      -1.967   2.528   0.349  1.00  0.00     0.000 OA
HETATM   19  O1  UNL     1      -1.995   3.055  -0.986  1.00  0.00     0.000 OA
HETATM   20  C14 UNL     1      -1.459   1.664  -1.327  1.00  0.00     0.012 C 
HETATM   21  C15 UNL     1      -1.917   0.998  -0.020  1.00  0.00    -0.016 C 
HETATM   22  C16 UNL     1      -2.178   0.029   0.855  1.00  0.00     0.001 C 
HETATM   23  C17 UNL     1      -1.679  -1.109   0.118  1.00  0.00     0.015 C 
ENDBRANCH   6   7
ENDBRANCH   5   6
ENDBRANCH   3   4
TORSDOF 3
