REMARK  5 active torsions:
REMARK  status: ('A' for Active; 'I' for Inactive)
REMARK    1  A    between atoms: C2_2  and  N1_11 
REMARK    2  A    between atoms: C3_3  and  C4_4 
REMARK    3  A    between atoms: C11_14  and  O3_15 
REMARK    4  A    between atoms: O3_15  and  C12_16 
REMARK    5  A    between atoms: C12_16  and  C13_17 
ROOT
HETATM    1  N1  UNL     1       0.872  -0.822  -0.085  1.00  0.00    -0.286 N 
HETATM    2  C9  UNL     1      -0.365  -0.147   0.005  1.00  0.00     0.158 C 
HETATM    3  C10 UNL     1      -1.705  -0.205  -0.102  1.00  0.00     0.039 C 
HETATM    4  C11 UNL     1      -3.094  -0.662  -0.316  1.00  0.00     0.067 C 
HETATM    5  C19 UNL     1      -3.401  -1.879  -0.655  1.00  0.00     0.036 C 
HETATM    6  C20 UNL     1      -2.852  -3.163  -0.953  1.00  0.00     0.005 C 
HETATM    7  C21 UNL     1      -1.663  -3.761  -1.025  1.00  0.00     0.030 C 
HETATM    8  C22 UNL     1      -0.198  -3.570  -0.872  1.00  0.00     0.044 C 
HETATM    9  C23 UNL     1       0.435  -4.049  -1.968  1.00  0.00     0.030 C 
HETATM   10  C24 UNL     1       1.845  -4.036  -2.443  1.00  0.00    -0.001 C 
HETATM   11  C25 UNL     1       2.729  -3.304  -1.757  1.00  0.00    -0.009 C 
HETATM   12  C26 UNL     1       2.583  -2.055  -0.976  1.00  0.00     0.166 C 
HETATM   13  N2  UNL     1       1.621  -2.027   0.044  1.00  0.00    -0.133 NA
HETATM   14  N3  UNL     1       0.681  -3.016   0.127  1.00  0.00    -0.301 N 
HETATM   15  H29 UNL     1       0.480  -3.529   1.021  1.00  0.00     0.183 HD
ENDROOT
BRANCH   1  16
HETATM   16  C2  UNL     1       1.623   0.317  -0.497  1.00  0.00     0.022 C 
HETATM   17  C1  UNL     1       1.464   1.366  -1.565  1.00  0.00     0.069 C 
HETATM   18  C3  UNL     1       2.736   0.543   0.209  1.00  0.00     0.028 C 
BRANCH  18  19
HETATM   19  C4  UNL     1       3.643   1.667  -0.057  1.00  0.00     0.036 C 
HETATM   20  C5  UNL     1       4.761   1.915   0.624  1.00  0.00     0.070 C 
HETATM   21  C6  UNL     1       5.073   0.953   1.729  1.00  0.00     0.232 C 
HETATM   22  O2  UNL     1       5.547   2.989   0.308  1.00  0.00    -0.351 OA
HETATM   23  O1  UNL     1       6.302   1.311   2.258  1.00  0.00    -0.383 OA
HETATM   24  C7  UNL     1       7.232   1.525   1.230  1.00  0.00     0.194 C 
HETATM   25  C8  UNL     1       6.959   2.843   0.526  1.00  0.00     0.201 C 
ENDBRANCH  18  19
ENDBRANCH   1  16
BRANCH   4  26
HETATM   26  O3  UNL     1      -3.972   0.382  -0.102  1.00  0.00    -0.347 OA
BRANCH  26  27
HETATM   27  C12 UNL     1      -4.773   0.411   1.060  1.00  0.00     0.214 C 
BRANCH  27  28
HETATM   28  C13 UNL     1      -5.720   1.583   1.065  1.00  0.00    -0.034 A 
HETATM   29  C14 UNL     1      -5.431   2.823   1.595  1.00  0.00     0.009 A 
HETATM   30  C15 UNL     1      -6.386   3.828   1.542  1.00  0.00     0.001 A 
HETATM   31  C16 UNL     1      -7.613   3.548   0.953  1.00  0.00     0.000 A 
HETATM   32  C17 UNL     1      -7.929   2.322   0.418  1.00  0.00     0.001 A 
HETATM   33  C18 UNL     1      -6.968   1.343   0.480  1.00  0.00     0.009 A 
ENDBRANCH  27  28
ENDBRANCH  26  27
ENDBRANCH   4  26
TORSDOF 5
