REMARK  4 active torsions:
REMARK  status: ('A' for Active; 'I' for Inactive)
REMARK    1  A    between atoms: C6_7  and  N1_8 
REMARK    2  A    between atoms: N1_8  and  N2_9 
REMARK    3  A    between atoms: N1_8  and  C16_21 
REMARK    4  A    between atoms: N2_9  and  C7_10 
ROOT
HETATM    1  N1  UNL     1      -1.354  -0.034  -0.363  1.00  0.00    -0.259 N 
ENDROOT
BRANCH   1   2
HETATM    2  C6  UNL     1      -1.638  -1.419  -0.059  1.00  0.00     0.158 A 
HETATM    3  C1  UNL     1      -2.439  -1.614   1.183  1.00  0.00     0.037 A 
HETATM    4 CL1  UNL     1      -1.513  -0.890   2.518  1.00  0.00    -0.087 Cl
HETATM    5  C2  UNL     1      -3.626  -2.167   1.375  1.00  0.00     0.021 A 
HETATM    6  C3  UNL     1      -4.302  -2.740   0.218  1.00  0.00    -0.002 A 
HETATM    7  C4  UNL     1      -3.650  -2.651  -0.901  1.00  0.00    -0.024 A 
HETATM    8  C5  UNL     1      -2.346  -2.081  -1.233  1.00  0.00     0.060 A 
ENDBRANCH   1   2
BRANCH   1   9
HETATM    9  N2  UNL     1      -0.361  -0.068  -1.362  1.00  0.00    -0.172 NA
BRANCH   9  10
HETATM   10  C7  UNL     1       0.895  -0.015  -1.176  1.00  0.00     0.080 A 
HETATM   11  C8  UNL     1       1.535  -0.077  -2.420  1.00  0.00     0.033 A 
HETATM   12  C9  UNL     1       2.889  -0.177  -2.750  1.00  0.00     0.005 A 
HETATM   13  C10 UNL     1       3.947  -0.121  -1.893  1.00  0.00     0.040 A 
HETATM   14  C11 UNL     1       3.924  -0.087  -0.515  1.00  0.00     0.102 A 
HETATM   15  C12 UNL     1       2.850   0.004   0.355  1.00  0.00     0.104 A 
HETATM   16  O2  UNL     1       5.153  -0.153   0.121  1.00  0.00    -0.346 OA
HETATM   17  C13 UNL     1       1.504   0.085   0.062  1.00  0.00     0.073 A 
HETATM   18  O1  UNL     1       2.996   0.027   1.755  1.00  0.00    -0.346 OA
HETATM   19  C14 UNL     1       4.271   0.185   2.333  1.00  0.00     0.202 C 
HETATM   20  C15 UNL     1       5.272  -0.568   1.486  1.00  0.00     0.202 C 
ENDBRANCH   9  10
ENDBRANCH   1   9
BRANCH   1  21
HETATM   21  C16 UNL     1      -1.756   1.299  -0.063  1.00  0.00     0.053 A 
HETATM   22  C17 UNL     1      -1.106   2.436  -0.555  1.00  0.00     0.031 A 
HETATM   23  C18 UNL     1      -1.632   3.637  -0.204  1.00  0.00     0.002 A 
HETATM   24  C19 UNL     1      -2.743   3.812   0.589  1.00  0.00     0.000 A 
HETATM   25  C20 UNL     1      -3.383   2.701   1.073  1.00  0.00     0.002 A 
HETATM   26  C21 UNL     1      -2.872   1.465   0.733  1.00  0.00     0.031 A 
ENDBRANCH   1  21
TORSDOF 4
