REMARK  6 active torsions:
REMARK  status: ('A' for Active; 'I' for Inactive)
REMARK    1  A    between atoms: N1_2  and  C3_4 
REMARK    2  A    between atoms: C6_7  and  C7_8 
REMARK    3  A    between atoms: C7_8  and  C8_9 
REMARK    4  A    between atoms: C8_9  and  C9_10 
REMARK    5  A    between atoms: C13_15  and  N2_16 
REMARK    6  A    between atoms: C18_21  and  N3_22 
ROOT
HETATM    1  C9  UNL     1      -0.915  -1.235  -0.814  1.00  0.00     0.046 C 
HETATM    2  C10 UNL     1      -1.291  -2.501  -0.905  1.00  0.00     0.034 C 
HETATM    3  C11 UNL     1      -2.601  -3.183  -0.827  1.00  0.00     0.026 C 
HETATM    4  C12 UNL     1      -3.801  -2.756  -0.463  1.00  0.00     0.137 C 
HETATM    5  O1  UNL     1      -4.197  -1.501  -0.034  1.00  0.00    -0.335 OA
HETATM    6  C13 UNL     1      -4.051  -0.137  -0.456  1.00  0.00     0.258 C 
HETATM    7  C19 UNL     1      -2.774   0.381   0.140  1.00  0.00     0.229 C 
HETATM    8  O2  UNL     1      -1.638  -0.071  -0.608  1.00  0.00    -0.351 OA
ENDROOT
BRANCH   1   9
HETATM    9  C8  UNL     1       0.569  -1.012  -0.962  1.00  0.00     0.069 C 
BRANCH   9  10
HETATM   10  C7  UNL     1       1.011  -0.356   0.353  1.00  0.00     0.045 C 
BRANCH  10  11
HETATM   11  C6  UNL     1       2.466  -0.098   0.304  1.00  0.00    -0.058 A 
HETATM   12  C5  UNL     1       2.993   1.080  -0.178  1.00  0.00     0.009 A 
HETATM   13  C4  UNL     1       4.343   1.341  -0.231  1.00  0.00     0.030 A 
HETATM   14  C3  UNL     1       5.257   0.412   0.209  1.00  0.00     0.029 A 
HETATM   15  C21 UNL     1       4.753  -0.770   0.694  1.00  0.00     0.030 A 
HETATM   16  C20 UNL     1       3.396  -1.022   0.742  1.00  0.00     0.009 A 
BRANCH  14  17
HETATM   17  N1  UNL     1       6.664   0.583   0.198  1.00  0.00    -0.390 N 
HETATM   18  C1  UNL     1       7.708  -0.304   0.627  1.00  0.00     0.149 C 
HETATM   19  C2  UNL     1       7.385   1.747  -0.268  1.00  0.00     0.149 C 
ENDBRANCH  14  17
ENDBRANCH  10  11
ENDBRANCH   9  10
ENDBRANCH   1   9
BRANCH   6  20
HETATM   20  N2  UNL     1      -5.219   0.592  -0.070  1.00  0.00    -0.313 N 
HETATM   21  C14 UNL     1      -6.459   0.160  -0.673  1.00  0.00     0.095 C 
HETATM   22  C15 UNL     1      -7.559   0.838  -0.310  1.00  0.00     0.018 C 
HETATM   23  C16 UNL     1      -7.587   1.969   0.642  1.00  0.00     0.017 C 
HETATM   24  C17 UNL     1      -6.371   2.475   0.792  1.00  0.00     0.022 C 
HETATM   25  C18 UNL     1      -5.342   1.683   0.831  1.00  0.00     0.114 C 
BRANCH  25  26
HETATM   26  N3  UNL     1      -4.283   1.838   1.762  1.00  0.00    -0.385 N 
HETATM   27  H20 UNL     1      -3.492   2.075   2.396  1.00  0.00     0.157 HD
HETATM   28  H21 UNL     1      -3.611   2.625   2.007  1.00  0.00     0.157 HD
ENDBRANCH  25  26
ENDBRANCH   6  20
TORSDOF 6
