REMARK  1 active torsions:
REMARK  status: ('A' for Active; 'I' for Inactive)
REMARK    1  A    between atoms: N2_4  and  C3_5 
ROOT
HETATM    1  C1  UNL     1      -3.033  -2.572  -2.398  1.00  0.00     0.144 C 
HETATM    2  N1  UNL     1      -3.071  -1.965  -1.046  1.00  0.00    -0.399 N 
HETATM    3  C2  UNL     1      -2.877  -0.541  -0.833  1.00  0.00     0.270 C 
HETATM    4  N2  UNL     1      -1.628   0.126  -0.655  1.00  0.00    -0.252 N 
HETATM    5  N3  UNL     1      -0.229   0.350  -0.448  1.00  0.00    -0.174 NA
HETATM    6  C9  UNL     1       0.507  -0.625   0.210  1.00  0.00     0.068 C 
HETATM    7  C10 UNL     1       1.894  -0.597   0.518  1.00  0.00    -0.007 A 
HETATM    8  C11 UNL     1       2.647  -1.537   1.168  1.00  0.00     0.016 A 
HETATM    9  C12 UNL     1       3.986  -1.293   1.368  1.00  0.00     0.040 A 
HETATM   10  C13 UNL     1       4.594  -0.133   0.937  1.00  0.00     0.102 A 
HETATM   11  C14 UNL     1       3.811   0.797   0.286  1.00  0.00     0.103 A 
HETATM   12  C15 UNL     1       2.446   0.575   0.068  1.00  0.00     0.053 A 
HETATM   13  O1  UNL     1       4.524   1.910  -0.095  1.00  0.00    -0.346 OA
HETATM   14  C16 UNL     1       5.596   2.294   0.765  1.00  0.00     0.202 C 
HETATM   15  C17 UNL     1       6.609   1.176   0.812  1.00  0.00     0.202 C 
HETATM   16  O2  UNL     1       5.944  -0.006   1.198  1.00  0.00    -0.346 OA
HETATM   17  C18 UNL     1      -0.392  -1.655   0.475  1.00  0.00     0.081 A 
HETATM   18  C19 UNL     1      -1.410  -2.627   0.686  1.00  0.00    -0.095 A 
HETATM   19  C20 UNL     1      -0.200  -3.199   0.113  1.00  0.00    -0.025 A 
HETATM   20  B1  UNL     1      -2.118  -4.379  -0.206  1.00  0.00     0.188 B 
HETATM   21  C21 UNL     1      -3.245  -2.943   0.105  1.00  0.00     0.002 A 
HETATM   22  C22 UNL     1      -4.083  -2.312   0.832  1.00  0.00     0.019 A 
HETATM   23  C23 UNL     1      -2.699  -2.074   1.232  1.00  0.00     0.034 A 
ENDROOT
BRANCH   4  24
HETATM   24  C3  UNL     1      -1.940   1.570  -0.635  1.00  0.00     0.054 A 
HETATM   25  C4  UNL     1      -2.843   1.990   0.352  1.00  0.00     0.031 A 
HETATM   26  C5  UNL     1      -3.276   3.307   0.511  1.00  0.00     0.002 A 
HETATM   27  C6  UNL     1      -2.768   4.231  -0.373  1.00  0.00     0.000 A 
HETATM   28  C7  UNL     1      -1.878   3.900  -1.371  1.00  0.00     0.002 A 
HETATM   29  C8  UNL     1      -1.499   2.574  -1.459  1.00  0.00     0.031 A 
ENDBRANCH   4  24
TORSDOF 1
