REMARK  8 active torsions:
REMARK  status: ('A' for Active; 'I' for Inactive)
REMARK    1  A    between atoms: C2_2  and  C3_3 
REMARK    2  A    between atoms: C3_3  and  N1_4 
REMARK    3  A    between atoms: N1_4  and  C5_6 
REMARK    4  A    between atoms: C5_6  and  C6_7 
REMARK    5  A    between atoms: C5_6  and  C16_19 
REMARK    6  A    between atoms: C6_7  and  C7_8 
REMARK    7  A    between atoms: C7_8  and  C8_9 
REMARK    8  A    between atoms: C19_22  and  N2_23 
ROOT
HETATM    1  C5  UNL     1      -0.901   1.457   0.064  1.00  0.00     0.112 C 
ENDROOT
BRANCH   1   2
HETATM    2  N1  UNL     1      -0.887   2.036   1.321  1.00  0.00    -0.405 N 
HETATM    3  C4  UNL     1      -1.263   1.445   2.504  1.00  0.00     0.144 C 
BRANCH   2   4
HETATM    4  C3  UNL     1      -0.163   3.256   1.417  1.00  0.00     0.143 C 
BRANCH   4   5
HETATM    5  C2  UNL     1      -1.080   4.334   1.941  1.00  0.00    -0.018 C 
HETATM    6  C1  UNL     1      -2.371   4.174   2.265  1.00  0.00     0.008 C 
ENDBRANCH   4   5
ENDBRANCH   2   4
ENDBRANCH   1   2
BRANCH   1   7
HETATM    7  C6  UNL     1       0.480   1.068  -0.464  1.00  0.00     0.034 C 
BRANCH   7   8
HETATM    8  C7  UNL     1       1.181   0.070   0.411  1.00  0.00     0.041 C 
BRANCH   8   9
HETATM    9  C8  UNL     1       2.515  -0.275  -0.144  1.00  0.00    -0.055 A 
HETATM   10  C9  UNL     1       2.649  -1.313  -1.053  1.00  0.00     0.010 A 
HETATM   11  C10 UNL     1       3.843  -1.711  -1.616  1.00  0.00     0.040 A 
HETATM   12  C11 UNL     1       4.991  -1.011  -1.236  1.00  0.00     0.102 A 
HETATM   13  C12 UNL     1       4.867   0.025  -0.329  1.00  0.00     0.102 A 
HETATM   14  O2  UNL     1       6.243  -1.338  -1.751  1.00  0.00    -0.346 OA
HETATM   15  C13 UNL     1       3.657   0.406   0.222  1.00  0.00     0.046 A 
HETATM   16  O1  UNL     1       6.091   0.619  -0.052  1.00  0.00    -0.346 OA
HETATM   17  C14 UNL     1       7.244  -0.201   0.120  1.00  0.00     0.202 C 
HETATM   18  C15 UNL     1       7.448  -1.119  -1.062  1.00  0.00     0.202 C 
ENDBRANCH   8   9
ENDBRANCH   7   8
ENDBRANCH   1   7
BRANCH   1  19
HETATM   19  C16 UNL     1      -1.890   0.389  -0.204  1.00  0.00    -0.036 A 
HETATM   20  C17 UNL     1      -2.121  -0.721   0.568  1.00  0.00     0.011 A 
HETATM   21  C18 UNL     1      -3.051  -1.703   0.308  1.00  0.00     0.030 A 
HETATM   22  C19 UNL     1      -3.838  -1.590  -0.823  1.00  0.00     0.029 A 
HETATM   23  C22 UNL     1      -3.677  -0.517  -1.651  1.00  0.00     0.030 A 
HETATM   24  C23 UNL     1      -2.738   0.407  -1.323  1.00  0.00     0.011 A 
BRANCH  22  25
HETATM   25  N2  UNL     1      -4.791  -2.602  -1.085  1.00  0.00    -0.390 N 
HETATM   26  C20 UNL     1      -4.916  -3.722  -0.175  1.00  0.00     0.149 C 
HETATM   27  C21 UNL     1      -5.622  -2.490  -2.266  1.00  0.00     0.149 C 
ENDBRANCH  22  25
ENDBRANCH   1  19
TORSDOF 8
