REMARK  9 active torsions:
REMARK  status: ('A' for Active; 'I' for Inactive)
REMARK    1  A    between atoms: C2_2  and  C3_3 
REMARK    2  A    between atoms: C4_4  and  C5_5 
REMARK    3  A    between atoms: C6_6  and  C7_7 
REMARK    4  A    between atoms: C8_9  and  C9_10 
REMARK    5  A    between atoms: C12_13  and  N2_14 
REMARK    6  A    between atoms: C18_20  and  O1_21 
REMARK    7  A    between atoms: O1_21  and  C19_22 
REMARK    8  A    between atoms: C19_22  and  C20_23 
REMARK    9  A    between atoms: C20_23  and  O2_24 
ROOT
HETATM    1  C7  UNL     1       1.286  -0.353  -2.217  1.00  0.00     0.146 A 
HETATM    2  N1  UNL     1       0.965  -0.295  -0.997  1.00  0.00    -0.245 NA
HETATM    3  C8  UNL     1      -0.419   0.237  -0.912  1.00  0.00     0.142 A 
HETATM    4  C16 UNL     1      -1.274  -0.837  -0.299  1.00  0.00     0.028 C 
HETATM    5  C17 UNL     1      -2.558  -0.560  -0.655  1.00  0.00    -0.017 C 
HETATM    6  C18 UNL     1      -3.411  -1.602  -0.077  1.00  0.00     0.075 C 
HETATM    7  C21 UNL     1      -4.722  -1.655  -0.414  1.00  0.00     0.037 C 
HETATM    8  C22 UNL     1      -5.259  -0.654  -1.327  1.00  0.00    -0.001 C 
HETATM    9  C23 UNL     1      -4.492   0.311  -1.798  1.00  0.00    -0.017 C 
HETATM   10  C24 UNL     1      -3.087   0.534  -1.491  1.00  0.00     0.049 C 
HETATM   11  C25 UNL     1      -2.167   0.926  -2.605  1.00  0.00     0.071 C 
HETATM   12  C26 UNL     1      -0.780   0.412  -2.304  1.00  0.00     0.054 A 
HETATM   13  N3  UNL     1       0.216   0.082  -3.045  1.00  0.00    -0.235 NA
ENDROOT
BRANCH   3  14
HETATM   14  C9  UNL     1      -0.245   1.410  -0.047  1.00  0.00    -0.018 A 
HETATM   15  C10 UNL     1       0.937   2.174  -0.143  1.00  0.00     0.012 A 
HETATM   16  C11 UNL     1       1.270   3.255   0.641  1.00  0.00     0.030 A 
HETATM   17  C12 UNL     1       0.400   3.650   1.606  1.00  0.00     0.027 A 
HETATM   18  C14 UNL     1      -0.793   2.991   1.808  1.00  0.00     0.030 A 
HETATM   19  C15 UNL     1      -1.022   1.925   0.970  1.00  0.00     0.012 A 
BRANCH  17  20
HETATM   20  N2  UNL     1       0.677   4.746   2.454  1.00  0.00    -0.394 N 
HETATM   21  C13 UNL     1       1.807   5.641   2.523  1.00  0.00     0.146 C 
HETATM   22  H10 UNL     1       0.021   5.069   3.215  1.00  0.00     0.159 HD
ENDBRANCH  17  20
ENDBRANCH   3  14
BRANCH   1  23
HETATM   23  C6  UNL     1       2.585  -0.820  -2.756  1.00  0.00     0.052 C 
HETATM   24  C5  UNL     1       3.484  -1.219  -1.895  1.00  0.00     0.004 C 
BRANCH  24  25
HETATM   25  C4  UNL     1       4.702  -1.649  -2.549  1.00  0.00     0.000 C 
HETATM   26  C3  UNL     1       5.620  -2.061  -1.647  1.00  0.00    -0.001 C 
BRANCH  26  27
HETATM   27  C2  UNL     1       6.890  -2.583  -1.190  1.00  0.00    -0.010 C 
HETATM   28  C1  UNL     1       7.898  -3.015  -0.509  1.00  0.00     0.011 C 
ENDBRANCH  26  27
ENDBRANCH  24  25
ENDBRANCH   1  23
BRANCH   6  29
HETATM   29  O1  UNL     1      -3.187  -2.642   0.810  1.00  0.00    -0.348 OA
BRANCH  29  30
HETATM   30  C19 UNL     1      -3.243  -2.396   2.217  1.00  0.00     0.201 C 
BRANCH  30  31
HETATM   31  C20 UNL     1      -3.245  -3.657   3.039  1.00  0.00     0.190 C 
BRANCH  31  32
HETATM   32  O2  UNL     1      -4.357  -4.414   2.689  1.00  0.00    -0.399 OA
HETATM   33  H21 UNL     1      -4.409  -5.277   3.146  1.00  0.00     0.209 HD
ENDBRANCH  31  32
ENDBRANCH  30  31
ENDBRANCH  29  30
ENDBRANCH   6  29
TORSDOF 9
