REMARK  4 active torsions:
REMARK  status: ('A' for Active; 'I' for Inactive)
REMARK    1  A    between atoms: C2_2  and  N1_3 
REMARK    2  A    between atoms: C6_7  and  N2_8 
REMARK    3  A    between atoms: N3_14  and  C12_15 
REMARK    4  A    between atoms: C12_15  and  C13_16 
ROOT
HETATM    1  N1  UNL     1       0.011   1.882   0.587  1.00  0.00    -0.310 N 
HETATM    2  C3  UNL     1      -1.159   1.086   0.393  1.00  0.00     0.053 A 
HETATM    3  C4  UNL     1      -2.512   1.359   0.472  1.00  0.00     0.033 A 
HETATM    4  C5  UNL     1      -3.501   0.448   0.245  1.00  0.00     0.031 A 
HETATM    5  C6  UNL     1      -3.148  -0.857  -0.090  1.00  0.00     0.030 A 
HETATM    6  C9  UNL     1      -1.800  -1.140  -0.171  1.00  0.00     0.040 A 
HETATM    7  C10 UNL     1      -0.834  -0.192   0.065  1.00  0.00    -0.013 A 
HETATM    8  C11 UNL     1       0.658  -0.254   0.036  1.00  0.00     0.154 C 
HETATM    9  N3  UNL     1       1.093   1.017   0.485  1.00  0.00    -0.221 NA
ENDROOT
BRANCH   9  10
HETATM   10  C12 UNL     1       2.218   1.484  -0.232  1.00  0.00     0.162 C 
BRANCH  10  11
HETATM   11  C13 UNL     1       3.427   0.630   0.152  1.00  0.00     0.129 A 
HETATM   12  C14 UNL     1       4.539   1.405   0.745  1.00  0.00     0.039 A 
HETATM   13  C15 UNL     1       4.979   0.179   0.749  1.00  0.00     0.051 A 
HETATM   14  C16 UNL     1       5.319  -0.830   0.743  1.00  0.00     0.012 C 
HETATM   15  O1  UNL     1       5.727  -2.119   0.721  1.00  0.00    -0.308 OA
HETATM   16  C17 UNL     1       4.514  -2.869  -0.004  1.00  0.00     0.213 C 
HETATM   17  C18 UNL     1       3.839  -1.776  -0.809  1.00  0.00     0.197 C 
HETATM   18  O2  UNL     1       3.114  -0.775  -0.196  1.00  0.00    -0.367 OA
ENDBRANCH  10  11
ENDBRANCH   9  10
BRANCH   1  19
HETATM   19  C2  UNL     1      -0.046   3.284   0.834  1.00  0.00     0.139 C 
HETATM   20  C1  UNL     1      -0.687   4.146  -0.161  1.00  0.00     0.028 C 
ENDBRANCH   1  19
BRANCH   5  21
HETATM   21  N2  UNL     1      -4.099  -1.882  -0.350  1.00  0.00    -0.390 N 
HETATM   22  C7  UNL     1      -3.850  -3.266  -0.704  1.00  0.00     0.149 C 
HETATM   23  C8  UNL     1      -5.509  -1.492  -0.252  1.00  0.00     0.149 C 
ENDBRANCH   5  21
TORSDOF 4
