REMARK  2 active torsions:
REMARK  status: ('A' for Active; 'I' for Inactive)
REMARK    1  A    between atoms: C13_17  and  C14_18 
REMARK    2  A    between atoms: C19_23  and  O2_24 
ROOT
HETATM    1  C1  UNL     1       0.576  -2.951  -0.272  1.00  0.00     0.312 C 
HETATM    2  N1  UNL     1      -0.116  -1.738  -0.752  1.00  0.00     0.104 N 
HETATM    3  C2  UNL     1       0.928  -0.912  -1.281  1.00  0.00     0.383 C 
HETATM    4  N2  UNL     1       1.815  -1.348  -2.318  1.00  0.00    -0.213 NA
HETATM    5  N3  UNL     1       2.732  -0.201  -2.486  1.00  0.00    -0.317 N 
HETATM    6  C3  UNL     1       2.758   0.627  -1.287  1.00  0.00     0.077 A 
HETATM    7  C4  UNL     1       1.643   1.387  -1.216  1.00  0.00     0.040 A 
HETATM    8  C5  UNL     1       1.619   1.786   0.075  1.00  0.00    -0.055 A 
HETATM    9  C6  UNL     1       2.437   1.590   1.164  1.00  0.00     0.017 A 
HETATM   10  C7  UNL     1       3.559   0.788   0.905  1.00  0.00    -0.020 A 
HETATM   11  C8  UNL     1       3.716   0.283  -0.395  1.00  0.00     0.102 A 
HETATM   12  O1  UNL     1       4.850  -0.494  -0.534  1.00  0.00    -0.348 OA
HETATM   13  C9  UNL     1       5.676  -0.224   0.611  1.00  0.00     0.180 C 
HETATM   14  C10 UNL     1       4.718   0.283   1.669  1.00  0.00     0.068 C 
HETATM   15  C11 UNL     1       0.276   2.311   0.453  1.00  0.00     0.040 C 
HETATM   16  C12 UNL     1      -0.597   1.340   1.121  1.00  0.00     0.021 C 
HETATM   17  C13 UNL     1      -1.306   0.158   0.554  1.00  0.00     0.024 C 
HETATM   18  C20 UNL     1      -2.256  -0.169   1.806  1.00  0.00     0.043 C 
HETATM   19  C21 UNL     1      -3.386  -0.894   1.270  1.00  0.00    -0.029 C 
HETATM   20  C22 UNL     1      -3.004  -2.078   0.812  1.00  0.00    -0.028 C 
HETATM   21  C23 UNL     1      -1.571  -2.304   0.979  1.00  0.00     0.063 C 
HETATM   22  C24 UNL     1      -0.674  -1.158   0.454  1.00  0.00     0.240 C 
HETATM   23  H6  UNL     1       1.339  -1.379  -3.247  1.00  0.00     0.148 HD
HETATM   24  H7  UNL     1       3.417   0.438  -2.925  1.00  0.00     0.181 HD
ENDROOT
BRANCH  17  25
HETATM   25  C14 UNL     1      -2.299   0.490  -0.486  1.00  0.00    -0.014 A 
HETATM   26  C15 UNL     1      -2.441   0.011  -1.766  1.00  0.00     0.011 A 
HETATM   27  C16 UNL     1      -3.421   0.311  -2.675  1.00  0.00     0.001 A 
HETATM   28  C17 UNL     1      -4.415   1.189  -2.327  1.00  0.00     0.003 A 
HETATM   29  C18 UNL     1      -4.365   1.738  -1.039  1.00  0.00     0.037 A 
HETATM   30  C19 UNL     1      -3.339   1.383  -0.180  1.00  0.00     0.072 A 
BRANCH  30  31
HETATM   31  O2  UNL     1      -3.530   2.054   0.992  1.00  0.00    -0.360 OA
HETATM   32  H22 UNL     1      -3.493   3.081   1.019  1.00  0.00     0.217 HD
ENDBRANCH  30  31
ENDBRANCH  17  25
TORSDOF 2
