REMARK  4 active torsions:
REMARK  status: ('A' for Active; 'I' for Inactive)
REMARK    1  A    between atoms: C2_2  and  C4_4 
REMARK    2  A    between atoms: C5_5  and  C6_6 
REMARK    3  A    between atoms: C6_6  and  C7_7 
REMARK    4  A    between atoms: N1_9  and  C9_10 
ROOT
HETATM    1  C7  UNL     1      -0.908   0.620  -0.086  1.00  0.00     0.079 C 
HETATM    2  C8  UNL     1      -0.230  -0.568  -0.730  1.00  0.00     0.176 C 
HETATM    3  N1  UNL     1       0.981  -0.275   0.012  1.00  0.00    -0.307 N 
HETATM    4  N2  UNL     1       0.416   0.912   0.397  1.00  0.00    -0.208 NA
HETATM    5  C17 UNL     1       0.908   2.120  -0.125  1.00  0.00     0.154 C 
HETATM    6  C18 UNL     1      -0.133   3.169  -0.224  1.00  0.00    -0.036 C 
HETATM    7  C19 UNL     1      -0.525   4.409  -0.003  1.00  0.00     0.009 C 
HETATM    8  C20 UNL     1      -1.821   4.972  -0.337  1.00  0.00    -0.003 C 
HETATM    9  C21 UNL     1      -2.700   4.177  -0.905  1.00  0.00    -0.022 C 
HETATM   10  C22 UNL     1      -2.802   2.765  -1.350  1.00  0.00     0.068 C 
HETATM   11  P1  UNL     1      -1.153   1.997  -1.254  1.00  0.00    -0.055 P 
ENDROOT
BRANCH   3  12
HETATM   12  C9  UNL     1       2.286  -0.835   0.328  1.00  0.00     0.046 C 
HETATM   13  C10 UNL     1       3.165  -0.906  -0.682  1.00  0.00     0.035 C 
HETATM   14  C11 UNL     1       4.570  -1.359  -0.958  1.00  0.00     0.142 C 
HETATM   15  C12 UNL     1       4.688  -1.819  -2.388  1.00  0.00     0.044 C 
HETATM   16  O1  UNL     1       5.434  -0.382  -0.576  1.00  0.00    -0.380 OA
HETATM   17  C13 UNL     1       6.210  -0.669   0.545  1.00  0.00     0.195 C 
HETATM   18  C14 UNL     1       5.426  -0.805   1.790  1.00  0.00     0.200 C 
HETATM   19  O2  UNL     1       4.432  -1.807   1.818  1.00  0.00    -0.361 OA
HETATM   20  C15 UNL     1       3.273  -1.624   2.584  1.00  0.00     0.137 C 
HETATM   21  C16 UNL     1       2.370  -1.164   1.739  1.00  0.00     0.054 C 
ENDBRANCH   3  12
BRANCH   1  22
HETATM   22  C6  UNL     1      -1.967   0.299   0.903  1.00  0.00     0.061 C 
BRANCH  22  23
HETATM   23  C5  UNL     1      -3.052  -0.489   0.256  1.00  0.00    -0.028 C 
HETATM   24  C4  UNL     1      -4.355  -0.412   0.014  1.00  0.00    -0.027 C 
BRANCH  24  25
HETATM   25  C2  UNL     1      -5.246  -1.386  -0.688  1.00  0.00    -0.001 C 
HETATM   26  C1  UNL     1      -6.278  -1.853   0.316  1.00  0.00     0.013 C 
HETATM   27  C3  UNL     1      -4.487  -2.611  -1.165  1.00  0.00     0.013 C 
ENDBRANCH  24  25
ENDBRANCH  22  23
ENDBRANCH   1  22
TORSDOF 4
