REMARK  5 active torsions:
REMARK  status: ('A' for Active; 'I' for Inactive)
REMARK    1  A    between atoms: C4_4  and  C5_5 
REMARK    2  A    between atoms: C6_6  and  C7_7 
REMARK    3  A    between atoms: C7_7  and  N1_8 
REMARK    4  A    between atoms: N1_8  and  C8_9 
REMARK    5  A    between atoms: C15_19  and  O1_20 
ROOT
HETATM    1  C1  UNL     1       6.973  -1.570  -1.791  1.00  0.00     0.017 C 
HETATM    2  C2  UNL     1       6.823  -1.271  -0.640  1.00  0.00    -0.089 C 
HETATM    3  C3  UNL     1       6.630  -0.935   0.739  1.00  0.00     0.063 C 
HETATM    4  C4  UNL     1       5.721  -0.031   1.071  1.00  0.00     0.009 C 
ENDROOT
BRANCH   4   5
HETATM    5  C5  UNL     1       4.918   0.621   0.042  1.00  0.00    -0.002 C 
HETATM    6  C6  UNL     1       4.004   1.529   0.367  1.00  0.00    -0.007 C 
BRANCH   6   7
HETATM    7  C7  UNL     1       3.163   2.215  -0.680  1.00  0.00     0.148 C 
BRANCH   7   8
HETATM    8  N1  UNL     1       1.760   1.946  -0.443  1.00  0.00    -0.369 N 
HETATM    9  H8  UNL     1       1.235   2.824  -0.278  1.00  0.00     0.161 HD
BRANCH   8  10
HETATM   10  C8  UNL     1       1.354   0.584  -0.467  1.00  0.00     0.156 A 
HETATM   11  N2  UNL     1       2.256  -0.380  -0.680  1.00  0.00    -0.222 NA
HETATM   12  C9  UNL     1       1.973  -1.690  -0.708  1.00  0.00     0.238 A 
HETATM   13  N3  UNL     1       0.719  -2.137  -0.517  1.00  0.00    -0.215 NA
HETATM   14  C10 UNL     1      -0.272  -1.229  -0.292  1.00  0.00     0.202 A 
HETATM   15  C11 UNL     1       0.090   0.122  -0.275  1.00  0.00     0.128 A 
HETATM   16  O2  UNL     1      -1.524  -1.822  -0.109  1.00  0.00    -0.289 OA
HETATM   17  N4  UNL     1      -0.812   1.228  -0.066  1.00  0.00    -0.379 N 
HETATM   18  C12 UNL     1      -2.033   1.268   0.753  1.00  0.00     0.161 C 
HETATM   19  H10 UNL     1      -0.478   2.059  -0.604  1.00  0.00     0.160 HD
HETATM   20  C13 UNL     1      -2.925   0.130   0.475  1.00  0.00    -0.004 A 
HETATM   21  C14 UNL     1      -4.250   0.548   0.636  1.00  0.00     0.048 A 
HETATM   22  C19 UNL     1      -2.739  -1.186   0.108  1.00  0.00     0.086 A 
HETATM   23  C15 UNL     1      -5.344  -0.302   0.443  1.00  0.00     0.069 A 
HETATM   24  C17 UNL     1      -5.134  -1.617   0.076  1.00  0.00     0.039 A 
HETATM   25  C18 UNL     1      -3.831  -2.031  -0.084  1.00  0.00     0.040 A 
BRANCH  23  26
HETATM   26  O1  UNL     1      -6.626   0.246   0.638  1.00  0.00    -0.356 OA
HETATM   27  C16 UNL     1      -7.717  -0.634   0.437  1.00  0.00     0.210 C 
ENDBRANCH  23  26
ENDBRANCH   8  10
ENDBRANCH   7   8
ENDBRANCH   6   7
ENDBRANCH   4   5
TORSDOF 5
