REMARK  3 active torsions:
REMARK  status: ('A' for Active; 'I' for Inactive)
REMARK    1  A    between atoms: N1_2  and  C3_4 
REMARK    2  A    between atoms: C6_7  and  C7_8 
REMARK    3  A    between atoms: C9_10  and  C10_11 
ROOT
HETATM    1  C7  UNL     1      -0.904  -0.986  -1.223  1.00  0.00     0.055 C 
HETATM    2  C8  UNL     1       0.392  -0.259  -1.071  1.00  0.00     0.075 C 
HETATM    3  C9  UNL     1       1.628  -1.028  -1.093  1.00  0.00     0.065 C 
HETATM    4  N2  UNL     1       2.080  -2.274  -1.207  1.00  0.00    -0.180 NA
HETATM    5  N3  UNL     1       1.219  -3.377  -1.024  1.00  0.00    -0.298 N 
HETATM    6  C18 UNL     1       1.449  -4.450  -0.080  1.00  0.00     0.172 C 
HETATM    7  C19 UNL     1       0.312  -4.575   0.904  1.00  0.00    -0.006 C 
HETATM    8  C20 UNL     1      -0.825  -3.880   1.091  1.00  0.00    -0.002 C 
HETATM    9  C21 UNL     1      -1.365  -2.815   0.212  1.00  0.00     0.005 C 
HETATM   10  C22 UNL     1      -0.806  -2.422  -0.922  1.00  0.00    -0.052 C 
HETATM   11  C23 UNL     1      -0.041  -3.398  -1.827  1.00  0.00     0.179 C 
ENDROOT
BRANCH   3  12
HETATM   12  C10 UNL     1       2.799  -0.135  -0.932  1.00  0.00    -0.007 A 
HETATM   13  C11 UNL     1       4.088  -0.624  -0.914  1.00  0.00     0.016 A 
HETATM   14  C12 UNL     1       5.219   0.151  -0.771  1.00  0.00     0.040 A 
HETATM   15  C13 UNL     1       5.057   1.526  -0.634  1.00  0.00     0.102 A 
HETATM   16  C14 UNL     1       3.787   2.043  -0.648  1.00  0.00     0.103 A 
HETATM   17  O2  UNL     1       6.137   2.363  -0.487  1.00  0.00    -0.346 OA
HETATM   18  C15 UNL     1       2.709   1.225  -0.792  1.00  0.00     0.053 A 
HETATM   19  O1  UNL     1       3.778   3.411  -0.502  1.00  0.00    -0.346 OA
HETATM   20  C16 UNL     1       4.721   4.102   0.298  1.00  0.00     0.202 C 
HETATM   21  C17 UNL     1       6.119   3.586   0.175  1.00  0.00     0.202 C 
ENDBRANCH   3  12
BRANCH   1  22
HETATM   22  C6  UNL     1      -1.939  -0.288  -0.463  1.00  0.00    -0.049 A 
HETATM   23  C5  UNL     1      -3.133   0.054  -1.108  1.00  0.00     0.010 A 
HETATM   24  C4  UNL     1      -4.194   0.729  -0.514  1.00  0.00     0.030 A 
HETATM   25  C3  UNL     1      -4.085   1.099   0.808  1.00  0.00     0.029 A 
HETATM   26  C25 UNL     1      -2.931   0.783   1.481  1.00  0.00     0.030 A 
HETATM   27  C24 UNL     1      -1.895   0.115   0.869  1.00  0.00     0.010 A 
BRANCH  25  28
HETATM   28  N1  UNL     1      -5.150   1.779   1.413  1.00  0.00    -0.390 N 
HETATM   29  C1  UNL     1      -6.336   2.063   0.593  1.00  0.00     0.149 C 
HETATM   30  C2  UNL     1      -5.148   2.216   2.795  1.00  0.00     0.149 C 
ENDBRANCH  25  28
ENDBRANCH   1  22
TORSDOF 3
