REMARK  2 active torsions:
REMARK  status: ('A' for Active; 'I' for Inactive)
REMARK    1  A    between atoms: O1_1  and  C1_2 
REMARK    2  A    between atoms: C1_2  and  C2_3 
ROOT
HETATM    1  C2  UNL     1       2.572   0.815   0.662  1.00  0.00     0.024 A 
HETATM    2  C3  UNL     1       3.190   1.370  -0.613  1.00  0.00     0.057 C 
HETATM    3  C4  UNL     1       2.593   0.658  -1.725  1.00  0.00     0.255 A 
HETATM    4  N1  UNL     1       1.413   1.056  -1.309  1.00  0.00     0.144 N 
HETATM    5  N2  UNL     1       1.270   0.747   0.012  1.00  0.00     0.000 N 
HETATM    6  C5  UNL     1       0.426   0.335   0.993  1.00  0.00     0.030 A 
HETATM    7  C6  UNL     1      -0.337  -0.409   1.828  1.00  0.00    -0.035 A 
HETATM    8  C7  UNL     1       0.524  -1.134   0.754  1.00  0.00    -0.004 A 
HETATM    9  C8  UNL     1       1.705  -0.440   0.379  1.00  0.00     0.006 A 
HETATM   10  C9  UNL     1       2.021  -1.310  -0.792  1.00  0.00     0.182 C 
HETATM   11  O2  UNL     1       1.152  -1.098  -1.855  1.00  0.00    -0.356 OA
HETATM   12  C10 UNL     1       1.253   0.345  -2.200  1.00  0.00     0.381 A 
HETATM   13  C11 UNL     1       0.344   0.934  -1.209  1.00  0.00     0.288 A 
HETATM   14  C12 UNL     1      -0.059   2.308  -1.047  1.00  0.00     0.067 C 
HETATM   15  C13 UNL     1      -1.407   2.346  -0.429  1.00  0.00    -0.028 C 
HETATM   16  C14 UNL     1      -2.283   1.449  -0.085  1.00  0.00    -0.031 C 
HETATM   17  C15 UNL     1      -3.388   0.626   0.368  1.00  0.00     0.027 C 
HETATM   18  C16 UNL     1      -4.032  -0.334  -0.623  1.00  0.00     0.007 C 
HETATM   19  C17 UNL     1      -4.346  -1.645   0.139  1.00  0.00     0.027 C 
HETATM   20  C18 UNL     1      -2.971  -2.240   0.515  1.00  0.00    -0.031 C 
HETATM   21  C19 UNL     1      -1.664  -2.237   0.440  1.00  0.00    -0.029 C 
HETATM   22  C20 UNL     1      -0.213  -2.303   0.411  1.00  0.00     0.041 C 
ENDROOT
BRANCH   1  23
HETATM   23  C1  UNL     1       3.784   0.041   1.382  1.00  0.00     0.169 C 
BRANCH  23  24
HETATM   24  O1  UNL     1       4.780   0.955   1.606  1.00  0.00    -0.400 OA
HETATM   25  H1  UNL     1       5.253   0.673   2.459  1.00  0.00     0.209 HD
ENDBRANCH  23  24
ENDBRANCH   1  23
TORSDOF 2
