REMARK  4 active torsions:
REMARK  status: ('A' for Active; 'I' for Inactive)
REMARK    1  A    between atoms: N1_2  and  C3_4 
REMARK    2  A    between atoms: C6_7  and  C7_8 
REMARK    3  A    between atoms: C9_10  and  C10_11 
REMARK    4  A    between atoms: N3_22  and  C18_23 
ROOT
HETATM    1  C7  UNL     1      -0.886  -0.582   1.022  1.00  0.00     0.145 A 
HETATM    2  C8  UNL     1       0.222   0.436   0.856  1.00  0.00     0.093 A 
HETATM    3  C9  UNL     1       1.379  -0.370   0.386  1.00  0.00     0.067 A 
HETATM    4  N2  UNL     1       1.086  -1.609   0.338  1.00  0.00    -0.175 NA
HETATM    5  N3  UNL     1      -0.237  -1.822   0.743  1.00  0.00    -0.260 N 
ENDROOT
BRANCH   3   6
HETATM    6  C10 UNL     1       2.690   0.151   0.020  1.00  0.00    -0.007 A 
HETATM    7  C11 UNL     1       3.672  -0.733  -0.402  1.00  0.00     0.016 A 
HETATM    8  C12 UNL     1       4.943  -0.333  -0.770  1.00  0.00     0.040 A 
HETATM    9  C13 UNL     1       5.227   1.014  -0.705  1.00  0.00     0.102 A 
HETATM   10  C14 UNL     1       4.266   1.930  -0.287  1.00  0.00     0.103 A 
HETATM   11  O2  UNL     1       6.461   1.505  -1.050  1.00  0.00    -0.346 OA
HETATM   12  C15 UNL     1       2.989   1.496   0.078  1.00  0.00     0.053 A 
HETATM   13  O1  UNL     1       4.611   3.270  -0.244  1.00  0.00    -0.346 OA
HETATM   14  C16 UNL     1       5.931   3.737  -0.212  1.00  0.00     0.202 C 
HETATM   15  C17 UNL     1       6.958   2.766  -0.697  1.00  0.00     0.202 C 
ENDBRANCH   3   6
BRANCH   1  16
HETATM   16  C6  UNL     1      -1.984  -0.240   0.093  1.00  0.00    -0.049 A 
HETATM   17  C5  UNL     1      -2.561  -0.863  -0.895  1.00  0.00     0.007 A 
HETATM   18  C4  UNL     1      -3.623  -0.070  -1.505  1.00  0.00     0.025 A 
HETATM   19  C3  UNL     1      -3.653   1.067  -0.827  1.00  0.00     0.010 A 
HETATM   20  C24 UNL     1      -2.632   1.097   0.253  1.00  0.00     0.093 A 
BRANCH  19  21
HETATM   21  N1  UNL     1      -4.597   2.083  -1.176  1.00  0.00    -0.393 N 
HETATM   22  C1  UNL     1      -5.980   1.687  -1.237  1.00  0.00     0.148 C 
HETATM   23  C2  UNL     1      -4.352   3.484  -1.483  1.00  0.00     0.148 C 
ENDBRANCH  19  21
ENDBRANCH   1  16
BRANCH   5  24
HETATM   24  C18 UNL     1      -0.766  -3.135   0.833  1.00  0.00     0.053 A 
HETATM   25  C19 UNL     1      -0.003  -4.239   0.527  1.00  0.00     0.031 A 
HETATM   26  C20 UNL     1      -0.426  -5.562   0.582  1.00  0.00     0.002 A 
HETATM   27  C21 UNL     1      -1.728  -5.791   0.980  1.00  0.00     0.000 A 
HETATM   28  C22 UNL     1      -2.534  -4.705   1.299  1.00  0.00     0.002 A 
HETATM   29  C23 UNL     1      -2.058  -3.410   1.225  1.00  0.00     0.031 A 
ENDBRANCH   5  24
TORSDOF 4
