REMARK  5 active torsions:
REMARK  status: ('A' for Active; 'I' for Inactive)
REMARK    1  A    between atoms: C2_2  and  N1_3 
REMARK    2  A    between atoms: N1_3  and  C4_5 
REMARK    3  A    between atoms: C7_8  and  C8_9 
REMARK    4  A    between atoms: C10_11  and  C11_12 
REMARK    5  A    between atoms: N3_23  and  C19_24 
ROOT
HETATM    1  C8  UNL     1      -0.431   0.814  -1.142  1.00  0.00     0.149 C 
HETATM    2  C9  UNL     1       0.588   1.503  -0.234  1.00  0.00     0.094 C 
HETATM    3  C10 UNL     1       1.865   0.853  -0.584  1.00  0.00     0.067 C 
HETATM    4  N2  UNL     1       1.676  -0.159  -1.362  1.00  0.00    -0.175 NA
HETATM    5  N3  UNL     1       0.295  -0.316  -1.627  1.00  0.00    -0.260 N 
ENDROOT
BRANCH   1   6
HETATM    6  C7  UNL     1      -1.639   0.494  -0.368  1.00  0.00    -0.033 A 
HETATM    7  C6  UNL     1      -1.532  -0.508   0.561  1.00  0.00     0.011 A 
HETATM    8  C5  UNL     1      -2.612  -0.865   1.325  1.00  0.00     0.030 A 
HETATM    9  C4  UNL     1      -3.853  -0.269   1.226  1.00  0.00     0.029 A 
HETATM   10  C26 UNL     1      -3.882   0.725   0.273  1.00  0.00     0.030 A 
HETATM   11  C25 UNL     1      -2.839   1.137  -0.529  1.00  0.00     0.011 A 
BRANCH   9  12
HETATM   12  N1  UNL     1      -4.983  -0.626   2.011  1.00  0.00    -0.386 N 
HETATM   13  C3  UNL     1      -4.652  -1.706   2.960  1.00  0.00     0.149 C 
BRANCH  12  14
HETATM   14  C2  UNL     1      -6.332  -0.272   2.179  1.00  0.00     0.118 C 
HETATM   15  C1  UNL     1      -6.912   0.809   1.338  1.00  0.00     0.026 C 
ENDBRANCH  12  14
ENDBRANCH   9  12
ENDBRANCH   1   6
BRANCH   5  16
HETATM   16  C19 UNL     1      -0.143  -1.493  -2.292  1.00  0.00     0.053 A 
HETATM   17  C20 UNL     1       0.735  -2.484  -2.675  1.00  0.00     0.031 A 
HETATM   18  C21 UNL     1       0.305  -3.644  -3.330  1.00  0.00     0.002 A 
HETATM   19  C22 UNL     1      -1.031  -3.835  -3.617  1.00  0.00     0.000 A 
HETATM   20  C23 UNL     1      -1.935  -2.854  -3.243  1.00  0.00     0.002 A 
HETATM   21  C24 UNL     1      -1.460  -1.744  -2.607  1.00  0.00     0.031 A 
ENDBRANCH   5  16
BRANCH   3  22
HETATM   22  C11 UNL     1       3.178   1.284  -0.120  1.00  0.00    -0.007 A 
HETATM   23  C12 UNL     1       3.325   2.375   0.712  1.00  0.00     0.016 A 
HETATM   24  C13 UNL     1       4.492   2.877   1.214  1.00  0.00     0.040 A 
HETATM   25  C14 UNL     1       5.637   2.202   0.832  1.00  0.00     0.102 A 
HETATM   26  C15 UNL     1       5.579   1.087  -0.008  1.00  0.00     0.103 A 
HETATM   27  O2  UNL     1       6.860   2.664   1.310  1.00  0.00    -0.346 OA
HETATM   28  C16 UNL     1       4.341   0.636  -0.479  1.00  0.00     0.053 A 
HETATM   29  O1  UNL     1       6.777   0.472  -0.339  1.00  0.00    -0.346 OA
HETATM   30  C17 UNL     1       7.939   0.658   0.477  1.00  0.00     0.202 C 
HETATM   31  C18 UNL     1       8.089   2.097   0.920  1.00  0.00     0.202 C 
ENDBRANCH   3  22
TORSDOF 5
