REMARK  3 active torsions:
REMARK  status: ('A' for Active; 'I' for Inactive)
REMARK    1  A    between atoms: N1_2  and  C2_3 
REMARK    2  A    between atoms: N1_2  and  C11_14 
REMARK    3  A    between atoms: C2_3  and  C3_4 
ROOT
HETATM    1  C11 UNL     1      -0.703   0.993   0.408  1.00  0.00     0.030 C 
HETATM    2  C12 UNL     1      -1.268   1.786  -0.566  1.00  0.00     0.030 C 
HETATM    3  C13 UNL     1      -1.980   1.516  -1.689  1.00  0.00     0.015 C 
HETATM    4  C14 UNL     1      -3.157   0.815  -1.506  1.00  0.00    -0.013 C 
HETATM    5  C15 UNL     1      -3.679   0.515  -0.273  1.00  0.00     0.028 C 
HETATM    6  N2  UNL     1      -3.732  -0.756   0.240  1.00  0.00    -0.349 N 
HETATM    7  C16 UNL     1      -3.075  -0.217   1.282  1.00  0.00     0.018 C 
HETATM    8  C17 UNL     1      -1.929  -0.514   1.985  1.00  0.00     0.028 C 
HETATM    9  C18 UNL     1      -1.140  -0.224   0.885  1.00  0.00     0.031 C 
HETATM   10  C19 UNL     1      -4.288   0.644   1.023  1.00  0.00     0.115 C 
HETATM   11  C20 UNL     1      -4.241  -2.035  -0.149  1.00  0.00     0.156 C 
HETATM   12  C21 UNL     1      -5.146  -2.024  -1.300  1.00  0.00    -0.007 C 
HETATM   13  C22 UNL     1      -5.213  -1.567  -2.551  1.00  0.00    -0.002 C 
HETATM   14  C23 UNL     1      -4.474  -0.531  -3.281  1.00  0.00     0.001 C 
HETATM   15  C24 UNL     1      -3.692   0.480  -2.850  1.00  0.00     0.013 C 
ENDROOT
BRANCH   1  16
HETATM   16  N1  UNL     1       0.504   1.528   0.993  1.00  0.00    -0.381 N 
HETATM   17  C1  UNL     1       0.908   2.805   0.460  1.00  0.00     0.150 C 
BRANCH  16  18
HETATM   18  C2  UNL     1       1.230   0.818   2.029  1.00  0.00     0.161 C 
BRANCH  18  19
HETATM   19  C3  UNL     1       2.608   0.517   1.598  1.00  0.00    -0.037 A 
HETATM   20  C4  UNL     1       3.717   1.311   1.800  1.00  0.00     0.012 A 
HETATM   21  C5  UNL     1       4.981   0.967   1.365  1.00  0.00     0.040 A 
HETATM   22  C6  UNL     1       5.115  -0.243   0.695  1.00  0.00     0.102 A 
HETATM   23  C7  UNL     1       4.026  -1.070   0.472  1.00  0.00     0.102 A 
HETATM   24  O2  UNL     1       6.404  -0.564   0.268  1.00  0.00    -0.346 OA
HETATM   25  C8  UNL     1       2.776  -0.693   0.922  1.00  0.00     0.048 A 
HETATM   26  O1  UNL     1       4.332  -2.237  -0.209  1.00  0.00    -0.346 OA
HETATM   27  C9  UNL     1       5.539  -2.457  -0.889  1.00  0.00     0.202 C 
HETATM   28  C10 UNL     1       6.705  -1.916  -0.113  1.00  0.00     0.202 C 
ENDBRANCH  18  19
ENDBRANCH  16  18
ENDBRANCH   1  16
TORSDOF 3
