REMARK  2 active torsions:
REMARK  status: ('A' for Active; 'I' for Inactive)
REMARK    1  A    between atoms: C2_2  and  C3_3 
REMARK    2  A    between atoms: C9_9  and  C10_10 
ROOT
HETATM    1  C3  UNL     1       3.212   0.399   0.486  1.00  0.00    -0.046 C 
HETATM    2  C4  UNL     1       3.106   1.721   0.592  1.00  0.00    -0.019 C 
HETATM    3  C5  UNL     1       2.670   2.228  -0.552  1.00  0.00     0.012 C 
HETATM    4  C6  UNL     1       1.308   1.906  -0.933  1.00  0.00    -0.003 C 
HETATM    5  C7  UNL     1      -0.008   1.823  -0.641  1.00  0.00    -0.026 C 
HETATM    6  C8  UNL     1      -1.487   1.606  -0.668  1.00  0.00     0.040 C 
HETATM    7  C9  UNL     1      -1.888   0.554   0.382  1.00  0.00     0.007 A 
HETATM    8  C14 UNL     1      -2.176   1.171   1.788  1.00  0.00     0.031 A 
HETATM    9  C15 UNL     1      -0.912   0.556   1.428  1.00  0.00     0.024 A 
HETATM   10  C16 UNL     1      -0.028  -0.023   0.705  1.00  0.00     0.044 C 
HETATM   11 CL1  UNL     1       1.186   0.020   2.023  1.00  0.00    -0.086 Cl
HETATM   12  C17 UNL     1       1.018  -0.597  -0.033  1.00  0.00     0.053 C 
HETATM   13 CL2  UNL     1       0.064  -1.807  -0.804  1.00  0.00    -0.083 Cl
HETATM   14  C18 UNL     1       2.317  -0.521  -0.207  1.00  0.00     0.033 C 
ENDROOT
BRANCH   7  15
HETATM   15  C10 UNL     1      -2.994  -0.355   0.037  1.00  0.00     0.158 C 
HETATM   16  C11 UNL     1      -3.272  -1.442   1.009  1.00  0.00     0.030 C 
HETATM   17  C12 UNL     1      -3.918  -2.489   0.518  1.00  0.00     0.136 C 
HETATM   18  O1  UNL     1      -4.293  -2.532  -0.819  1.00  0.00    -0.338 OA
HETATM   19  C13 UNL     1      -4.083  -1.429  -1.678  1.00  0.00     0.344 C 
HETATM   20  O2  UNL     1      -2.912  -0.793  -1.267  1.00  0.00    -0.357 OA
ENDBRANCH   7  15
BRANCH   1  21
HETATM   21  C2  UNL     1       4.368  -0.283   1.121  1.00  0.00     0.035 C 
HETATM   22  C1  UNL     1       5.251  -1.016   0.153  1.00  0.00     0.010 C 
ENDBRANCH   1  21
TORSDOF 2
