REMARK  4 active torsions:
REMARK  status: ('A' for Active; 'I' for Inactive)
REMARK    1  A    between atoms: C2_3  and  C3_4 
REMARK    2  A    between atoms: C3_4  and  C4_5 
REMARK    3  A    between atoms: C6_7  and  C7_8 
REMARK    4  A    between atoms: N2_19  and  C15_20 
ROOT
HETATM    1 CL1  UNL     1      -5.448  -4.288   1.118  1.00  0.00    -0.230 Cl
HETATM    2  C1  UNL     1      -4.295  -3.042   0.600  1.00  0.00     0.213 C 
HETATM    3  C2  UNL     1      -3.470  -2.065   0.166  1.00  0.00    -0.013 C 
ENDROOT
BRANCH   3   4
HETATM    4  C3  UNL     1      -2.078  -2.004   0.635  1.00  0.00     0.055 C 
BRANCH   4   5
HETATM    5  C4  UNL     1      -1.750  -0.708   1.358  1.00  0.00     0.119 C 
HETATM    6  C5  UNL     1      -0.283  -0.836   1.761  1.00  0.00     0.089 C 
HETATM    7  C6  UNL     1       0.430  -0.168   0.642  1.00  0.00     0.067 C 
HETATM    8  N1  UNL     1      -0.413   0.524  -0.040  1.00  0.00    -0.175 NA
HETATM    9  N2  UNL     1      -1.710   0.435   0.473  1.00  0.00    -0.264 N 
BRANCH   7  10
HETATM   10  C7  UNL     1       1.858  -0.291   0.375  1.00  0.00    -0.007 A 
HETATM   11  C8  UNL     1       2.672  -1.065   1.176  1.00  0.00     0.016 A 
HETATM   12  C9  UNL     1       4.019  -1.210   0.962  1.00  0.00     0.040 A 
HETATM   13  C10 UNL     1       4.552  -0.532  -0.117  1.00  0.00     0.102 A 
HETATM   14  C11 UNL     1       3.798   0.269  -0.972  1.00  0.00     0.103 A 
HETATM   15  O2  UNL     1       5.896  -0.618  -0.408  1.00  0.00    -0.346 OA
HETATM   16  C12 UNL     1       2.438   0.366  -0.691  1.00  0.00     0.053 A 
HETATM   17  O1  UNL     1       4.314   0.944  -2.043  1.00  0.00    -0.346 OA
HETATM   18  C13 UNL     1       5.680   0.780  -2.375  1.00  0.00     0.202 C 
HETATM   19  C14 UNL     1       6.521   0.416  -1.169  1.00  0.00     0.202 C 
ENDBRANCH   7  10
BRANCH   9  20
HETATM   20  C15 UNL     1      -2.753   1.344   0.140  1.00  0.00     0.053 A 
HETATM   21  C16 UNL     1      -2.485   2.367  -0.745  1.00  0.00     0.031 A 
HETATM   22  C17 UNL     1      -3.493   3.258  -1.076  1.00  0.00     0.002 A 
HETATM   23  C18 UNL     1      -4.757   3.123  -0.525  1.00  0.00     0.000 A 
HETATM   24  C19 UNL     1      -5.056   2.115   0.358  1.00  0.00     0.002 A 
HETATM   25  C20 UNL     1      -4.021   1.233   0.674  1.00  0.00     0.031 A 
ENDBRANCH   9  20
ENDBRANCH   4   5
ENDBRANCH   3   4
TORSDOF 4
