REMARK  1 active torsions:
REMARK  status: ('A' for Active; 'I' for Inactive)
REMARK    1  A    between atoms: C4_5  and  C5_6 
ROOT
HETATM    1  C5  UNL     1       0.965   0.816  -0.243  1.00  0.00     0.014 C 
HETATM    2  C6  UNL     1       1.359   2.211  -0.677  1.00  0.00     0.044 C 
HETATM    3  C7  UNL     1       1.328   3.119   0.517  1.00  0.00    -0.014 C 
HETATM    4  C8  UNL     1       0.147   3.144   1.109  1.00  0.00    -0.032 C 
HETATM    5  C9  UNL     1      -0.538   2.040   1.202  1.00  0.00     0.011 C 
HETATM    6  C10 UNL     1       0.329   0.804   1.095  1.00  0.00     0.119 C 
HETATM    7  N1  UNL     1      -0.453  -0.397   1.382  1.00  0.00    -0.381 N 
HETATM    8  C11 UNL     1      -1.678  -0.712   0.690  1.00  0.00     0.032 C 
HETATM    9  C12 UNL     1      -2.102  -0.261  -0.487  1.00  0.00    -0.051 C 
HETATM   10  C13 UNL     1      -3.335  -0.527  -1.268  1.00  0.00     0.063 C 
HETATM   11  C14 UNL     1      -4.541  -0.809  -0.430  1.00  0.00     0.178 C 
HETATM   12  O1  UNL     1      -4.443  -1.976   0.329  1.00  0.00    -0.363 OA
HETATM   13  C15 UNL     1      -3.579  -2.210   1.415  1.00  0.00     0.137 C 
HETATM   14  C16 UNL     1      -2.384  -1.662   1.569  1.00  0.00     0.053 C 
HETATM   15  C17 UNL     1      -1.317   0.706  -1.337  1.00  0.00     0.038 C 
HETATM   16  C18 UNL     1       0.103   0.258  -1.346  1.00  0.00     0.021 C 
HETATM   17  H8  UNL     1      -0.197  -1.129   2.111  1.00  0.00     0.160 HD
ENDROOT
BRANCH   1  18
HETATM   18  C4  UNL     1       2.213   0.019  -0.210  1.00  0.00    -0.045 A 
HETATM   19  C3  UNL     1       2.584  -0.726  -1.316  1.00  0.00     0.010 A 
HETATM   20  C2  UNL     1       3.713  -1.496  -1.417  1.00  0.00     0.026 A 
HETATM   21  C1  UNL     1       4.576  -1.559  -0.348  1.00  0.00     0.055 A 
HETATM   22 CL1  UNL     1       6.030  -2.514  -0.396  1.00  0.00    -0.083 Cl
HETATM   23  C20 UNL     1       4.265  -0.840   0.786  1.00  0.00     0.056 A 
HETATM   24  C19 UNL     1       3.114  -0.095   0.802  1.00  0.00     0.033 A 
HETATM   25 CL2  UNL     1       5.344  -0.902   2.162  1.00  0.00    -0.083 Cl
ENDBRANCH   1  18
TORSDOF 1
