REMARK  0 active torsions:
REMARK  status: ('A' for Active; 'I' for Inactive)
ROOT
HETATM    1  C1  UNL     1      -0.850   0.738   1.488  1.00  0.00     0.051 C 
HETATM    2  C2  UNL     1      -1.809  -0.053   0.613  1.00  0.00    -0.029 A 
HETATM    3  C3  UNL     1      -1.950  -1.237   1.274  1.00  0.00     0.034 A 
HETATM    4  C4  UNL     1      -3.257  -1.633   0.965  1.00  0.00     0.029 A 
HETATM    5  C5  UNL     1      -4.071  -0.868   0.147  1.00  0.00     0.003 A 
HETATM    6  C6  UNL     1      -3.704   0.328  -0.443  1.00  0.00     0.008 A 
HETATM    7  C7  UNL     1      -2.429   0.793  -0.191  1.00  0.00    -0.040 A 
HETATM    8  C8  UNL     1      -1.541   1.813  -0.886  1.00  0.00     0.076 C 
HETATM    9  C9  UNL     1      -2.222   1.965  -2.284  1.00  0.00     0.021 C 
HETATM   10 CL1  UNL     1      -2.737   3.182  -3.408  1.00  0.00    -0.088 Cl
HETATM   11  C10 UNL     1      -2.472   0.688  -2.718  1.00  0.00     0.020 C 
HETATM   12  C11 UNL     1      -1.699  -0.475  -2.250  1.00  0.00     0.005 C 
HETATM   13  C12 UNL     1      -0.670  -0.398  -1.361  1.00  0.00    -0.069 C 
HETATM   14  C13 UNL     1       0.139  -1.307  -0.591  1.00  0.00     0.060 C 
HETATM   15  C14 UNL     1      -0.111  -2.045   0.593  1.00  0.00     0.089 C 
HETATM   16  C15 UNL     1       1.303  -2.575   1.061  1.00  0.00     0.055 C 
HETATM   17  C16 UNL     1       2.175  -1.383   1.118  1.00  0.00     0.015 C 
HETATM   18  C17 UNL     1       2.633  -0.110   0.913  1.00  0.00     0.098 C 
HETATM   19  O1  UNL     1       3.836   0.152   1.507  1.00  0.00    -0.346 OA
HETATM   20  C18 UNL     1       4.915   0.896   0.958  1.00  0.00     0.202 C 
HETATM   21  C19 UNL     1       4.370   2.000   0.073  1.00  0.00     0.202 C 
HETATM   22  O2  UNL     1       2.965   2.139   0.290  1.00  0.00    -0.346 OA
HETATM   23  C20 UNL     1       2.094   1.077   0.167  1.00  0.00     0.098 C 
HETATM   24  C21 UNL     1       0.969   1.314  -0.588  1.00  0.00     0.023 C 
HETATM   25  C22 UNL     1      -0.282   1.091  -1.259  1.00  0.00     0.053 C 
HETATM   26  N1  UNL     1      -0.741  -1.646   1.822  1.00  0.00    -0.384 N 
HETATM   27  H22 UNL     1      -1.216  -1.353   2.690  1.00  0.00     0.160 HD
ENDROOT
TORSDOF 0
