REMARK  4 active torsions:
REMARK  status: ('A' for Active; 'I' for Inactive)
REMARK    1  A    between atoms: O1_2  and  C2_3 
REMARK    2  A    between atoms: C8_12  and  N3_13 
REMARK    3  A    between atoms: N3_13  and  C9_14 
REMARK    4  A    between atoms: C9_14  and  C10_15 
ROOT
HETATM    1  C2  UNL     1       4.289  -0.149   0.334  1.00  0.00     0.064 C 
HETATM    2  C3  UNL     1       4.449   0.789   1.247  1.00  0.00     0.013 C 
HETATM    3  C4  UNL     1       3.489   1.953   1.351  1.00  0.00     0.032 C 
HETATM    4  C5  UNL     1       2.375   2.651   0.958  1.00  0.00     0.196 C 
HETATM    5  O2  UNL     1       1.227   2.835   0.135  1.00  0.00    -0.324 OA
HETATM    6  C6  UNL     1       0.269   1.815   0.378  1.00  0.00     0.197 A 
HETATM    7  N1  UNL     1      -0.177   1.946   1.627  1.00  0.00    -0.216 NA
HETATM    8  C7  UNL     1      -1.092   1.139   2.180  1.00  0.00     0.238 A 
HETATM    9  N2  UNL     1      -1.554   0.157   1.392  1.00  0.00    -0.222 NA
HETATM   10  C8  UNL     1      -1.144  -0.025   0.129  1.00  0.00     0.156 A 
HETATM   11  C16 UNL     1      -0.210   0.789  -0.460  1.00  0.00     0.128 A 
HETATM   12  N4  UNL     1       0.129   0.525  -1.822  1.00  0.00    -0.380 N 
HETATM   13  C17 UNL     1       1.501   0.721  -1.999  1.00  0.00     0.147 C 
HETATM   14  C18 UNL     1       2.503  -0.235  -1.600  1.00  0.00    -0.005 C 
HETATM   15  C19 UNL     1       3.502  -0.593  -0.805  1.00  0.00     0.034 C 
HETATM   16  H16 UNL     1      -0.622   0.243  -2.487  1.00  0.00     0.160 HD
ENDROOT
BRANCH  10  17
HETATM   17  N3  UNL     1      -1.708  -1.119  -0.579  1.00  0.00    -0.369 N 
HETATM   18  H8  UNL     1      -1.383  -1.299  -1.566  1.00  0.00     0.161 HD
BRANCH  17  19
HETATM   19  C9  UNL     1      -2.699  -2.033  -0.062  1.00  0.00     0.160 C 
BRANCH  19  20
HETATM   20  C10 UNL     1      -3.986  -1.441   0.301  1.00  0.00    -0.041 A 
HETATM   21  C11 UNL     1      -4.496  -0.976   1.497  1.00  0.00     0.009 A 
HETATM   22  C12 UNL     1      -5.740  -0.438   1.613  1.00  0.00     0.001 A 
HETATM   23  C13 UNL     1      -6.577  -0.320   0.545  1.00  0.00     0.000 A 
HETATM   24  C14 UNL     1      -6.134  -0.764  -0.671  1.00  0.00     0.001 A 
HETATM   25  C15 UNL     1      -4.874  -1.305  -0.776  1.00  0.00     0.009 A 
ENDBRANCH  19  20
ENDBRANCH  17  19
ENDBRANCH  10  17
BRANCH   1  26
HETATM   26  O1  UNL     1       5.389  -0.969   0.690  1.00  0.00    -0.356 OA
HETATM   27  C1  UNL     1       6.675  -0.549   0.307  1.00  0.00     0.210 C 
ENDBRANCH   1  26
TORSDOF 4
