REMARK  7 active torsions:
REMARK  status: ('A' for Active; 'I' for Inactive)
REMARK    1  A    between atoms: C6_6  and  N1_7 
REMARK    2  A    between atoms: N1_7  and  N2_8 
REMARK    3  A    between atoms: C7_9  and  C8_10 
REMARK    4  A    between atoms: C7_9  and  C16_20 
REMARK    5  A    between atoms: C9_11  and  C10_12 
REMARK    6  A    between atoms: C16_20  and  C17_21 
REMARK    7  A    between atoms: C17_21  and  C18_22 
ROOT
HETATM    1  N2  UNL     1      -1.182  -0.016   0.235  1.00  0.00    -0.179 NA
HETATM    2  C7  UNL     1      -0.494   1.026   0.554  1.00  0.00     0.054 C 
ENDROOT
BRANCH   2   3
HETATM    3  C8  UNL     1       0.944   0.835   0.704  1.00  0.00     0.028 C 
HETATM    4  C9  UNL     1       1.514  -0.348   0.522  1.00  0.00     0.013 C 
BRANCH   4   5
HETATM    5  C10 UNL     1       2.999  -0.552   0.676  1.00  0.00     0.200 C 
HETATM    6  O1  UNL     1       3.287  -1.144   1.888  1.00  0.00    -0.373 OA
HETATM    7  C11 UNL     1       3.585  -2.466   1.768  1.00  0.00     0.195 C 
HETATM    8  C12 UNL     1       2.596  -3.212   0.859  1.00  0.00     0.201 C 
HETATM    9  O2  UNL     1       2.680  -2.555  -0.420  1.00  0.00    -0.351 OA
HETATM   10  C13 UNL     1       3.441  -1.367  -0.479  1.00  0.00     0.074 C 
HETATM   11  C14 UNL     1       4.360  -1.020  -1.360  1.00  0.00     0.004 C 
HETATM   12  C15 UNL     1       4.951   0.309  -1.104  1.00  0.00     0.038 C 
ENDBRANCH   4   5
ENDBRANCH   2   3
BRANCH   2  13
HETATM   13  C16 UNL     1      -1.039   2.399   0.780  1.00  0.00     0.065 C 
BRANCH  13  14
HETATM   14  C17 UNL     1      -0.392   3.338  -0.208  1.00  0.00     0.035 C 
BRANCH  14  15
HETATM   15  C18 UNL     1      -0.942   4.698   0.026  1.00  0.00    -0.007 C 
HETATM   16  C19 UNL     1      -0.296   5.802   0.361  1.00  0.00     0.004 C 
HETATM   17  C20 UNL     1       1.168   5.692   0.528  1.00  0.00     0.061 C 
HETATM   18 CL1  UNL     1      -1.288   7.236   0.554  1.00  0.00    -0.090 Cl
ENDBRANCH  14  15
ENDBRANCH  13  14
ENDBRANCH   2  13
BRANCH   1  19
HETATM   19  N1  UNL     1      -2.575   0.030   0.059  1.00  0.00    -0.278 N 
HETATM   20  H7  UNL     1      -3.359   0.723   0.149  1.00  0.00     0.189 HD
BRANCH  19  21
HETATM   21  C6  UNL     1      -3.232  -1.157  -0.366  1.00  0.00     0.050 A 
HETATM   22  C5  UNL     1      -3.337  -1.301  -1.743  1.00  0.00     0.031 A 
HETATM   23  C4  UNL     1      -3.966  -2.432  -2.274  1.00  0.00     0.003 A 
HETATM   24  C3  UNL     1      -4.488  -3.415  -1.444  1.00  0.00     0.007 A 
HETATM   25  C2  UNL     1      -4.368  -3.243  -0.080  1.00  0.00    -0.060 A 
HETATM   26  C1  UNL     1      -4.879  -4.214   0.929  1.00  0.00     0.048 C 
HETATM   27  C21 UNL     1      -3.755  -2.143   0.450  1.00  0.00     0.037 A 
ENDBRANCH  19  21
ENDBRANCH   1  19
TORSDOF 7
