REMARK  1 active torsions:
REMARK  status: ('A' for Active; 'I' for Inactive)
REMARK    1  A    between atoms: C1_2  and  C2_3 
ROOT
HETATM    1  C2  UNL     1       3.628  -0.473   0.680  1.00  0.00     0.015 C 
HETATM    2  C3  UNL     1       3.196   0.536  -0.008  1.00  0.00     0.034 C 
HETATM    3  C4  UNL     1       3.603   1.836  -0.581  1.00  0.00     0.065 C 
HETATM    4  C5  UNL     1       2.560   2.910  -0.445  1.00  0.00     0.062 C 
HETATM    5  C6  UNL     1       1.218   2.429  -0.458  1.00  0.00     0.034 C 
HETATM    6  N1  UNL     1       0.863   1.238  -0.548  1.00  0.00    -0.176 NA
HETATM    7  N2  UNL     1       1.871   0.261  -0.318  1.00  0.00    -0.238 N 
HETATM    8  C7  UNL     1       1.237  -0.950  -0.474  1.00  0.00     0.059 A 
HETATM    9  C8  UNL     1       1.984  -1.993  -0.946  1.00  0.00     0.031 A 
HETATM   10  C9  UNL     1       1.217  -3.132  -1.152  1.00  0.00     0.003 A 
HETATM   11  C10 UNL     1      -0.164  -3.247  -0.922  1.00  0.00     0.011 A 
HETATM   12  C11 UNL     1      -0.928  -2.217  -0.453  1.00  0.00    -0.032 A 
HETATM   13  C12 UNL     1      -0.057  -1.198  -0.297  1.00  0.00     0.043 A 
HETATM   14  C13 UNL     1      -2.323  -2.067  -0.267  1.00  0.00     0.046 C 
HETATM   15  C14 UNL     1      -3.218  -1.120  -0.142  1.00  0.00     0.077 C 
HETATM   16  O1  UNL     1      -4.533  -1.420   0.020  1.00  0.00    -0.351 OA
HETATM   17  C15 UNL     1      -5.461  -0.870   0.942  1.00  0.00     0.201 C 
HETATM   18  C16 UNL     1      -5.599   0.622   0.728  1.00  0.00     0.195 C 
HETATM   19  O2  UNL     1      -4.461   1.021   0.024  1.00  0.00    -0.376 OA
HETATM   20  C17 UNL     1      -3.221   0.401  -0.126  1.00  0.00     0.094 C 
HETATM   21  C18 UNL     1      -2.436   1.543  -0.190  1.00  0.00     0.121 C 
HETATM   22  C19 UNL     1      -1.479   2.695  -0.270  1.00  0.00     0.039 C 
HETATM   23  C20 UNL     1      -0.171   2.812  -0.364  1.00  0.00     0.025 C 
ENDROOT
BRANCH   1  24
HETATM   24  C1  UNL     1       5.054  -0.431   1.119  1.00  0.00     0.143 C 
HETATM   25 CL1  UNL     1       5.249  -0.490   2.868  1.00  0.00    -0.126 Cl
ENDBRANCH   1  24
TORSDOF 1
