REMARK  4 active torsions:
REMARK  status: ('A' for Active; 'I' for Inactive)
REMARK    1  A    between atoms: C3_3  and  N1_4 
REMARK    2  A    between atoms: N1_4  and  C5_6 
REMARK    3  A    between atoms: C11_15  and  C12_16 
REMARK    4  A    between atoms: C12_16  and  O1_19 
ROOT
HETATM    1  C5  UNL     1      -2.058   1.088   0.627  1.00  0.00     0.161 A 
HETATM    2  N2  UNL     1      -2.010   2.432   0.887  1.00  0.00    -0.222 NA
HETATM    3  C6  UNL     1      -0.817   3.066   0.708  1.00  0.00     0.238 A 
HETATM    4  N3  UNL     1       0.342   2.523   0.300  1.00  0.00    -0.215 NA
HETATM    5  C7  UNL     1       0.352   1.180   0.025  1.00  0.00     0.201 A 
HETATM    6  C8  UNL     1      -0.863   0.562   0.212  1.00  0.00     0.129 A 
HETATM    7  N4  UNL     1      -0.848  -0.845  -0.106  1.00  0.00    -0.377 N 
HETATM    8  C9  UNL     1       0.127  -1.416  -1.018  1.00  0.00     0.185 C 
HETATM    9  C10 UNL     1       1.463  -0.860  -0.664  1.00  0.00     0.075 C 
HETATM   10  C11 UNL     1       2.616  -1.493  -0.572  1.00  0.00     0.071 C 
HETATM   11  O2  UNL     1       1.476   0.501  -0.398  1.00  0.00    -0.293 OA
HETATM   12  H10 UNL     1      -1.562  -1.463   0.330  1.00  0.00     0.160 HD
ENDROOT
BRANCH  10  13
HETATM   13  C12 UNL     1       4.031  -1.316  -0.276  1.00  0.00     0.066 C 
HETATM   14  C13 UNL     1       4.874  -2.324  -0.346  1.00  0.00     0.006 C 
HETATM   15  C14 UNL     1       6.301  -2.089  -0.034  1.00  0.00     0.038 C 
BRANCH  13  16
HETATM   16  O1  UNL     1       4.166   0.020   0.046  1.00  0.00    -0.356 OA
HETATM   17  C15 UNL     1       4.040   0.539   1.349  1.00  0.00     0.210 C 
ENDBRANCH  13  16
ENDBRANCH  10  13
BRANCH   1  18
HETATM   18  N1  UNL     1      -3.280   0.376   0.795  1.00  0.00    -0.344 N 
HETATM   19  C4  UNL     1      -3.665  -0.768   1.608  1.00  0.00     0.157 C 
BRANCH  18  20
HETATM   20  C3  UNL     1      -4.220   1.018  -0.047  1.00  0.00     0.088 C 
HETATM   21  C2  UNL     1      -4.672   1.066  -1.276  1.00  0.00    -0.014 C 
HETATM   22  C1  UNL     1      -5.773   2.038  -1.584  1.00  0.00     0.037 C 
ENDBRANCH  18  20
ENDBRANCH   1  18
TORSDOF 4
