REMARK  3 active torsions:
REMARK  status: ('A' for Active; 'I' for Inactive)
REMARK    1  A    between atoms: C5_7  and  C6_8 
REMARK    2  A    between atoms: C6_8  and  C7_9 
REMARK    3  A    between atoms: N2_20  and  C15_21 
ROOT
HETATM    1  C6  UNL     1      -0.330   0.147  -1.249  1.00  0.00     0.068 A 
HETATM    2  C13 UNL     1      -0.336  -0.934  -1.236  1.00  0.00    -0.007 A 
HETATM    3  C14 UNL     1      -0.334  -1.754  -1.204  1.00  0.00     0.054 A 
HETATM    4  N1  UNL     1      -0.326  -2.755  -1.142  1.00  0.00    -0.220 NA
HETATM    5  N2  UNL     1      -0.023  -1.369   0.114  1.00  0.00     0.000 N 
HETATM    6  H11 UNL     1      -0.118  -3.236  -0.243  1.00  0.00     0.147 HD
ENDROOT
BRANCH   1   7
HETATM    7  C5  UNL     1       1.164   0.630  -0.877  1.00  0.00     0.196 C 
HETATM    8  C2  UNL     1       2.003  -0.385  -1.601  1.00  0.00     0.067 C 
HETATM    9  C1  UNL     1       2.977  -1.252  -1.406  1.00  0.00     0.049 C 
HETATM   10  O1  UNL     1       1.621  -0.420  -2.939  1.00  0.00    -0.351 OA
HETATM   11  C3  UNL     1       0.986   0.658  -3.565  1.00  0.00     0.201 C 
HETATM   12  C4  UNL     1       0.919   1.920  -2.777  1.00  0.00     0.195 C 
HETATM   13  O2  UNL     1       1.372   1.821  -1.492  1.00  0.00    -0.376 OA
ENDBRANCH   1   7
BRANCH   1  14
HETATM   14  C7  UNL     1      -1.168   0.861  -0.124  1.00  0.00    -0.039 A 
HETATM   15  C8  UNL     1      -2.477   0.454  -0.434  1.00  0.00     0.010 A 
HETATM   16  C9  UNL     1      -3.538   0.897   0.366  1.00  0.00     0.026 A 
HETATM   17  C10 UNL     1      -3.297   1.732   1.458  1.00  0.00     0.055 A 
HETATM   18 CL1  UNL     1      -4.493   2.361   2.536  1.00  0.00    -0.083 Cl
HETATM   19  C11 UNL     1      -1.997   2.088   1.699  1.00  0.00     0.056 A 
HETATM   20 CL2  UNL     1      -1.434   3.132   3.014  1.00  0.00    -0.083 Cl
HETATM   21  C12 UNL     1      -0.930   1.678   0.942  1.00  0.00     0.034 A 
ENDBRANCH   1  14
BRANCH   5  22
HETATM   22  C15 UNL     1       0.282  -1.202   1.570  1.00  0.00    -0.026 A 
HETATM   23  C16 UNL     1      -0.850  -1.035   2.391  1.00  0.00     0.012 A 
HETATM   24  C17 UNL     1      -0.593  -0.927   3.706  1.00  0.00     0.001 A 
HETATM   25  C18 UNL     1       0.730  -0.996   4.031  1.00  0.00     0.000 A 
HETATM   26  C19 UNL     1       1.828  -1.157   3.233  1.00  0.00     0.001 A 
HETATM   27  C20 UNL     1       1.608  -1.269   1.907  1.00  0.00     0.012 A 
ENDBRANCH   5  22
TORSDOF 3
