REMARK  3 active torsions:
REMARK  status: ('A' for Active; 'I' for Inactive)
REMARK    1  A    between atoms: C4_5  and  N2_6 
REMARK    2  A    between atoms: C6_8  and  C7_9 
REMARK    3  A    between atoms: C8_11  and  C9_12 
ROOT
HETATM    1  C7  UNL     1      -1.864   0.266   0.979  1.00  0.00     0.252 A 
HETATM    2  N3  UNL     1      -2.415   1.482   1.571  1.00  0.00    -0.251 NA
HETATM    3  C8  UNL     1      -3.687   1.540   1.360  1.00  0.00     0.147 A 
HETATM    4  C11 UNL     1      -4.150   0.375   0.602  1.00  0.00     0.166 A 
HETATM    5  N6  UNL     1      -5.185  -0.270   0.032  1.00  0.00    -0.225 NA
HETATM    6  C12 UNL     1      -4.738  -1.420  -0.543  1.00  0.00     0.103 A 
HETATM    7  C13 UNL     1      -5.468  -2.357  -1.222  1.00  0.00     0.150 A 
HETATM    8  N7  UNL     1      -4.750  -3.413  -1.691  1.00  0.00    -0.271 NA
HETATM    9  C14 UNL     1      -3.417  -3.497  -1.483  1.00  0.00     0.118 A 
HETATM   10  C15 UNL     1      -2.695  -2.527  -0.786  1.00  0.00     0.051 A 
HETATM   11  C16 UNL     1      -3.383  -1.426  -0.286  1.00  0.00     0.070 A 
HETATM   12  N8  UNL     1      -3.023  -0.344   0.405  1.00  0.00    -0.299 N 
ENDROOT
BRANCH   1  13
HETATM   13  C6  UNL     1      -0.764   0.532   0.043  1.00  0.00     0.022 A 
HETATM   14  C5  UNL     1       0.437  -0.156  -0.010  1.00  0.00     0.125 A 
HETATM   15  N2  UNL     1       1.209   0.344  -0.977  1.00  0.00    -0.276 N 
HETATM   16  N9  UNL     1       0.555   1.327  -1.550  1.00  0.00    -0.184 NA
HETATM   17  C17 UNL     1      -0.665   1.485  -0.960  1.00  0.00     0.151 A 
BRANCH  15  18
HETATM   18  C4  UNL     1       2.542  -0.133  -1.320  1.00  0.00     0.113 C 
HETATM   19  C3  UNL     1       3.036  -1.133  -0.328  1.00  0.00     0.057 C 
HETATM   20  C2  UNL     1       4.537  -1.255  -0.464  1.00  0.00     0.274 C 
HETATM   21  N1  UNL     1       5.167  -0.038   0.003  1.00  0.00     0.084 N 
HETATM   22  C1  UNL     1       6.537  -0.062  -0.433  1.00  0.00     0.309 C 
HETATM   23  C19 UNL     1       4.450   1.158  -0.313  1.00  0.00     0.274 C 
HETATM   24  C18 UNL     1       3.495   1.003  -1.481  1.00  0.00     0.057 C 
ENDBRANCH  15  18
ENDBRANCH   1  13
BRANCH   3  25
HETATM   25  C9  UNL     1      -4.529   2.635   1.828  1.00  0.00     0.184 A 
HETATM   26  N4  UNL     1      -4.283   3.716   2.497  1.00  0.00    -0.220 NA
HETATM   27  C10 UNL     1      -5.655   4.101   2.454  1.00  0.00     0.237 A 
HETATM   28  N5  UNL     1      -5.904   3.015   1.782  1.00  0.00    -0.220 NA
ENDBRANCH   3  25
TORSDOF 3
