REMARK  1 active torsions:
REMARK  status: ('A' for Active; 'I' for Inactive)
REMARK    1  A    between atoms: C9_13  and  N4_14 
ROOT
HETATM    1  C1  UNL     1      -2.056  -3.707  -1.154  1.00  0.00     0.309 C 
HETATM    2  N1  UNL     1      -2.341  -2.349  -1.476  1.00  0.00     0.084 N 
HETATM    3  C2  UNL     1      -3.437  -1.753  -0.773  1.00  0.00     0.273 C 
HETATM    4  C3  UNL     1      -2.948  -0.551   0.009  1.00  0.00     0.049 C 
HETATM    5  C4  UNL     1      -1.712  -1.042   0.788  1.00  0.00     0.055 C 
HETATM    6  N2  UNL     1      -1.514  -0.325   1.984  1.00  0.00    -0.340 NA
HETATM    7  B1  UNL     1      -1.911   1.183   1.921  1.00  0.00     0.426 B 
HETATM    8  C5  UNL     1      -0.579   2.039   1.809  1.00  0.00    -0.019 A 
HETATM    9  C6  UNL     1      -0.819   3.028   0.972  1.00  0.00    -0.030 A 
HETATM   10  C7  UNL     1       0.055   4.072   0.462  1.00  0.00     0.031 C 
HETATM   11  C8  UNL     1       1.037   3.284  -0.024  1.00  0.00     0.119 C 
HETATM   12  N3  UNL     1       0.966   1.917   0.079  1.00  0.00    -0.243 NA
HETATM   13  C9  UNL     1       0.442   0.994  -0.623  1.00  0.00     0.147 C 
HETATM   14  C10 UNL     1       0.578  -0.390  -0.193  1.00  0.00     0.173 C 
HETATM   15  N5  UNL     1       1.555  -1.095  -1.072  1.00  0.00    -0.355 N 
HETATM   16  C11 UNL     1       2.854  -0.672  -0.620  1.00  0.00     0.057 A 
HETATM   17  C12 UNL     1       4.139  -0.572  -1.153  1.00  0.00     0.031 A 
HETATM   18  C13 UNL     1       5.195  -0.108  -0.415  1.00  0.00     0.002 A 
HETATM   19  C14 UNL     1       5.064   0.287   0.885  1.00  0.00     0.002 A 
HETATM   20  C15 UNL     1       3.808   0.201   1.441  1.00  0.00     0.031 A 
HETATM   21  C16 UNL     1       2.746  -0.266   0.699  1.00  0.00     0.057 A 
HETATM   22  N6  UNL     1       1.379  -0.447   1.037  1.00  0.00    -0.355 N 
HETATM   23  C17 UNL     1      -0.582  -1.278  -0.123  1.00  0.00     0.087 C 
HETATM   24  C18 UNL     1      -1.187  -1.478  -1.525  1.00  0.00     0.282 C 
HETATM   25  C19 UNL     1      -2.191   2.967   0.485  1.00  0.00     0.102 A 
HETATM   26  N7  UNL     1      -2.829   1.960   0.985  1.00  0.00    -0.338 NA
HETATM   27  H9  UNL     1      -2.024  -0.676   2.829  1.00  0.00     0.106 HD
HETATM   28  H15 UNL     1       1.602  -1.778  -1.887  1.00  0.00     0.162 HD
HETATM   29  H20 UNL     1       0.973  -0.596   1.983  1.00  0.00     0.162 HD
ENDROOT
BRANCH  13  30
HETATM   30  N4  UNL     1      -0.173   1.640  -1.724  1.00  0.00    -0.384 N 
HETATM   31  H13 UNL     1       0.309   2.266  -2.409  1.00  0.00     0.157 HD
HETATM   32  H14 UNL     1      -1.035   1.797  -2.245  1.00  0.00     0.157 HD
ENDBRANCH  13  30
TORSDOF 1
