REMARK  6 active torsions:
REMARK  status: ('A' for Active; 'I' for Inactive)
REMARK    1  A    between atoms: C4_5  and  N2_6 
REMARK    2  A    between atoms: C6_8  and  C7_9 
REMARK    3  A    between atoms: C9_12  and  N4_13 
REMARK    4  A    between atoms: C10_14  and  C11_15 
REMARK    5  A    between atoms: N6_18  and  C13_19 
REMARK    6  A    between atoms: C13_19  and  C14_20 
ROOT
HETATM    1  C7  UNL     1      -0.292   0.216  -0.186  1.00  0.00     0.088 A 
HETATM    2  C8  UNL     1      -0.280   1.094   0.872  1.00  0.00     0.151 A 
HETATM    3  N3  UNL     1       0.936   1.407   1.381  1.00  0.00    -0.239 NA
HETATM    4  C9  UNL     1       2.042   0.859   0.843  1.00  0.00     0.153 A 
HETATM    5  C10 UNL     1       2.063  -0.022  -0.214  1.00  0.00     0.148 A 
HETATM    6  N7  UNL     1       0.835  -0.303  -0.688  1.00  0.00    -0.239 NA
ENDROOT
BRANCH   1   7
HETATM    7  C6  UNL     1      -1.571  -0.180  -0.805  1.00  0.00     0.030 A 
HETATM    8  C5  UNL     1      -2.867   0.193  -0.497  1.00  0.00     0.128 A 
HETATM    9  N2  UNL     1      -3.739  -0.424  -1.341  1.00  0.00    -0.276 N 
HETATM   10  N8  UNL     1      -3.027  -1.180  -2.177  1.00  0.00    -0.184 NA
HETATM   11  C20 UNL     1      -1.725  -1.046  -1.870  1.00  0.00     0.154 A 
BRANCH   9  12
HETATM   12  C4  UNL     1      -5.184  -0.287  -1.336  1.00  0.00     0.113 C 
HETATM   13  C3  UNL     1      -5.736  -1.315  -0.391  1.00  0.00     0.057 C 
HETATM   14  C2  UNL     1      -7.182  -1.112  -0.053  1.00  0.00     0.274 C 
HETATM   15  N1  UNL     1      -7.603   0.244   0.009  1.00  0.00     0.084 N 
HETATM   16  C1  UNL     1      -8.469   0.408   1.168  1.00  0.00     0.309 C 
HETATM   17  C22 UNL     1      -6.558   1.218   0.121  1.00  0.00     0.274 C 
HETATM   18  C21 UNL     1      -5.520   1.115  -0.971  1.00  0.00     0.057 C 
ENDBRANCH   9  12
ENDBRANCH   1   7
BRANCH   5  19
HETATM   19  C11 UNL     1       3.249  -0.629  -0.786  1.00  0.00     0.157 A 
HETATM   20  N5  UNL     1       3.399  -0.987  -2.036  1.00  0.00    -0.251 NA
HETATM   21  C12 UNL     1       4.732  -1.453  -1.780  1.00  0.00     0.277 A 
HETATM   22  N6  UNL     1       4.551  -1.080  -0.414  1.00  0.00    -0.342 N 
BRANCH  22  23
HETATM   23  C13 UNL     1       5.374  -1.165   0.756  1.00  0.00     0.166 C 
BRANCH  23  24
HETATM   24  C14 UNL     1       6.616  -0.353   0.566  1.00  0.00    -0.018 A 
HETATM   25  C15 UNL     1       6.788   0.890   1.134  1.00  0.00     0.010 A 
HETATM   26  C16 UNL     1       7.897   1.685   0.994  1.00  0.00     0.001 A 
HETATM   27  C17 UNL     1       8.941   1.204   0.213  1.00  0.00     0.002 A 
HETATM   28  C18 UNL     1       8.832  -0.015  -0.375  1.00  0.00     0.024 A 
HETATM   29  C19 UNL     1       7.681  -0.767  -0.190  1.00  0.00     0.042 A 
HETATM   30 CL1  UNL     1       7.655  -2.324  -0.983  1.00  0.00    -0.084 Cl
ENDBRANCH  23  24
ENDBRANCH  22  23
ENDBRANCH   5  19
BRANCH   4  31
HETATM   31  N4  UNL     1       3.256   1.271   1.450  1.00  0.00    -0.382 N 
HETATM   32  H11 UNL     1       3.291   0.764   2.362  1.00  0.00     0.157 HD
HETATM   33  H12 UNL     1       3.689   1.940   0.768  1.00  0.00     0.157 HD
ENDBRANCH   4  31
TORSDOF 6
