REMARK  3 active torsions:
REMARK  status: ('A' for Active; 'I' for Inactive)
REMARK    1  A    between atoms: C2_2  and  C3_3 
REMARK    2  A    between atoms: C9_11  and  N2_12 
REMARK    3  A    between atoms: N2_12  and  C10_13 
ROOT
HETATM    1  C3  UNL     1      -4.061  -0.302   0.085  1.00  0.00     0.206 A 
HETATM    2  O1  UNL     1      -3.007  -0.100  -0.609  1.00  0.00     0.000 OA
HETATM    3  N1  UNL     1      -2.999  -1.222   0.316  1.00  0.00     0.142 N 
HETATM    4  C4  UNL     1      -3.151  -2.298   1.283  1.00  0.00     0.320 C 
HETATM    5  C5  UNL     1      -1.792  -1.057  -0.423  1.00  0.00     0.246 A 
HETATM    6  C6  UNL     1      -1.512  -1.633  -1.657  1.00  0.00     0.023 A 
HETATM    7  C7  UNL     1      -0.305  -1.404  -2.284  1.00  0.00     0.001 A 
HETATM    8  C8  UNL     1       0.644  -0.596  -1.694  1.00  0.00     0.029 A 
HETATM    9  C9  UNL     1       0.436   0.010  -0.471  1.00  0.00     0.030 A 
HETATM   10  C16 UNL     1      -0.800  -0.248   0.133  1.00  0.00     0.052 A 
ENDROOT
BRANCH   9  11
HETATM   11  N2  UNL     1       1.358   0.852   0.201  1.00  0.00    -0.367 N 
HETATM   12  H10 UNL     1       0.997   1.726  -0.255  1.00  0.00     0.165 HD
BRANCH  11  13
HETATM   13  C10 UNL     1       2.364   0.485   1.141  1.00  0.00     0.083 C 
HETATM   14  C11 UNL     1       3.643   0.792   1.020  1.00  0.00    -0.085 C 
HETATM   15  B1  UNL     1       4.877   0.299   2.247  1.00  0.00     0.225 B 
HETATM   16  C15 UNL     1       4.014   1.557  -0.163  1.00  0.00    -0.004 C 
HETATM   17  C12 UNL     1       6.606   0.295   1.106  1.00  0.00    -0.105 C 
HETATM   18  C13 UNL     1       6.383   1.394   0.408  1.00  0.00    -0.006 C 
HETATM   19  C14 UNL     1       5.276   1.837  -0.449  1.00  0.00    -0.001 C 
ENDBRANCH  11  13
ENDBRANCH   9  11
BRANCH   1  20
HETATM   20  C2  UNL     1      -5.172   0.621  -0.125  1.00  0.00     0.032 C 
HETATM   21  C1  UNL     1      -4.938   1.565  -1.022  1.00  0.00     0.013 C 
ENDBRANCH   1  20
TORSDOF 3
