REMARK  4 active torsions:
REMARK  status: ('A' for Active; 'I' for Inactive)
REMARK    1  A    between atoms: C7_9  and  C8_10 
REMARK    2  A    between atoms: C10_13  and  N4_14 
REMARK    3  A    between atoms: C11_15  and  C12_16 
REMARK    4  A    between atoms: N6_24  and  C19_25 
ROOT
HETATM    1  C8  UNL     1      -0.383   0.312  -0.906  1.00  0.00     0.089 A 
HETATM    2  C9  UNL     1      -0.498   0.949  -2.094  1.00  0.00     0.151 A 
HETATM    3  N3  UNL     1       0.594   1.314  -2.764  1.00  0.00    -0.244 NA
HETATM    4  C10 UNL     1       1.841   1.090  -2.332  1.00  0.00     0.133 A 
HETATM    5  C11 UNL     1       1.937   0.443  -1.123  1.00  0.00     0.143 A 
HETATM    6  N7  UNL     1       0.837   0.060  -0.422  1.00  0.00    -0.239 NA
ENDROOT
BRANCH   1   7
HETATM    7  C7  UNL     1      -1.315  -0.211  -0.004  1.00  0.00     0.038 A 
HETATM    8  C5  UNL     1      -2.524   0.306  -0.169  1.00  0.00     0.069 A 
HETATM    9  C4  UNL     1      -3.447   1.185  -0.854  1.00  0.00     0.062 C 
HETATM   10  N1  UNL     1      -3.252  -0.205   0.726  1.00  0.00    -0.177 NA
HETATM   11  C3  UNL     1      -4.759   1.426  -0.058  1.00  0.00     0.010 C 
HETATM   12  C2  UNL     1      -5.393   0.236   0.549  1.00  0.00    -0.017 C 
HETATM   13  C1  UNL     1      -5.676  -0.782  -0.528  1.00  0.00     0.010 C 
HETATM   14  C21 UNL     1      -5.096  -0.320   1.857  1.00  0.00     0.026 C 
HETATM   15  C20 UNL     1      -3.937  -1.195   2.183  1.00  0.00     0.151 C 
HETATM   16  N2  UNL     1      -2.724  -1.019   1.508  1.00  0.00    -0.280 N 
HETATM   17  C6  UNL     1      -1.503  -1.019   1.044  1.00  0.00     0.128 A 
ENDBRANCH   1   7
BRANCH   5  18
HETATM   18  C12 UNL     1       3.286   0.204  -0.635  1.00  0.00     0.170 A 
HETATM   19  N5  UNL     1       4.407   0.567  -1.276  1.00  0.00    -0.226 NA
HETATM   20  C13 UNL     1       5.487   0.208  -0.568  1.00  0.00     0.086 A 
HETATM   21  C14 UNL     1       6.827   0.377  -0.838  1.00  0.00     0.034 A 
HETATM   22  C18 UNL     1       5.066  -0.415   0.587  1.00  0.00     0.072 A 
HETATM   23  C15 UNL     1       7.742  -0.102   0.094  1.00  0.00     0.002 A 
HETATM   24  C16 UNL     1       7.298  -0.720   1.237  1.00  0.00     0.002 A 
HETATM   25  C17 UNL     1       5.950  -0.900   1.527  1.00  0.00     0.032 A 
HETATM   26  N6  UNL     1       3.727  -0.385   0.485  1.00  0.00    -0.269 N 
BRANCH  26  27
HETATM   27  C19 UNL     1       2.917  -0.933   1.491  1.00  0.00     0.362 C 
HETATM   28  O1  UNL     1       1.721  -1.116   1.798  1.00  0.00    -0.283 OA
ENDBRANCH  26  27
ENDBRANCH   5  18
BRANCH   4  29
HETATM   29  N4  UNL     1       2.900   1.538  -3.167  1.00  0.00    -0.285 NA
HETATM   30  H11 UNL     1       3.733   1.005  -3.525  1.00  0.00     0.125 HD
HETATM   31  H12 UNL     1       3.722   1.005  -3.518  1.00  0.00     0.125 HD
ENDBRANCH   4  29
TORSDOF 4
