REMARK  4 active torsions:
REMARK  status: ('A' for Active; 'I' for Inactive)
REMARK    1  A    between atoms: N1_1  and  C1_2 
REMARK    2  A    between atoms: C3_5  and  C4_6 
REMARK    3  A    between atoms: C11_16  and  C12_17 
REMARK    4  A    between atoms: C12_17  and  N6_18 
ROOT
HETATM    1  C1  UNL     1      -0.970   0.286  -1.484  1.00  0.00     0.147 A 
HETATM    2  N2  UNL     1       0.061   0.972  -2.038  1.00  0.00    -0.239 NA
HETATM    3  C2  UNL     1       1.297   0.902  -1.474  1.00  0.00     0.151 A 
HETATM    4  C3  UNL     1       1.497   0.138  -0.345  1.00  0.00     0.086 A 
HETATM    5  N5  UNL     1       0.458  -0.529   0.181  1.00  0.00    -0.246 NA
HETATM    6  C11 UNL     1      -0.799  -0.485  -0.355  1.00  0.00     0.097 A 
ENDROOT
BRANCH   6   7
HETATM    7  C12 UNL     1      -1.882  -1.238   0.310  1.00  0.00     0.202 C 
BRANCH   7   8
HETATM    8  N6  UNL     1      -2.652  -0.379   1.132  1.00  0.00    -0.133 NA
HETATM    9  N7  UNL     1      -3.230   0.670   0.474  1.00  0.00    -0.299 N 
HETATM   10  C13 UNL     1      -4.576   0.324   0.124  1.00  0.00     0.072 A 
HETATM   11  H13 UNL     1      -2.631   1.521   0.341  1.00  0.00     0.183 HD
HETATM   12  C14 UNL     1      -5.370   0.928  -0.807  1.00  0.00     0.033 A 
HETATM   13  C18 UNL     1      -4.868  -0.743   0.939  1.00  0.00     0.072 A 
HETATM   14  C15 UNL     1      -6.641   0.379  -0.938  1.00  0.00     0.002 A 
HETATM   15  C16 UNL     1      -7.031  -0.705  -0.156  1.00  0.00     0.002 A 
HETATM   16  C17 UNL     1      -6.152  -1.258   0.771  1.00  0.00     0.033 A 
HETATM   17  N8  UNL     1      -3.722  -1.038   1.766  1.00  0.00    -0.299 N 
HETATM   18  H18 UNL     1      -3.865  -1.640   2.625  1.00  0.00     0.183 HD
ENDBRANCH   7   8
ENDBRANCH   6   7
BRANCH   1  19
HETATM   19  N1  UNL     1      -2.211   0.382  -2.127  1.00  0.00    -0.382 N 
HETATM   20  H1  UNL     1      -2.826   1.207  -2.249  1.00  0.00     0.157 HD
HETATM   21  H2  UNL     1      -2.398  -0.605  -2.479  1.00  0.00     0.157 HD
ENDBRANCH   1  19
BRANCH   4  22
HETATM   22  C4  UNL     1       2.800   0.027   0.295  1.00  0.00     0.012 A 
HETATM   23  C5  UNL     1       2.943  -0.753   1.422  1.00  0.00     0.132 A 
HETATM   24  N3  UNL     1       4.140  -0.868   2.025  1.00  0.00    -0.242 NA
HETATM   25  C6  UNL     1       5.261  -0.254   1.595  1.00  0.00     0.129 A 
HETATM   26  C7  UNL     1       5.179   0.552   0.454  1.00  0.00    -0.010 A 
HETATM   27  N4  UNL     1       6.624  -0.172   1.987  1.00  0.00    -0.374 N 
HETATM   28  C8  UNL     1       3.940   0.658  -0.152  1.00  0.00     0.026 A 
HETATM   29  C9  UNL     1       6.494   1.158   0.108  1.00  0.00     0.062 C 
HETATM   30  C10 UNL     1       7.465   0.336   0.922  1.00  0.00     0.126 C 
HETATM   31  H10 UNL     1       6.944  -0.461   2.956  1.00  0.00     0.161 HD
ENDBRANCH   4  22
TORSDOF 4
