REMARK  3 active torsions:
REMARK  status: ('A' for Active; 'I' for Inactive)
REMARK    1  A    between atoms: C2_2  and  C3_3 
REMARK    2  A    between atoms: C3_3  and  N1_4 
REMARK    3  A    between atoms: N1_4  and  C4_5 
ROOT
HETATM    1  C4  UNL     1       1.375  -0.618  -0.148  1.00  0.00     0.025 C 
HETATM    2  C5  UNL     1       0.917   0.246   0.855  1.00  0.00     0.127 C 
HETATM    3  N2  UNL     1      -0.527   0.363   0.691  1.00  0.00    -0.270 N 
HETATM    4  C6  UNL     1      -1.028  -0.842   0.989  1.00  0.00     0.338 A 
HETATM    5  O1  UNL     1      -0.479  -1.847   1.499  1.00  0.00    -0.246 OA
HETATM    6  N3  UNL     1      -2.324  -0.657   0.591  1.00  0.00    -0.272 N 
HETATM    7  C7  UNL     1      -2.637   0.534   0.113  1.00  0.00     0.070 A 
HETATM    8  C8  UNL     1      -3.740   1.145  -0.351  1.00  0.00     0.032 A 
HETATM    9  C9  UNL     1      -3.570   2.463  -0.739  1.00  0.00     0.002 A 
HETATM   10  C10 UNL     1      -2.334   3.123  -0.656  1.00  0.00     0.002 A 
HETATM   11  C11 UNL     1      -1.182   2.493  -0.173  1.00  0.00     0.032 A 
HETATM   12  C12 UNL     1      -1.403   1.214   0.189  1.00  0.00     0.070 A 
HETATM   13  C13 UNL     1      -3.001  -1.906   0.634  1.00  0.00     0.102 C 
HETATM   14  C14 UNL     1      -2.292  -2.891   0.017  1.00  0.00     0.017 C 
HETATM   15  C15 UNL     1      -1.044  -3.125  -0.702  1.00  0.00    -0.002 C 
HETATM   16  C16 UNL     1       0.074  -2.551  -1.183  1.00  0.00    -0.021 C 
HETATM   17  C17 UNL     1       0.357  -1.121  -1.070  1.00  0.00     0.085 C 
ENDROOT
BRANCH   1  18
HETATM   18  N1  UNL     1       2.731  -0.636   0.136  1.00  0.00    -0.388 N 
HETATM   19  H6  UNL     1       3.034  -1.122  -0.723  1.00  0.00     0.159 HD
BRANCH  18  20
HETATM   20  C3  UNL     1       3.624  -0.213   1.148  1.00  0.00     0.146 C 
BRANCH  20  21
HETATM   21  C2  UNL     1       3.714   1.255   1.189  1.00  0.00    -0.018 C 
HETATM   22  C1  UNL     1       4.882   1.901   0.995  1.00  0.00     0.008 C 
ENDBRANCH  20  21
ENDBRANCH  18  20
ENDBRANCH   1  18
TORSDOF 3
