REMARK  4 active torsions:
REMARK  status: ('A' for Active; 'I' for Inactive)
REMARK    1  A    between atoms: C3_4  and  C4_5 
REMARK    2  A    between atoms: C9_11  and  N2_12 
REMARK    3  A    between atoms: N2_12  and  C10_13 
REMARK    4  A    between atoms: C10_13  and  C11_14 
ROOT
HETATM    1  C4  UNL     1       2.919   2.313   0.217  1.00  0.00     0.034 C 
HETATM    2  C5  UNL     1       1.708   2.016   0.650  1.00  0.00     0.057 C 
HETATM    3  C6  UNL     1       0.540   2.731   0.091  1.00  0.00     0.084 C 
HETATM    4  C7  UNL     1      -0.382   1.896  -0.729  1.00  0.00     0.126 C 
HETATM    5  N1  UNL     1      -1.126   0.931   0.055  1.00  0.00    -0.383 N 
HETATM    6  C8  UNL     1      -0.633  -0.094   0.919  1.00  0.00     0.128 A 
HETATM    7  C9  UNL     1      -1.485  -1.165   0.988  1.00  0.00     0.156 A 
HETATM    8  N3  UNL     1      -1.071  -2.147   1.793  1.00  0.00    -0.222 NA
HETATM    9  C17 UNL     1       0.088  -2.063   2.465  1.00  0.00     0.238 A 
HETATM   10  N4  UNL     1       0.931  -1.018   2.406  1.00  0.00    -0.215 NA
HETATM   11  C18 UNL     1       0.579   0.011   1.613  1.00  0.00     0.201 A 
HETATM   12  O2  UNL     1       1.529   1.026   1.636  1.00  0.00    -0.294 OA
HETATM   13  H10 UNL     1      -2.190   0.923   0.041  1.00  0.00     0.159 HD
ENDROOT
BRANCH   7  14
HETATM   14  N2  UNL     1      -2.690  -1.254   0.274  1.00  0.00    -0.369 N 
HETATM   15  H11 UNL     1      -3.190  -0.647  -0.399  1.00  0.00     0.161 HD
BRANCH  14  16
HETATM   16  C10 UNL     1      -3.462  -2.462   0.477  1.00  0.00     0.160 C 
BRANCH  16  17
HETATM   17  C11 UNL     1      -4.730  -2.513  -0.281  1.00  0.00    -0.041 A 
HETATM   18  C12 UNL     1      -4.715  -3.051  -1.548  1.00  0.00     0.009 A 
HETATM   19  C13 UNL     1      -5.901  -3.100  -2.257  1.00  0.00     0.001 A 
HETATM   20  C14 UNL     1      -7.091  -2.638  -1.759  1.00  0.00     0.000 A 
HETATM   21  C15 UNL     1      -7.097  -2.103  -0.495  1.00  0.00     0.001 A 
HETATM   22  C16 UNL     1      -5.932  -2.042   0.232  1.00  0.00     0.009 A 
ENDBRANCH  16  17
ENDBRANCH  14  16
ENDBRANCH   7  14
BRANCH   1  23
HETATM   23  C3  UNL     1       4.062   1.606   0.772  1.00  0.00     0.022 C 
HETATM   24  C2  UNL     1       5.232   1.967   0.279  1.00  0.00     0.017 A 
HETATM   25  O1  UNL     1       6.355   1.311   0.786  1.00  0.00     0.000 OA
HETATM   26  S1  UNL     1       6.859   2.375  -0.312  1.00  0.00    -0.133 SA
HETATM   27  C1  UNL     1       6.197  -0.022   1.238  1.00  0.00     0.000 C 
HETATM   28  C19 UNL     1       6.837   3.661  -1.582  1.00  0.00     0.095 C 
ENDBRANCH   1  23
TORSDOF 4
