REMARK  1 active torsions:
REMARK  status: ('A' for Active; 'I' for Inactive)
REMARK    1  A    between atoms: C1_2  and  C2_3 
ROOT
HETATM    1  C2  UNL     1       2.163  -0.261  -0.569  1.00  0.00     0.087 C 
HETATM    2  N2  UNL     1       0.969  -0.687  -0.607  1.00  0.00    -0.257 NA
HETATM    3  C3  UNL     1       0.541  -1.826  -1.400  1.00  0.00     0.421 C 
HETATM    4  N3  UNL     1      -0.873  -2.092  -1.213  1.00  0.00     0.107 N 
HETATM    5  C4  UNL     1      -1.196  -2.551   0.098  1.00  0.00     0.276 C 
HETATM    6  C5  UNL     1      -1.318  -1.426   1.109  1.00  0.00     0.057 C 
HETATM    7  C6  UNL     1      -2.257  -0.340   0.660  1.00  0.00     0.113 C 
HETATM    8  C7  UNL     1      -2.776  -0.749  -0.710  1.00  0.00     0.057 C 
HETATM    9  C8  UNL     1      -1.619  -0.962  -1.667  1.00  0.00     0.276 C 
HETATM   10  N4  UNL     1      -1.642   0.962   0.593  1.00  0.00    -0.276 N 
HETATM   11  C9  UNL     1      -0.716   1.365   1.486  1.00  0.00     0.125 A 
HETATM   12  C10 UNL     1      -0.339   2.648   1.134  1.00  0.00     0.002 A 
HETATM   13  C11 UNL     1      -1.067   2.986   0.012  1.00  0.00     0.151 A 
HETATM   14  N5  UNL     1      -1.842   1.936  -0.279  1.00  0.00    -0.184 NA
HETATM   15  C12 UNL     1       0.662   3.354   1.927  1.00  0.00     0.033 C 
HETATM   16  C13 UNL     1       1.786   2.629   1.809  1.00  0.00     0.117 C 
HETATM   17  N6  UNL     1       1.536   1.501   0.981  1.00  0.00    -0.271 NA
HETATM   18  C14 UNL     1       2.421   0.908   0.291  1.00  0.00     0.148 C 
ENDROOT
BRANCH   1  19
HETATM   19  C1  UNL     1       3.273  -0.854  -1.314  1.00  0.00     0.139 C 
HETATM   20  N1  UNL     1       4.503  -0.948  -1.696  1.00  0.00    -0.310 NA
HETATM   21  H1  UNL     1       5.197  -0.266  -1.330  1.00  0.00     0.186 HD
ENDBRANCH   1  19
TORSDOF 1
