REMARK  7 active torsions:
REMARK  status: ('A' for Active; 'I' for Inactive)
REMARK    1  A    between atoms: C2_2  and  C3_3 
REMARK    2  A    between atoms: C3_3  and  C4_4 
REMARK    3  A    between atoms: N1_7  and  C7_8 
REMARK    4  A    between atoms: C10_12  and  C11_13 
REMARK    5  A    between atoms: C12_15  and  C13_16 
REMARK    6  A    between atoms: N4_19  and  C15_20 
REMARK    7  A    between atoms: C23_30  and  N7_31 
ROOT
HETATM    1  C11 UNL     1      -2.150  -1.515   1.352  1.00  0.00     0.143 A 
HETATM    2  N2  UNL     1      -0.858  -1.214   1.076  1.00  0.00    -0.239 NA
HETATM    3  C12 UNL     1       0.158  -2.040   1.401  1.00  0.00     0.088 A 
HETATM    4  C22 UNL     1      -0.076  -3.245   2.037  1.00  0.00     0.151 A 
HETATM    5  N6  UNL     1      -1.365  -3.573   2.326  1.00  0.00    -0.244 NA
HETATM    6  C23 UNL     1      -2.347  -2.724   1.987  1.00  0.00     0.133 A 
ENDROOT
BRANCH   1   7
HETATM    7  C10 UNL     1      -3.206  -0.593   0.982  1.00  0.00     0.162 C 
HETATM    8  N1  UNL     1      -4.559  -0.804   0.614  1.00  0.00    -0.332 N 
HETATM    9  C6  UNL     1      -5.231   0.466   0.885  1.00  0.00     0.189 C 
HETATM   10  C5  UNL     1      -4.111   1.402   0.574  1.00  0.00     0.055 C 
HETATM   11  C4  UNL     1      -4.191   2.617   0.057  1.00  0.00     0.037 C 
HETATM   12  N8  UNL     1      -2.942   0.691   0.960  1.00  0.00    -0.231 NA
BRANCH   8  13
HETATM   13  C7  UNL     1      -5.031  -2.023   0.107  1.00  0.00     0.130 C 
HETATM   14  C8  UNL     1      -4.518  -2.538  -0.993  1.00  0.00     0.105 C 
HETATM   15  C9  UNL     1      -3.433  -1.937  -1.805  1.00  0.00     0.084 C 
HETATM   16  F1  UNL     1      -4.914  -3.701  -1.543  1.00  0.00    -0.210 F 
ENDBRANCH   8  13
BRANCH  11  17
HETATM   17  C3  UNL     1      -5.489   3.173  -0.274  1.00  0.00     0.053 C 
BRANCH  17  18
HETATM   18  C2  UNL     1      -5.778   4.416   0.083  1.00  0.00    -0.155 C 
HETATM   19  C1  UNL     1      -5.814   5.656   0.545  1.00  0.00     0.096 C 
ENDBRANCH  17  18
ENDBRANCH  11  17
ENDBRANCH   1   7
BRANCH   6  20
HETATM   20  N7  UNL     1      -3.677  -3.108   2.308  1.00  0.00    -0.285 NA
HETATM   21  H26 UNL     1      -4.141  -3.186   3.253  1.00  0.00     0.125 HD
HETATM   22  H27 UNL     1      -3.932  -3.117   3.328  1.00  0.00     0.125 HD
ENDBRANCH   6  20
BRANCH   3  23
HETATM   23  C13 UNL     1       1.542  -1.680   1.087  1.00  0.00     0.030 A 
HETATM   24  C14 UNL     1       2.712  -2.371   1.329  1.00  0.00     0.154 A 
HETATM   25  N3  UNL     1       3.754  -1.634   0.855  1.00  0.00    -0.184 NA
HETATM   26  N4  UNL     1       3.284  -0.510   0.327  1.00  0.00    -0.276 N 
HETATM   27  C21 UNL     1       1.925  -0.495   0.447  1.00  0.00     0.128 A 
BRANCH  26  28
HETATM   28  C15 UNL     1       4.102   0.532  -0.281  1.00  0.00     0.113 C 
HETATM   29  C16 UNL     1       5.506   0.485   0.241  1.00  0.00     0.057 C 
HETATM   30  C17 UNL     1       6.512   0.084  -0.814  1.00  0.00     0.274 C 
HETATM   31  N5  UNL     1       6.452   0.927  -1.982  1.00  0.00     0.084 N 
HETATM   32  C18 UNL     1       7.312   2.092  -1.856  1.00  0.00     0.309 C 
HETATM   33  C19 UNL     1       5.132   1.386  -2.302  1.00  0.00     0.274 C 
HETATM   34  C20 UNL     1       4.040   0.482  -1.790  1.00  0.00     0.057 C 
ENDBRANCH  26  28
ENDBRANCH   3  23
TORSDOF 7
