REMARK  6 active torsions:
REMARK  status: ('A' for Active; 'I' for Inactive)
REMARK    1  A    between atoms: C2_2  and  C3_3 
REMARK    2  A    between atoms: C3_3  and  C4_4 
REMARK    3  A    between atoms: C5_6  and  C6_7 
REMARK    4  A    between atoms: C7_9  and  C8_10 
REMARK    5  A    between atoms: N4_13  and  C10_14 
REMARK    6  A    between atoms: C18_24  and  N7_25 
ROOT
HETATM    1  C4  UNL     1      -6.283  -0.253  -0.375  1.00  0.00     0.083 A 
HETATM    2  N1  UNL     1      -5.338   0.332   0.365  1.00  0.00    -0.226 NA
HETATM    3  C5  UNL     1      -4.103  -0.080   0.054  1.00  0.00     0.177 A 
HETATM    4  N8  UNL     1      -4.258  -0.975  -0.935  1.00  0.00    -0.232 N 
HETATM    5  C19 UNL     1      -3.292  -1.713  -1.631  1.00  0.00     0.191 C 
HETATM    6  N9  UNL     1      -2.503  -2.330  -2.219  1.00  0.00    -0.171 NA
HETATM    7  C20 UNL     1      -5.579  -1.110  -1.228  1.00  0.00     0.058 A 
HETATM    8  C21 UNL     1      -6.170  -1.899  -2.141  1.00  0.00     0.067 C 
ENDROOT
BRANCH   3   9
HETATM    9  C6  UNL     1      -2.817   0.306   0.617  1.00  0.00     0.149 A 
HETATM   10  N2  UNL     1      -1.666  -0.227   0.173  1.00  0.00    -0.239 NA
HETATM   11  C7  UNL     1      -0.484   0.163   0.732  1.00  0.00     0.088 A 
HETATM   12  C17 UNL     1      -0.391   1.087   1.746  1.00  0.00     0.151 A 
HETATM   13  N6  UNL     1      -1.551   1.637   2.208  1.00  0.00    -0.239 NA
HETATM   14  C18 UNL     1      -2.695   1.229   1.632  1.00  0.00     0.153 A 
BRANCH  11  15
HETATM   15  C8  UNL     1       0.745  -0.435   0.225  1.00  0.00     0.030 A 
HETATM   16  C9  UNL     1       0.897  -1.376  -0.780  1.00  0.00     0.154 A 
HETATM   17  N3  UNL     1       2.201  -1.631  -0.908  1.00  0.00    -0.184 NA
HETATM   18  N4  UNL     1       2.937  -0.929  -0.062  1.00  0.00    -0.276 N 
HETATM   19  C16 UNL     1       2.035  -0.185   0.643  1.00  0.00     0.128 A 
BRANCH  18  20
HETATM   20  C10 UNL     1       4.375  -0.900   0.131  1.00  0.00     0.113 C 
HETATM   21  C11 UNL     1       4.859   0.498   0.505  1.00  0.00     0.057 C 
HETATM   22  C12 UNL     1       6.356   0.376   0.747  1.00  0.00     0.274 C 
HETATM   23  N5  UNL     1       7.014   0.019  -0.483  1.00  0.00     0.084 N 
HETATM   24  C13 UNL     1       7.859   1.105  -0.893  1.00  0.00     0.309 C 
HETATM   25  C14 UNL     1       6.128  -0.304  -1.561  1.00  0.00     0.274 C 
HETATM   26  C15 UNL     1       5.048  -1.265  -1.169  1.00  0.00     0.057 C 
ENDBRANCH  18  20
ENDBRANCH  11  15
BRANCH  14  27
HETATM   27  N7  UNL     1      -3.834   1.863   2.180  1.00  0.00    -0.382 N 
HETATM   28  H20 UNL     1      -4.577   2.556   2.282  1.00  0.00     0.157 HD
HETATM   29  H21 UNL     1      -4.166   1.312   3.014  1.00  0.00     0.157 HD
ENDBRANCH  14  27
ENDBRANCH   3   9
BRANCH   1  30
HETATM   30  C3  UNL     1      -7.598  -0.129  -0.388  1.00  0.00     0.033 C 
BRANCH  30  31
HETATM   31  C2  UNL     1      -8.292   0.777   0.517  1.00  0.00    -0.008 C 
HETATM   32  C1  UNL     1      -7.773   1.570   1.439  1.00  0.00     0.011 C 
ENDBRANCH  30  31
ENDBRANCH   1  30
TORSDOF 6
