REMARK  6 active torsions:
REMARK  status: ('A' for Active; 'I' for Inactive)
REMARK    1  A    between atoms: C2_2  and  C3_3 
REMARK       I    between atoms: C3_3  and  N1_5 
REMARK    2  A    between atoms: N1_5  and  C4_6 
REMARK    3  A    between atoms: C5_7  and  C6_8 
REMARK    4  A    between atoms: C6_8  and  C7_9 
REMARK    5  A    between atoms: C7_9  and  C8_10 
REMARK    6  A    between atoms: C10_12  and  N2_13 
ROOT
HETATM    1  C8  UNL     1      -1.456   0.271  -0.668  1.00  0.00     0.054 C 
HETATM    2  C9  UNL     1      -1.566   0.943  -1.781  1.00  0.00     0.028 C 
HETATM    3  C10 UNL     1      -2.649   1.663  -1.918  1.00  0.00     0.023 C 
HETATM    4  C11 UNL     1      -3.643   1.820  -0.821  1.00  0.00     0.136 C 
HETATM    5  C12 UNL     1      -3.767   0.518  -0.076  1.00  0.00     0.117 A 
HETATM    6  N3  UNL     1      -4.717  -0.158   0.590  1.00  0.00    -0.232 NA
HETATM    7  C13 UNL     1      -4.163  -1.303   1.031  1.00  0.00     0.086 A 
HETATM    8  C14 UNL     1      -4.663  -2.376   1.768  1.00  0.00     0.034 A 
HETATM    9  C15 UNL     1      -3.843  -3.463   2.092  1.00  0.00     0.002 A 
HETATM   10  C16 UNL     1      -2.506  -3.506   1.690  1.00  0.00     0.002 A 
HETATM   11  C17 UNL     1      -2.035  -2.433   0.963  1.00  0.00     0.032 A 
HETATM   12  C18 UNL     1      -2.842  -1.364   0.645  1.00  0.00     0.070 A 
HETATM   13  N4  UNL     1      -2.624  -0.229  -0.036  1.00  0.00    -0.296 N 
ENDROOT
BRANCH   1  14
HETATM   14  C7  UNL     1      -0.167   0.037  -0.059  1.00  0.00     0.031 C 
BRANCH  14  15
HETATM   15  C6  UNL     1       0.932   0.509  -0.673  1.00  0.00     0.004 C 
BRANCH  15  16
HETATM   16  C5  UNL     1       2.320   0.358  -0.188  1.00  0.00     0.017 C 
HETATM   17  C4  UNL     1       3.368   0.842  -0.832  1.00  0.00     0.091 C 
BRANCH  17  18
HETATM   18  N1  UNL     1       4.657   0.632  -0.265  1.00  0.00    -0.334 N 
HETATM   19  C3  UNL     1       5.590   1.650   0.145  1.00  0.00     0.244 C 
HETATM   20  O1  UNL     1       5.188   2.828  -0.034  1.00  0.00    -0.268 OA
HETATM   21  H4  UNL     1       4.849  -0.381  -0.179  1.00  0.00     0.168 HD
BRANCH  19  22
HETATM   22  C2  UNL     1       6.876   1.258   0.711  1.00  0.00     0.064 C 
HETATM   23  C1  UNL     1       7.253   0.006   0.879  1.00  0.00     0.017 C 
ENDBRANCH  19  22
ENDBRANCH  17  18
ENDBRANCH  15  16
ENDBRANCH  14  15
ENDBRANCH   1  14
BRANCH   3  24
HETATM   24  N2  UNL     1      -2.863   2.309  -3.169  1.00  0.00    -0.401 N 
HETATM   25  H9  UNL     1      -3.145   2.441  -4.163  1.00  0.00     0.156 HD
HETATM   26  H10 UNL     1      -2.495   3.264  -2.887  1.00  0.00     0.156 HD
ENDBRANCH   3  24
TORSDOF 6
