REMARK  5 active torsions:
REMARK  status: ('A' for Active; 'I' for Inactive)
REMARK    1  A    between atoms: N1_1  and  C1_2 
REMARK    2  A    between atoms: C1_2  and  N2_3 
REMARK    3  A    between atoms: C6_10  and  C7_11 
REMARK    4  A    between atoms: C8_12  and  N5_13 
REMARK    5  A    between atoms: N6_14  and  C9_15 
ROOT
HETATM    1  C7  UNL     1      -0.582  -1.520  -1.035  1.00  0.00     0.036 C 
HETATM    2  C8  UNL     1       0.335  -2.202  -0.401  1.00  0.00     0.142 C 
ENDROOT
BRANCH   1   3
HETATM    3  C6  UNL     1      -1.363  -0.944  -0.038  1.00  0.00     0.009 A 
HETATM    4  C4  UNL     1      -2.368  -0.199  -0.532  1.00  0.00     0.068 A 
HETATM    5  C3  UNL     1      -3.105   0.321  -1.673  1.00  0.00     0.092 C 
HETATM    6  N3  UNL     1      -2.941   0.220   0.502  1.00  0.00    -0.177 NA
HETATM    7  C2  UNL     1      -4.494   0.800  -1.168  1.00  0.00     0.281 C 
HETATM    8  N2  UNL     1      -4.846   0.247   0.112  1.00  0.00     0.118 N 
HETATM    9  C20 UNL     1      -4.750   1.076   1.275  1.00  0.00     0.296 C 
HETATM   10  C19 UNL     1      -3.616   0.701   2.246  1.00  0.00     0.180 C 
HETATM   11  N4  UNL     1      -2.577  -0.058   1.642  1.00  0.00    -0.278 N 
HETATM   12  C5  UNL     1      -1.560  -0.807   1.281  1.00  0.00     0.126 A 
BRANCH   8  13
HETATM   13  C1  UNL     1      -6.216  -0.220   0.001  1.00  0.00     0.537 C 
BRANCH  13  14
HETATM   14  N1  UNL     1      -7.012   0.967  -0.340  1.00  0.00     0.106 N 
HETATM   15  H1  UNL     1      -6.787   1.746   0.326  1.00  0.00     0.315 HD
HETATM   16  H2  UNL     1      -8.008   0.710  -0.276  1.00  0.00     0.315 HD
ENDBRANCH  13  14
ENDBRANCH   8  13
ENDBRANCH   1   3
BRANCH   2  17
HETATM   17  N5  UNL     1       1.302  -2.917  -1.123  1.00  0.00    -0.162 NA
HETATM   18  N6  UNL     1       2.540  -2.760  -1.111  1.00  0.00    -0.146 NA
BRANCH  18  19
HETATM   19  C9  UNL     1       3.222  -1.787  -0.331  1.00  0.00     0.138 C 
HETATM   20  C10 UNL     1       2.754  -1.170   0.740  1.00  0.00     0.029 C 
HETATM   21  C11 UNL     1       3.512  -0.154   1.116  1.00  0.00     0.114 C 
HETATM   22  N7  UNL     1       4.706  -0.288   0.340  1.00  0.00    -0.302 N 
HETATM   23  C12 UNL     1       4.572  -1.283  -0.564  1.00  0.00     0.167 A 
HETATM   24  C18 UNL     1       5.943   0.230   0.182  1.00  0.00     0.069 A 
HETATM   25  N8  UNL     1       5.709  -1.378  -1.271  1.00  0.00    -0.226 NA
HETATM   26  C13 UNL     1       6.582  -0.455  -0.835  1.00  0.00     0.086 A 
HETATM   27  C14 UNL     1       7.857  -0.060  -1.135  1.00  0.00     0.034 A 
HETATM   28  C15 UNL     1       8.491   0.981  -0.454  1.00  0.00     0.002 A 
HETATM   29  C16 UNL     1       7.836   1.652   0.558  1.00  0.00     0.002 A 
HETATM   30  C17 UNL     1       6.547   1.278   0.885  1.00  0.00     0.032 A 
ENDBRANCH  18  19
ENDBRANCH   2  17
TORSDOF 5
