REMARK  7 active torsions:
REMARK  status: ('A' for Active; 'I' for Inactive)
REMARK    1  A    between atoms: C2_2  and  C3_3 
REMARK       I    between atoms: C3_3  and  N1_5 
REMARK    2  A    between atoms: N1_5  and  C4_6 
REMARK    3  A    between atoms: C9_11  and  N2_12 
REMARK    4  A    between atoms: N2_12  and  C10_13 
REMARK    5  A    between atoms: N2_12  and  C16_24 
REMARK    6  A    between atoms: C15_22  and  N7_23 
REMARK    7  A    between atoms: C21_29  and  N8_30 
ROOT
HETATM    1  N2  UNL     1      -0.439  -0.967  -0.325  1.00  0.00    -0.291 N 
ENDROOT
BRANCH   1   2
HETATM    2  C9  UNL     1       0.945  -0.630  -0.394  1.00  0.00     0.049 A 
HETATM    3  C7  UNL     1       1.769  -1.095  -1.426  1.00  0.00    -0.035 A 
HETATM    4  C6  UNL     1       3.126  -0.726  -1.442  1.00  0.00     0.011 A 
HETATM    5  C8  UNL     1       1.183  -1.966  -2.483  1.00  0.00     0.050 C 
HETATM    6  C5  UNL     1       3.649   0.082  -0.455  1.00  0.00     0.030 A 
HETATM    7  C4  UNL     1       2.801   0.509   0.532  1.00  0.00     0.036 A 
HETATM    8  C22 UNL     1       1.462   0.191   0.613  1.00  0.00     0.060 A 
BRANCH   7   9
HETATM    9  N1  UNL     1       3.204   1.315   1.577  1.00  0.00    -0.335 N 
HETATM   10  C3  UNL     1       4.290   1.977   2.120  1.00  0.00     0.175 C 
HETATM   11  O1  UNL     1       5.319   1.746   1.341  1.00  0.00    -0.172 OA
HETATM   12  H4  UNL     1       2.662   1.711   2.410  1.00  0.00     0.168 HD
BRANCH  10  13
HETATM   13  C2  UNL     1       5.356   2.674   2.723  1.00  0.00     0.032 C 
HETATM   14  C1  UNL     1       6.485   2.603   2.131  1.00  0.00     0.035 C 
ENDBRANCH  10  13
ENDBRANCH   7   9
ENDBRANCH   1   2
BRANCH   1  15
HETATM   15  C10 UNL     1      -1.314   0.154  -0.374  1.00  0.00     0.176 A 
HETATM   16  N3  UNL     1      -2.026   0.234   0.683  1.00  0.00    -0.264 NA
HETATM   17  C11 UNL     1      -3.013   1.240   0.965  1.00  0.00     0.214 A 
HETATM   18  C12 UNL     1      -3.163   2.290  -0.104  1.00  0.00     0.198 A 
HETATM   19  C13 UNL     1      -3.064   3.689   0.393  1.00  0.00     0.170 A 
HETATM   20  N5  UNL     1      -4.513   2.757  -0.331  1.00  0.00    -0.272 N 
HETATM   21  N6  UNL     1      -2.333   2.125  -1.249  1.00  0.00    -0.228 NA
HETATM   22  N4  UNL     1      -4.278   4.068   0.175  1.00  0.00    -0.187 NA
HETATM   23  C14 UNL     1      -5.855   2.442  -0.812  1.00  0.00     0.177 C 
HETATM   24  C15 UNL     1      -1.507   1.170  -1.369  1.00  0.00     0.166 A 
BRANCH  24  25
HETATM   25  N7  UNL     1      -0.685   1.023  -2.515  1.00  0.00    -0.381 N 
HETATM   26  H16 UNL     1       0.166   1.647  -2.372  1.00  0.00     0.157 HD
HETATM   27  H17 UNL     1      -0.123   0.894  -3.349  1.00  0.00     0.157 HD
ENDBRANCH  24  25
ENDBRANCH   1  15
BRANCH   1  28
HETATM   28  C16 UNL     1      -0.898  -2.290  -0.212  1.00  0.00     0.067 A 
HETATM   29  C17 UNL     1      -1.704  -2.900  -1.166  1.00  0.00     0.032 A 
HETATM   30  C18 UNL     1      -2.143  -4.199  -1.015  1.00  0.00     0.002 A 
HETATM   31  C19 UNL     1      -1.812  -4.967   0.083  1.00  0.00     0.002 A 
HETATM   32  C20 UNL     1      -1.012  -4.420   1.073  1.00  0.00     0.031 A 
HETATM   33  C21 UNL     1      -0.615  -3.119   0.851  1.00  0.00     0.053 A 
BRANCH  33  34
HETATM   34  N8  UNL     1       0.188  -2.588   1.888  1.00  0.00    -0.397 N 
HETATM   35  H22 UNL     1       0.690  -1.885   2.452  1.00  0.00     0.156 HD
HETATM   36  H23 UNL     1       0.782  -2.536   2.733  1.00  0.00     0.156 HD
ENDBRANCH  33  34
ENDBRANCH   1  28
TORSDOF 7
