REMARK  4 active torsions:
REMARK  status: ('A' for Active; 'I' for Inactive)
REMARK    1  A    between atoms: N1_2  and  C1_3 
REMARK    2  A    between atoms: C4_6  and  O1_7 
REMARK    3  A    between atoms: O1_7  and  N2_8 
REMARK    4  A    between atoms: N2_8  and  C5_9 
ROOT
HETATM    1  C1  UNL     1      -3.222   1.384   0.588  1.00  0.00     0.134 A 
HETATM    2  C2  UNL     1      -2.033   0.690   0.528  1.00  0.00     0.069 A 
HETATM    3  C3  UNL     1      -2.048  -0.629   0.069  1.00  0.00     0.053 A 
HETATM    4  C4  UNL     1      -0.922  -1.442  -0.041  1.00  0.00     0.205 A 
HETATM    5  N3  UNL     1      -1.061  -2.696  -0.496  1.00  0.00    -0.215 NA
HETATM    6  C11 UNL     1      -2.286  -3.141  -0.835  1.00  0.00     0.236 A 
HETATM    7  N4  UNL     1      -3.381  -2.374  -0.735  1.00  0.00    -0.240 NA
HETATM    8  C12 UNL     1      -3.299  -1.109  -0.286  1.00  0.00     0.090 A 
HETATM    9  C13 UNL     1      -4.486  -0.415  -0.225  1.00  0.00     0.151 A 
HETATM   10  N5  UNL     1      -4.415   0.857   0.225  1.00  0.00    -0.240 NA
ENDROOT
BRANCH   4  11
HETATM   11  O1  UNL     1       0.221  -0.789   0.357  1.00  0.00    -0.216 OA
BRANCH  11  12
HETATM   12  N2  UNL     1       1.485  -1.323   0.365  1.00  0.00    -0.259 N 
HETATM   13  H3  UNL     1       1.761  -2.324   0.493  1.00  0.00     0.195 HD
BRANCH  12  14
HETATM   14  C5  UNL     1       2.593  -0.421   0.175  1.00  0.00     0.054 A 
HETATM   15  C6  UNL     1       3.927  -0.827   0.162  1.00  0.00     0.031 A 
HETATM   16  C7  UNL     1       4.931   0.102  -0.027  1.00  0.00     0.002 A 
HETATM   17  C8  UNL     1       4.666   1.428  -0.205  1.00  0.00     0.000 A 
HETATM   18  C9  UNL     1       3.361   1.878  -0.200  1.00  0.00     0.002 A 
HETATM   19  C10 UNL     1       2.388   0.939  -0.012  1.00  0.00     0.031 A 
ENDBRANCH  12  14
ENDBRANCH  11  12
ENDBRANCH   4  11
BRANCH   1  20
HETATM   20  N1  UNL     1      -3.181   2.727   1.058  1.00  0.00    -0.307 N 
HETATM   21 BR1  UNL     1      -2.927   3.705  -0.561  1.00  0.00     0.048 Br
HETATM   22  H1  UNL     1      -3.213   3.441   1.794  1.00  0.00     0.175 HD
ENDBRANCH   1  20
TORSDOF 4
