REMARK  3 active torsions:
REMARK  status: ('A' for Active; 'I' for Inactive)
REMARK    1  A    between atoms: C3_3  and  C4_4 
REMARK       I    between atoms: C4_4  and  N1_6 
REMARK    2  A    between atoms: N1_6  and  C5_7 
REMARK    3  A    between atoms: N3_12  and  C9_13 
ROOT
HETATM    1  C5  UNL     1       0.468   2.149   0.363  1.00  0.00     0.162 A 
HETATM    2  N2  UNL     1      -0.337   3.089  -0.164  1.00  0.00    -0.240 NA
HETATM    3  C6  UNL     1      -1.485   2.583  -0.595  1.00  0.00     0.134 A 
HETATM    4  C7  UNL     1      -1.527   1.221  -0.378  1.00  0.00     0.034 A 
HETATM    5  C8  UNL     1      -2.371   0.149  -0.575  1.00  0.00     0.136 A 
HETATM    6  N3  UNL     1      -1.946  -1.048  -0.175  1.00  0.00    -0.226 N 
HETATM    7  N4  UNL     1      -0.788  -1.271   0.387  1.00  0.00    -0.060 NA
HETATM    8  N5  UNL     1       0.103  -0.301   0.622  1.00  0.00    -0.127 NA
HETATM    9  C15 UNL     1      -0.219   0.958   0.258  1.00  0.00     0.139 A 
ENDROOT
BRANCH   1  10
HETATM   10  N1  UNL     1       1.772   2.250   0.935  1.00  0.00    -0.306 N 
HETATM   11  C4  UNL     1       2.971   2.120   0.185  1.00  0.00     0.246 C 
HETATM   12  O1  UNL     1       3.065   1.904  -1.062  1.00  0.00    -0.268 OA
HETATM   13  H6  UNL     1       1.829   2.429   1.966  1.00  0.00     0.170 HD
BRANCH  11  14
HETATM   14  C3  UNL     1       4.251   2.242   0.876  1.00  0.00     0.070 C 
HETATM   15  C2  UNL     1       5.399   2.129   0.223  1.00  0.00    -0.026 C 
HETATM   16  C1  UNL     1       6.715   2.255   0.943  1.00  0.00     0.036 C 
ENDBRANCH  11  14
ENDBRANCH   1  10
BRANCH   6  17
HETATM   17  C9  UNL     1      -2.831  -2.139  -0.387  1.00  0.00     0.060 A 
HETATM   18  C10 UNL     1      -2.817  -2.899  -1.548  1.00  0.00     0.032 A 
HETATM   19  C11 UNL     1      -3.670  -3.957  -1.760  1.00  0.00     0.004 A 
HETATM   20  C12 UNL     1      -4.590  -4.286  -0.772  1.00  0.00     0.019 A 
HETATM   21  C13 UNL     1      -4.651  -3.570   0.398  1.00  0.00     0.013 A 
HETATM   22 BR1  UNL     1      -5.908  -4.010   1.761  1.00  0.00    -0.051 Br
HETATM   23  C14 UNL     1      -3.776  -2.532   0.546  1.00  0.00     0.050 A 
ENDBRANCH   6  17
TORSDOF 3
