REMARK  4 active torsions:
REMARK  status: ('A' for Active; 'I' for Inactive)
REMARK    1  A    between atoms: C3_3  and  C4_4 
REMARK       I    between atoms: C4_4  and  N1_6 
REMARK    2  A    between atoms: N1_6  and  C5_7 
REMARK    3  A    between atoms: C8_10  and  N2_11 
REMARK    4  A    between atoms: N2_11  and  C9_12 
ROOT
HETATM    1  C5  UNL     1       1.724  -0.353   1.446  1.00  0.00     0.131 A 
HETATM    2  C6  UNL     1       0.455  -0.222   0.933  1.00  0.00     0.068 A 
HETATM    3  C7  UNL     1      -0.642  -0.926   1.323  1.00  0.00     0.044 A 
HETATM    4  C8  UNL     1      -1.900  -0.767   0.784  1.00  0.00     0.142 A 
HETATM    5  N3  UNL     1      -2.805  -1.576   1.338  1.00  0.00    -0.224 NA
HETATM    6  C15 UNL     1      -2.595  -2.461   2.305  1.00  0.00     0.236 A 
HETATM    7  N4  UNL     1      -1.376  -2.608   2.820  1.00  0.00    -0.240 NA
HETATM    8  C16 UNL     1      -0.391  -1.836   2.328  1.00  0.00     0.089 A 
HETATM    9  C17 UNL     1       0.862  -1.999   2.869  1.00  0.00     0.151 A 
HETATM   10  N5  UNL     1       1.920  -1.267   2.438  1.00  0.00    -0.241 NA
ENDROOT
BRANCH   4  11
HETATM   11  N2  UNL     1      -2.116   0.182  -0.238  1.00  0.00    -0.340 N 
HETATM   12  H8  UNL     1      -1.350   0.787  -0.586  1.00  0.00     0.167 HD
BRANCH  11  13
HETATM   13  C9  UNL     1      -3.320   0.472  -0.932  1.00  0.00     0.035 A 
HETATM   14  C10 UNL     1      -4.449  -0.301  -0.781  1.00  0.00     0.029 A 
HETATM   15  C11 UNL     1      -5.641  -0.060  -1.422  1.00  0.00     0.004 A 
HETATM   16  C12 UNL     1      -5.756   1.010  -2.276  1.00  0.00     0.019 A 
HETATM   17  C13 UNL     1      -4.649   1.806  -2.452  1.00  0.00     0.013 A 
HETATM   18 BR1  UNL     1      -4.741   3.297  -3.615  1.00  0.00    -0.051 Br
HETATM   19  C14 UNL     1      -3.492   1.513  -1.786  1.00  0.00     0.048 A 
ENDBRANCH  11  13
ENDBRANCH   4  11
BRANCH   1  20
HETATM   20  N1  UNL     1       2.850   0.393   1.021  1.00  0.00    -0.308 N 
HETATM   21  C4  UNL     1       3.693  -0.066  -0.031  1.00  0.00     0.246 C 
HETATM   22  O1  UNL     1       3.577  -1.127  -0.698  1.00  0.00    -0.268 OA
HETATM   23  H6  UNL     1       3.077   1.304   1.485  1.00  0.00     0.170 HD
BRANCH  21  24
HETATM   24  C3  UNL     1       4.836   0.761  -0.411  1.00  0.00     0.070 C 
HETATM   25  C2  UNL     1       5.698   0.484  -1.348  1.00  0.00    -0.026 C 
HETATM   26  C1  UNL     1       6.871   1.315  -1.749  1.00  0.00     0.036 C 
ENDBRANCH  21  24
ENDBRANCH   1  20
TORSDOF 4
