REMARK  2 active torsions:
REMARK  status: ('A' for Active; 'I' for Inactive)
REMARK    1  A    between atoms: C3_3  and  C4_4 
REMARK    2  A    between atoms: C10_13  and  N4_14 
ROOT
HETATM    1  C4  UNL     1      -2.629  -0.847  -0.971  1.00  0.00     0.006 C 
HETATM    2  C5  UNL     1      -1.363  -1.094  -0.596  1.00  0.00    -0.038 C 
HETATM    3  C6  UNL     1      -0.309  -0.283  -1.261  1.00  0.00     0.156 C 
HETATM    4  N1  UNL     1       0.674   0.233  -0.327  1.00  0.00    -0.379 N 
HETATM    5  C7  UNL     1       1.374  -0.517   0.643  1.00  0.00     0.129 A 
HETATM    6  C8  UNL     1       1.055  -1.739   1.179  1.00  0.00     0.197 A 
HETATM    7  N2  UNL     1       1.843  -2.339   2.119  1.00  0.00    -0.216 NA
HETATM    8  C9  UNL     1       2.975  -1.698   2.529  1.00  0.00     0.238 A 
HETATM    9  N3  UNL     1       3.310  -0.494   2.015  1.00  0.00    -0.221 NA
HETATM   10  C10 UNL     1       2.541   0.118   1.081  1.00  0.00     0.167 A 
HETATM   11  O1  UNL     1      -0.041  -2.499   0.869  1.00  0.00    -0.328 OA
HETATM   12  C16 UNL     1      -1.327  -2.155   0.431  1.00  0.00     0.213 C 
HETATM   13  H9  UNL     1       0.907   1.270  -0.355  1.00  0.00     0.160 HD
ENDROOT
BRANCH  10  14
HETATM   14  N4  UNL     1       2.873   1.368   0.536  1.00  0.00    -0.298 N 
HETATM   15  C11 UNL     1       2.525   2.685   0.964  1.00  0.00     0.099 A 
HETATM   16  C12 UNL     1       2.990   3.694   0.240  1.00  0.00     0.019 A 
HETATM   17  C13 UNL     1       3.815   3.430  -0.933  1.00  0.00     0.016 A 
HETATM   18  C14 UNL     1       4.087   2.236  -1.371  1.00  0.00     0.012 A 
HETATM   19  C15 UNL     1       3.696   1.222  -0.640  1.00  0.00     0.099 A 
HETATM   20 BR1  UNL     1       4.344  -0.447  -1.318  1.00  0.00    -0.030 Br
ENDBRANCH  10  14
BRANCH   1  21
HETATM   21  C3  UNL     1      -3.865  -1.484  -0.492  1.00  0.00    -0.004 C 
HETATM   22  C2  UNL     1      -5.088  -1.171  -0.927  1.00  0.00    -0.031 C 
HETATM   23  C1  UNL     1      -5.127  -0.103  -1.960  1.00  0.00     0.036 C 
ENDBRANCH   1  21
TORSDOF 2
