REMARK  4 active torsions:
REMARK  status: ('A' for Active; 'I' for Inactive)
REMARK    1  A    between atoms: C3_3  and  C4_4 
REMARK       I    between atoms: C4_4  and  N1_6 
REMARK    2  A    between atoms: N1_6  and  C5_7 
REMARK    3  A    between atoms: C8_10  and  N2_11 
REMARK    4  A    between atoms: C8_10  and  C9_12 
ROOT
HETATM    1  C5  UNL     1       1.412   0.509   0.023  1.00  0.00     0.130 A 
HETATM    2  C6  UNL     1       0.233   0.164  -0.458  1.00  0.00     0.060 A 
HETATM    3  C7  UNL     1      -1.020   0.474   0.218  1.00  0.00    -0.023 A 
HETATM    4  C8  UNL     1      -2.075  -0.034  -0.378  1.00  0.00     0.043 C 
HETATM    5  C15 UNL     1      -1.082   1.266   1.472  1.00  0.00     0.088 A 
HETATM    6  C16 UNL     1       0.348   1.557   1.854  1.00  0.00     0.096 A 
HETATM    7  N3  UNL     1       1.444   1.244   1.248  1.00  0.00    -0.247 NA
ENDROOT
BRANCH   4   8
HETATM    8  N2  UNL     1      -1.970  -0.815  -1.573  1.00  0.00    -0.398 N 
HETATM    9  H8  UNL     1      -1.709  -0.568  -2.556  1.00  0.00     0.156 HD
HETATM   10  H9  UNL     1      -2.086  -1.781  -1.908  1.00  0.00     0.156 HD
ENDBRANCH   4   8
BRANCH   4  11
HETATM   11  C9  UNL     1      -3.506   0.034  -0.136  1.00  0.00    -0.008 A 
HETATM   12  C10 UNL     1      -4.062   1.287   0.106  1.00  0.00     0.014 A 
HETATM   13  C11 UNL     1      -5.404   1.481   0.359  1.00  0.00     0.002 A 
HETATM   14  C12 UNL     1      -6.262   0.395   0.379  1.00  0.00     0.019 A 
HETATM   15  C13 UNL     1      -5.734  -0.870   0.141  1.00  0.00     0.011 A 
HETATM   16 BR1  UNL     1      -6.905  -2.390   0.167  1.00  0.00    -0.051 Br
HETATM   17  C14 UNL     1      -4.373  -1.032  -0.111  1.00  0.00     0.032 A 
ENDBRANCH   4  11
BRANCH   1  18
HETATM   18  N1  UNL     1       2.702   0.282  -0.511  1.00  0.00    -0.308 N 
HETATM   19  C4  UNL     1       3.782  -0.440   0.051  1.00  0.00     0.246 C 
HETATM   20  O1  UNL     1       3.582  -0.957   1.163  1.00  0.00    -0.268 OA
HETATM   21  H6  UNL     1       2.812   0.744  -1.467  1.00  0.00     0.170 HD
BRANCH  19  22
HETATM   22  C3  UNL     1       5.021  -0.527  -0.684  1.00  0.00     0.070 C 
HETATM   23  C2  UNL     1       6.110  -1.155  -0.295  1.00  0.00    -0.026 C 
HETATM   24  C1  UNL     1       7.399  -1.268  -1.014  1.00  0.00     0.036 C 
ENDBRANCH  19  22
ENDBRANCH   1  18
TORSDOF 4
