REMARK  5 active torsions:
REMARK  status: ('A' for Active; 'I' for Inactive)
REMARK    1  A    between atoms: C3_3  and  C4_4 
REMARK       I    between atoms: C4_4  and  N1_6 
REMARK    2  A    between atoms: N1_6  and  B1_7 
REMARK    3  A    between atoms: B1_7  and  C5_8 
REMARK    4  A    between atoms: C10_15  and  N4_16 
REMARK    5  A    between atoms: N4_16  and  C11_17 
ROOT
HETATM    1  C1  UNL     1      -5.631   1.125   1.675  1.00  0.00     0.036 C 
HETATM    2  C2  UNL     1      -5.338   0.030   0.718  1.00  0.00    -0.026 C 
HETATM    3  C3  UNL     1      -5.145  -0.945  -0.093  1.00  0.00     0.068 C 
ENDROOT
BRANCH   3   4
HETATM    4  C4  UNL     1      -3.846  -0.840  -0.785  1.00  0.00     0.227 C 
HETATM    5  O1  UNL     1      -3.405  -1.643  -1.658  1.00  0.00    -0.270 OA
HETATM    6  N1  UNL     1      -2.876   0.189  -0.575  1.00  0.00    -0.406 N 
HETATM    7  H6  UNL     1      -3.101   0.934   0.133  1.00  0.00     0.141 HD
BRANCH   6   8
HETATM    8  B1  UNL     1      -1.567   0.157  -1.386  1.00  0.00     0.308 B 
HETATM    9  H7  UNL     1      -1.758  -0.084  -2.553  1.00  0.00     0.005 HD
BRANCH   8  10
HETATM   10  C5  UNL     1      -0.509   1.277  -1.024  1.00  0.00    -0.076 A 
HETATM   11  C6  UNL     1      -0.692   2.635  -0.746  1.00  0.00    -0.001 A 
HETATM   12  C7  UNL     1       0.458   3.327  -0.459  1.00  0.00     0.032 A 
HETATM   13  C8  UNL     1       1.729   2.823  -0.421  1.00  0.00     0.072 A 
HETATM   14  N2  UNL     1       2.728   3.704  -0.106  1.00  0.00    -0.241 NA
HETATM   15  C17 UNL     1       1.897   1.458  -0.701  1.00  0.00     0.038 A 
HETATM   16  C9  UNL     1       3.970   3.128  -0.083  1.00  0.00     0.236 A 
HETATM   17  N3  UNL     1       4.174   1.837  -0.343  1.00  0.00    -0.224 NA
HETATM   18  C10 UNL     1       3.191   0.977  -0.651  1.00  0.00     0.142 A 
HETATM   19  C18 UNL     1       0.761   0.719  -0.998  1.00  0.00     0.014 A 
BRANCH  18  20
HETATM   20  N4  UNL     1       3.309  -0.399  -0.936  1.00  0.00    -0.340 N 
HETATM   21  H11 UNL     1       3.561  -0.393  -1.930  1.00  0.00     0.167 HD
BRANCH  20  22
HETATM   22  C11 UNL     1       3.148  -1.567  -0.150  1.00  0.00     0.035 A 
HETATM   23  C12 UNL     1       2.843  -1.515   1.191  1.00  0.00     0.029 A 
HETATM   24  C13 UNL     1       2.682  -2.671   1.886  1.00  0.00     0.004 A 
HETATM   25  C14 UNL     1       2.822  -3.900   1.255  1.00  0.00     0.019 A 
HETATM   26  C15 UNL     1       3.133  -3.935  -0.107  1.00  0.00     0.013 A 
HETATM   27 BR1  UNL     1       3.317  -5.640  -0.937  1.00  0.00    -0.051 Br
HETATM   28  C16 UNL     1       3.298  -2.761  -0.813  1.00  0.00     0.048 A 
ENDBRANCH  20  22
ENDBRANCH  18  20
ENDBRANCH   8  10
ENDBRANCH   6   8
ENDBRANCH   3   4
TORSDOF 5
