REMARK  4 active torsions:
REMARK  status: ('A' for Active; 'I' for Inactive)
REMARK    1  A    between atoms: C3_3  and  C4_4 
REMARK    2  A    between atoms: C4_4  and  C5_6 
REMARK    3  A    between atoms: C7_9  and  N2_10 
REMARK    4  A    between atoms: C13_16  and  N3_17 
ROOT
HETATM    1  C5  UNL     1       2.333  -0.803  -0.648  1.00  0.00     0.196 C 
HETATM    2  C6  UNL     1       1.280  -0.103  -1.436  1.00  0.00     0.185 C 
HETATM    3  N1  UNL     1       0.113   0.221  -0.722  1.00  0.00    -0.273 NA
HETATM    4  C7  UNL     1      -0.222   0.428   0.456  1.00  0.00     0.118 C 
HETATM    5  C14 UNL     1       0.254   0.479   1.884  1.00  0.00     0.225 C 
HETATM    6  N4  UNL     1      -0.222  -0.651   2.665  1.00  0.00    -0.296 NA
HETATM    7  C15 UNL     1       0.186  -1.843   2.276  1.00  0.00     0.113 C 
HETATM    8  C16 UNL     1       1.100  -2.038   1.088  1.00  0.00     0.172 C 
HETATM    9  N5  UNL     1       1.885  -1.980   0.047  1.00  0.00    -0.302 NA
ENDROOT
BRANCH   4  10
HETATM   10  N2  UNL     1      -1.612   0.692   0.290  1.00  0.00    -0.335 N 
HETATM   11  C8  UNL     1      -2.095   2.016   0.719  1.00  0.00     0.154 C 
HETATM   12  C9  UNL     1      -3.125   1.688   1.774  1.00  0.00    -0.005 C 
HETATM   13  C10 UNL     1      -4.056   0.803   1.380  1.00  0.00    -0.082 C 
HETATM   14  C11 UNL     1      -5.099   0.436   2.368  1.00  0.00     0.043 C 
HETATM   15  C12 UNL     1      -3.979   0.259  -0.005  1.00  0.00     0.090 C 
HETATM   16  C13 UNL     1      -2.575  -0.240  -0.260  1.00  0.00     0.324 C 
BRANCH  16  17
HETATM   17  N3  UNL     1      -2.465  -1.567   0.265  1.00  0.00     0.101 N 
HETATM   18  H18 UNL     1      -2.813  -2.222  -0.496  1.00  0.00     0.315 HD
HETATM   19  H19 UNL     1      -3.131  -1.664   1.070  1.00  0.00     0.315 HD
ENDBRANCH  16  17
ENDBRANCH   4  10
BRANCH   1  20
HETATM   20  C4  UNL     1       3.533  -1.205  -1.409  1.00  0.00     0.174 C 
HETATM   21  O1  UNL     1       4.198  -2.262  -1.549  1.00  0.00    -0.291 OA
BRANCH  20  22
HETATM   22  C3  UNL     1       4.043  -0.075  -2.171  1.00  0.00     0.048 C 
HETATM   23  C2  UNL     1       5.135  -0.350  -2.895  1.00  0.00    -0.027 C 
HETATM   24  C1  UNL     1       5.836   0.657  -3.760  1.00  0.00     0.036 C 
ENDBRANCH  20  22
ENDBRANCH   1  20
TORSDOF 4
