REMARK  1 active torsions:
REMARK  status: ('A' for Active; 'I' for Inactive)
REMARK    1  A    between atoms: C5_9  and  C6_10 
ROOT
HETATM    1 BR1  UNL     1      -4.930  -1.854  -1.261  1.00  0.00    -0.051 Br
HETATM    2  C1  UNL     1      -4.127  -0.449  -0.226  1.00  0.00     0.041 A 
HETATM    3  C2  UNL     1      -2.812  -0.332  -0.283  1.00  0.00     0.102 A 
HETATM    4  O1  UNL     1      -2.208  -1.273  -1.105  1.00  0.00    -0.288 OA
HETATM    5  C3  UNL     1      -0.835  -1.356  -1.386  1.00  0.00     0.200 A 
HETATM    6  N1  UNL     1      -0.575  -2.208  -2.422  1.00  0.00    -0.215 NA
HETATM    7  C4  UNL     1       0.712  -2.379  -2.794  1.00  0.00     0.236 A 
HETATM    8  N2  UNL     1       1.758  -1.747  -2.190  1.00  0.00    -0.239 NA
HETATM    9  C5  UNL     1       1.539  -0.887  -1.151  1.00  0.00     0.099 A 
HETATM   10  C12 UNL     1       0.224  -0.696  -0.750  1.00  0.00     0.112 A 
HETATM   11  N3  UNL     1       0.163   0.209   0.345  1.00  0.00    -0.380 N 
HETATM   12  C13 UNL     1      -0.849   1.163   0.692  1.00  0.00     0.163 C 
HETATM   13  C14 UNL     1      -2.226   0.738   0.508  1.00  0.00     0.009 A 
HETATM   14  C15 UNL     1      -2.985   1.552   1.248  1.00  0.00     0.095 A 
HETATM   15  N4  UNL     1      -4.399   1.411   1.296  1.00  0.00    -0.393 N 
HETATM   16  C16 UNL     1      -5.083   0.379   0.546  1.00  0.00     0.168 A 
HETATM   17  H7  UNL     1       1.043   0.074   0.932  1.00  0.00     0.160 HD
HETATM   18  H11 UNL     1      -4.987   2.050   1.875  1.00  0.00     0.159 HD
ENDROOT
BRANCH   9  19
HETATM   19  C6  UNL     1       2.683  -0.231  -0.534  1.00  0.00    -0.005 A 
HETATM   20  C7  UNL     1       3.689  -1.170  -0.275  1.00  0.00     0.014 A 
HETATM   21  C8  UNL     1       4.896  -0.794   0.303  1.00  0.00     0.001 A 
HETATM   22  C9  UNL     1       5.126   0.525   0.635  1.00  0.00     0.000 A 
HETATM   23  C10 UNL     1       4.130   1.437   0.375  1.00  0.00     0.001 A 
HETATM   24  C11 UNL     1       2.925   1.096  -0.196  1.00  0.00     0.014 A 
ENDBRANCH   9  19
TORSDOF 1
