REMARK  3 active torsions:
REMARK  status: ('A' for Active; 'I' for Inactive)
REMARK    1  A    between atoms: C3_3  and  C4_4 
REMARK       I    between atoms: C4_4  and  N1_6 
REMARK    2  A    between atoms: C8_12  and  N4_13 
REMARK    3  A    between atoms: N4_13  and  C9_14 
ROOT
HETATM    1  C4  UNL     1       4.100   0.969  -0.658  1.00  0.00     0.247 C 
HETATM    2  O1  UNL     1       4.528   1.992  -1.268  1.00  0.00    -0.268 OA
HETATM    3  N1  UNL     1       2.699   0.816  -0.525  1.00  0.00    -0.319 N 
HETATM    4  C5  UNL     1       1.861   1.806  -1.097  1.00  0.00     0.127 A 
HETATM    5  C6  UNL     1       0.539   1.810  -1.079  1.00  0.00     0.087 A 
HETATM    6  N2  UNL     1      -0.147   2.811  -1.662  1.00  0.00    -0.240 NA
HETATM    7  C7  UNL     1      -1.490   2.843  -1.654  1.00  0.00     0.236 A 
HETATM    8  N3  UNL     1      -2.115   1.835  -1.040  1.00  0.00    -0.224 NA
HETATM    9  C8  UNL     1      -1.526   0.801  -0.436  1.00  0.00     0.141 A 
HETATM   10  C15 UNL     1      -0.155   0.796  -0.460  1.00  0.00     0.038 A 
HETATM   11  C16 UNL     1       0.597  -0.129   0.085  1.00  0.00     0.011 A 
HETATM   12  C17 UNL     1       2.071  -0.294   0.165  1.00  0.00     0.160 A 
ENDROOT
BRANCH   9  13
HETATM   13  N4  UNL     1      -2.215  -0.254   0.207  1.00  0.00    -0.340 N 
HETATM   14  H8  UNL     1      -1.717  -1.029   0.683  1.00  0.00     0.167 HD
BRANCH  13  15
HETATM   15  C9  UNL     1      -3.607  -0.492   0.347  1.00  0.00     0.035 A 
HETATM   16  C10 UNL     1      -4.193  -1.486   1.107  1.00  0.00     0.029 A 
HETATM   17  C11 UNL     1      -5.550  -1.668   1.198  1.00  0.00     0.004 A 
HETATM   18  C12 UNL     1      -6.420  -0.862   0.529  1.00  0.00     0.019 A 
HETATM   19  C13 UNL     1      -5.875   0.147  -0.245  1.00  0.00     0.013 A 
HETATM   20 BR1  UNL     1      -7.146   1.247  -1.162  1.00  0.00    -0.051 Br
HETATM   21  C14 UNL     1      -4.525   0.297  -0.311  1.00  0.00     0.048 A 
ENDBRANCH  13  15
ENDBRANCH   9  13
BRANCH   1  22
HETATM   22  C3  UNL     1       5.062  -0.014  -0.116  1.00  0.00     0.070 C 
HETATM   23  C2  UNL     1       5.034  -1.170   0.552  1.00  0.00    -0.026 C 
HETATM   24  C1  UNL     1       6.210  -1.981   0.990  1.00  0.00     0.036 C 
ENDBRANCH   1  22
TORSDOF 3
