REMARK  5 active torsions:
REMARK  status: ('A' for Active; 'I' for Inactive)
REMARK    1  A    between atoms: O1_1  and  C1_2 
REMARK    2  A    between atoms: C2_3  and  C3_4 
REMARK    3  A    between atoms: C3_4  and  N1_5 
REMARK    4  A    between atoms: C8_12  and  N4_13 
REMARK    5  A    between atoms: N4_13  and  C9_14 
ROOT
HETATM    1  N1  UNL     1       2.478   0.243   0.247  1.00  0.00    -0.298 N 
HETATM    2  C4  UNL     1       1.037   0.337   0.294  1.00  0.00     0.190 A 
HETATM    3  C5  UNL     1       0.421  -0.998   0.087  1.00  0.00     0.037 A 
HETATM    4  C6  UNL     1       1.190  -2.123  -0.115  1.00  0.00     0.089 A 
HETATM    5  N2  UNL     1       0.618  -3.314  -0.299  1.00  0.00    -0.240 NA
HETATM    6  C7  UNL     1      -0.725  -3.411  -0.286  1.00  0.00     0.236 A 
HETATM    7  N3  UNL     1      -1.451  -2.304  -0.087  1.00  0.00    -0.224 NA
HETATM    8  C8  UNL     1      -0.977  -1.085   0.103  1.00  0.00     0.139 A 
HETATM    9  C15 UNL     1       2.644  -2.074  -0.139  1.00  0.00     0.170 A 
HETATM   10  N5  UNL     1       3.225  -0.930   0.038  1.00  0.00    -0.187 NA
ENDROOT
BRANCH   8  11
HETATM   11  N4  UNL     1      -1.761   0.074   0.312  1.00  0.00    -0.340 N 
HETATM   12  H9  UNL     1      -1.225   0.983   0.450  1.00  0.00     0.167 HD
BRANCH  11  13
HETATM   13  C9  UNL     1      -3.163   0.175   0.359  1.00  0.00     0.035 A 
HETATM   14  C10 UNL     1      -4.067  -0.828   0.212  1.00  0.00     0.029 A 
HETATM   15  C11 UNL     1      -5.437  -0.708   0.262  1.00  0.00     0.004 A 
HETATM   16  C12 UNL     1      -5.945   0.547   0.481  1.00  0.00     0.019 A 
HETATM   17  C13 UNL     1      -5.106   1.616   0.640  1.00  0.00     0.013 A 
HETATM   18 BR1  UNL     1      -5.846   3.331   0.939  1.00  0.00    -0.051 Br
HETATM   19  C14 UNL     1      -3.762   1.415   0.577  1.00  0.00     0.048 A 
ENDBRANCH  11  13
ENDBRANCH   8  11
BRANCH   1  20
HETATM   20  C3  UNL     1       3.201   1.501   0.439  1.00  0.00     0.174 C 
BRANCH  20  21
HETATM   21  C2  UNL     1       4.669   1.277   0.370  1.00  0.00     0.018 C 
HETATM   22  C1  UNL     1       5.674   1.714  -0.393  1.00  0.00     0.129 C 
BRANCH  22  23
HETATM   23  O1  UNL     1       7.007   1.317  -0.222  1.00  0.00    -0.373 OA
HETATM   24  H1  UNL     1       7.722   2.008  -0.048  1.00  0.00     0.216 HD
ENDBRANCH  22  23
ENDBRANCH  20  21
ENDBRANCH   1  20
TORSDOF 5
