REMARK  2 active torsions:
REMARK  status: ('A' for Active; 'I' for Inactive)
REMARK    1  A    between atoms: C1_2  and  C2_3 
REMARK       I    between atoms: C1_2  and  N1_6 
REMARK    2  A    between atoms: N1_6  and  C4_7 
ROOT
HETATM    1  C2  UNL     1       5.948  -1.270   0.371  1.00  0.00     0.086 C 
HETATM    2  C3  UNL     1       6.494  -0.097   0.642  1.00  0.00     0.223 C 
HETATM    3 CL1  UNL     1       7.082   1.516   0.969  1.00  0.00    -0.230 Cl
ENDROOT
BRANCH   1   4
HETATM    4  C1  UNL     1       4.552  -1.316  -0.036  1.00  0.00     0.247 C 
HETATM    5  O1  UNL     1       4.114  -2.458  -0.274  1.00  0.00    -0.268 OA
HETATM    6  N1  UNL     1       3.783  -0.158  -0.145  1.00  0.00    -0.308 N 
HETATM    7  H3  UNL     1       4.236   0.762   0.075  1.00  0.00     0.170 HD
BRANCH   6   8
HETATM    8  C4  UNL     1       2.424  -0.201  -0.541  1.00  0.00     0.130 A 
HETATM    9  C5  UNL     1       1.518   0.269   0.305  1.00  0.00     0.060 A 
HETATM   10  C6  UNL     1       0.097   0.221  -0.119  1.00  0.00    -0.025 A 
HETATM   11  C7  UNL     1      -0.495   0.757   0.935  1.00  0.00     0.096 C 
HETATM   12  C15 UNL     1      -0.395  -0.302  -1.386  1.00  0.00     0.101 A 
HETATM   13  N2  UNL     1      -1.832   1.076   1.343  1.00  0.00    -0.363 N 
HETATM   14  C8  UNL     1      -3.056   0.642   0.770  1.00  0.00     0.062 A 
HETATM   15  H6  UNL     1      -1.952   1.700   2.156  1.00  0.00     0.165 HD
HETATM   16  C9  UNL     1      -4.034   1.434   1.347  1.00  0.00     0.051 A 
HETATM   17  C13 UNL     1      -3.464  -0.316  -0.161  1.00  0.00     0.082 A 
HETATM   18  C10 UNL     1      -5.384   1.316   1.044  1.00  0.00     0.013 A 
HETATM   19 BR1  UNL     1      -6.711   2.422   1.857  1.00  0.00    -0.051 Br
HETATM   20  C11 UNL     1      -5.760   0.362   0.121  1.00  0.00     0.021 A 
HETATM   21  C12 UNL     1      -4.820  -0.449  -0.480  1.00  0.00     0.035 A 
HETATM   22  N3  UNL     1      -2.694  -1.236  -0.887  1.00  0.00    -0.262 NA
HETATM   23  C14 UNL     1      -1.500  -1.247  -1.370  1.00  0.00     0.105 C 
HETATM   24  C16 UNL     1       0.778  -0.771  -2.170  1.00  0.00     0.107 A 
HETATM   25  N4  UNL     1       2.015  -0.726  -1.798  1.00  0.00    -0.246 NA
ENDBRANCH   6   8
ENDBRANCH   1   4
TORSDOF 2
