REMARK  6 active torsions:
REMARK  status: ('A' for Active; 'I' for Inactive)
REMARK    1  A    between atoms: C2_2  and  C3_3 
REMARK    2  A    between atoms: C4_4  and  C5_5 
REMARK       I    between atoms: C5_5  and  N1_7 
REMARK    3  A    between atoms: N1_7  and  C6_8 
REMARK    4  A    between atoms: C10_12  and  N2_13 
REMARK    5  A    between atoms: N2_13  and  N3_14 
REMARK    6  A    between atoms: N3_14  and  C11_15 
ROOT
HETATM    1  C6  UNL     1       0.236  -0.024  -1.674  1.00  0.00     0.035 A 
HETATM    2  C7  UNL     1      -0.344   0.909  -2.408  1.00  0.00     0.027 A 
HETATM    3  C8  UNL     1      -1.730   0.590  -2.727  1.00  0.00     0.000 A 
HETATM    4  C9  UNL     1      -1.961  -0.580  -2.152  1.00  0.00     0.001 A 
HETATM    5  C10 UNL     1      -0.766  -1.094  -1.432  1.00  0.00     0.149 A 
ENDROOT
BRANCH   5   6
HETATM    6  N2  UNL     1      -1.152  -1.158  -0.034  1.00  0.00    -0.226 NA
HETATM    7  H13 UNL     1      -0.429  -1.541   0.578  1.00  0.00     0.147 HD
BRANCH   6   8
HETATM    8  N3  UNL     1      -1.716   0.030   0.409  1.00  0.00    -0.320 N 
HETATM    9  H14 UNL     1      -1.201   0.960   0.400  1.00  0.00     0.181 HD
BRANCH   8  10
HETATM   10  C11 UNL     1      -3.056   0.055   0.911  1.00  0.00     0.044 A 
HETATM   11  C12 UNL     1      -3.683   1.202   1.368  1.00  0.00     0.030 A 
HETATM   12  C13 UNL     1      -4.977   1.153   1.839  1.00  0.00     0.004 A 
HETATM   13  C14 UNL     1      -5.684  -0.034   1.868  1.00  0.00     0.019 A 
HETATM   14  C15 UNL     1      -5.094  -1.196   1.421  1.00  0.00     0.013 A 
HETATM   15 BR1  UNL     1      -5.947  -2.920   1.400  1.00  0.00    -0.051 Br
HETATM   16  C16 UNL     1      -3.799  -1.096   0.961  1.00  0.00     0.049 A 
ENDBRANCH   8  10
ENDBRANCH   6   8
ENDBRANCH   5   6
BRANCH   1  17
HETATM   17  N1  UNL     1       1.565  -0.063  -1.173  1.00  0.00    -0.325 N 
HETATM   18  C5  UNL     1       2.561   0.929  -1.373  1.00  0.00     0.245 C 
HETATM   19  O1  UNL     1       2.275   1.947  -2.050  1.00  0.00    -0.268 OA
HETATM   20  H8  UNL     1       1.903  -0.867  -0.599  1.00  0.00     0.169 HD
BRANCH  18  21
HETATM   21  C4  UNL     1       3.907   0.813  -0.823  1.00  0.00     0.070 C 
HETATM   22  C3  UNL     1       4.328  -0.220  -0.091  1.00  0.00    -0.022 C 
BRANCH  22  23
HETATM   23  C2  UNL     1       5.712  -0.350   0.481  1.00  0.00     0.023 C 
HETATM   24  C1  UNL     1       5.629  -0.444   2.008  1.00  0.00     0.009 C 
ENDBRANCH  22  23
ENDBRANCH  18  21
ENDBRANCH   1  17
TORSDOF 6
