REMARK  4 active torsions:
REMARK  status: ('A' for Active; 'I' for Inactive)
REMARK    1  A    between atoms: C1_2  and  C2_3 
REMARK       I    between atoms: C1_2  and  N1_6 
REMARK    2  A    between atoms: N1_6  and  C4_7 
REMARK    3  A    between atoms: C7_10  and  N2_11 
REMARK    4  A    between atoms: N2_11  and  C8_12 
ROOT
HETATM    1  C2  UNL     1       5.438   1.466  -0.560  1.00  0.00     0.086 C 
HETATM    2  C3  UNL     1       5.895   1.734   0.646  1.00  0.00     0.223 C 
HETATM    3 CL1  UNL     1       6.364   1.966   2.307  1.00  0.00    -0.230 Cl
ENDROOT
BRANCH   1   4
HETATM    4  C1  UNL     1       4.330   0.537  -0.721  1.00  0.00     0.247 C 
HETATM    5  O1  UNL     1       3.962   0.344  -1.906  1.00  0.00    -0.268 OA
HETATM    6  N1  UNL     1       3.743  -0.077   0.403  1.00  0.00    -0.308 N 
HETATM    7  H3  UNL     1       4.145   0.170   1.338  1.00  0.00     0.170 HD
BRANCH   6   8
HETATM    8  C4  UNL     1       2.664  -0.972   0.143  1.00  0.00     0.131 A 
HETATM    9  C5  UNL     1       1.353  -0.487   0.110  1.00  0.00     0.068 A 
HETATM   10  C6  UNL     1       0.382  -1.418  -0.146  1.00  0.00     0.044 A 
HETATM   11  C7  UNL     1      -0.923  -0.979  -0.187  1.00  0.00     0.142 A 
HETATM   12  C14 UNL     1       0.663  -2.744  -0.359  1.00  0.00     0.089 A 
HETATM   13  N3  UNL     1      -1.942  -1.824  -0.432  1.00  0.00    -0.224 NA
HETATM   14  C13 UNL     1      -1.615  -3.128  -0.637  1.00  0.00     0.236 A 
HETATM   15  N4  UNL     1      -0.348  -3.597  -0.605  1.00  0.00    -0.240 NA
HETATM   16  C15 UNL     1       1.959  -3.170  -0.316  1.00  0.00     0.151 A 
HETATM   17  N5  UNL     1       2.951  -2.282  -0.066  1.00  0.00    -0.241 NA
BRANCH  11  18
HETATM   18  N2  UNL     1      -1.339   0.374   0.018  1.00  0.00    -0.335 N 
HETATM   19  H5  UNL     1      -0.791   1.237   0.223  1.00  0.00     0.168 HD
BRANCH  18  20
HETATM   20  C8  UNL     1      -2.686   0.852  -0.020  1.00  0.00     0.072 A 
HETATM   21  C9  UNL     1      -3.490   0.286   0.865  1.00  0.00     0.037 A 
HETATM   22  C10 UNL     1      -4.893   0.659   0.958  1.00  0.00     0.001 A 
HETATM   23  C11 UNL     1      -5.448   1.571   0.181  1.00  0.00    -0.000 A 
HETATM   24  C12 UNL     1      -4.951   2.439  -0.919  1.00  0.00     0.148 A 
HETATM   25 BR1  UNL     1      -5.098   4.297  -0.408  1.00  0.00    -0.075 Br
HETATM   26  S1  UNL     1      -3.184   2.108  -1.185  1.00  0.00    -0.092 SA
ENDBRANCH  18  20
ENDBRANCH  11  18
ENDBRANCH   6   8
ENDBRANCH   1   4
TORSDOF 4
