REMARK  6 active torsions:
REMARK  status: ('A' for Active; 'I' for Inactive)
REMARK    1  A    between atoms: P1_1  and  C1_2 
REMARK    2  A    between atoms: C1_2  and  C2_3 
REMARK    3  A    between atoms: C1_2  and  N1_6 
REMARK    4  A    between atoms: N1_6  and  C4_7 
REMARK    5  A    between atoms: C8_13  and  N4_14 
REMARK    6  A    between atoms: N4_14  and  C9_15 
ROOT
HETATM    1  C4  UNL     1      -1.674  -0.671  -0.793  1.00  0.00     0.182 A 
HETATM    2  C5  UNL     1      -0.602  -1.441  -1.051  1.00  0.00     0.069 A 
HETATM    3  C6  UNL     1      -0.927  -2.838  -1.333  1.00  0.00     0.092 A 
HETATM    4  N2  UNL     1       0.083  -3.608  -1.586  1.00  0.00    -0.240 NA
HETATM    5  C7  UNL     1       1.423  -3.077  -1.579  1.00  0.00     0.230 A 
HETATM    6  N3  UNL     1       1.718  -1.846  -1.331  1.00  0.00    -0.252 NA
HETATM    7  C8  UNL     1       0.728  -0.829  -1.025  1.00  0.00     0.248 A 
HETATM    8  C15 UNL     1      -2.323  -3.263  -1.312  1.00  0.00     0.179 A 
HETATM    9  N5  UNL     1      -3.280  -2.436  -1.051  1.00  0.00    -0.136 NA
HETATM   10  O1  UNL     1      -2.989  -1.119  -0.784  1.00  0.00    -0.195 OA
ENDROOT
BRANCH   1  11
HETATM   11  N1  UNL     1      -1.460   0.695  -0.509  1.00  0.00    -0.357 N 
HETATM   12  H6  UNL     1      -0.559   1.164  -0.828  1.00  0.00     0.162 HD
BRANCH  11  13
HETATM   13  C1  UNL     1      -2.458   1.484   0.218  1.00  0.00     0.130 C 
BRANCH  13  14
HETATM   14  P1  UNL     1      -4.031   1.673  -0.720  1.00  0.00    -0.113 P 
HETATM   15  H1  UNL     1      -4.328   0.605  -1.619  1.00  0.00     0.057 HD
HETATM   16  H2  UNL     1      -4.105   2.979  -1.360  1.00  0.00     0.057 HD
ENDBRANCH  13  14
BRANCH  13  17
HETATM   17  C2  UNL     1      -2.741   0.949   1.575  1.00  0.00     0.014 C 
HETATM   18  C3  UNL     1      -3.646   1.659   2.245  1.00  0.00     0.083 C 
HETATM   19 CL1  UNL     1      -4.374   3.073   1.505  1.00  0.00    -0.097 Cl
ENDBRANCH  13  17
ENDBRANCH  11  13
ENDBRANCH   1  11
BRANCH   7  20
HETATM   20  N4  UNL     1       1.100  -0.318   0.278  1.00  0.00    -0.363 N 
HETATM   21  H9  UNL     1       0.427  -0.424   1.046  1.00  0.00     0.162 HD
BRANCH  20  22
HETATM   22  C9  UNL     1       2.358   0.312   0.486  1.00  0.00     0.031 A 
HETATM   23  C10 UNL     1       3.263   0.456  -0.545  1.00  0.00     0.029 A 
HETATM   24  C11 UNL     1       4.472   1.083  -0.258  1.00  0.00     0.004 A 
HETATM   25  C12 UNL     1       4.805   1.564   1.002  1.00  0.00     0.019 A 
HETATM   26  C13 UNL     1       3.872   1.406   2.029  1.00  0.00     0.013 A 
HETATM   27 BR1  UNL     1       4.289   2.053   3.779  1.00  0.00    -0.051 Br
HETATM   28  C14 UNL     1       2.679   0.786   1.741  1.00  0.00     0.048 A 
ENDBRANCH  20  22
ENDBRANCH   7  20
TORSDOF 6
