REMARK  6 active torsions:
REMARK  status: ('A' for Active; 'I' for Inactive)
REMARK    1  A    between atoms: C1_2  and  C2_3 
REMARK    2  A    between atoms: C2_3  and  N1_4 
REMARK    3  A    between atoms: N1_4  and  C3_5 
REMARK    4  A    between atoms: C6_9  and  C7_10 
REMARK    5  A    between atoms: C8_12  and  N4_13 
REMARK    6  A    between atoms: N4_13  and  C9_14 
ROOT
HETATM    1  C7  UNL     1      -0.499  -1.802  -0.770  1.00  0.00     0.284 C 
HETATM    2  N3  UNL     1      -1.373  -0.699  -0.432  1.00  0.00    -0.235 NA
HETATM    3  C8  UNL     1      -1.589   0.343  -1.154  1.00  0.00     0.143 C 
HETATM    4  C15 UNL     1      -1.114   0.830  -2.469  1.00  0.00     0.163 C 
HETATM    5  N5  UNL     1      -0.249   0.153  -3.191  1.00  0.00    -0.272 NA
HETATM    6  C16 UNL     1       0.358  -1.124  -2.840  1.00  0.00     0.319 C 
HETATM    7  O1  UNL     1      -0.468  -1.936  -2.130  1.00  0.00    -0.340 OA
ENDROOT
BRANCH   1   8
HETATM    8  C6  UNL     1       0.823  -1.584  -0.126  1.00  0.00     0.011 A 
HETATM    9  C5  UNL     1       1.454  -2.682   0.466  1.00  0.00     0.128 A 
HETATM   10  N2  UNL     1       2.654  -2.512   1.060  1.00  0.00    -0.270 NA
HETATM   11  C4  UNL     1       3.255  -1.302   1.094  1.00  0.00     0.145 A 
HETATM   12  C3  UNL     1       2.702  -0.173   0.535  1.00  0.00     0.046 A 
HETATM   13  C17 UNL     1       1.481  -0.381  -0.061  1.00  0.00     0.043 A 
BRANCH  12  14
HETATM   14  N1  UNL     1       3.272   1.119   0.502  1.00  0.00    -0.388 N 
HETATM   15  H5  UNL     1       2.681   1.886   0.088  1.00  0.00     0.159 HD
BRANCH  14  16
HETATM   16  C2  UNL     1       4.516   1.662   0.910  1.00  0.00     0.135 C 
BRANCH  16  17
HETATM   17  C1  UNL     1       5.662   1.470  -0.023  1.00  0.00     0.134 C 
HETATM   18 CL1  UNL     1       6.068  -0.209  -0.368  1.00  0.00    -0.129 Cl
ENDBRANCH  16  17
ENDBRANCH  14  16
ENDBRANCH  12  14
ENDBRANCH   1   8
BRANCH   3  19
HETATM   19  N4  UNL     1      -2.515   1.273  -0.548  1.00  0.00    -0.340 N 
HETATM   20  H9  UNL     1      -2.590   2.278  -0.812  1.00  0.00     0.167 HD
BRANCH  19  21
HETATM   21  C9  UNL     1      -3.421   0.876   0.486  1.00  0.00     0.035 A 
HETATM   22  C10 UNL     1      -3.278   0.908   1.850  1.00  0.00     0.029 A 
HETATM   23  C11 UNL     1      -4.310   0.459   2.641  1.00  0.00     0.004 A 
HETATM   24  C12 UNL     1      -5.494  -0.027   2.119  1.00  0.00     0.024 A 
HETATM   25  C13 UNL     1      -5.637  -0.059   0.731  1.00  0.00     0.036 A 
HETATM   26 CL2  UNL     1      -7.155  -0.684   0.124  1.00  0.00    -0.084 Cl
HETATM   27  C14 UNL     1      -4.600   0.392  -0.059  1.00  0.00     0.053 A 
ENDBRANCH  19  21
ENDBRANCH   3  19
TORSDOF 6
