REMARK  2 active torsions:
REMARK  status: ('A' for Active; 'I' for Inactive)
REMARK    1  A    between atoms: C5_6  and  N1_7 
REMARK    2  A    between atoms: N1_7  and  C6_8 
ROOT
HETATM    1  C6  UNL     1      -0.646  -0.707   0.384  1.00  0.00     0.264 C 
HETATM    2  C7  UNL     1      -0.275   0.668   0.804  1.00  0.00     0.303 C 
HETATM    3  N2  UNL     1       0.563   1.312   1.492  1.00  0.00    -0.400 NA
HETATM    4  C8  UNL     1       1.649   0.806   2.241  1.00  0.00     0.287 C 
HETATM    5  O1  UNL     1       2.344  -0.221   1.588  1.00  0.00    -0.331 OA
HETATM    6  C9  UNL     1       2.971  -0.071   0.361  1.00  0.00     0.097 A 
HETATM    7  C10 UNL     1       4.109   0.700   0.438  1.00  0.00     0.039 A 
HETATM    8  C11 UNL     1       4.897   0.985  -0.657  1.00  0.00     0.003 A 
HETATM    9  C12 UNL     1       4.553   0.488  -1.897  1.00  0.00     0.002 A 
HETATM   10  C13 UNL     1       3.408  -0.278  -1.932  1.00  0.00     0.032 A 
HETATM   11  C14 UNL     1       2.589  -0.587  -0.858  1.00  0.00     0.063 A 
HETATM   12  N3  UNL     1       1.471  -1.389  -1.133  1.00  0.00    -0.366 N 
HETATM   13  C15 UNL     1       0.800  -2.290  -0.220  1.00  0.00     0.293 C 
HETATM   14  O2  UNL     1       0.267  -1.628   0.873  1.00  0.00    -0.343 OA
HETATM   15  H13 UNL     1       1.068  -1.335  -2.115  1.00  0.00     0.162 HD
ENDROOT
BRANCH   1  16
HETATM   16  N1  UNL     1      -1.990  -1.016   0.803  1.00  0.00    -0.359 N 
HETATM   17  H4  UNL     1      -2.161  -1.813   1.449  1.00  0.00     0.162 HD
BRANCH  16  18
HETATM   18  C5  UNL     1      -3.106  -0.262   0.361  1.00  0.00     0.031 A 
HETATM   19  C4  UNL     1      -4.402  -0.573   0.778  1.00  0.00     0.029 A 
HETATM   20  C3  UNL     1      -5.503   0.140   0.364  1.00  0.00     0.004 A 
HETATM   21  C2  UNL     1      -5.375   1.201  -0.485  1.00  0.00     0.019 A 
HETATM   22  C1  UNL     1      -4.098   1.511  -0.898  1.00  0.00     0.013 A 
HETATM   23 BR1  UNL     1      -3.879   2.996  -2.093  1.00  0.00    -0.051 Br
HETATM   24  C16 UNL     1      -2.990   0.811  -0.497  1.00  0.00     0.048 A 
ENDBRANCH  16  18
ENDBRANCH   1  16
TORSDOF 2
