REMARK  6 active torsions:
REMARK  status: ('A' for Active; 'I' for Inactive)
REMARK    1  A    between atoms: O1_2  and  C2_3 
REMARK    2  A    between atoms: C2_3  and  C3_4 
REMARK    3  A    between atoms: C3_4  and  C4_5 
REMARK    4  A    between atoms: C4_5  and  N1_6 
REMARK    5  A    between atoms: N1_6  and  C5_7 
REMARK    6  A    between atoms: C16_19  and  C17_20 
ROOT
HETATM    1  C5  UNL     1       0.786  -0.814   0.606  1.00  0.00     0.003 C 
HETATM    2  C6  UNL     1       1.121  -2.029   0.259  1.00  0.00    -0.002 C 
HETATM    3  C7  UNL     1       0.313  -2.417  -0.927  1.00  0.00     0.032 C 
HETATM    4  C8  UNL     1      -1.131  -2.117  -0.579  1.00  0.00     0.037 C 
HETATM    5  C9  UNL     1      -1.326  -0.622  -0.724  1.00  0.00     0.061 A 
HETATM    6  C10 UNL     1      -1.278  -0.301  -2.216  1.00  0.00     0.054 A 
HETATM    7  C11 UNL     1      -2.466   0.311  -2.801  1.00  0.00     0.151 A 
HETATM    8  C12 UNL     1      -3.718   0.795  -2.669  1.00  0.00     0.042 A 
HETATM    9 CL1  UNL     1      -3.473   1.064  -4.397  1.00  0.00    -0.205 Cl
HETATM   10  C13 UNL     1      -4.938   1.149  -1.920  1.00  0.00    -0.010 A 
HETATM   11  C14 UNL     1      -4.897   0.894  -0.627  1.00  0.00    -0.023 A 
HETATM   12  C15 UNL     1      -4.572   0.515   0.719  1.00  0.00     0.087 A 
HETATM   13  C16 UNL     1      -3.178  -0.067   0.829  1.00  0.00     0.050 A 
HETATM   14  N3  UNL     1      -2.559  -0.183  -0.233  1.00  0.00    -0.281 NA
HETATM   15  C18 UNL     1      -0.198   0.084  -0.001  1.00  0.00     0.089 C 
ENDROOT
BRANCH  13  16
HETATM   16  C17 UNL     1      -2.859  -0.383   2.249  1.00  0.00     0.134 C 
HETATM   17  N2  UNL     1      -1.759  -0.888   2.675  1.00  0.00    -0.310 NA
HETATM   18  H24 UNL     1      -1.627  -1.074   3.683  1.00  0.00     0.186 HD
ENDBRANCH  13  16
BRANCH   1  19
HETATM   19  N1  UNL     1       1.522  -0.364   1.745  1.00  0.00    -0.393 N 
HETATM   20  H10 UNL     1       1.102  -0.710   2.650  1.00  0.00     0.159 HD
BRANCH  19  21
HETATM   21  C4  UNL     1       2.714   0.477   1.618  1.00  0.00     0.121 C 
BRANCH  21  22
HETATM   22  C3  UNL     1       3.874  -0.247   0.994  1.00  0.00     0.046 C 
BRANCH  22  23
HETATM   23  C2  UNL     1       5.093   0.669   0.879  1.00  0.00     0.168 C 
BRANCH  23  24
HETATM   24  O1  UNL     1       4.735   1.742   0.089  1.00  0.00    -0.396 OA
HETATM   25  C1  UNL     1       5.773   2.660  -0.094  1.00  0.00     0.201 C 
ENDBRANCH  23  24
ENDBRANCH  22  23
ENDBRANCH  21  22
ENDBRANCH  19  21
ENDBRANCH   1  19
TORSDOF 6
