REMARK  4 active torsions:
REMARK  status: ('A' for Active; 'I' for Inactive)
REMARK    1  A    between atoms: C5_5  and  N1_6 
REMARK    2  A    between atoms: N1_6  and  C6_7 
REMARK    3  A    between atoms: C10_14  and  N5_15 
REMARK       I    between atoms: N5_15  and  C11_16 
REMARK    4  A    between atoms: C11_16  and  C12_18 
ROOT
HETATM    1  C6  UNL     1      -1.076  -1.165   0.060  1.00  0.00     0.142 A 
HETATM    2  N2  UNL     1      -1.940  -2.124   0.428  1.00  0.00    -0.224 NA
HETATM    3  C7  UNL     1      -1.524  -3.293   0.959  1.00  0.00     0.236 A 
HETATM    4  N3  UNL     1      -0.195  -3.455   1.103  1.00  0.00    -0.240 NA
HETATM    5  C8  UNL     1       0.696  -2.519   0.746  1.00  0.00     0.089 A 
HETATM    6  C9  UNL     1       2.045  -2.721   0.908  1.00  0.00     0.151 A 
HETATM    7  N4  UNL     1       2.917  -1.765   0.541  1.00  0.00    -0.241 NA
HETATM    8  C10 UNL     1       2.470  -0.606   0.013  1.00  0.00     0.131 A 
HETATM    9  C14 UNL     1       1.150  -0.320  -0.184  1.00  0.00     0.068 A 
HETATM   10  C15 UNL     1       0.282  -1.311   0.198  1.00  0.00     0.044 A 
ENDROOT
BRANCH   1  11
HETATM   11  N1  UNL     1      -1.658   0.011  -0.483  1.00  0.00    -0.340 N 
HETATM   12  H6  UNL     1      -1.223   0.887  -0.839  1.00  0.00     0.167 HD
BRANCH  11  13
HETATM   13  C5  UNL     1      -3.070   0.125  -0.610  1.00  0.00     0.039 A 
HETATM   14  C2  UNL     1      -4.219   0.883  -0.119  1.00  0.00    -0.035 A 
HETATM   15  C1  UNL     1      -4.304   1.996   0.861  1.00  0.00     0.050 C 
HETATM   16  C3  UNL     1      -5.073   0.191  -0.875  1.00  0.00     0.011 A 
HETATM   17  C4  UNL     1      -3.922  -0.562  -1.363  1.00  0.00     0.030 A 
ENDBRANCH  11  13
ENDBRANCH   1  11
BRANCH   8  18
HETATM   18  N5  UNL     1       3.434   0.397  -0.369  1.00  0.00    -0.308 N 
HETATM   19  C11 UNL     1       3.723   1.293   0.700  1.00  0.00     0.247 C 
HETATM   20  O1  UNL     1       3.153   1.144   1.807  1.00  0.00    -0.268 OA
HETATM   21  H9  UNL     1       3.878   0.473  -1.312  1.00  0.00     0.170 HD
BRANCH  19  22
HETATM   22  C12 UNL     1       4.673   2.377   0.514  1.00  0.00     0.086 C 
HETATM   23  C13 UNL     1       5.296   2.578  -0.622  1.00  0.00     0.090 C 
HETATM   24 CL1  UNL     1       6.461   3.870  -0.924  1.00  0.00    -0.097 Cl
ENDBRANCH  19  22
ENDBRANCH   8  18
TORSDOF 4
