REMARK  2 active torsions:
REMARK  status: ('A' for Active; 'I' for Inactive)
REMARK    1  A    between atoms: C4_5  and  N1_6 
REMARK    2  A    between atoms: N1_6  and  C5_7 
ROOT
HETATM    1  C5  UNL     1       1.553  -1.211   0.257  1.00  0.00     0.142 A 
HETATM    2  N2  UNL     1       2.547  -1.990   0.006  1.00  0.00    -0.224 NA
HETATM    3  C6  UNL     1       2.269  -3.291  -0.491  1.00  0.00     0.229 A 
HETATM    4  N3  UNL     1       1.058  -3.653  -0.672  1.00  0.00    -0.278 NA
HETATM    5  C7  UNL     1      -0.132  -2.907  -0.436  1.00  0.00     0.197 A 
HETATM    6  C8  UNL     1       0.131  -1.552   0.048  1.00  0.00     0.055 A 
HETATM    7  C9  UNL     1      -0.862  -0.703   0.256  1.00  0.00     0.158 C 
HETATM    8  N4  UNL     1      -0.870   0.639   0.690  1.00  0.00    -0.131 NA
HETATM    9  N5  UNL     1      -1.886   1.357   0.857  1.00  0.00    -0.151 NA
HETATM   10  C10 UNL     1      -3.213   0.911   0.625  1.00  0.00     0.080 C 
HETATM   11  C11 UNL     1      -4.135   1.823   0.409  1.00  0.00     0.008 C 
HETATM   12  C12 UNL     1      -5.559   1.443   0.156  1.00  0.00     0.056 C 
HETATM   13  C13 UNL     1      -5.554   0.001  -0.241  1.00  0.00    -0.024 C 
HETATM   14  C14 UNL     1      -4.594  -0.923  -0.039  1.00  0.00     0.001 C 
HETATM   15  C15 UNL     1      -3.334  -0.568   0.663  1.00  0.00     0.160 C 
HETATM   16  N6  UNL     1      -2.181  -1.178   0.017  1.00  0.00    -0.359 N 
HETATM   17  H13 UNL     1      -2.387  -1.978  -0.620  1.00  0.00     0.162 HD
ENDROOT
BRANCH   1  18
HETATM   18  N1  UNL     1       1.884   0.094   0.762  1.00  0.00    -0.327 N 
HETATM   19  H3  UNL     1       1.203   0.446   1.508  1.00  0.00     0.169 HD
BRANCH  18  20
HETATM   20  C4  UNL     1       3.010   0.810   0.297  1.00  0.00     0.102 A 
HETATM   21  C3  UNL     1       2.814   2.069  -0.088  1.00  0.00     0.050 A 
HETATM   22  C2  UNL     1       3.896   2.937  -0.596  1.00  0.00     0.025 A 
HETATM   23  C1  UNL     1       5.082   2.400  -0.652  1.00  0.00     0.029 A 
HETATM   24 CL1  UNL     1       6.414   3.397  -1.253  1.00  0.00    -0.087 Cl
HETATM   25  C16 UNL     1       5.471   1.027  -0.268  1.00  0.00     0.172 A 
HETATM   26  N7  UNL     1       4.325   0.277   0.213  1.00  0.00    -0.371 N 
HETATM   27  H14 UNL     1       4.487  -0.707   0.512  1.00  0.00     0.161 HD
ENDBRANCH  18  20
ENDBRANCH   1  18
TORSDOF 2
