REMARK  7 active torsions:
REMARK  status: ('A' for Active; 'I' for Inactive)
REMARK       I    between atoms: N1_2  and  C2_3 
REMARK    1  A    between atoms: C2_3  and  C3_5 
REMARK    2  A    between atoms: C5_8  and  C6_9 
REMARK    3  A    between atoms: C7_10  and  C8_12 
REMARK    4  A    between atoms: C8_12  and  S1_13 
REMARK    5  A    between atoms: S1_13  and  N3_16 
REMARK    6  A    between atoms: N3_16  and  C9_17 
REMARK    7  A    between atoms: S2_27  and  N5_28 
ROOT
HETATM    1  C6  UNL     1       0.471  -0.316   0.463  1.00  0.00     0.022 C 
HETATM    2  C7  UNL     1      -0.391  -1.085   1.102  1.00  0.00     0.027 C 
HETATM    3 CL1  UNL     1       0.117  -2.679   1.680  1.00  0.00    -0.088 Cl
ENDROOT
BRANCH   1   4
HETATM    4  C5  UNL     1       1.832  -0.781   0.238  1.00  0.00     0.030 C 
HETATM    5  C4  UNL     1       2.748  -0.054  -0.399  1.00  0.00     0.056 C 
HETATM    6  N2  UNL     1       4.082  -0.503  -0.623  1.00  0.00    -0.237 NA
HETATM    7  C16 UNL     1       2.521   1.295  -0.957  1.00  0.00     0.218 C 
HETATM    8  C3  UNL     1       5.106   0.267  -0.434  1.00  0.00     0.186 C 
HETATM    9  S2  UNL     1       4.775   1.912   0.124  1.00  0.00     0.022 SA
HETATM   10  N4  UNL     1       3.301   2.277  -0.265  1.00  0.00    -0.242 NA
BRANCH   8  11
HETATM   11  C2  UNL     1       6.467  -0.182  -0.661  1.00  0.00     0.278 C 
HETATM   12  N1  UNL     1       6.691  -1.524  -1.110  1.00  0.00    -0.359 N 
HETATM   13  C1  UNL     1       8.027  -2.051  -1.360  1.00  0.00     0.149 C 
HETATM   14  H4  UNL     1       5.866  -2.152  -1.265  1.00  0.00     0.162 HD
HETATM   15  O1  UNL     1       7.423   0.580  -0.471  1.00  0.00    -0.265 OA
ENDBRANCH   8  11
BRANCH   9  16
HETATM   16  N5  UNL     1       5.872   2.996  -0.688  1.00  0.00    -0.263 NA
HETATM   17  H18 UNL     1       6.139   2.666  -1.625  1.00  0.00     0.132 HD
HETATM   18  H19 UNL     1       6.741   3.189  -0.151  1.00  0.00     0.132 HD
ENDBRANCH   9  16
ENDBRANCH   1   4
BRANCH   2  19
HETATM   19  C8  UNL     1      -1.793  -0.759   1.404  1.00  0.00     0.214 C 
BRANCH  19  20
HETATM   20  S1  UNL     1      -2.323   0.815   0.835  1.00  0.00     0.235 S 
HETATM   21  O2  UNL     1      -1.477   1.851   1.497  1.00  0.00    -0.205 OA
HETATM   22  O3  UNL     1      -2.106   0.880  -0.655  1.00  0.00    -0.205 OA
BRANCH  20  23
HETATM   23  N3  UNL     1      -3.979   1.129   1.230  1.00  0.00    -0.284 N 
HETATM   24  H9  UNL     1      -4.241   1.930   1.847  1.00  0.00     0.178 HD
BRANCH  23  25
HETATM   25  C9  UNL     1      -5.026   0.304   0.723  1.00  0.00     0.051 A 
HETATM   26  C10 UNL     1      -4.783  -0.615  -0.282  1.00  0.00     0.031 A 
HETATM   27  C11 UNL     1      -5.749  -1.437  -0.818  1.00  0.00     0.005 A 
HETATM   28  C12 UNL     1      -7.043  -1.363  -0.347  1.00  0.00     0.043 A 
HETATM   29  C13 UNL     1      -7.292  -0.448   0.655  1.00  0.00     0.124 A 
HETATM   30  F1  UNL     1      -8.582  -0.371   1.127  1.00  0.00    -0.205 F 
HETATM   31  C14 UNL     1      -6.317   0.383   1.198  1.00  0.00     0.004 A 
HETATM   32  C15 UNL     1      -6.691   1.320   2.262  1.00  0.00     0.054 C 
ENDBRANCH  23  25
ENDBRANCH  20  23
ENDBRANCH  19  20
ENDBRANCH   2  19
TORSDOF 7
