REMARK  9 active torsions:
REMARK  status: ('A' for Active; 'I' for Inactive)
REMARK    1  A    between atoms: O1_1  and  C1_2 
REMARK    2  A    between atoms: C1_2  and  C2_3 
REMARK    3  A    between atoms: C2_3  and  C3_4 
REMARK    4  A    between atoms: C3_4  and  C4_5 
REMARK    5  A    between atoms: C4_5  and  N1_6 
REMARK    6  A    between atoms: N1_6  and  C5_7 
REMARK    7  A    between atoms: C8_11  and  C9_12 
REMARK    8  A    between atoms: C12_16  and  N4_17 
REMARK    9  A    between atoms: N4_17  and  C13_18 
ROOT
HETATM    1  C5  UNL     1       1.641  -0.164   0.507  1.00  0.00     0.046 A 
HETATM    2  C6  UNL     1       2.225   0.174   1.711  1.00  0.00     0.145 A 
HETATM    3  N2  UNL     1       1.622   0.831   2.719  1.00  0.00    -0.270 NA
HETATM    4  C7  UNL     1       0.322   1.228   2.611  1.00  0.00     0.130 A 
HETATM    5  C8  UNL     1      -0.337   0.928   1.437  1.00  0.00     0.014 A 
HETATM    6  C18 UNL     1       0.328   0.253   0.435  1.00  0.00     0.046 A 
ENDROOT
BRANCH   5   7
HETATM    7  C9  UNL     1      -1.728   1.300   1.206  1.00  0.00     0.088 A 
HETATM    8  C10 UNL     1      -2.489   1.975   2.134  1.00  0.00     0.148 A 
HETATM    9  N3  UNL     1      -3.775   2.319   1.919  1.00  0.00    -0.267 NA
HETATM   10  C11 UNL     1      -4.383   2.008   0.759  1.00  0.00     0.166 A 
HETATM   11  C12 UNL     1      -3.633   1.332  -0.180  1.00  0.00     0.146 A 
HETATM   12  N5  UNL     1      -2.354   1.006   0.069  1.00  0.00    -0.228 NA
BRANCH  11  13
HETATM   13  N4  UNL     1      -4.278   1.005  -1.405  1.00  0.00    -0.340 N 
HETATM   14  H15 UNL     1      -4.427   1.427  -2.346  1.00  0.00     0.167 HD
BRANCH  13  15
HETATM   15  C13 UNL     1      -4.958  -0.261  -1.474  1.00  0.00     0.031 A 
HETATM   16  C14 UNL     1      -4.858  -1.432  -2.123  1.00  0.00     0.008 A 
HETATM   17  C15 UNL     1      -5.944  -2.366  -1.703  1.00  0.00     0.081 A 
HETATM   18  C16 UNL     1      -6.679  -1.543  -0.711  1.00  0.00     0.017 A 
HETATM   19 CL1  UNL     1      -8.043  -2.394  -0.027  1.00  0.00    -0.089 Cl
HETATM   20  C17 UNL     1      -6.114  -0.355  -0.589  1.00  0.00     0.049 A 
ENDBRANCH  13  15
ENDBRANCH  11  13
ENDBRANCH   5   7
BRANCH   1  21
HETATM   21  N1  UNL     1       2.297  -0.839  -0.530  1.00  0.00    -0.389 N 
HETATM   22  H10 UNL     1       1.669  -1.040  -1.368  1.00  0.00     0.159 HD
BRANCH  21  23
HETATM   23  C4  UNL     1       3.653  -1.269  -0.590  1.00  0.00     0.120 C 
BRANCH  23  24
HETATM   24  C3  UNL     1       4.645  -0.151  -0.656  1.00  0.00     0.022 C 
BRANCH  24  25
HETATM   25  C2  UNL     1       6.081  -0.692  -0.714  1.00  0.00     0.028 C 
BRANCH  25  26
HETATM   26  C1  UNL     1       6.989   0.529  -0.777  1.00  0.00     0.164 C 
BRANCH  26  27
HETATM   27  O1  UNL     1       8.327   0.105  -0.833  1.00  0.00    -0.401 OA
HETATM   28  H1  UNL     1       8.686  -0.003   0.092  1.00  0.00     0.209 HD
ENDBRANCH  26  27
ENDBRANCH  25  26
ENDBRANCH  24  25
ENDBRANCH  23  24
ENDBRANCH  21  23
ENDBRANCH   1  21
TORSDOF 9
