REMARK  8 active torsions:
REMARK  status: ('A' for Active; 'I' for Inactive)
REMARK    1  A    between atoms: O1_1  and  C1_2 
REMARK    2  A    between atoms: C1_2  and  C2_3 
REMARK    3  A    between atoms: C2_3  and  C3_4 
REMARK    4  A    between atoms: C3_4  and  N1_5 
REMARK    5  A    between atoms: N1_5  and  C4_6 
REMARK    6  A    between atoms: C8_10  and  C9_11 
REMARK    7  A    between atoms: C12_15  and  N3_16 
REMARK    8  A    between atoms: N3_16  and  C13_17 
ROOT
HETATM    1  C9  UNL     1      -0.222  -0.661   1.309  1.00  0.00     0.089 A 
HETATM    2  C10 UNL     1       0.280  -0.851   2.578  1.00  0.00     0.148 A 
HETATM    3  N2  UNL     1       1.495  -0.415   2.931  1.00  0.00    -0.267 NA
HETATM    4  C11 UNL     1       2.276   0.228   2.050  1.00  0.00     0.166 A 
HETATM    5  C12 UNL     1       1.799   0.430   0.776  1.00  0.00     0.146 A 
HETATM    6  N4  UNL     1       0.556  -0.020   0.432  1.00  0.00    -0.228 NA
ENDROOT
BRANCH   1   7
HETATM    7  C8  UNL     1      -1.569  -1.217   1.013  1.00  0.00     0.021 C 
HETATM    8  C4  UNL     1      -2.382  -1.238  -0.223  1.00  0.00     0.052 C 
HETATM    9  C5  UNL     1      -2.939  -2.420   0.087  1.00  0.00     0.004 C 
HETATM   10  C6  UNL     1      -3.521  -2.302   1.291  1.00  0.00     0.015 C 
HETATM   11  C7  UNL     1      -2.267  -1.871   1.962  1.00  0.00     0.017 C 
BRANCH   8  12
HETATM   12  N1  UNL     1      -2.288  -0.137  -1.136  1.00  0.00    -0.388 N 
HETATM   13  H8  UNL     1      -1.611  -0.384  -1.919  1.00  0.00     0.159 HD
BRANCH  12  14
HETATM   14  C3  UNL     1      -2.970   1.103  -1.056  1.00  0.00     0.122 C 
BRANCH  14  15
HETATM   15  C2  UNL     1      -4.432   1.142  -1.290  1.00  0.00     0.045 C 
BRANCH  15  16
HETATM   16  C1  UNL     1      -5.294   0.317  -0.400  1.00  0.00     0.165 C 
BRANCH  16  17
HETATM   17  O1  UNL     1      -6.661   0.531  -0.743  1.00  0.00    -0.401 OA
HETATM   18  H1  UNL     1      -7.134  -0.236  -0.285  1.00  0.00     0.209 HD
ENDBRANCH  16  17
ENDBRANCH  15  16
ENDBRANCH  14  15
ENDBRANCH  12  14
ENDBRANCH   8  12
ENDBRANCH   1   7
BRANCH   5  19
HETATM   19  N3  UNL     1       2.589   1.083  -0.238  1.00  0.00    -0.340 N 
HETATM   20  H13 UNL     1       2.394   1.863  -0.907  1.00  0.00     0.167 HD
BRANCH  19  21
HETATM   21  C13 UNL     1       3.947   0.801  -0.585  1.00  0.00     0.035 A 
HETATM   22  C14 UNL     1       5.070   1.039   0.164  1.00  0.00     0.029 A 
HETATM   23  C15 UNL     1       6.361   0.717  -0.200  1.00  0.00     0.004 A 
HETATM   24  C16 UNL     1       6.562   0.105  -1.418  1.00  0.00     0.024 A 
HETATM   25  C17 UNL     1       5.468  -0.163  -2.225  1.00  0.00     0.036 A 
HETATM   26 CL1  UNL     1       5.745  -0.953  -3.769  1.00  0.00    -0.084 Cl
HETATM   27  C18 UNL     1       4.189   0.188  -1.796  1.00  0.00     0.053 A 
ENDBRANCH  19  21
ENDBRANCH   5  19
TORSDOF 8
