REMARK  9 active torsions:
REMARK  status: ('A' for Active; 'I' for Inactive)
REMARK    1  A    between atoms: O1_1  and  C1_2 
REMARK    2  A    between atoms: C1_2  and  C2_3 
REMARK    3  A    between atoms: C2_3  and  C3_4 
REMARK    4  A    between atoms: C3_4  and  C4_5 
REMARK    5  A    between atoms: C4_5  and  N1_6 
REMARK    6  A    between atoms: N1_6  and  C5_7 
REMARK    7  A    between atoms: C8_11  and  C9_12 
REMARK    8  A    between atoms: C12_16  and  N4_17 
REMARK    9  A    between atoms: N4_17  and  C13_18 
ROOT
HETATM    1  C5  UNL     1       2.304  -1.114   0.303  1.00  0.00     0.046 A 
HETATM    2  C6  UNL     1       2.322  -0.841   1.653  1.00  0.00     0.145 A 
HETATM    3  N2  UNL     1       1.270  -0.409   2.371  1.00  0.00    -0.270 NA
HETATM    4  C7  UNL     1       0.059  -0.207   1.773  1.00  0.00     0.130 A 
HETATM    5  C8  UNL     1      -0.017  -0.465   0.421  1.00  0.00     0.014 A 
HETATM    6  C18 UNL     1       1.077  -0.906  -0.288  1.00  0.00     0.046 A 
ENDROOT
BRANCH   5   7
HETATM    7  C9  UNL     1      -1.314  -0.245  -0.203  1.00  0.00     0.088 A 
HETATM    8  C10 UNL     1      -1.606  -0.441  -1.536  1.00  0.00     0.148 A 
HETATM    9  N3  UNL     1      -2.822  -0.224  -2.068  1.00  0.00    -0.267 NA
HETATM   10  C11 UNL     1      -3.830   0.206  -1.300  1.00  0.00     0.166 A 
HETATM   11  C12 UNL     1      -3.579   0.415   0.040  1.00  0.00     0.142 A 
HETATM   12  N5  UNL     1      -2.338   0.188   0.558  1.00  0.00    -0.228 NA
BRANCH  11  13
HETATM   13  N4  UNL     1      -4.630   0.871   0.883  1.00  0.00    -0.362 N 
HETATM   14  H15 UNL     1      -4.426   1.031   1.911  1.00  0.00     0.162 HD
BRANCH  13  15
HETATM   15  C13 UNL     1      -5.936   1.106   0.331  1.00  0.00     0.131 A 
HETATM   16  C14 UNL     1      -6.833   1.587   1.439  1.00  0.00     0.004 A 
HETATM   17  C15 UNL     1      -7.771   0.696   1.752  1.00  0.00     0.022 A 
HETATM   18  C16 UNL     1      -7.572  -0.451   0.876  1.00  0.00     0.032 A 
HETATM   19 CL1  UNL     1      -8.666  -1.808   1.049  1.00  0.00    -0.085 Cl
HETATM   20  C17 UNL     1      -6.544  -0.238   0.069  1.00  0.00     0.026 A 
ENDBRANCH  13  15
ENDBRANCH  11  13
ENDBRANCH   5   7
BRANCH   1  21
HETATM   21  N1  UNL     1       3.424  -1.558  -0.440  1.00  0.00    -0.389 N 
HETATM   22  H10 UNL     1       3.231  -1.751  -1.470  1.00  0.00     0.159 HD
BRANCH  21  23
HETATM   23  C4  UNL     1       4.758  -1.778  -0.002  1.00  0.00     0.120 C 
BRANCH  23  24
HETATM   24  C3  UNL     1       5.529  -0.569   0.411  1.00  0.00     0.022 C 
BRANCH  24  25
HETATM   25  C2  UNL     1       5.671   0.445  -0.705  1.00  0.00     0.028 C 
BRANCH  25  26
HETATM   26  C1  UNL     1       6.460   1.664  -0.255  1.00  0.00     0.164 C 
BRANCH  26  27
HETATM   27  O1  UNL     1       7.743   1.313   0.156  1.00  0.00    -0.401 OA
HETATM   28  H1  UNL     1       8.190   2.159   0.411  1.00  0.00     0.209 HD
ENDBRANCH  26  27
ENDBRANCH  25  26
ENDBRANCH  24  25
ENDBRANCH  23  24
ENDBRANCH  21  23
ENDBRANCH   1  21
TORSDOF 9
