REMARK  10 active torsions:
REMARK  status: ('A' for Active; 'I' for Inactive)
REMARK    1  A    between atoms: O1_1  and  C1_2 
REMARK    2  A    between atoms: C1_2  and  C2_3 
REMARK    3  A    between atoms: C2_3  and  C3_4 
REMARK    4  A    between atoms: C3_4  and  N1_5 
REMARK    5  A    between atoms: N1_5  and  C4_6 
REMARK    6  A    between atoms: C4_6  and  C5_7 
REMARK    7  A    between atoms: C5_7  and  C6_8 
REMARK    8  A    between atoms: C6_8  and  C7_10 
REMARK    9  A    between atoms: C10_14  and  N3_15 
REMARK   10  A    between atoms: N3_15  and  C11_16 
ROOT
HETATM    1  C7  UNL     1       0.358  -0.751  -1.015  1.00  0.00     0.098 A 
HETATM    2  C8  UNL     1       0.061  -1.890  -0.307  1.00  0.00     0.149 A 
HETATM    3  N2  UNL     1       0.950  -2.707   0.285  1.00  0.00    -0.267 NA
HETATM    4  C9  UNL     1       2.266  -2.415   0.199  1.00  0.00     0.166 A 
HETATM    5  C10 UNL     1       2.604  -1.283  -0.502  1.00  0.00     0.146 A 
HETATM    6  N4  UNL     1       1.672  -0.508  -1.071  1.00  0.00    -0.227 NA
ENDROOT
BRANCH   1   7
HETATM    7  C6  UNL     1      -0.674   0.094  -1.636  1.00  0.00     0.062 C 
HETATM    8 CL1  UNL     1       0.055   1.486  -2.473  1.00  0.00    -0.082 Cl
BRANCH   7   9
HETATM    9  C5  UNL     1      -1.991  -0.192  -1.551  1.00  0.00     0.029 C 
BRANCH   9  10
HETATM   10  C4  UNL     1      -3.276  -0.821  -1.245  1.00  0.00     0.298 C 
BRANCH  10  11
HETATM   11  N1  UNL     1      -4.202   0.009  -0.502  1.00  0.00     0.086 N 
HETATM   12  H8  UNL     1      -4.511   0.861  -1.008  1.00  0.00     0.316 HD
BRANCH  11  13
HETATM   13  C3  UNL     1      -3.751   0.256   0.848  1.00  0.00     0.272 C 
BRANCH  13  14
HETATM   14  C2  UNL     1      -4.816   1.132   1.506  1.00  0.00     0.056 C 
BRANCH  14  15
HETATM   15  C1  UNL     1      -6.108   0.321   1.459  1.00  0.00     0.165 C 
BRANCH  15  16
HETATM   16  O1  UNL     1      -6.457   0.028   0.149  1.00  0.00    -0.401 OA
HETATM   17  H1  UNL     1      -6.863   0.788  -0.323  1.00  0.00     0.209 HD
ENDBRANCH  15  16
ENDBRANCH  14  15
ENDBRANCH  13  14
ENDBRANCH  11  13
ENDBRANCH  10  11
ENDBRANCH   9  10
ENDBRANCH   7   9
ENDBRANCH   1   7
BRANCH   5  18
HETATM   18  N3  UNL     1       3.938  -0.811  -0.703  1.00  0.00    -0.340 N 
HETATM   19  H14 UNL     1       4.220  -1.278  -1.590  1.00  0.00     0.167 HD
BRANCH  18  20
HETATM   20  C11 UNL     1       4.760   0.055   0.031  1.00  0.00     0.033 A 
HETATM   21  C12 UNL     1       6.016   0.314  -0.432  1.00  0.00     0.029 A 
HETATM   22  C13 UNL     1       6.817   1.161   0.289  1.00  0.00     0.002 A 
HETATM   23  C14 UNL     1       6.395   1.754   1.458  1.00  0.00     0.000 A 
HETATM   24  C15 UNL     1       5.105   1.461   1.893  1.00  0.00     0.002 A 
HETATM   25  C16 UNL     1       4.255   0.611   1.199  1.00  0.00     0.029 A 
ENDBRANCH  18  20
ENDBRANCH   5  18
TORSDOF 10
