REMARK  6 active torsions:
REMARK  status: ('A' for Active; 'I' for Inactive)
REMARK    1  A    between atoms: C2_2  and  C3_3 
REMARK    2  A    between atoms: C10_13  and  N3_14 
REMARK    3  A    between atoms: N3_14  and  C11_15 
REMARK    4  A    between atoms: C12_16  and  C13_17 
REMARK    5  A    between atoms: C13_17  and  C14_18 
REMARK    6  A    between atoms: C14_18  and  C15_19 
ROOT
HETATM    1  C3  UNL     1      -2.660   1.634   0.562  1.00  0.00     0.120 C 
HETATM    2  N1  UNL     1      -3.753   1.287   1.171  1.00  0.00    -0.247 NA
HETATM    3  C4  UNL     1      -3.984  -0.185   1.102  1.00  0.00     0.318 C 
HETATM    4  O1  UNL     1      -3.271  -0.677   0.052  1.00  0.00    -0.370 OA
HETATM    5  C5  UNL     1      -3.248  -1.979  -0.220  1.00  0.00     0.170 C 
HETATM    6  C6  UNL     1      -2.358  -2.331  -1.414  1.00  0.00     0.027 C 
HETATM    7  C7  UNL     1      -0.960  -1.934  -1.226  1.00  0.00     0.012 C 
HETATM    8  C8  UNL     1      -0.540  -0.532  -1.122  1.00  0.00     0.046 C 
HETATM    9  C9  UNL     1      -1.445   0.558  -1.486  1.00  0.00     0.135 C 
HETATM   10  N2  UNL     1      -1.700   0.831  -0.127  1.00  0.00    -0.344 N 
HETATM   11  C10 UNL     1      -0.628   0.018   0.281  1.00  0.00     0.190 C 
ENDROOT
BRANCH  11  12
HETATM   12  N3  UNL     1       0.535   0.842   0.641  1.00  0.00    -0.378 N 
HETATM   13  H16 UNL     1       0.646   1.836   0.931  1.00  0.00     0.161 HD
BRANCH  12  14
HETATM   14  C11 UNL     1       1.778   0.126   0.581  1.00  0.00     0.085 C 
HETATM   15  C12 UNL     1       2.979   0.705   0.611  1.00  0.00     0.017 C 
BRANCH  15  16
HETATM   16  C13 UNL     1       4.282   0.052   0.554  1.00  0.00     0.002 C 
BRANCH  16  17
HETATM   17  C14 UNL     1       5.405   0.738   0.592  1.00  0.00     0.015 C 
BRANCH  17  18
HETATM   18  C15 UNL     1       6.655   0.025   0.532  1.00  0.00    -0.005 A 
HETATM   19  C16 UNL     1       6.666  -1.402   0.434  1.00  0.00     0.111 A 
HETATM   20  S1  UNL     1       8.304  -0.653   0.471  1.00  0.00    -0.121 SA
ENDBRANCH  17  18
ENDBRANCH  16  17
ENDBRANCH  15  16
ENDBRANCH  12  14
ENDBRANCH  11  12
BRANCH   1  21
HETATM   21  C2  UNL     1      -2.406   3.051   0.610  1.00  0.00     0.024 C 
HETATM   22  C1  UNL     1      -1.527   3.953   0.209  1.00  0.00     0.035 C 
ENDBRANCH   1  21
TORSDOF 6
