REMARK  8 active torsions:
REMARK  status: ('A' for Active; 'I' for Inactive)
REMARK    1  A    between atoms: O1_2  and  C2_3 
REMARK    2  A    between atoms: C2_3  and  C3_4 
REMARK    3  A    between atoms: C3_4  and  C4_5 
REMARK    4  A    between atoms: C4_5  and  C5_6 
REMARK    5  A    between atoms: C5_6  and  C6_7 
REMARK    6  A    between atoms: C7_8  and  N1_9 
REMARK    7  A    between atoms: C8_10  and  C9_11 
REMARK    8  A    between atoms: C9_11  and  C10_12 
ROOT
HETATM    1  C10 UNL     1       1.821  -0.037   0.044  1.00  0.00    -0.025 C 
HETATM    2  C11 UNL     1       2.259   1.155   0.502  1.00  0.00     0.124 C 
HETATM    3  N2  UNL     1       3.266   1.946   1.070  1.00  0.00    -0.275 NA
HETATM    4  C12 UNL     1       4.556   1.823   0.987  1.00  0.00     0.108 C 
HETATM    5  C13 UNL     1       6.026   1.580   0.820  1.00  0.00     0.166 C 
HETATM    6  N3  UNL     1       6.318   0.542  -0.200  1.00  0.00    -0.385 N 
HETATM    7  C14 UNL     1       5.385  -0.443   0.297  1.00  0.00     0.030 A 
HETATM    8  C15 UNL     1       5.565  -1.494   1.153  1.00  0.00     0.053 A 
HETATM    9  C16 UNL     1       4.436  -2.138   1.613  1.00  0.00     0.037 A 
HETATM   10 CL1  UNL     1       4.778  -3.460   2.691  1.00  0.00    -0.084 Cl
HETATM   11  C17 UNL     1       3.192  -1.722   1.217  1.00  0.00     0.036 A 
HETATM   12  C18 UNL     1       3.114  -0.670   0.364  1.00  0.00    -0.024 A 
HETATM   13  C19 UNL     1       4.176   0.027  -0.156  1.00  0.00     0.041 A 
HETATM   14  H21 UNL     1       6.589  -0.121  -0.953  1.00  0.00     0.160 HD
ENDROOT
BRANCH   1  15
HETATM   15  C9  UNL     1       1.000  -1.103  -0.524  1.00  0.00     0.087 C 
BRANCH  15  16
HETATM   16  C8  UNL     1      -0.364  -0.612  -0.926  1.00  0.00     0.093 C 
HETATM   17  N1  UNL     1      -0.869  -0.838  -2.090  1.00  0.00    -0.277 NA
BRANCH  17  18
HETATM   18  C7  UNL     1      -2.142  -0.397  -2.507  1.00  0.00     0.112 C 
HETATM   19  C6  UNL     1      -3.328  -0.642  -1.979  1.00  0.00    -0.007 C 
BRANCH  19  20
HETATM   20  C5  UNL     1      -3.417  -1.486  -0.785  1.00  0.00     0.028 C 
BRANCH  20  21
HETATM   21  C4  UNL     1      -4.033  -0.703   0.344  1.00  0.00     0.006 C 
BRANCH  21  22
HETATM   22  C3  UNL     1      -5.420  -0.267  -0.083  1.00  0.00     0.027 C 
BRANCH  22  23
HETATM   23  C2  UNL     1      -6.002   0.509   1.070  1.00  0.00     0.167 C 
BRANCH  23  24
HETATM   24  O1  UNL     1      -5.252   1.602   1.393  1.00  0.00    -0.396 OA
HETATM   25  C1  UNL     1      -5.103   2.540   0.387  1.00  0.00     0.201 C 
ENDBRANCH  23  24
ENDBRANCH  22  23
ENDBRANCH  21  22
ENDBRANCH  20  21
ENDBRANCH  19  20
ENDBRANCH  17  18
ENDBRANCH  15  16
ENDBRANCH   1  15
TORSDOF 8
