REMARK  1 active torsions:
REMARK  status: ('A' for Active; 'I' for Inactive)
REMARK    1  A    between atoms: C12_15  and  N4_16 
ROOT
HETATM    1  C1  UNL     1      -2.707   1.921  -0.314  1.00  0.00     0.144 C 
HETATM    2  N1  UNL     1      -2.636   0.677   0.335  1.00  0.00    -0.406 N 
HETATM    3  C2  UNL     1      -1.675   0.381   1.268  1.00  0.00     0.119 C 
HETATM    4  C3  UNL     1      -0.267   0.235   0.772  1.00  0.00     0.039 C 
HETATM    5  C4  UNL     1       0.009  -0.887  -0.157  1.00  0.00     0.023 A 
HETATM    6  C5  UNL     1      -0.694  -0.967  -1.412  1.00  0.00    -0.010 C 
HETATM    7  C6  UNL     1      -1.700  -0.923  -2.243  1.00  0.00     0.010 C 
HETATM    8  C7  UNL     1      -3.084  -0.627  -1.949  1.00  0.00     0.208 C 
HETATM    9  N2  UNL     1      -4.133  -0.305  -1.220  1.00  0.00    -0.301 NA
HETATM   10  C8  UNL     1      -3.813  -0.083   0.205  1.00  0.00     0.202 C 
HETATM   11  C9  UNL     1      -0.370  -2.129   0.657  1.00  0.00     0.008 A 
HETATM   12  C10 UNL     1       0.181  -3.207   1.198  1.00  0.00     0.113 A 
HETATM   13  N3  UNL     1       1.603  -3.267   0.962  1.00  0.00    -0.275 NA
HETATM   14  C11 UNL     1       2.053  -2.272   0.276  1.00  0.00     0.115 A 
HETATM   15  C12 UNL     1       1.493  -1.051  -0.355  1.00  0.00     0.140 A 
ENDROOT
BRANCH  15  16
HETATM   16  N4  UNL     1       2.318   0.063  -0.042  1.00  0.00    -0.376 N 
HETATM   17  C13 UNL     1       2.118   1.261  -0.825  1.00  0.00     0.088 A 
HETATM   18  C14 UNL     1       2.800   2.384  -0.660  1.00  0.00     0.040 A 
HETATM   19  C15 UNL     1       3.831   2.474   0.362  1.00  0.00     0.033 A 
HETATM   20 CL1  UNL     1       4.784   3.893   0.666  1.00  0.00    -0.085 Cl
HETATM   21  C16 UNL     1       3.991   1.352   1.065  1.00  0.00     0.017 A 
HETATM   22  C17 UNL     1       3.327   0.047   1.005  1.00  0.00     0.152 A 
ENDBRANCH  15  16
TORSDOF 1
