REMARK  7 active torsions:
REMARK  status: ('A' for Active; 'I' for Inactive)
REMARK    1  A    between atoms: N1_2  and  C3_4 
REMARK    2  A    between atoms: C3_4  and  C4_5 
REMARK    3  A    between atoms: C4_5  and  N2_6 
REMARK    4  A    between atoms: C5_7  and  C6_8 
REMARK    5  A    between atoms: C7_9  and  C8_10 
REMARK    6  A    between atoms: C11_14  and  N4_15 
REMARK    7  A    between atoms: N4_15  and  C12_16 
ROOT
HETATM    1  C8  UNL     1      -1.133  -1.820   0.585  1.00  0.00     0.073 A 
HETATM    2  C9  UNL     1      -1.990  -2.943   0.620  1.00  0.00     0.147 A 
HETATM    3  N3  UNL     1      -3.361  -2.931   0.600  1.00  0.00    -0.267 NA
HETATM    4  C10 UNL     1      -3.973  -1.711   0.543  1.00  0.00     0.166 A 
HETATM    5  C11 UNL     1      -3.192  -0.608   0.511  1.00  0.00     0.146 A 
HETATM    6  N5  UNL     1      -1.850  -0.689   0.533  1.00  0.00    -0.229 NA
ENDROOT
BRANCH   1   7
HETATM    7  C7  UNL     1       0.348  -2.067   0.584  1.00  0.00     0.014 C 
HETATM    8  C6  UNL     1       0.775  -0.841   0.504  1.00  0.00     0.137 C 
BRANCH   8   9
HETATM    9  C5  UNL     1       2.119  -0.435   0.473  1.00  0.00     0.155 A 
HETATM   10  N2  UNL     1       3.118   0.482   0.403  1.00  0.00    -0.045 N 
HETATM   11  H11 UNL     1       3.443  -0.355  -0.234  1.00  0.00     0.282 HD
HETATM   12  C18 UNL     1       1.490   0.808   0.410  1.00  0.00     0.399 A 
HETATM   13 BR1  UNL     1       0.111   2.130   0.354  1.00  0.00    -0.167 Br
BRANCH  10  14
HETATM   14  C4  UNL     1       4.120   1.469   0.370  1.00  0.00     0.267 C 
BRANCH  14  15
HETATM   15  C3  UNL     1       5.176   1.217  -0.695  1.00  0.00     0.299 C 
BRANCH  15  16
HETATM   16  N1  UNL     1       5.876  -0.039  -0.464  1.00  0.00     0.081 N 
HETATM   17  C1  UNL     1       6.714   0.071   0.726  1.00  0.00     0.309 C 
HETATM   18  C2  UNL     1       6.568  -0.571  -1.585  1.00  0.00     0.309 C 
ENDBRANCH  15  16
ENDBRANCH  14  15
ENDBRANCH  10  14
ENDBRANCH   8   9
ENDBRANCH   1   7
BRANCH   5  19
HETATM   19  N4  UNL     1      -3.717   0.706   0.404  1.00  0.00    -0.340 N 
HETATM   20  H16 UNL     1      -3.161   1.570   0.399  1.00  0.00     0.167 HD
BRANCH  19  21
HETATM   21  C12 UNL     1      -5.118   0.730   0.297  1.00  0.00     0.035 A 
HETATM   22  C13 UNL     1      -5.426   1.274  -0.965  1.00  0.00     0.029 A 
HETATM   23  C14 UNL     1      -6.769   1.421  -1.351  1.00  0.00     0.004 A 
HETATM   24  C15 UNL     1      -7.772   1.024  -0.473  1.00  0.00     0.024 A 
HETATM   25  C16 UNL     1      -7.505   0.488   0.769  1.00  0.00     0.036 A 
HETATM   26 CL1  UNL     1      -8.708  -0.047   1.929  1.00  0.00    -0.084 Cl
HETATM   27  C17 UNL     1      -6.180   0.365   1.101  1.00  0.00     0.053 A 
ENDBRANCH  19  21
ENDBRANCH   5  19
TORSDOF 7
