REMARK  6 active torsions:
REMARK  status: ('A' for Active; 'I' for Inactive)
REMARK    1  A    between atoms: N1_2  and  C3_4 
REMARK    2  A    between atoms: C3_4  and  C4_5 
REMARK    3  A    between atoms: C4_5  and  N2_6 
REMARK    4  A    between atoms: N2_6  and  C5_7 
REMARK    5  A    between atoms: C8_11  and  C9_12 
REMARK    6  A    between atoms: C12_16  and  N5_17 
ROOT
HETATM    1  C5  UNL     1      -1.958  -0.363  -0.572  1.00  0.00     0.046 A 
HETATM    2  C6  UNL     1      -1.789   0.984  -0.800  1.00  0.00     0.145 A 
HETATM    3  N3  UNL     1      -0.585   1.600  -0.789  1.00  0.00    -0.270 NA
HETATM    4  C7  UNL     1       0.548   0.879  -0.544  1.00  0.00     0.130 A 
HETATM    5  C8  UNL     1       0.467  -0.480  -0.307  1.00  0.00     0.014 A 
HETATM    6  C18 UNL     1      -0.787  -1.047  -0.331  1.00  0.00     0.046 A 
ENDROOT
BRANCH   5   7
HETATM    7  C9  UNL     1       1.695  -1.218  -0.047  1.00  0.00     0.088 A 
HETATM    8  C10 UNL     1       1.711  -2.575   0.201  1.00  0.00     0.148 A 
HETATM    9  N4  UNL     1       2.904  -3.146   0.431  1.00  0.00    -0.267 NA
HETATM   10  C11 UNL     1       4.027  -2.411   0.416  1.00  0.00     0.167 A 
HETATM   11  C12 UNL     1       4.039  -1.053   0.171  1.00  0.00     0.151 A 
HETATM   12  N6  UNL     1       2.833  -0.515  -0.055  1.00  0.00    -0.227 NA
BRANCH  11  13
HETATM   13  N5  UNL     1       5.217  -0.257   0.151  1.00  0.00    -0.315 N 
HETATM   14  C13 UNL     1       6.504  -0.807   0.372  1.00  0.00     0.094 A 
HETATM   15  C14 UNL     1       7.598  -0.057   0.355  1.00  0.00    -0.004 A 
HETATM   16  C15 UNL     1       7.532   1.388   0.104  1.00  0.00     0.081 A 
HETATM   17  C16 UNL     1       6.163   1.875  -0.115  1.00  0.00     0.031 A 
HETATM   18 CL1  UNL     1       6.166   3.604  -0.408  1.00  0.00    -0.087 Cl
HETATM   19  C17 UNL     1       5.072   1.134  -0.099  1.00  0.00     0.118 A 
ENDBRANCH  11  13
ENDBRANCH   5   7
BRANCH   1  20
HETATM   20  N2  UNL     1      -3.211  -1.027  -0.562  1.00  0.00    -0.387 N 
HETATM   21  H11 UNL     1      -3.168  -2.078  -0.413  1.00  0.00     0.159 HD
BRANCH  20  22
HETATM   22  C4  UNL     1      -4.512  -0.473  -0.722  1.00  0.00     0.150 C 
BRANCH  22  23
HETATM   23  C3  UNL     1      -4.903   0.337   0.472  1.00  0.00     0.290 C 
BRANCH  23  24
HETATM   24  N1  UNL     1      -6.217   0.936   0.385  1.00  0.00     0.081 N 
HETATM   25  C1  UNL     1      -7.274  -0.050   0.426  1.00  0.00     0.309 C 
HETATM   26  C2  UNL     1      -6.360   1.855  -0.720  1.00  0.00     0.309 C 
ENDBRANCH  23  24
ENDBRANCH  22  23
ENDBRANCH  20  22
ENDBRANCH   1  20
TORSDOF 6
