REMARK  9 active torsions:
REMARK  status: ('A' for Active; 'I' for Inactive)
REMARK    1  A    between atoms: O1_1  and  C1_2 
REMARK    2  A    between atoms: C1_2  and  C2_3 
REMARK    3  A    between atoms: C2_3  and  C3_4 
REMARK    4  A    between atoms: C3_4  and  C4_5 
REMARK    5  A    between atoms: C4_5  and  N1_6 
REMARK    6  A    between atoms: N1_6  and  C5_7 
REMARK    7  A    between atoms: C8_11  and  C9_12 
REMARK    8  A    between atoms: C12_16  and  N3_17 
REMARK    9  A    between atoms: N3_17  and  C13_18 
ROOT
HETATM    1  C9  UNL     1      -1.041  -0.587   0.968  1.00  0.00     0.056 C 
HETATM    2  C10 UNL     1      -0.627  -0.500   2.274  1.00  0.00    -0.050 C 
HETATM    3  B1  UNL     1      -1.766  -2.007   3.344  1.00  0.00     0.205 B 
HETATM    4  C11 UNL     1      -3.314  -1.624   2.685  1.00  0.00    -0.033 C 
HETATM    5  C12 UNL     1      -3.206  -1.490   1.290  1.00  0.00     0.114 C 
HETATM    6  N4  UNL     1      -2.199  -1.032   0.534  1.00  0.00    -0.233 NA
ENDROOT
BRANCH   1   7
HETATM    7  C8  UNL     1      -0.012  -0.109   0.059  1.00  0.00     0.011 A 
HETATM    8  C7  UNL     1      -0.364  -0.166  -1.286  1.00  0.00     0.130 A 
HETATM    9  N2  UNL     1       0.531   0.259  -2.215  1.00  0.00    -0.270 NA
HETATM   10  C6  UNL     1       1.737   0.725  -1.842  1.00  0.00     0.145 A 
HETATM   11  C5  UNL     1       2.147   0.807  -0.532  1.00  0.00     0.046 A 
HETATM   12  C19 UNL     1       1.227   0.373   0.392  1.00  0.00     0.045 A 
BRANCH  11  13
HETATM   13  N1  UNL     1       3.399   1.268  -0.068  1.00  0.00    -0.389 N 
HETATM   14  H10 UNL     1       3.574   1.319   0.959  1.00  0.00     0.159 HD
BRANCH  13  15
HETATM   15  C4  UNL     1       4.531   1.702  -0.845  1.00  0.00     0.120 C 
BRANCH  15  16
HETATM   16  C3  UNL     1       5.149   0.493  -1.523  1.00  0.00     0.022 C 
BRANCH  16  17
HETATM   17  C2  UNL     1       5.592  -0.509  -0.482  1.00  0.00     0.028 C 
BRANCH  17  18
HETATM   18  C1  UNL     1       6.606   0.118   0.412  1.00  0.00     0.164 C 
BRANCH  18  19
HETATM   19  O1  UNL     1       7.053  -0.783   1.384  1.00  0.00    -0.401 OA
HETATM   20  H1  UNL     1       8.018  -0.670   1.579  1.00  0.00     0.209 HD
ENDBRANCH  18  19
ENDBRANCH  17  18
ENDBRANCH  16  17
ENDBRANCH  15  16
ENDBRANCH  13  15
ENDBRANCH  11  13
ENDBRANCH   1   7
BRANCH   5  21
HETATM   21  N3  UNL     1      -4.316  -1.875   0.430  1.00  0.00    -0.342 N 
HETATM   22  H15 UNL     1      -4.423  -2.845   0.042  1.00  0.00     0.167 HD
BRANCH  21  23
HETATM   23  C13 UNL     1      -5.323  -0.934   0.071  1.00  0.00     0.035 A 
HETATM   24  C14 UNL     1      -6.412  -1.242  -0.750  1.00  0.00     0.029 A 
HETATM   25  C15 UNL     1      -7.347  -0.269  -1.050  1.00  0.00     0.004 A 
HETATM   26  C16 UNL     1      -7.242   1.024  -0.559  1.00  0.00     0.024 A 
HETATM   27  C17 UNL     1      -6.178   1.371   0.258  1.00  0.00     0.036 A 
HETATM   28 CL1  UNL     1      -5.963   2.972   0.923  1.00  0.00    -0.084 Cl
HETATM   29  C18 UNL     1      -5.271   0.364   0.529  1.00  0.00     0.053 A 
ENDBRANCH  21  23
ENDBRANCH   5  21
TORSDOF 9
