REMARK  8 active torsions:
REMARK  status: ('A' for Active; 'I' for Inactive)
REMARK    1  A    between atoms: O1_1  and  C1_2 
REMARK    2  A    between atoms: C1_2  and  C2_3 
REMARK    3  A    between atoms: C2_3  and  C3_4 
REMARK    4  A    between atoms: C3_4  and  N1_5 
REMARK    5  A    between atoms: N1_5  and  C4_6 
REMARK    6  A    between atoms: C7_10  and  C8_11 
REMARK    7  A    between atoms: C11_15  and  N4_16 
REMARK    8  A    between atoms: N4_16  and  C12_17 
ROOT
HETATM    1  C8  UNL     1      -0.455  -0.369  -0.410  1.00  0.00     0.088 A 
HETATM    2  C9  UNL     1      -0.369  -1.651   0.079  1.00  0.00     0.148 A 
HETATM    3  N3  UNL     1      -1.482  -2.440   0.117  1.00  0.00    -0.267 NA
HETATM    4  C10 UNL     1      -2.612  -1.904  -0.334  1.00  0.00     0.166 A 
HETATM    5  C11 UNL     1      -2.764  -0.626  -0.835  1.00  0.00     0.146 A 
HETATM    6  N5  UNL     1      -1.630   0.100  -0.844  1.00  0.00    -0.228 NA
ENDROOT
BRANCH   1   7
HETATM    7  C7  UNL     1       0.700   0.560  -0.461  1.00  0.00     0.014 A 
HETATM    8  C6  UNL     1       0.470   1.834  -0.925  1.00  0.00     0.130 A 
HETATM    9  N2  UNL     1       1.497   2.722  -1.011  1.00  0.00    -0.270 NA
HETATM   10  C5  UNL     1       2.732   2.338  -0.640  1.00  0.00     0.145 A 
HETATM   11  C4  UNL     1       2.968   1.048  -0.173  1.00  0.00     0.046 A 
HETATM   12  C18 UNL     1       1.947   0.134  -0.075  1.00  0.00     0.046 A 
BRANCH  11  13
HETATM   13  N1  UNL     1       4.306   0.699   0.162  1.00  0.00    -0.389 N 
HETATM   14  H8  UNL     1       5.088   1.383   0.086  1.00  0.00     0.159 HD
BRANCH  13  15
HETATM   15  C3  UNL     1       4.586  -0.628   0.619  1.00  0.00     0.122 C 
BRANCH  15  16
HETATM   16  C2  UNL     1       6.050  -0.941   0.784  1.00  0.00     0.045 C 
BRANCH  16  17
HETATM   17  C1  UNL     1       6.811  -0.784  -0.519  1.00  0.00     0.165 C 
BRANCH  17  18
HETATM   18  O1  UNL     1       8.141  -1.091  -0.263  1.00  0.00    -0.401 OA
HETATM   19  H1  UNL     1       8.755  -0.332  -0.435  1.00  0.00     0.209 HD
ENDBRANCH  17  18
ENDBRANCH  16  17
ENDBRANCH  15  16
ENDBRANCH  13  15
ENDBRANCH  11  13
ENDBRANCH   1   7
BRANCH   5  20
HETATM   20  N4  UNL     1      -4.035  -0.208  -1.299  1.00  0.00    -0.340 N 
HETATM   21  H13 UNL     1      -3.858  -0.247  -2.331  1.00  0.00     0.167 HD
BRANCH  20  22
HETATM   22  C12 UNL     1      -5.279   0.181  -0.741  1.00  0.00     0.035 A 
HETATM   23  C13 UNL     1      -6.191   0.733  -1.620  1.00  0.00     0.029 A 
HETATM   24  C14 UNL     1      -7.402   1.098  -1.127  1.00  0.00     0.004 A 
HETATM   25  C15 UNL     1      -7.674   0.912   0.200  1.00  0.00     0.024 A 
HETATM   26  C16 UNL     1      -6.755   0.357   1.086  1.00  0.00     0.036 A 
HETATM   27 CL1  UNL     1      -7.030   0.088   2.793  1.00  0.00    -0.084 Cl
HETATM   28  C17 UNL     1      -5.505  -0.026   0.605  1.00  0.00     0.053 A 
ENDBRANCH  20  22
ENDBRANCH   5  20
TORSDOF 8
