REMARK  9 active torsions:
REMARK  status: ('A' for Active; 'I' for Inactive)
REMARK    1  A    between atoms: C2_2  and  C3_3 
REMARK    2  A    between atoms: C3_3  and  C4_4 
REMARK    3  A    between atoms: C4_4  and  C5_5 
REMARK    4  A    between atoms: C5_5  and  N1_6 
REMARK    5  A    between atoms: N1_6  and  C6_7 
REMARK    6  A    between atoms: C7_8  and  N2_9 
REMARK    7  A    between atoms: C8_10  and  C9_11 
REMARK    8  A    between atoms: C9_11  and  C10_12 
REMARK    9  A    between atoms: N4_16  and  C13_17 
ROOT
HETATM    1  C10 UNL     1      -2.093   0.220   0.400  1.00  0.00     0.202 C 
HETATM    2  N3  UNL     1      -1.587   1.387  -0.238  1.00  0.00    -0.282 NA
HETATM    3  C11 UNL     1      -2.447   2.189  -0.760  1.00  0.00     0.106 C 
HETATM    4  C12 UNL     1      -3.925   2.020  -0.768  1.00  0.00     0.189 C 
HETATM    5  N4  UNL     1      -4.293   0.700  -0.297  1.00  0.00    -0.309 N 
HETATM    6  N5  UNL     1      -3.268  -0.251  -0.312  1.00  0.00    -0.212 NA
HETATM    7  H29 UNL     1      -3.048  -0.578  -1.279  1.00  0.00     0.149 HD
ENDROOT
BRANCH   1   8
HETATM    8  C9  UNL     1      -1.079  -0.879   0.368  1.00  0.00     0.091 C 
BRANCH   8   9
HETATM    9  C8  UNL     1       0.143  -0.407   1.087  1.00  0.00     0.092 C 
HETATM   10  N2  UNL     1       1.431  -0.554   1.052  1.00  0.00    -0.276 NA
BRANCH  10  11
HETATM   11  C7  UNL     1       1.934  -1.419   0.042  1.00  0.00     0.132 C 
HETATM   12  C6  UNL     1       2.928  -0.894  -0.658  1.00  0.00     0.102 C 
BRANCH  12  13
HETATM   13  N1  UNL     1       3.402   0.416  -0.377  1.00  0.00    -0.398 N 
HETATM   14  H12 UNL     1       3.230   1.228  -1.044  1.00  0.00     0.158 HD
BRANCH  13  15
HETATM   15  C5  UNL     1       4.142   0.692   0.839  1.00  0.00     0.119 C 
BRANCH  15  16
HETATM   16  C4  UNL     1       5.482  -0.014   0.741  1.00  0.00     0.020 C 
BRANCH  16  17
HETATM   17  C3  UNL     1       6.274   0.468  -0.450  1.00  0.00     0.001 C 
BRANCH  17  18
HETATM   18  C2  UNL     1       7.599  -0.282  -0.479  1.00  0.00    -0.004 C 
HETATM   19  C1  UNL     1       8.306   0.044   0.829  1.00  0.00     0.005 C 
ENDBRANCH  17  18
ENDBRANCH  16  17
ENDBRANCH  15  16
ENDBRANCH  13  15
ENDBRANCH  12  13
ENDBRANCH  10  11
ENDBRANCH   8   9
ENDBRANCH   1   8
BRANCH   5  20
HETATM   20  C13 UNL     1      -5.601   0.377   0.153  1.00  0.00     0.031 A 
HETATM   21  C14 UNL     1      -6.636   1.199   0.200  1.00  0.00     0.026 A 
HETATM   22  C15 UNL     1      -7.795   0.478   0.723  1.00  0.00    -0.001 A 
HETATM   23  C16 UNL     1      -7.435  -0.788   0.989  1.00  0.00    -0.016 A 
HETATM   24  C17 UNL     1      -6.011  -0.961   0.650  1.00  0.00     0.055 A 
HETATM   25  C18 UNL     1      -5.813  -2.038  -0.366  1.00  0.00     0.020 C 
ENDBRANCH   5  20
TORSDOF 9
