REMARK  7 active torsions:
REMARK  status: ('A' for Active; 'I' for Inactive)
REMARK    1  A    between atoms: O1_1  and  C1_2 
REMARK    2  A    between atoms: C1_2  and  C2_3 
REMARK    3  A    between atoms: C2_3  and  C3_4 
REMARK    4  A    between atoms: C3_4  and  C4_5 
REMARK    5  A    between atoms: C4_5  and  C5_6 
REMARK    6  A    between atoms: C8_10  and  C9_11 
REMARK    7  A    between atoms: N3_15  and  C12_16 
ROOT
HETATM    1  C9  UNL     1      -0.878  -0.621   0.662  1.00  0.00    -0.011 A 
HETATM    2  C10 UNL     1      -0.922  -1.803   1.232  1.00  0.00     0.127 A 
HETATM    3  N2  UNL     1      -2.108  -2.547   1.418  1.00  0.00    -0.255 NA
HETATM    4  C11 UNL     1      -3.249  -2.106   1.033  1.00  0.00     0.209 A 
HETATM    5  N3  UNL     1      -3.301  -0.844   0.410  1.00  0.00    -0.337 N 
HETATM    6  C18 UNL     1      -2.149  -0.036   0.187  1.00  0.00     0.171 A 
ENDROOT
BRANCH   1   7
HETATM    7  C8  UNL     1       0.330   0.162   0.460  1.00  0.00    -0.009 A 
HETATM    8  C7  UNL     1       0.271   1.415  -0.160  1.00  0.00     0.128 A 
HETATM    9  N1  UNL     1       1.356   2.174  -0.368  1.00  0.00    -0.272 NA
HETATM   10  C6  UNL     1       2.556   1.725   0.030  1.00  0.00     0.123 A 
HETATM   11  C5  UNL     1       2.769   0.518   0.650  1.00  0.00    -0.040 A 
HETATM   12  C19 UNL     1       1.586  -0.214   0.831  1.00  0.00     0.022 A 
BRANCH  11  13
HETATM   13  C4  UNL     1       3.984  -0.136   1.141  1.00  0.00     0.040 C 
BRANCH  13  14
HETATM   14  C3  UNL     1       4.658  -1.045   0.180  1.00  0.00     0.007 C 
BRANCH  14  15
HETATM   15  C2  UNL     1       5.193  -0.457  -1.069  1.00  0.00     0.026 C 
BRANCH  15  16
HETATM   16  C1  UNL     1       6.282   0.548  -0.917  1.00  0.00     0.164 C 
BRANCH  16  17
HETATM   17  O1  UNL     1       6.006   1.662  -0.185  1.00  0.00    -0.401 OA
HETATM   18  H1  UNL     1       6.347   2.497  -0.594  1.00  0.00     0.209 HD
ENDBRANCH  16  17
ENDBRANCH  15  16
ENDBRANCH  14  15
ENDBRANCH  13  14
ENDBRANCH  11  13
ENDBRANCH   1   7
BRANCH   5  19
HETATM   19  C12 UNL     1      -4.521  -0.281  -0.047  1.00  0.00     0.037 A 
HETATM   20  C13 UNL     1      -4.630   0.963  -0.670  1.00  0.00     0.030 A 
HETATM   21  C14 UNL     1      -5.791   1.531  -1.121  1.00  0.00     0.004 A 
HETATM   22  C15 UNL     1      -6.965   0.842  -0.959  1.00  0.00     0.024 A 
HETATM   23  C16 UNL     1      -6.947  -0.386  -0.357  1.00  0.00     0.036 A 
HETATM   24 CL1  UNL     1      -8.457  -1.246  -0.163  1.00  0.00    -0.084 Cl
HETATM   25  C17 UNL     1      -5.747  -0.899   0.072  1.00  0.00     0.053 A 
ENDBRANCH   5  19
TORSDOF 7
