REMARK  6 active torsions:
REMARK  status: ('A' for Active; 'I' for Inactive)
REMARK    1  A    between atoms: N1_1  and  C1_2 
REMARK    2  A    between atoms: C1_2  and  C2_3 
REMARK    3  A    between atoms: C2_3  and  N2_4 
REMARK    4  A    between atoms: N2_4  and  C3_5 
REMARK    5  A    between atoms: C10_14  and  N5_15 
REMARK    6  A    between atoms: N5_15  and  C11_16 
ROOT
HETATM    1  C3  UNL     1       3.909   0.542   0.011  1.00  0.00    -0.023 A 
HETATM    2  C4  UNL     1       3.206   1.626   0.331  1.00  0.00     0.128 A 
HETATM    3  N3  UNL     1       1.807   1.833   0.313  1.00  0.00    -0.271 NA
HETATM    4  C5  UNL     1       0.837   1.056   0.065  1.00  0.00     0.128 A 
HETATM    5  C6  UNL     1       0.750  -0.351  -0.299  1.00  0.00    -0.002 A 
HETATM    6  C7  UNL     1      -0.611  -0.828  -0.384  1.00  0.00     0.087 A 
HETATM    7  C8  UNL     1      -0.965  -2.100  -0.663  1.00  0.00     0.148 A 
HETATM    8  N4  UNL     1      -2.238  -2.518  -0.753  1.00  0.00    -0.267 NA
HETATM    9  C9  UNL     1      -3.266  -1.675  -0.565  1.00  0.00     0.166 A 
HETATM   10  C10 UNL     1      -2.937  -0.376  -0.280  1.00  0.00     0.146 A 
HETATM   11  N6  UNL     1      -1.651  -0.008  -0.201  1.00  0.00    -0.228 NA
HETATM   12  C17 UNL     1       1.756  -1.170  -0.536  1.00  0.00    -0.060 A 
HETATM   13  B1  UNL     1       3.287  -0.807  -0.479  1.00  0.00     0.242 B 
HETATM   14  H18 UNL     1       4.018  -1.647  -0.844  1.00  0.00    -0.015 HD
ENDROOT
BRANCH  10  15
HETATM   15  N5  UNL     1      -3.895   0.622  -0.062  1.00  0.00    -0.340 N 
HETATM   16  H12 UNL     1      -3.594   1.631   0.083  1.00  0.00     0.167 HD
BRANCH  15  17
HETATM   17  C11 UNL     1      -5.293   0.589   0.018  1.00  0.00     0.035 A 
HETATM   18  C12 UNL     1      -6.043  -0.390   0.631  1.00  0.00     0.029 A 
HETATM   19  C13 UNL     1      -7.418  -0.432   0.683  1.00  0.00     0.004 A 
HETATM   20  C14 UNL     1      -8.147   0.570   0.085  1.00  0.00     0.024 A 
HETATM   21  C15 UNL     1      -7.476   1.595  -0.555  1.00  0.00     0.036 A 
HETATM   22 CL1  UNL     1      -8.274   2.939  -1.366  1.00  0.00    -0.084 Cl
HETATM   23  C16 UNL     1      -6.106   1.572  -0.567  1.00  0.00     0.053 A 
ENDBRANCH  15  17
ENDBRANCH  10  15
BRANCH   1  24
HETATM   24  N2  UNL     1       5.311   0.565   0.106  1.00  0.00    -0.399 N 
HETATM   25  H7  UNL     1       5.715   1.509  -0.136  1.00  0.00     0.158 HD
BRANCH  24  26
HETATM   26  C2  UNL     1       6.145  -0.547   0.485  1.00  0.00     0.148 C 
BRANCH  26  27
HETATM   27  C1  UNL     1       7.609  -0.117   0.468  1.00  0.00     0.286 C 
BRANCH  27  28
HETATM   28  N1  UNL     1       7.907   0.305  -0.869  1.00  0.00     0.079 N 
HETATM   29  H1  UNL     1       7.461  -0.290  -1.576  1.00  0.00     0.312 HD
HETATM   30  H2  UNL     1       7.782   1.315  -1.002  1.00  0.00     0.312 HD
ENDBRANCH  27  28
ENDBRANCH  26  27
ENDBRANCH  24  26
ENDBRANCH   1  24
TORSDOF 6
