REMARK  3 active torsions:
REMARK  status: ('A' for Active; 'I' for Inactive)
REMARK    1  A    between atoms: C4_6  and  C5_7 
REMARK    2  A    between atoms: C8_11  and  N4_12 
REMARK    3  A    between atoms: N4_12  and  C9_13 
ROOT
HETATM    1  C5  UNL     1       0.657   1.298   0.505  1.00  0.00     0.104 A 
HETATM    2  C6  UNL     1       0.947   2.315   1.427  1.00  0.00     0.150 A 
HETATM    3  N3  UNL     1       2.154   2.953   1.409  1.00  0.00    -0.267 NA
HETATM    4  C7  UNL     1       3.047   2.575   0.483  1.00  0.00     0.166 A 
HETATM    5  C8  UNL     1       2.803   1.585  -0.437  1.00  0.00     0.146 A 
HETATM    6  N5  UNL     1       1.595   0.943  -0.422  1.00  0.00    -0.226 NA
ENDROOT
BRANCH   1   7
HETATM    7  C4  UNL     1      -0.643   0.619   0.520  1.00  0.00     0.077 C 
HETATM    8  N2  UNL     1      -1.603   1.012   1.506  1.00  0.00    -0.362 N 
HETATM    9  C3  UNL     1      -2.411   0.173   2.314  1.00  0.00     0.105 C 
HETATM   10  H6  UNL     1      -1.709   2.042   1.628  1.00  0.00     0.165 HD
HETATM   11  C2  UNL     1      -3.584  -0.429   2.288  1.00  0.00     0.102 C 
HETATM   12  N1  UNL     1      -4.679  -0.542   1.390  1.00  0.00    -0.393 N 
HETATM   13  C1  UNL     1      -5.670   0.469   1.667  1.00  0.00     0.148 C 
HETATM   14  C18 UNL     1      -4.573  -1.607   0.422  1.00  0.00     0.123 C 
HETATM   15  C17 UNL     1      -4.385  -1.069  -1.006  1.00  0.00     0.039 C 
HETATM   16  C16 UNL     1      -3.132  -0.202  -0.959  1.00  0.00     0.120 C 
HETATM   17  N6  UNL     1      -2.060  -1.053  -0.488  1.00  0.00    -0.397 N 
HETATM   18  C15 UNL     1      -0.880  -0.314  -0.363  1.00  0.00     0.115 C 
HETATM   19  H15 UNL     1      -1.986  -2.062  -0.232  1.00  0.00     0.158 HD
ENDBRANCH   1   7
BRANCH   5  20
HETATM   20  N4  UNL     1       3.616   1.069  -1.480  1.00  0.00    -0.340 N 
HETATM   21  H9  UNL     1       3.538   1.370  -2.480  1.00  0.00     0.167 HD
BRANCH  20  22
HETATM   22  C9  UNL     1       4.613   0.074  -1.175  1.00  0.00     0.035 A 
HETATM   23  C10 UNL     1       5.295  -0.575  -2.179  1.00  0.00     0.029 A 
HETATM   24  C11 UNL     1       6.262  -1.518  -1.925  1.00  0.00     0.004 A 
HETATM   25  C12 UNL     1       6.542  -1.808  -0.608  1.00  0.00     0.024 A 
HETATM   26  C13 UNL     1       5.883  -1.183   0.448  1.00  0.00     0.036 A 
HETATM   27 CL1  UNL     1       6.282  -1.578   2.133  1.00  0.00    -0.084 Cl
HETATM   28  C14 UNL     1       4.899  -0.224   0.168  1.00  0.00     0.053 A 
ENDBRANCH  20  22
ENDBRANCH   5  20
TORSDOF 3
