REMARK  5 active torsions:
REMARK  status: ('A' for Active; 'I' for Inactive)
REMARK    1  A    between atoms: N3_13  and  C20_26 
REMARK    2  A    between atoms: N4_16  and  C12_17 
REMARK    3  A    between atoms: C12_17  and  C13_18 
REMARK    4  A    between atoms: C13_18  and  C14_19 
REMARK    5  A    between atoms: C14_19  and  C15_20 
ROOT
HETATM    1 CL1  UNL     1      -5.200   1.734  -3.056  1.00  0.00    -0.087 Cl
HETATM    2  C1  UNL     1      -4.530   1.223  -1.458  1.00  0.00     0.042 C 
HETATM    3  C2  UNL     1      -4.904   0.919  -0.229  1.00  0.00     0.021 C 
HETATM    4  C3  UNL     1      -5.733   0.664   0.902  1.00  0.00    -0.001 C 
HETATM    5  C4  UNL     1      -5.132   0.426   2.089  1.00  0.00     0.003 C 
HETATM    6  C5  UNL     1      -3.826   0.350   2.714  1.00  0.00     0.299 C 
HETATM    7  N1  UNL     1      -3.287  -0.936   3.021  1.00  0.00     0.105 NA
HETATM    8  C6  UNL     1      -2.839  -1.594   1.793  1.00  0.00     0.417 C 
HETATM    9  N2  UNL     1      -1.700  -2.448   2.053  1.00  0.00    -0.272 NA
HETATM   10  C7  UNL     1      -0.497  -1.953   1.755  1.00  0.00     0.119 C 
HETATM   11  C8  UNL     1      -0.108  -0.626   1.184  1.00  0.00     0.008 A 
HETATM   12  C9  UNL     1      -0.379  -0.872  -0.244  1.00  0.00     0.299 A 
HETATM   13  N3  UNL     1      -0.061   0.273  -0.680  1.00  0.00     0.040 N 
HETATM   14  C10 UNL     1      -0.001   0.930  -1.919  1.00  0.00     0.395 A 
HETATM   15  C11 UNL     1       0.073   0.619  -0.620  1.00  0.00     0.367 A 
HETATM   16  N4  UNL     1       1.013   1.856  -1.041  1.00  0.00     0.012 N 
HETATM   17  C20 UNL     1       0.263   0.607   0.723  1.00  0.00     0.299 A 
HETATM   18  C21 UNL     1      -1.143   0.063  -2.021  1.00  0.00     0.372 C 
HETATM   19  N6  UNL     1      -2.100   1.166  -1.896  1.00  0.00     0.321 N 
HETATM   20  C22 UNL     1      -3.414   0.377  -1.912  1.00  0.00     0.366 C 
HETATM   21  H6  UNL     1      -2.492  -0.877   3.695  1.00  0.00     0.318 HD
HETATM   22  H11 UNL     1       1.363   2.721  -1.649  1.00  0.00     0.286 HD
ENDROOT
BRANCH  16  23
HETATM   23  C12 UNL     1       2.105   2.294  -0.039  1.00  0.00     0.242 C 
BRANCH  23  24
HETATM   24  C13 UNL     1       3.316   1.412  -0.431  1.00  0.00     0.032 C 
BRANCH  24  25
HETATM   25  C14 UNL     1       3.117  -0.046  -0.464  1.00  0.00     0.042 C 
BRANCH  25  26
HETATM   26  C15 UNL     1       4.484  -0.684  -0.823  1.00  0.00    -0.041 A 
HETATM   27  C16 UNL     1       4.798  -0.416  -2.114  1.00  0.00     0.010 A 
HETATM   28  C17 UNL     1       6.034  -0.987  -2.413  1.00  0.00     0.020 A 
HETATM   29  C18 UNL     1       6.633  -1.677  -1.354  1.00  0.00     0.116 A 
HETATM   30  N5  UNL     1       6.245  -1.912  -0.054  1.00  0.00    -0.273 NA
HETATM   31  C19 UNL     1       4.942  -1.307   0.274  1.00  0.00     0.123 A 
ENDBRANCH  25  26
ENDBRANCH  24  25
ENDBRANCH  23  24
ENDBRANCH  16  23
TORSDOF 5
