REMARK  4 active torsions:
REMARK  status: ('A' for Active; 'I' for Inactive)
REMARK    1  A    between atoms: N1_1  and  C1_2 
REMARK    2  A    between atoms: C1_2  and  N5_21 
REMARK    3  A    between atoms: C2_3  and  N2_4 
REMARK    4  A    between atoms: N5_21  and  C16_22 
ROOT
HETATM    1  N2  UNL     1       1.104  -2.585   0.045  1.00  0.00    -0.266 NA
HETATM    2  C3  UNL     1       0.288  -1.625   0.372  1.00  0.00     0.017 C 
HETATM    3  C4  UNL     1      -0.823  -2.233   1.217  1.00  0.00     0.092 C 
HETATM    4  C5  UNL     1      -2.130  -1.700   0.675  1.00  0.00    -0.037 C 
HETATM    5  C6  UNL     1      -2.690  -0.779   1.443  1.00  0.00     0.120 C 
HETATM    6  N3  UNL     1      -3.864  -0.134   1.177  1.00  0.00    -0.277 NA
HETATM    7  C7  UNL     1      -4.903   0.208   1.690  1.00  0.00     0.089 C 
HETATM    8  C8  UNL     1      -5.548   0.872   0.545  1.00  0.00     0.051 C 
HETATM    9  C9  UNL     1      -5.156   2.293   0.353  1.00  0.00     0.036 C 
HETATM   10  P1  UNL     1      -3.416   2.687   0.052  1.00  0.00    -0.129 P 
HETATM   11  C10 UNL     1      -2.475   1.562  -1.026  1.00  0.00     0.032 C 
HETATM   12  C11 UNL     1      -1.074   1.399  -0.477  1.00  0.00     0.014 C 
HETATM   13  C12 UNL     1      -0.276   0.317  -1.139  1.00  0.00     0.031 C 
HETATM   14  C13 UNL     1      -1.143  -0.704  -1.795  1.00  0.00     0.088 C 
HETATM   15  N4  UNL     1      -1.890  -1.732  -1.654  1.00  0.00    -0.301 NA
HETATM   16  C14 UNL     1      -2.790  -2.134  -0.609  1.00  0.00     0.184 C 
HETATM   17  C15 UNL     1       0.668  -0.279  -0.151  1.00  0.00     0.065 C 
HETATM   18  H12 UNL     1      -2.684   3.073   1.267  1.00  0.00     0.057 HD
ENDROOT
BRANCH   1  19
HETATM   19  C2  UNL     1       2.257  -2.439  -0.731  1.00  0.00     0.164 C 
HETATM   20  C1  UNL     1       3.469  -2.031  -0.955  1.00  0.00     0.117 C 
BRANCH  20  21
HETATM   21  N1  UNL     1       4.070  -2.331  -2.232  1.00  0.00    -0.384 N 
HETATM   22  H1  UNL     1       4.458  -3.291  -2.399  1.00  0.00     0.157 HD
HETATM   23  H2  UNL     1       4.078  -1.535  -2.932  1.00  0.00     0.157 HD
ENDBRANCH  20  21
BRANCH  20  24
HETATM   24  N5  UNL     1       4.227  -1.301   0.001  1.00  0.00    -0.342 N 
HETATM   25  H23 UNL     1       4.810  -1.960   0.558  1.00  0.00     0.167 HD
BRANCH  24  26
HETATM   26  C16 UNL     1       4.482   0.015   0.477  1.00  0.00     0.035 A 
HETATM   27  C17 UNL     1       3.796   0.636   1.486  1.00  0.00     0.029 A 
HETATM   28  C18 UNL     1       4.167   1.913   1.826  1.00  0.00     0.004 A 
HETATM   29  C19 UNL     1       5.201   2.537   1.163  1.00  0.00     0.024 A 
HETATM   30  C20 UNL     1       5.914   1.922   0.131  1.00  0.00     0.036 A 
HETATM   31 CL1  UNL     1       7.219   2.778  -0.668  1.00  0.00    -0.084 Cl
HETATM   32  C21 UNL     1       5.515   0.635  -0.188  1.00  0.00     0.053 A 
ENDBRANCH  24  26
ENDBRANCH  20  24
ENDBRANCH   1  19
TORSDOF 4
