REMARK  0 active torsions:
REMARK  status: ('A' for Active; 'I' for Inactive)
ROOT
HETATM    1 CL1  UNL     1       4.387   3.244  -0.039  1.00  0.00    -0.084 Cl
HETATM    2  C1  UNL     1       3.937   1.560   0.135  1.00  0.00     0.042 A 
HETATM    3  C2  UNL     1       4.873   0.608   0.439  1.00  0.00     0.024 A 
HETATM    4  C3  UNL     1       4.688  -0.743   0.608  1.00  0.00     0.004 A 
HETATM    5  C4  UNL     1       3.345  -1.095   0.427  1.00  0.00     0.030 A 
HETATM    6  C5  UNL     1       2.344  -0.195   0.119  1.00  0.00     0.038 A 
HETATM    7  C6  UNL     1       2.618   1.143  -0.032  1.00  0.00    -0.007 A 
HETATM    8  C7  UNL     1       1.649   2.184  -0.360  1.00  0.00     0.070 C 
HETATM    9  C8  UNL     1       1.073   2.920   0.763  1.00  0.00    -0.022 C 
HETATM   10  C9  UNL     1      -0.265   2.908   0.918  1.00  0.00    -0.004 C 
HETATM   11  C10 UNL     1      -1.626   2.482   0.487  1.00  0.00    -0.004 C 
HETATM   12  C11 UNL     1      -2.957   2.270   0.353  1.00  0.00    -0.027 C 
HETATM   13  C12 UNL     1      -3.402   1.422  -0.776  1.00  0.00     0.029 C 
HETATM   14  C13 UNL     1      -4.192   0.229  -0.341  1.00  0.00     0.023 C 
HETATM   15  C14 UNL     1      -3.533  -0.614   0.686  1.00  0.00     0.120 C 
HETATM   16  N1  UNL     1      -2.222  -1.087   0.423  1.00  0.00    -0.390 N 
HETATM   17  C15 UNL     1      -1.095  -1.761  -0.122  1.00  0.00     0.046 C 
HETATM   18  C16 UNL     1      -0.940  -3.069   0.158  1.00  0.00     0.007 C 
HETATM   19  C17 UNL     1       0.245  -3.808  -0.413  1.00  0.00     0.075 C 
HETATM   20  C18 UNL     1       0.567  -3.213  -1.765  1.00  0.00     0.090 C 
HETATM   21  N2  UNL     1       0.434  -1.967  -2.012  1.00  0.00    -0.274 NA
HETATM   22  C19 UNL     1      -0.034  -1.117  -0.966  1.00  0.00     0.255 C 
HETATM   23  N3  UNL     1       1.032  -0.699  -0.049  1.00  0.00    -0.362 N 
HETATM   24  H16 UNL     1      -1.518  -0.734   1.128  1.00  0.00     0.159 HD
HETATM   25  H22 UNL     1       0.858  -0.762   1.001  1.00  0.00     0.162 HD
ENDROOT
TORSDOF 0
