REMARK  1 active torsions:
REMARK  status: ('A' for Active; 'I' for Inactive)
REMARK    1  A    between atoms: N1_2  and  C2_3 
ROOT
HETATM    1  C2  UNL     1       5.899   1.123   0.269  1.00  0.00     0.124 C 
HETATM    2  C3  UNL     1       4.884   0.393   0.644  1.00  0.00     0.109 C 
HETATM    3  N2  UNL     1       3.976  -0.733   0.593  1.00  0.00    -0.376 NA
HETATM    4  C4  UNL     1       3.265  -1.077  -0.436  1.00  0.00     0.266 C 
HETATM    5  C5  UNL     1       3.060  -0.586  -1.829  1.00  0.00     0.117 C 
HETATM    6  C6  UNL     1       2.069  -1.316  -2.419  1.00  0.00     0.097 C 
HETATM    7  N3  UNL     1       1.075  -2.403  -2.319  1.00  0.00    -0.303 NA
HETATM    8  C7  UNL     1       0.378  -2.573  -1.221  1.00  0.00     0.102 C 
HETATM    9  C8  UNL     1      -0.515  -2.975  -0.136  1.00  0.00     0.166 C 
HETATM   10  N4  UNL     1      -1.074  -1.881   0.651  1.00  0.00    -0.388 N 
HETATM   11  C9  UNL     1      -1.989  -0.911   0.183  1.00  0.00     0.017 C 
HETATM   12  C10 UNL     1      -1.762   0.393   0.164  1.00  0.00     0.004 C 
HETATM   13  C11 UNL     1      -2.815   1.286  -0.373  1.00  0.00     0.220 C 
HETATM   14  N5  UNL     1      -3.800   2.023  -0.871  1.00  0.00    -0.309 NA
HETATM   15  C12 UNL     1      -4.963   1.392  -1.416  1.00  0.00     0.078 C 
HETATM   16  C13 UNL     1      -5.297   0.180  -1.037  1.00  0.00     0.036 C 
HETATM   17  C14 UNL     1      -6.261  -0.814  -1.240  1.00  0.00    -0.024 C 
HETATM   18  C15 UNL     1      -5.673  -1.697  -0.362  1.00  0.00    -0.030 C 
HETATM   19  C16 UNL     1      -4.472  -1.069   0.214  1.00  0.00     0.033 C 
HETATM   20  C17 UNL     1      -3.178  -1.722  -0.090  1.00  0.00     0.061 C 
HETATM   21  C18 UNL     1      -0.615   1.165   0.445  1.00  0.00    -0.052 C 
HETATM   22  C19 UNL     1      -0.426   2.594   0.470  1.00  0.00     0.049 C 
HETATM   23  C20 UNL     1       0.607   0.930   0.793  1.00  0.00    -0.008 C 
HETATM   24  C21 UNL     1       1.971   1.023   1.167  1.00  0.00     0.059 C 
HETATM   25  C22 UNL     1       2.982   1.775   1.427  1.00  0.00     0.072 C 
HETATM   26  N6  UNL     1       4.161   1.004   1.755  1.00  0.00    -0.355 N 
HETATM   27  H10 UNL     1      -0.940  -1.613   1.652  1.00  0.00     0.159 HD
HETATM   28  H26 UNL     1       4.667   0.756   2.659  1.00  0.00     0.166 HD
ENDROOT
BRANCH   1  29
HETATM   29  N1  UNL     1       6.538   2.332   0.641  1.00  0.00    -0.403 NA
HETATM   30  C1  UNL     1       7.537   2.420   1.461  1.00  0.00     0.313 C 
ENDBRANCH   1  29
TORSDOF 1
