REMARK  8 active torsions:
REMARK  status: ('A' for Active; 'I' for Inactive)
REMARK    1  A    between atoms: B1_1  and  N1_2 
REMARK    2  A    between atoms: N1_2  and  C2_4 
REMARK    3  A    between atoms: C2_4  and  C3_5 
REMARK    4  A    between atoms: C3_5  and  N2_6 
REMARK    5  A    between atoms: N2_6  and  C4_7 
REMARK    6  A    between atoms: C7_11  and  C8_12 
REMARK    7  A    between atoms: C11_16  and  N5_17 
REMARK    8  A    between atoms: N5_17  and  C12_18 
ROOT
HETATM    1  C4  UNL     1       2.167  -0.569  -0.986  1.00  0.00     0.046 A 
HETATM    2  C5  UNL     1       2.829  -1.466  -1.826  1.00  0.00     0.145 A 
HETATM    3  N3  UNL     1       2.086  -2.367  -2.515  1.00  0.00    -0.270 NA
HETATM    4  C6  UNL     1       0.749  -2.368  -2.371  1.00  0.00     0.130 A 
HETATM    5  C7  UNL     1       0.018  -1.521  -1.567  1.00  0.00     0.014 A 
HETATM    6  C18 UNL     1       0.786  -0.610  -0.871  1.00  0.00     0.046 A 
ENDROOT
BRANCH   5   7
HETATM    7  C8  UNL     1      -1.430  -1.561  -1.444  1.00  0.00     0.088 A 
HETATM    8  C9  UNL     1      -2.174  -2.473  -2.145  1.00  0.00     0.148 A 
HETATM    9  N4  UNL     1      -3.507  -2.448  -1.980  1.00  0.00    -0.267 NA
HETATM   10  C10 UNL     1      -4.047  -1.557  -1.160  1.00  0.00     0.166 A 
HETATM   11  C11 UNL     1      -3.341  -0.627  -0.439  1.00  0.00     0.146 A 
HETATM   12  N6  UNL     1      -2.013  -0.682  -0.629  1.00  0.00    -0.228 NA
BRANCH  11  13
HETATM   13  N5  UNL     1      -3.841   0.335   0.465  1.00  0.00    -0.340 N 
HETATM   14  H15 UNL     1      -3.160   1.052   0.845  1.00  0.00     0.167 HD
BRANCH  13  15
HETATM   15  C12 UNL     1      -5.119   0.570   1.012  1.00  0.00     0.035 A 
HETATM   16  C13 UNL     1      -5.588   1.824   1.324  1.00  0.00     0.029 A 
HETATM   17  C14 UNL     1      -6.815   2.090   1.874  1.00  0.00     0.004 A 
HETATM   18  C15 UNL     1      -7.669   1.045   2.149  1.00  0.00     0.024 A 
HETATM   19  C16 UNL     1      -7.263  -0.238   1.862  1.00  0.00     0.036 A 
HETATM   20 CL1  UNL     1      -8.377  -1.537   2.226  1.00  0.00    -0.084 Cl
HETATM   21  C17 UNL     1      -6.003  -0.447   1.302  1.00  0.00     0.053 A 
ENDBRANCH  13  15
ENDBRANCH  11  13
ENDBRANCH   5   7
BRANCH   1  22
HETATM   22  N2  UNL     1       2.963   0.387  -0.257  1.00  0.00    -0.388 N 
HETATM   23  H10 UNL     1       2.537   1.068   0.374  1.00  0.00     0.159 HD
BRANCH  22  24
HETATM   24  C3  UNL     1       4.381   0.337  -0.456  1.00  0.00     0.133 C 
BRANCH  24  25
HETATM   25  C2  UNL     1       5.058   1.403   0.374  1.00  0.00     0.092 C 
BRANCH  25  26
HETATM   26  N1  UNL     1       6.499   1.371   0.184  1.00  0.00    -0.370 NA
HETATM   27  C1  UNL     1       7.141   2.396   0.984  1.00  0.00     0.092 C 
BRANCH  26  28
HETATM   28  B1  UNL     1       7.045   0.002   0.546  1.00  0.00     0.219 B 
HETATM   29  H1  UNL     1       7.830  -0.546  -0.174  1.00  0.00    -0.013 HD
HETATM   30  H2  UNL     1       6.385  -0.738   1.199  1.00  0.00    -0.013 HD
ENDBRANCH  26  28
ENDBRANCH  25  26
ENDBRANCH  24  25
ENDBRANCH  22  24
ENDBRANCH   1  22
TORSDOF 8
