REMARK  7 active torsions:
REMARK  status: ('A' for Active; 'I' for Inactive)
REMARK    1  A    between atoms: C2_2  and  C3_3 
REMARK    2  A    between atoms: C2_2  and  N1_9 
REMARK    3  A    between atoms: C4_4  and  C5_5 
REMARK    4  A    between atoms: C5_5  and  O1_6 
REMARK    5  A    between atoms: N1_9  and  C6_10 
REMARK    6  A    between atoms: C11_17  and  N4_18 
REMARK    7  A    between atoms: N4_18  and  C12_19 
ROOT
HETATM    1  C6  UNL     1       0.717  -0.058   0.275  1.00  0.00     0.012 C 
HETATM    2  C7  UNL     1       0.286  -0.290   1.495  1.00  0.00     0.023 C 
HETATM    3  C8  UNL     1      -0.506  -1.530   1.780  1.00  0.00     0.001 C 
HETATM    4  C9  UNL     1      -1.063  -2.702   1.368  1.00  0.00     0.117 C 
HETATM    5  N2  UNL     1      -1.355  -3.694   0.403  1.00  0.00    -0.412 NA
HETATM    6  C10 UNL     1      -1.810  -3.404  -0.781  1.00  0.00     0.438 C 
HETATM    7  N3  UNL     1      -1.974  -2.019  -0.985  1.00  0.00    -0.245 NA
HETATM    8  C11 UNL     1      -0.992  -1.197  -1.042  1.00  0.00     0.107 C 
HETATM    9  C18 UNL     1       0.442  -0.724  -1.007  1.00  0.00     0.134 C 
ENDROOT
BRANCH   1  10
HETATM   10  N1  UNL     1       1.465   1.178   0.263  1.00  0.00    -0.385 N 
HETATM   11  H8  UNL     1       1.140   1.871  -0.458  1.00  0.00     0.160 HD
BRANCH  10  12
HETATM   12  C2  UNL     1       2.573   1.430   1.176  1.00  0.00     0.100 C 
HETATM   13  C1  UNL     1       3.109   2.811   0.876  1.00  0.00     0.036 C 
BRANCH  12  14
HETATM   14  C3  UNL     1       3.635   0.455   0.849  1.00  0.00     0.002 C 
HETATM   15  C4  UNL     1       3.838   0.091  -0.413  1.00  0.00     0.081 C 
BRANCH  15  16
HETATM   16  C5  UNL     1       4.892  -0.883  -0.777  1.00  0.00     0.372 C 
HETATM   17  F1  UNL     1       4.575  -1.511  -1.967  1.00  0.00    -0.172 F 
HETATM   18  F2  UNL     1       5.056  -1.821   0.222  1.00  0.00    -0.172 F 
BRANCH  16  19
HETATM   19  O1  UNL     1       6.074  -0.184  -0.988  1.00  0.00    -0.333 OA
HETATM   20  H7  UNL     1       6.376   0.309  -0.201  1.00  0.00     0.216 HD
ENDBRANCH  16  19
ENDBRANCH  15  16
ENDBRANCH  12  14
ENDBRANCH  10  12
ENDBRANCH   1  10
BRANCH   8  21
HETATM   21  N4  UNL     1      -1.754   0.020  -1.254  1.00  0.00    -0.344 N 
HETATM   22  H13 UNL     1      -1.481   1.010  -1.562  1.00  0.00     0.167 HD
BRANCH  21  23
HETATM   23  C12 UNL     1      -3.144   0.389  -1.143  1.00  0.00     0.034 A 
HETATM   24  C13 UNL     1      -4.050   0.285  -2.204  1.00  0.00     0.029 A 
HETATM   25  C14 UNL     1      -5.373   0.654  -2.033  1.00  0.00     0.004 A 
HETATM   26  C15 UNL     1      -5.777   1.124  -0.804  1.00  0.00     0.019 A 
HETATM   27  C16 UNL     1      -4.946   1.256   0.288  1.00  0.00     0.013 A 
HETATM   28 BR1  UNL     1      -5.520   1.908   1.985  1.00  0.00    -0.051 Br
HETATM   29  C17 UNL     1      -3.640   0.876   0.068  1.00  0.00     0.048 A 
ENDBRANCH  21  23
ENDBRANCH   8  21
TORSDOF 7
