REMARK  3 active torsions:
REMARK  status: ('A' for Active; 'I' for Inactive)
REMARK    1  A    between atoms: C1_2  and  C2_3 
REMARK       I    between atoms: C1_2  and  N1_9 
REMARK    2  A    between atoms: C2_3  and  C3_4 
REMARK    3  A    between atoms: C3_4  and  C4_5 
ROOT
HETATM    1  O1  UNL     1       0.704  -1.984   1.070  1.00  0.00    -0.268 OA
HETATM    2  C1  UNL     1       0.961  -0.823   0.609  1.00  0.00     0.252 C 
HETATM    3  N1  UNL     1       0.940  -0.440  -0.739  1.00  0.00    -0.281 N 
HETATM    4  C5  UNL     1       1.113   0.711  -1.397  1.00  0.00     0.044 A 
HETATM    5  C6  UNL     1       1.129   0.660  -2.764  1.00  0.00     0.032 A 
HETATM    6  C7  UNL     1       0.934  -0.702  -3.065  1.00  0.00     0.029 A 
HETATM    7  C8  UNL     1       0.832  -1.236  -1.807  1.00  0.00     0.038 A 
HETATM    8  C9  UNL     1       0.404  -2.671  -1.662  1.00  0.00     0.177 C 
HETATM    9  N2  UNL     1      -1.087  -2.639  -1.679  1.00  0.00    -0.383 N 
HETATM   10  C10 UNL     1      -1.595  -1.401  -1.096  1.00  0.00     0.043 C 
HETATM   11  C11 UNL     1      -1.647  -0.056  -1.299  1.00  0.00     0.119 C 
HETATM   12  N3  UNL     1      -1.137   0.946  -0.429  1.00  0.00    -0.361 N 
HETATM   13  C12 UNL     1      -0.146   1.985  -0.257  1.00  0.00     0.093 C 
HETATM   14  C13 UNL     1       1.128   2.004  -0.727  1.00  0.00     0.047 C 
HETATM   15  C14 UNL     1      -1.984   0.868   0.730  1.00  0.00     0.155 C 
HETATM   16  C15 UNL     1      -2.789  -0.362   0.694  1.00  0.00    -0.005 C 
HETATM   17  C16 UNL     1      -2.332  -1.515   0.167  1.00  0.00     0.028 C 
HETATM   18  H7  UNL     1      -1.978  -3.112  -1.920  1.00  0.00     0.160 HD
ENDROOT
BRANCH   2  19
HETATM   19  C2  UNL     1       1.282   0.032   1.707  1.00  0.00     0.080 C 
BRANCH  19  20
HETATM   20  C3  UNL     1       1.599   0.932   2.603  1.00  0.00     0.094 C 
BRANCH  20  21
HETATM   21  C4  UNL     1       1.935   1.852   3.677  1.00  0.00     0.408 C 
HETATM   22  F1  UNL     1       3.277   2.136   3.670  1.00  0.00    -0.167 F 
HETATM   23  F2  UNL     1       1.148   2.997   3.725  1.00  0.00    -0.167 F 
HETATM   24  F3  UNL     1       1.649   1.202   4.893  1.00  0.00    -0.167 F 
ENDBRANCH  20  21
ENDBRANCH  19  20
ENDBRANCH   2  19
TORSDOF 3
