REMARK  7 active torsions:
REMARK  status: ('A' for Active; 'I' for Inactive)
REMARK    1  A    between atoms: C1_2  and  C2_3 
REMARK    2  A    between atoms: C1_2  and  C5_9 
REMARK    3  A    between atoms: C3_4  and  C4_5 
REMARK    4  A    between atoms: C5_9  and  C6_10 
REMARK    5  A    between atoms: C7_11  and  C8_12 
REMARK    6  A    between atoms: C8_12  and  N1_13 
REMARK    7  A    between atoms: N1_13  and  C9_14 
ROOT
HETATM    1  C6  UNL     1      -1.163   0.750  -0.091  1.00  0.00    -0.021 C 
HETATM    2  C7  UNL     1      -0.131   0.085  -0.600  1.00  0.00    -0.011 C 
ENDROOT
BRANCH   2   3
HETATM    3  C8  UNL     1       1.284   0.552  -0.674  1.00  0.00     0.147 C 
BRANCH   3   4
HETATM    4  N1  UNL     1       2.083  -0.398   0.074  1.00  0.00    -0.386 N 
HETATM    5  H9  UNL     1       1.780  -1.258   0.585  1.00  0.00     0.160 HD
BRANCH   4   6
HETATM    6  C9  UNL     1       3.480  -0.086   0.098  1.00  0.00     0.029 A 
HETATM    7  C10 UNL     1       3.978   1.028  -0.547  1.00  0.00     0.029 A 
HETATM    8  C11 UNL     1       5.341   1.342  -0.530  1.00  0.00     0.004 A 
HETATM    9  C12 UNL     1       6.226   0.530   0.143  1.00  0.00     0.019 A 
HETATM   10  C13 UNL     1       5.755  -0.600   0.803  1.00  0.00     0.013 A 
HETATM   11 BR1  UNL     1       6.963  -1.734   1.738  1.00  0.00    -0.051 Br
HETATM   12  C14 UNL     1       4.401  -0.879   0.765  1.00  0.00     0.048 A 
ENDBRANCH   4   6
ENDBRANCH   3   4
ENDBRANCH   2   3
BRANCH   1  13
HETATM   13  C5  UNL     1      -2.592   0.462   0.066  1.00  0.00     0.109 C 
BRANCH  13  14
HETATM   14  C1  UNL     1      -2.965  -0.886  -0.469  1.00  0.00     0.152 C 
HETATM   15  O1  UNL     1      -2.371  -1.825  -1.014  1.00  0.00    -0.293 OA
BRANCH  14  16
HETATM   16  C2  UNL     1      -4.393  -1.134  -0.293  1.00  0.00     0.055 C 
HETATM   17  C3  UNL     1      -5.329  -0.369   0.242  1.00  0.00     0.092 C 
BRANCH  17  18
HETATM   18  C4  UNL     1      -6.790  -0.452   0.500  1.00  0.00     0.408 C 
HETATM   19  F1  UNL     1      -7.381   0.597  -0.176  1.00  0.00    -0.167 F 
HETATM   20  F2  UNL     1      -7.052  -0.244   1.841  1.00  0.00    -0.167 F 
HETATM   21  F3  UNL     1      -7.257  -1.685   0.134  1.00  0.00    -0.167 F 
ENDBRANCH  17  18
ENDBRANCH  14  16
ENDBRANCH  13  14
ENDBRANCH   1  13
TORSDOF 7
