REMARK  1 active torsions:
REMARK  status: ('A' for Active; 'I' for Inactive)
REMARK    1  A    between atoms: C5_6  and  N1_7 
ROOT
HETATM    1  N1  UNL     1      -3.921  -0.937  -0.075  1.00  0.00    -0.286 N 
HETATM    2  C6  UNL     1      -4.428  -2.160   0.450  1.00  0.00     0.130 C 
HETATM    3  C7  UNL     1      -3.866  -3.389   0.559  1.00  0.00     0.134 C 
HETATM    4  N2  UNL     1      -2.530  -3.759   0.132  1.00  0.00    -0.275 NA
HETATM    5  C8  UNL     1      -1.424  -3.100   0.233  1.00  0.00     0.099 C 
HETATM    6  C9  UNL     1      -1.021  -1.809   0.765  1.00  0.00     0.073 C 
HETATM    7  C10 UNL     1       0.484  -1.691   0.872  1.00  0.00     0.004 C 
HETATM    8  C11 UNL     1       1.676  -1.610   1.459  1.00  0.00     0.112 C 
HETATM    9  N3  UNL     1       2.834  -1.494   0.685  1.00  0.00    -0.276 NA
HETATM   10  C12 UNL     1       3.925  -2.126   0.695  1.00  0.00     0.108 C 
HETATM   11  C13 UNL     1       4.814  -1.552  -0.385  1.00  0.00     0.160 C 
HETATM   12  N4  UNL     1       5.823  -0.706   0.025  1.00  0.00    -0.417 N 
HETATM   13  C14 UNL     1       5.730   0.527   0.619  1.00  0.00     0.114 C 
HETATM   14  C15 UNL     1       5.184   1.730  -0.057  1.00  0.00     0.019 C 
HETATM   15  C16 UNL     1       3.721   1.647  -0.274  1.00  0.00     0.007 C 
HETATM   16  C17 UNL     1       3.097   2.879  -0.939  1.00  0.00     0.047 C 
HETATM   17  C18 UNL     1       1.613   2.547  -0.936  1.00  0.00     0.089 C 
HETATM   18  N5  UNL     1       1.463   1.379  -1.443  1.00  0.00    -0.277 NA
HETATM   19  C19 UNL     1       0.140   0.852  -1.537  1.00  0.00     0.113 C 
HETATM   20  C20 UNL     1      -0.530   0.187  -0.560  1.00  0.00     0.014 C 
HETATM   21  C21 UNL     1      -1.614  -0.570   0.198  1.00  0.00     0.114 C 
HETATM   22  N6  UNL     1      -2.679  -0.713  -0.745  1.00  0.00    -0.224 NA
HETATM   23  H13 UNL     1       6.800  -1.042  -0.217  1.00  0.00     0.153 HD
HETATM   24  H26 UNL     1      -2.547  -1.442  -1.469  1.00  0.00     0.147 HD
ENDROOT
BRANCH   1  25
HETATM   25  C5  UNL     1      -4.665   0.257   0.041  1.00  0.00     0.052 A 
HETATM   26  C4  UNL     1      -4.247   1.362  -0.669  1.00  0.00     0.031 A 
HETATM   27  C3  UNL     1      -4.899   2.569  -0.617  1.00  0.00     0.004 A 
HETATM   28  C2  UNL     1      -6.014   2.753   0.148  1.00  0.00     0.024 A 
HETATM   29  C1  UNL     1      -6.471   1.679   0.875  1.00  0.00     0.036 A 
HETATM   30 CL1  UNL     1      -7.895   1.830   1.881  1.00  0.00    -0.084 Cl
HETATM   31  C22 UNL     1      -5.788   0.486   0.795  1.00  0.00     0.054 A 
ENDBRANCH   1  25
TORSDOF 1
