REMARK  7 active torsions:
REMARK  status: ('A' for Active; 'I' for Inactive)
REMARK    1  A    between atoms: C1_2  and  C2_3 
REMARK       I    between atoms: C1_2  and  N1_9 
REMARK    2  A    between atoms: C3_4  and  C4_5 
REMARK    3  A    between atoms: N1_9  and  C5_10 
REMARK    4  A    between atoms: C6_11  and  C7_12 
REMARK    5  A    between atoms: C10_15  and  N2_16 
REMARK    6  A    between atoms: N2_16  and  C11_17 
REMARK    7  A    between atoms: C12_18  and  C13_19 
ROOT
HETATM    1  C7  UNL     1      -0.480   0.125  -0.370  1.00  0.00     0.029 C 
HETATM    2  C8  UNL     1       0.734   0.304  -0.771  1.00  0.00     0.043 A 
HETATM    3  C9  UNL     1       1.832  -0.575  -0.333  1.00  0.00     0.137 A 
HETATM    4  C10 UNL     1       3.099  -0.129  -0.951  1.00  0.00     0.110 A 
HETATM    5  N3  UNL     1       3.205   0.869  -1.742  1.00  0.00    -0.228 NA
HETATM    6  C14 UNL     1       2.094   1.677  -2.121  1.00  0.00     0.235 A 
HETATM    7  N4  UNL     1       0.935   1.387  -1.647  1.00  0.00    -0.246 NA
ENDROOT
BRANCH   1   8
HETATM    8  C6  UNL     1      -1.306  -0.722   0.461  1.00  0.00     0.019 C 
HETATM    9  C5  UNL     1      -2.509  -0.973   0.915  1.00  0.00     0.091 C 
BRANCH   9  10
HETATM   10  N1  UNL     1      -3.816  -0.496   0.832  1.00  0.00    -0.334 N 
HETATM   11  C1  UNL     1      -4.611   0.533   0.214  1.00  0.00     0.245 C 
HETATM   12  O1  UNL     1      -3.844   1.254  -0.507  1.00  0.00    -0.268 OA
HETATM   13  H3  UNL     1      -4.526  -1.038   1.404  1.00  0.00     0.168 HD
BRANCH  11  14
HETATM   14  C2  UNL     1      -6.039   0.760   0.348  1.00  0.00     0.079 C 
HETATM   15  C3  UNL     1      -7.140   0.288   0.948  1.00  0.00     0.094 C 
BRANCH  15  16
HETATM   16  C4  UNL     1      -7.341  -0.855   1.867  1.00  0.00     0.408 C 
HETATM   17  F1  UNL     1      -8.685  -1.026   2.160  1.00  0.00    -0.167 F 
HETATM   18  F2  UNL     1      -6.605  -0.642   3.009  1.00  0.00    -0.167 F 
HETATM   19  F3  UNL     1      -6.967  -2.050   1.236  1.00  0.00    -0.167 F 
ENDBRANCH  15  16
ENDBRANCH  11  14
ENDBRANCH   9  10
ENDBRANCH   1   8
BRANCH   4  20
HETATM   20  N2  UNL     1       4.221  -0.892  -0.608  1.00  0.00    -0.354 N 
HETATM   21  H9  UNL     1       4.226  -1.821  -0.122  1.00  0.00     0.166 HD
BRANCH  20  22
HETATM   22  C11 UNL     1       5.554  -0.482  -0.889  1.00  0.00     0.086 C 
HETATM   23  C12 UNL     1       6.337   0.391  -0.275  1.00  0.00     0.001 C 
BRANCH  23  24
HETATM   24  C13 UNL     1       7.738   0.855  -0.530  1.00  0.00     0.113 C 
HETATM   25 BR1  UNL     1       8.777   0.429   1.053  1.00  0.00    -0.092 Br
ENDBRANCH  23  24
ENDBRANCH  20  22
ENDBRANCH   4  20
TORSDOF 7
