REMARK  4 active torsions:
REMARK  status: ('A' for Active; 'I' for Inactive)
REMARK    1  A    between atoms: C2_2  and  C3_3 
REMARK    2  A    between atoms: C4_4  and  C5_5 
REMARK       I    between atoms: C5_5  and  N1_7 
REMARK    3  A    between atoms: C9_11  and  N2_12 
REMARK    4  A    between atoms: N2_12  and  C10_13 
ROOT
HETATM    1  C5  UNL     1       2.899   0.513   0.341  1.00  0.00     0.244 C 
HETATM    2  O1  UNL     1       3.394  -0.311   1.127  1.00  0.00    -0.268 OA
HETATM    3  N1  UNL     1       2.139   1.588   0.937  1.00  0.00    -0.330 N 
HETATM    4  C6  UNL     1       1.453   2.747   0.327  1.00  0.00     0.132 C 
HETATM    5  C7  UNL     1       0.024   2.466   0.060  1.00  0.00     0.051 C 
HETATM    6  C8  UNL     1      -0.281   1.347  -0.850  1.00  0.00     0.025 C 
HETATM    7  C9  UNL     1      -0.841   0.189  -0.448  1.00  0.00     0.120 C 
HETATM    8  N3  UNL     1      -1.031   0.143   0.922  1.00  0.00    -0.249 N 
HETATM    9  C16 UNL     1      -2.100  -0.048   1.536  1.00  0.00     0.202 A 
HETATM   10  N4  UNL     1      -0.983   0.135   2.370  1.00  0.00    -0.156 NA
HETATM   11  C17 UNL     1      -0.891  -0.340   3.531  1.00  0.00     0.109 C 
HETATM   12  C18 UNL     1       0.470   0.241   3.749  1.00  0.00     0.126 C 
HETATM   13  N5  UNL     1       0.703   0.844   2.672  1.00  0.00    -0.281 NA
HETATM   14  C19 UNL     1       1.907   1.557   2.412  1.00  0.00     0.275 C 
ENDROOT
BRANCH   7  15
HETATM   15  N2  UNL     1      -1.106  -0.823  -1.380  1.00  0.00    -0.342 N 
HETATM   16  H11 UNL     1      -0.791  -1.555  -2.048  1.00  0.00     0.167 HD
BRANCH  15  17
HETATM   17  C10 UNL     1      -2.515  -1.029  -1.582  1.00  0.00     0.034 A 
HETATM   18  C11 UNL     1      -3.141  -1.994  -0.795  1.00  0.00     0.029 A 
HETATM   19  C12 UNL     1      -4.481  -2.275  -0.891  1.00  0.00     0.004 A 
HETATM   20  C13 UNL     1      -5.255  -1.564  -1.818  1.00  0.00     0.019 A 
HETATM   21  C14 UNL     1      -4.585  -0.631  -2.560  1.00  0.00     0.013 A 
HETATM   22 BR1  UNL     1      -5.631   0.355  -3.839  1.00  0.00    -0.051 Br
HETATM   23  C15 UNL     1      -3.247  -0.293  -2.521  1.00  0.00     0.048 A 
ENDBRANCH  15  17
ENDBRANCH   7  15
BRANCH   1  24
HETATM   24  C4  UNL     1       2.991   0.525  -1.101  1.00  0.00     0.074 C 
HETATM   25  C3  UNL     1       3.594  -0.287  -1.926  1.00  0.00     0.005 C 
BRANCH  25  26
HETATM   26  C2  UNL     1       4.347  -1.442  -1.543  1.00  0.00    -0.010 C 
HETATM   27  C1  UNL     1       5.078  -2.506  -1.905  1.00  0.00     0.011 C 
ENDBRANCH  25  26
ENDBRANCH   1  24
TORSDOF 4
