REMARK  5 active torsions:
REMARK  status: ('A' for Active; 'I' for Inactive)
REMARK    1  A    between atoms: C7_8  and  C8_9 
REMARK    2  A    between atoms: C11_14  and  C12_15 
REMARK    3  A    between atoms: C13_16  and  N3_17 
REMARK       I    between atoms: N3_17  and  C14_18 
REMARK    4  A    between atoms: C14_18  and  C15_20 
REMARK    5  A    between atoms: C16_21  and  C17_22 
ROOT
HETATM    1  C8  UNL     1      -2.815  -0.564   0.574  1.00  0.00     0.052 A 
HETATM    2  N1  UNL     1      -2.689  -1.828   0.891  1.00  0.00    -0.245 NA
HETATM    3  C9  UNL     1      -1.432  -2.425   0.516  1.00  0.00     0.233 A 
HETATM    4  N2  UNL     1      -0.446  -1.813  -0.097  1.00  0.00    -0.246 NA
HETATM    5  C10 UNL     1      -0.645  -0.440  -0.414  1.00  0.00     0.041 A 
HETATM    6  C11 UNL     1       0.331   0.206  -1.030  1.00  0.00     0.029 C 
HETATM    7  C18 UNL     1      -1.867   0.351  -0.114  1.00  0.00     0.119 A 
ENDROOT
BRANCH   6   8
HETATM    8  C12 UNL     1       1.537  -0.544  -1.333  1.00  0.00     0.019 C 
HETATM    9  C13 UNL     1       2.625  -0.101  -1.938  1.00  0.00     0.091 C 
BRANCH   9  10
HETATM   10  N3  UNL     1       3.843  -0.748  -2.278  1.00  0.00    -0.334 N 
HETATM   11  C14 UNL     1       5.052  -0.226  -1.722  1.00  0.00     0.244 C 
HETATM   12  O1  UNL     1       4.873   0.786  -0.967  1.00  0.00    -0.268 OA
HETATM   13  H11 UNL     1       4.006  -1.590  -2.904  1.00  0.00     0.168 HD
BRANCH  11  14
HETATM   14  C15 UNL     1       6.420  -0.696  -1.907  1.00  0.00     0.075 C 
HETATM   15  C16 UNL     1       7.517  -0.184  -1.374  1.00  0.00     0.048 C 
BRANCH  15  16
HETATM   16  C17 UNL     1       7.457   0.992  -0.479  1.00  0.00     0.376 C 
HETATM   17  F1  UNL     1       7.069   2.144  -1.149  1.00  0.00    -0.210 F 
HETATM   18  F2  UNL     1       8.750   1.224   0.008  1.00  0.00    -0.210 F 
ENDBRANCH  15  16
ENDBRANCH  11  14
ENDBRANCH   9  10
ENDBRANCH   6   8
BRANCH   1  19
HETATM   19  C7  UNL     1      -4.064   0.096   0.927  1.00  0.00    -0.004 A 
HETATM   20  C2  UNL     1      -4.473   0.216   2.259  1.00  0.00    -0.050 A 
HETATM   21  C1  UNL     1      -3.594  -0.353   3.313  1.00  0.00     0.049 C 
HETATM   22  C3  UNL     1      -5.677   0.861   2.496  1.00  0.00     0.009 A 
HETATM   23  C4  UNL     1      -6.479   1.381   1.532  1.00  0.00     0.019 A 
HETATM   24  C5  UNL     1      -6.097   1.275   0.203  1.00  0.00     0.011 A 
HETATM   25 BR1  UNL     1      -7.116   1.954  -1.265  1.00  0.00    -0.051 Br
HETATM   26  C6  UNL     1      -4.883   0.626  -0.051  1.00  0.00     0.033 A 
ENDBRANCH   1  19
TORSDOF 5
