REMARK  5 active torsions:
REMARK  status: ('A' for Active; 'I' for Inactive)
REMARK    1  A    between atoms: C2_2  and  C3_3 
REMARK    2  A    between atoms: C2_2  and  N1_7 
REMARK    3  A    between atoms: C3_3  and  C4_4 
REMARK    4  A    between atoms: N1_7  and  C5_8 
REMARK    5  A    between atoms: C10_15  and  N4_16 
ROOT
HETATM    1  C5  UNL     1       1.157  -0.233  -0.015  1.00  0.00     0.033 A 
HETATM    2  C6  UNL     1       1.849  -1.406   0.276  1.00  0.00     0.032 A 
HETATM    3  C7  UNL     1       1.254  -2.625   0.533  1.00  0.00     0.035 A 
HETATM    4  C8  UNL     1      -0.123  -2.719   0.505  1.00  0.00     0.072 A 
HETATM    5  N2  UNL     1      -0.794  -3.842   0.744  1.00  0.00    -0.241 NA
HETATM    6  C9  UNL     1      -2.154  -3.821   0.698  1.00  0.00     0.236 A 
HETATM    7  N3  UNL     1      -2.862  -2.688   0.414  1.00  0.00    -0.223 NA
HETATM    8  C10 UNL     1      -2.193  -1.525   0.165  1.00  0.00     0.144 A 
HETATM    9  C16 UNL     1      -0.819  -1.566   0.217  1.00  0.00     0.041 A 
HETATM   10  C17 UNL     1      -0.215  -0.361  -0.035  1.00  0.00     0.047 A 
ENDROOT
BRANCH   1  11
HETATM   11  N1  UNL     1       1.796   0.984  -0.269  1.00  0.00    -0.363 N 
HETATM   12  H6  UNL     1       1.183   1.808  -0.479  1.00  0.00     0.165 HD
BRANCH  11  13
HETATM   13  C2  UNL     1       3.171   1.267  -0.285  1.00  0.00    -0.008 C 
HETATM   14  C1  UNL     1       3.644   2.473  -0.543  1.00  0.00     0.058 C 
BRANCH  13  15
HETATM   15  C3  UNL     1       4.448   0.592  -0.085  1.00  0.00     0.123 C 
BRANCH  15  16
HETATM   16  C4  UNL     1       5.603   1.556  -0.240  1.00  0.00     0.358 C 
HETATM   17  F1  UNL     1       5.455   2.546   0.711  1.00  0.00    -0.214 F 
HETATM   18  F2  UNL     1       5.613   2.081  -1.524  1.00  0.00    -0.214 F 
ENDBRANCH  15  16
ENDBRANCH  13  15
ENDBRANCH  11  13
ENDBRANCH   1  11
BRANCH   8  19
HETATM   19  N4  UNL     1      -3.089  -0.469  -0.138  1.00  0.00    -0.336 N 
HETATM   20  C11 UNL     1      -3.770  -0.105   1.072  1.00  0.00     0.093 A 
HETATM   21  C12 UNL     1      -4.675   0.887   1.117  1.00  0.00     0.018 A 
HETATM   22  C13 UNL     1      -5.020   1.653  -0.065  1.00  0.00     0.018 A 
HETATM   23  C14 UNL     1      -4.374   1.287  -1.160  1.00  0.00     0.007 A 
HETATM   24 BR1  UNL     1      -4.657   2.150  -2.851  1.00  0.00    -0.054 Br
HETATM   25  C15 UNL     1      -3.375   0.220  -1.362  1.00  0.00     0.176 A 
ENDBRANCH   8  19
TORSDOF 5
