REMARK  5 active torsions:
REMARK  status: ('A' for Active; 'I' for Inactive)
REMARK    1  A    between atoms: C2_2  and  C3_4 
REMARK    2  A    between atoms: C3_4  and  C4_5 
REMARK    3  A    between atoms: C5_6  and  C6_7 
REMARK       I    between atoms: C6_7  and  N1_9 
REMARK    4  A    between atoms: N1_9  and  C7_10 
REMARK    5  A    between atoms: C12_17  and  N4_18 
ROOT
HETATM    1  C7  UNL     1      -1.231  -0.136   0.158  1.00  0.00     0.036 A 
HETATM    2  C8  UNL     1      -1.513  -0.173   1.502  1.00  0.00     0.032 A 
HETATM    3  C9  UNL     1      -2.743  -0.436   2.038  1.00  0.00     0.035 A 
HETATM    4  C10 UNL     1      -3.798  -0.687   1.187  1.00  0.00     0.072 A 
HETATM    5  N2  UNL     1      -5.052  -0.958   1.613  1.00  0.00    -0.241 NA
HETATM    6  C11 UNL     1      -6.059  -1.197   0.769  1.00  0.00     0.235 A 
HETATM    7  N3  UNL     1      -5.806  -1.167  -0.568  1.00  0.00    -0.224 NA
HETATM    8  C12 UNL     1      -4.567  -0.901  -1.062  1.00  0.00     0.135 A 
HETATM    9  C13 UNL     1      -3.546  -0.657  -0.169  1.00  0.00     0.040 A 
HETATM   10  C14 UNL     1      -2.297  -0.388  -0.659  1.00  0.00     0.047 A 
ENDROOT
BRANCH   1  11
HETATM   11  N1  UNL     1       0.021   0.131  -0.443  1.00  0.00    -0.324 N 
HETATM   12  C6  UNL     1       1.267   0.419   0.164  1.00  0.00     0.245 C 
HETATM   13  O1  UNL     1       1.347   0.461   1.415  1.00  0.00    -0.268 OA
HETATM   14  H7  UNL     1       0.113   0.132  -1.481  1.00  0.00     0.169 HD
BRANCH  12  15
HETATM   15  C5  UNL     1       2.504   0.681  -0.556  1.00  0.00     0.071 C 
HETATM   16  C4  UNL     1       3.519   0.922   0.258  1.00  0.00    -0.016 C 
BRANCH  16  17
HETATM   17  C3  UNL     1       4.900   1.220  -0.198  1.00  0.00     0.073 C 
BRANCH  17  18
HETATM   18  C2  UNL     1       5.805   0.169   0.361  1.00  0.00    -0.017 C 
HETATM   19  C1  UNL     1       6.547  -0.650  -0.390  1.00  0.00     0.027 C 
HETATM   20 BR1  UNL     1       5.695   0.227   2.267  1.00  0.00    -0.056 Br
ENDBRANCH  17  18
ENDBRANCH  16  17
ENDBRANCH  12  15
ENDBRANCH   1  11
BRANCH   8  21
HETATM   21  N4  UNL     1      -4.368  -0.883  -2.475  1.00  0.00    -0.383 N 
HETATM   22  H11 UNL     1      -3.994   0.021  -2.830  1.00  0.00     0.157 HD
HETATM   23  H12 UNL     1      -4.508  -1.565  -3.260  1.00  0.00     0.157 HD
ENDBRANCH   8  21
TORSDOF 5
