REMARK  4 active torsions:
REMARK  status: ('A' for Active; 'I' for Inactive)
REMARK    1  A    between atoms: C2_2  and  C3_3 
REMARK    2  A    between atoms: C4_4  and  C5_5 
REMARK       I    between atoms: C5_5  and  N1_7 
REMARK    3  A    between atoms: N1_7  and  C6_8 
REMARK    4  A    between atoms: C10_15  and  N5_16 
ROOT
HETATM    1  C6  UNL     1       0.932  -1.011  -1.710  1.00  0.00     0.248 A 
HETATM    2  N2  UNL     1       2.121  -1.039  -2.567  1.00  0.00    -0.269 NA
HETATM    3  C7  UNL     1       2.041  -0.106  -3.454  1.00  0.00     0.145 A 
HETATM    4  C8  UNL     1       0.817   0.679  -3.339  1.00  0.00     0.089 A 
HETATM    5  N3  UNL     1       0.295   1.719  -4.003  1.00  0.00    -0.240 NA
HETATM    6  C9  UNL     1      -0.909   2.228  -3.621  1.00  0.00     0.236 A 
HETATM    7  N4  UNL     1      -1.554   1.674  -2.579  1.00  0.00    -0.224 NA
HETATM    8  C10 UNL     1      -1.047   0.619  -1.889  1.00  0.00     0.143 A 
HETATM    9  C16 UNL     1       0.165   0.101  -2.267  1.00  0.00     0.062 A 
ENDROOT
BRANCH   1  10
HETATM   10  N1  UNL     1       1.415  -0.644  -0.378  1.00  0.00    -0.331 N 
HETATM   11  C5  UNL     1       1.212  -1.554   0.677  1.00  0.00     0.243 C 
HETATM   12  O1  UNL     1       0.638  -2.631   0.460  1.00  0.00    -0.269 OA
HETATM   13  H6  UNL     1       1.886   0.275  -0.279  1.00  0.00     0.165 HD
BRANCH  11  14
HETATM   14  C4  UNL     1       1.679  -1.224   2.028  1.00  0.00     0.074 C 
HETATM   15  C3  UNL     1       2.306  -0.149   2.480  1.00  0.00     0.005 C 
BRANCH  15  16
HETATM   16  C2  UNL     1       2.746   0.112   3.858  1.00  0.00    -0.010 C 
HETATM   17  C1  UNL     1       3.355   1.266   4.063  1.00  0.00     0.011 C 
ENDBRANCH  15  16
ENDBRANCH  11  14
ENDBRANCH   1  10
BRANCH   8  18
HETATM   18  N5  UNL     1      -1.866   0.181  -0.836  1.00  0.00    -0.336 N 
HETATM   19  C11 UNL     1      -2.069   1.196   0.143  1.00  0.00     0.112 A 
HETATM   20  C12 UNL     1      -2.804   1.027   1.237  1.00  0.00     0.026 A 
HETATM   21 BR1  UNL     1      -3.099   2.346   2.561  1.00  0.00    -0.050 Br
HETATM   22  C13 UNL     1      -3.463  -0.272   1.485  1.00  0.00     0.018 A 
HETATM   23  C14 UNL     1      -3.268  -1.222   0.559  1.00  0.00    -0.005 A 
HETATM   24  C15 UNL     1      -2.478  -1.128  -0.674  1.00  0.00     0.157 A 
ENDBRANCH   8  18
TORSDOF 4
