REMARK  3 active torsions:
REMARK  status: ('A' for Active; 'I' for Inactive)
REMARK    1  A    between atoms: N1_1  and  C1_2 
REMARK    2  A    between atoms: C5_8  and  N4_9 
REMARK       I    between atoms: N4_9  and  C6_10 
REMARK    3  A    between atoms: C6_10  and  C7_12 
ROOT
HETATM    1  C1  UNL     1      -2.462   1.336   0.131  1.00  0.00     0.270 C 
HETATM    2  C2  UNL     1      -3.963   1.171   0.444  1.00  0.00     0.189 C 
HETATM    3  N2  UNL     1      -4.471  -0.235   0.224  1.00  0.00    -0.290 NA
HETATM    4  C3  UNL     1      -3.589  -1.126  -0.085  1.00  0.00     0.050 C 
HETATM    5  C4  UNL     1      -2.789  -2.336   0.153  1.00  0.00     0.145 C 
HETATM    6  N3  UNL     1      -1.468  -2.164   0.120  1.00  0.00    -0.241 NA
HETATM    7  C5  UNL     1      -0.980  -0.853  -0.130  1.00  0.00     0.135 C 
HETATM    8  C13 UNL     1      -1.905   0.055  -0.319  1.00  0.00     0.006 C 
HETATM    9  C14 UNL     1      -3.007  -0.407  -1.333  1.00  0.00     0.100 C 
ENDROOT
BRANCH   7  10
HETATM   10  N4  UNL     1       0.205  -0.091  -0.148  1.00  0.00    -0.307 N 
HETATM   11  C6  UNL     1       1.284  -0.974   0.051  1.00  0.00     0.257 C 
HETATM   12  O1  UNL     1       1.027  -2.195   0.196  1.00  0.00    -0.267 OA
HETATM   13  H7  UNL     1       0.459   0.889  -0.255  1.00  0.00     0.170 HD
BRANCH  11  14
HETATM   14  C7  UNL     1       2.655  -0.486   0.087  1.00  0.00     0.033 A 
HETATM   15  C8  UNL     1       3.576  -1.477   0.317  1.00  0.00     0.017 A 
HETATM   16  C9  UNL     1       4.926  -1.133   0.374  1.00  0.00     0.002 A 
HETATM   17  C10 UNL     1       5.385   0.157   0.210  1.00  0.00     0.019 A 
HETATM   18  C11 UNL     1       4.434   1.127  -0.020  1.00  0.00     0.011 A 
HETATM   19 BR1  UNL     1       4.907   2.970  -0.271  1.00  0.00    -0.051 Br
HETATM   20  C12 UNL     1       3.096   0.804  -0.079  1.00  0.00     0.036 A 
ENDBRANCH  11  14
ENDBRANCH   7  10
BRANCH   1  21
HETATM   21  N1  UNL     1      -1.757   1.911   1.246  1.00  0.00     0.088 N 
HETATM   22  H1  UNL     1      -1.284   1.225   1.850  1.00  0.00     0.313 HD
HETATM   23  H2  UNL     1      -1.181   2.721   0.974  1.00  0.00     0.313 HD
ENDBRANCH   1  21
TORSDOF 3
