REMARK  1 active torsions:
REMARK  status: ('A' for Active; 'I' for Inactive)
REMARK    1  A    between atoms: C2_2  and  N1_3 
ROOT
HETATM    1  C1  UNL     1      -2.860   0.984  -0.333  1.00  0.00     0.070 C 
HETATM    2  C2  UNL     1      -1.418   0.812   0.159  1.00  0.00     0.140 C 
HETATM    3  C8  UNL     1      -0.950   2.034   0.858  1.00  0.00     0.024 C 
HETATM    4  C9  UNL     1       0.087   2.778   1.177  1.00  0.00    -0.025 C 
HETATM    5  C10 UNL     1       1.498   2.452   0.785  1.00  0.00     0.009 C 
HETATM    6  C11 UNL     1       2.616   1.915   0.314  1.00  0.00     0.126 C 
HETATM    7  C12 UNL     1       2.995   0.712  -0.409  1.00  0.00     0.224 C 
HETATM    8  O1  UNL     1       4.206   0.916  -0.668  1.00  0.00    -0.273 OA
HETATM    9  N2  UNL     1       2.796  -0.559  -0.995  1.00  0.00    -0.343 N 
HETATM   10  C13 UNL     1       3.639  -1.466  -1.807  1.00  0.00     0.267 C 
HETATM   11  N3  UNL     1       3.630  -0.727  -3.110  1.00  0.00    -0.298 NA
HETATM   12  C14 UNL     1       2.534  -0.086  -3.411  1.00  0.00     0.174 C 
HETATM   13  C15 UNL     1       1.117   0.401  -3.201  1.00  0.00     0.120 C 
HETATM   14  N4  UNL     1       0.117   0.388  -2.417  1.00  0.00    -0.257 N 
HETATM   15  C16 UNL     1      -1.119   0.834  -2.267  1.00  0.00     0.229 A 
HETATM   16  N5  UNL     1      -0.655   0.598  -1.080  1.00  0.00    -0.246 N 
HETATM   17  H15 UNL     1       1.875  -0.443  -0.541  1.00  0.00     0.164 HD
ENDROOT
BRANCH   2  18
HETATM   18  N1  UNL     1      -1.413  -0.311   0.990  1.00  0.00    -0.379 N 
HETATM   19  C3  UNL     1      -0.249  -0.762   1.617  1.00  0.00     0.147 C 
HETATM   20  C4  UNL     1      -0.527  -1.596   2.849  1.00  0.00    -0.010 C 
HETATM   21  C5  UNL     1      -1.527  -2.503   2.862  1.00  0.00    -0.012 C 
HETATM   22  C6  UNL     1      -2.265  -2.543   1.544  1.00  0.00     0.098 C 
HETATM   23 BR1  UNL     1      -3.913  -3.502   1.864  1.00  0.00    -0.085 Br
HETATM   24  C7  UNL     1      -2.561  -1.138   1.067  1.00  0.00     0.139 C 
ENDBRANCH   2  18
TORSDOF 1
