REMARK  2 active torsions:
REMARK  status: ('A' for Active; 'I' for Inactive)
REMARK    1  A    between atoms: C2_3  and  N1_5 
REMARK       I    between atoms: N1_5  and  C4_6 
REMARK    2  A    between atoms: C4_6  and  C5_8 
ROOT
HETATM    1  B1  UNL     1       5.252  -0.482   2.819  1.00  0.00     0.198 B 
HETATM    2  C1  UNL     1       4.655  -0.533   1.146  1.00  0.00    -0.212 C 
HETATM    3  C2  UNL     1       4.155  -0.565  -0.185  1.00  0.00     0.038 C 
HETATM    4  C3  UNL     1       4.967  -0.976  -1.156  1.00  0.00     0.071 C 
ENDROOT
BRANCH   3   5
HETATM    5  N1  UNL     1       2.820  -0.167  -0.454  1.00  0.00    -0.325 N 
HETATM    6  C4  UNL     1       1.972   0.269   0.602  1.00  0.00     0.232 C 
HETATM    7  O1  UNL     1       2.475   0.277   1.776  1.00  0.00    -0.272 OA
HETATM    8  H3  UNL     1       2.465  -0.197  -1.448  1.00  0.00     0.169 HD
BRANCH   6   9
HETATM    9  C5  UNL     1       0.612   0.670   0.298  1.00  0.00     0.131 C 
HETATM   10  C6  UNL     1      -0.039   1.115   1.674  1.00  0.00     0.169 C 
HETATM   11  N2  UNL     1      -1.400   1.298   1.386  1.00  0.00    -0.276 N 
HETATM   12  C7  UNL     1      -2.349   1.743   2.042  1.00  0.00     0.227 A 
HETATM   13  N3  UNL     1      -2.883   1.412   0.848  1.00  0.00    -0.243 N 
HETATM   14  C8  UNL     1      -3.838   1.383   0.107  1.00  0.00     0.208 C 
HETATM   15  N4  UNL     1      -3.679   0.791  -1.246  1.00  0.00    -0.351 N 
HETATM   16  C9  UNL     1      -2.622  -0.208  -1.139  1.00  0.00     0.034 A 
HETATM   17  H9  UNL     1      -3.779   0.567  -2.246  1.00  0.00     0.166 HD
HETATM   18  C10 UNL     1      -2.608  -1.578  -1.264  1.00  0.00     0.048 A 
HETATM   19  C14 UNL     1      -1.459   0.419  -0.672  1.00  0.00     0.037 A 
HETATM   20  C11 UNL     1      -1.456  -2.246  -0.914  1.00  0.00     0.013 A 
HETATM   21 BR1  UNL     1      -1.497  -4.129  -1.111  1.00  0.00    -0.051 Br
HETATM   22  C12 UNL     1      -0.312  -1.649  -0.446  1.00  0.00     0.027 A 
HETATM   23  C13 UNL     1      -0.298  -0.287  -0.312  1.00  0.00    -0.040 A 
ENDBRANCH   6   9
ENDBRANCH   3   5
TORSDOF 2
