REMARK  5 active torsions:
REMARK  status: ('A' for Active; 'I' for Inactive)
REMARK    1  A    between atoms: C2_2  and  C3_3 
REMARK    2  A    between atoms: C3_3  and  C4_4 
REMARK    3  A    between atoms: C4_4  and  N1_6 
REMARK    4  A    between atoms: N1_6  and  C6_7 
REMARK    5  A    between atoms: N4_15  and  C12_16 
ROOT
HETATM    1  C6  UNL     1      -1.184  -0.730   0.023  1.00  0.00     0.251 C 
HETATM    2  C7  UNL     1       0.188  -1.190   0.397  1.00  0.00     0.067 C 
HETATM    3  C8  UNL     1       0.807  -0.859  -0.714  1.00  0.00     0.238 A 
HETATM    4  N2  UNL     1       0.408  -0.592  -2.007  1.00  0.00     0.113 N 
HETATM    5  C9  UNL     1      -0.634  -0.592  -2.464  1.00  0.00     0.295 A 
HETATM    6  C10 UNL     1      -1.576  -0.962  -1.392  1.00  0.00     0.104 C 
HETATM    7  N3  UNL     1       0.617  -0.309  -3.060  1.00  0.00    -0.035 NA
HETATM    8  C11 UNL     1       1.829  -0.282  -2.642  1.00  0.00     0.436 A 
HETATM    9  N4  UNL     1       2.141  -0.585  -1.255  1.00  0.00    -0.281 N 
ENDROOT
BRANCH   1  10
HETATM   10  N1  UNL     1      -1.240   0.682   0.342  1.00  0.00     0.097 N 
HETATM   11  H8  UNL     1      -0.470   1.159  -0.179  1.00  0.00     0.317 HD
BRANCH  10  12
HETATM   12  C4  UNL     1      -2.495   1.305   0.049  1.00  0.00     0.233 C 
HETATM   13  C5  UNL     1      -2.362   2.748   0.526  1.00  0.00     0.044 C 
BRANCH  12  14
HETATM   14  C3  UNL     1      -3.588   0.670   0.807  1.00  0.00     0.101 C 
BRANCH  14  15
HETATM   15  C2  UNL     1      -4.849   0.873   0.452  1.00  0.00    -0.174 C 
HETATM   16  C1  UNL     1      -5.991   1.241  -0.100  1.00  0.00     0.091 C 
ENDBRANCH  14  15
ENDBRANCH  12  14
ENDBRANCH  10  12
ENDBRANCH   1  10
BRANCH   9  17
HETATM   17  C12 UNL     1       3.123  -0.736  -0.206  1.00  0.00     0.040 A 
HETATM   18  C13 UNL     1       3.457   0.376   0.576  1.00  0.00     0.030 A 
HETATM   19  C14 UNL     1       4.386   0.269   1.556  1.00  0.00     0.004 A 
HETATM   20  C15 UNL     1       4.933  -0.987   1.689  1.00  0.00     0.019 A 
HETATM   21  C16 UNL     1       4.667  -2.116   0.976  1.00  0.00     0.013 A 
HETATM   22 BR1  UNL     1       5.544  -3.775   1.322  1.00  0.00    -0.051 Br
HETATM   23  C17 UNL     1       3.721  -1.991  -0.017  1.00  0.00     0.049 A 
ENDBRANCH   9  17
TORSDOF 5
