REMARK  5 active torsions:
REMARK  status: ('A' for Active; 'I' for Inactive)
REMARK    1  A    between atoms: C2_2  and  C3_3 
REMARK    2  A    between atoms: C3_3  and  N1_4 
REMARK    3  A    between atoms: N1_4  and  C5_6 
REMARK    4  A    between atoms: C11_12  and  C12_13 
REMARK    5  A    between atoms: C13_14  and  C14_15 
ROOT
HETATM    1  C5  UNL     1      -2.561   0.232   0.279  1.00  0.00     0.125 A 
HETATM    2  C6  UNL     1      -1.746  -0.799   0.444  1.00  0.00     0.065 A 
HETATM    3  C7  UNL     1      -0.416  -0.302   0.032  1.00  0.00     0.010 A 
HETATM    4  C8  UNL     1       0.746  -0.980   0.021  1.00  0.00     0.053 C 
HETATM    5  C9  UNL     1       2.012  -0.330  -0.427  1.00  0.00     0.117 C 
HETATM    6  C10 UNL     1       3.172  -1.050   0.125  1.00  0.00     0.015 C 
HETATM    7  C11 UNL     1       4.373  -0.467   0.229  1.00  0.00     0.025 C 
HETATM    8  N2  UNL     1       2.993  -2.385   0.547  1.00  0.00    -0.354 N 
HETATM    9  C15 UNL     1       1.748  -3.029   0.712  1.00  0.00     0.207 C 
HETATM   10  N3  UNL     1       0.700  -2.337   0.455  1.00  0.00    -0.247 NA
HETATM   11  C16 UNL     1      -0.618   1.092  -0.365  1.00  0.00     0.132 A 
HETATM   12  N4  UNL     1      -1.869   1.375  -0.212  1.00  0.00    -0.243 NA
HETATM   13  H17 UNL     1       3.846  -2.972   0.765  1.00  0.00     0.166 HD
ENDROOT
BRANCH   1  14
HETATM   14  N1  UNL     1      -3.954   0.182   0.563  1.00  0.00    -0.370 N 
HETATM   15  C4  UNL     1      -4.640  -1.053   0.850  1.00  0.00     0.151 C 
BRANCH  14  16
HETATM   16  C3  UNL     1      -4.831   1.313   0.600  1.00  0.00     0.129 C 
BRANCH  16  17
HETATM   17  C2  UNL     1      -5.823   1.323  -0.496  1.00  0.00     0.009 C 
HETATM   18  C1  UNL     1      -7.147   1.312  -0.382  1.00  0.00     0.007 C 
ENDBRANCH  16  17
ENDBRANCH  14  16
ENDBRANCH   1  14
BRANCH   7  19
HETATM   19  C12 UNL     1       4.604   0.896  -0.191  1.00  0.00    -0.001 C 
HETATM   20  C13 UNL     1       5.794   1.463  -0.084  1.00  0.00    -0.016 C 
BRANCH  20  21
HETATM   21  C14 UNL     1       7.101   0.976   0.423  1.00  0.00     0.112 C 
HETATM   22 BR1  UNL     1       7.705   2.069   1.912  1.00  0.00    -0.092 Br
ENDBRANCH  20  21
ENDBRANCH   7  19
TORSDOF 5
