REMARK  4 active torsions:
REMARK  status: ('A' for Active; 'I' for Inactive)
REMARK    1  A    between atoms: C2_2  and  C3_3 
REMARK    2  A    between atoms: C4_4  and  C5_5 
REMARK       I    between atoms: C5_5  and  N1_7 
REMARK    3  A    between atoms: N1_7  and  C6_8 
REMARK    4  A    between atoms: N4_15  and  C11_16 
ROOT
HETATM    1  C6  UNL     1      -0.017  -1.821   0.934  1.00  0.00     0.233 A 
HETATM    2  C7  UNL     1       0.873  -0.670   0.689  1.00  0.00     0.055 A 
HETATM    3  C8  UNL     1       1.382   0.004   1.704  1.00  0.00     0.089 A 
HETATM    4  C9  UNL     1       1.106  -0.331   3.095  1.00  0.00     0.104 A 
HETATM    5  N2  UNL     1       1.656   0.412   3.973  1.00  0.00    -0.237 NA
HETATM    6  C10 UNL     1       2.502   1.518   3.634  1.00  0.00     0.256 A 
HETATM    7  N3  UNL     1       2.756   1.826   2.406  1.00  0.00    -0.160 NA
HETATM    8  N4  UNL     1       2.211   1.085   1.323  1.00  0.00    -0.231 N 
HETATM    9  C17 UNL     1       0.224  -1.469   3.322  1.00  0.00     0.147 A 
HETATM   10  N5  UNL     1      -0.256  -2.107   2.314  1.00  0.00    -0.270 NA
ENDROOT
BRANCH   1  11
HETATM   11  N1  UNL     1      -1.295  -1.717   0.256  1.00  0.00    -0.331 N 
HETATM   12  C5  UNL     1      -1.703  -2.637  -0.741  1.00  0.00     0.243 C 
HETATM   13  O1  UNL     1      -0.863  -3.566  -1.001  1.00  0.00    -0.269 OA
HETATM   14  H6  UNL     1      -1.984  -0.962   0.463  1.00  0.00     0.165 HD
BRANCH  12  15
HETATM   15  C4  UNL     1      -2.907  -2.683  -1.499  1.00  0.00     0.074 C 
HETATM   16  C3  UNL     1      -3.716  -1.705  -1.183  1.00  0.00     0.005 C 
BRANCH  16  17
HETATM   17  C2  UNL     1      -4.982  -1.577  -1.836  1.00  0.00    -0.010 C 
HETATM   18  C1  UNL     1      -6.160  -1.147  -2.189  1.00  0.00     0.011 C 
ENDBRANCH  16  17
ENDBRANCH  12  15
ENDBRANCH   1  11
BRANCH   8  19
HETATM   19  C11 UNL     1       2.594   1.569   0.063  1.00  0.00     0.060 A 
HETATM   20  C12 UNL     1       3.092   0.918  -1.041  1.00  0.00     0.032 A 
HETATM   21  C13 UNL     1       3.394   1.553  -2.225  1.00  0.00     0.004 A 
HETATM   22  C14 UNL     1       3.203   2.911  -2.353  1.00  0.00     0.019 A 
HETATM   23  C15 UNL     1       2.708   3.630  -1.286  1.00  0.00     0.013 A 
HETATM   24 BR1  UNL     1       2.439   5.510  -1.446  1.00  0.00    -0.051 Br
HETATM   25  C16 UNL     1       2.422   2.942  -0.125  1.00  0.00     0.050 A 
ENDBRANCH   8  19
TORSDOF 4
