REMARK  5 active torsions:
REMARK  status: ('A' for Active; 'I' for Inactive)
REMARK    1  A    between atoms: C1_2  and  C2_3 
REMARK       I    between atoms: C1_2  and  N1_11 
REMARK    2  A    between atoms: C3_4  and  C4_5 
REMARK    3  A    between atoms: N1_11  and  C10_12 
REMARK    4  A    between atoms: C14_19  and  N4_20 
REMARK    5  A    between atoms: N4_20  and  C15_21 
ROOT
HETATM    1  C10 UNL     1      -0.379  -1.078   1.113  1.00  0.00     0.116 A 
HETATM    2  C11 UNL     1       0.704  -0.664   0.469  1.00  0.00    -0.016 A 
HETATM    3  B1  UNL     1       2.070  -1.360   0.825  1.00  0.00     0.318 B 
HETATM    4  C12 UNL     1       2.002  -2.469   1.902  1.00  0.00     0.020 A 
HETATM    5  N2  UNL     1       3.090  -3.078   2.237  1.00  0.00    -0.257 NA
HETATM    6  C13 UNL     1       4.314  -2.685   1.582  1.00  0.00     0.227 A 
HETATM    7  N3  UNL     1       4.478  -1.802   0.700  1.00  0.00    -0.267 NA
HETATM    8  C14 UNL     1       3.420  -0.994   0.166  1.00  0.00     0.173 A 
HETATM    9  C21 UNL     1       0.675  -2.751   2.475  1.00  0.00     0.134 A 
HETATM   10  N5  UNL     1      -0.375  -2.106   2.097  1.00  0.00    -0.244 NA
ENDROOT
BRANCH   1  11
HETATM   11  N1  UNL     1      -1.629  -0.465   0.810  1.00  0.00    -0.309 N 
HETATM   12  C1  UNL     1      -2.612  -1.369   0.320  1.00  0.00     0.246 C 
HETATM   13  O1  UNL     1      -2.194  -2.556   0.242  1.00  0.00    -0.268 OA
HETATM   14  H8  UNL     1      -1.868   0.546   0.915  1.00  0.00     0.170 HD
BRANCH  12  15
HETATM   15  C2  UNL     1      -3.964  -0.971  -0.056  1.00  0.00     0.075 C 
HETATM   16  C3  UNL     1      -4.465   0.249   0.001  1.00  0.00     0.017 C 
BRANCH  16  17
HETATM   17  C4  UNL     1      -5.819   0.611  -0.382  1.00  0.00    -0.036 A 
HETATM   18  C5  UNL     1      -6.751  -0.268  -0.851  1.00  0.00     0.011 A 
HETATM   19  C6  UNL     1      -8.045   0.090  -1.214  1.00  0.00     0.001 A 
HETATM   20  C7  UNL     1      -8.405   1.405  -1.094  1.00  0.00     0.000 A 
HETATM   21  C8  UNL     1      -7.488   2.322  -0.623  1.00  0.00     0.001 A 
HETATM   22  C9  UNL     1      -6.215   1.922  -0.274  1.00  0.00     0.011 A 
ENDBRANCH  16  17
ENDBRANCH  12  15
ENDBRANCH   1  11
BRANCH   8  23
HETATM   23  N4  UNL     1       3.733   0.421   0.214  1.00  0.00    -0.374 N 
HETATM   24  H12 UNL     1       3.033   1.014   0.680  1.00  0.00     0.161 HD
BRANCH  23  25
HETATM   25  C15 UNL     1       4.919   0.978  -0.338  1.00  0.00     0.030 A 
HETATM   26  C16 UNL     1       5.867   0.202  -0.968  1.00  0.00     0.029 A 
HETATM   27  C17 UNL     1       7.037   0.711  -1.518  1.00  0.00     0.004 A 
HETATM   28  C18 UNL     1       7.226   2.090  -1.407  1.00  0.00     0.019 A 
HETATM   29  C19 UNL     1       6.284   2.901  -0.775  1.00  0.00     0.013 A 
HETATM   30 BR1  UNL     1       6.552   4.784  -0.627  1.00  0.00    -0.051 Br
HETATM   31  C20 UNL     1       5.127   2.337  -0.240  1.00  0.00     0.048 A 
ENDBRANCH  23  25
ENDBRANCH   8  23
TORSDOF 5
