REMARK  5 active torsions:
REMARK  status: ('A' for Active; 'I' for Inactive)
REMARK    1  A    between atoms: C4_7  and  N4_8 
REMARK       I    between atoms: N4_8  and  C5_9 
REMARK    2  A    between atoms: C5_9  and  C6_11 
REMARK    3  A    between atoms: C7_12  and  C8_13 
REMARK    4  A    between atoms: C16_21  and  N5_22 
REMARK    5  A    between atoms: N5_22  and  C17_23 
ROOT
HETATM    1  N1  UNL     1      -3.866  -2.470   5.901  1.00  0.00    -0.170 NA
HETATM    2  C1  UNL     1      -3.816  -2.190   4.781  1.00  0.00     0.206 C 
HETATM    3  N2  UNL     1      -3.742  -1.860   3.410  1.00  0.00    -0.172 NA
HETATM    4  C2  UNL     1      -2.668  -1.411   2.865  1.00  0.00     0.098 A 
HETATM    5  C3  UNL     1      -1.378  -1.169   3.534  1.00  0.00     0.152 A 
HETATM    6  N3  UNL     1      -0.412  -0.720   2.849  1.00  0.00    -0.241 NA
HETATM    7  C4  UNL     1      -0.452  -0.419   1.463  1.00  0.00     0.130 A 
HETATM    8  C14 UNL     1      -1.560  -0.590   0.725  1.00  0.00     0.065 A 
HETATM    9  C15 UNL     1      -2.713  -1.106   1.455  1.00  0.00     0.014 A 
HETATM   10  C16 UNL     1      -3.809  -1.275   0.730  1.00  0.00     0.102 C 
ENDROOT
BRANCH  10  11
HETATM   11  N5  UNL     1      -3.924  -0.993  -0.674  1.00  0.00    -0.365 N 
HETATM   12  H12 UNL     1      -3.372  -1.805  -0.977  1.00  0.00     0.165 HD
BRANCH  11  13
HETATM   13  C17 UNL     1      -4.517  -0.028  -1.520  1.00  0.00     0.033 A 
HETATM   14  C18 UNL     1      -3.803   1.096  -1.877  1.00  0.00     0.029 A 
HETATM   15  C19 UNL     1      -4.295   2.095  -2.700  1.00  0.00     0.004 A 
HETATM   16  C20 UNL     1      -5.597   1.888  -3.158  1.00  0.00     0.019 A 
HETATM   17  C21 UNL     1      -6.350   0.780  -2.829  1.00  0.00     0.013 A 
HETATM   18 BR1  UNL     1      -8.128   0.521  -3.470  1.00  0.00    -0.051 Br
HETATM   19  C22 UNL     1      -5.808  -0.188  -2.002  1.00  0.00     0.048 A 
ENDBRANCH  11  13
ENDBRANCH  10  11
BRANCH   7  20
HETATM   20  N4  UNL     1       0.767   0.076   0.926  1.00  0.00    -0.308 N 
HETATM   21  C5  UNL     1       2.025  -0.575   0.893  1.00  0.00     0.246 C 
HETATM   22  O1  UNL     1       2.191  -1.727   1.368  1.00  0.00    -0.268 OA
HETATM   23  H2  UNL     1       0.700   1.050   0.505  1.00  0.00     0.170 HD
BRANCH  21  24
HETATM   24  C6  UNL     1       3.149   0.100   0.302  1.00  0.00     0.075 C 
HETATM   25  C7  UNL     1       4.347  -0.450   0.238  1.00  0.00     0.017 C 
BRANCH  25  26
HETATM   26  C8  UNL     1       5.538   0.155  -0.340  1.00  0.00    -0.036 A 
HETATM   27  C9  UNL     1       6.757  -0.490  -0.365  1.00  0.00     0.011 A 
HETATM   28  C10 UNL     1       7.883   0.086  -0.913  1.00  0.00     0.001 A 
HETATM   29  C11 UNL     1       7.854   1.346  -1.471  1.00  0.00     0.000 A 
HETATM   30  C12 UNL     1       6.649   2.025  -1.464  1.00  0.00     0.001 A 
HETATM   31  C13 UNL     1       5.557   1.406  -0.905  1.00  0.00     0.011 A 
ENDBRANCH  25  26
ENDBRANCH  21  24
ENDBRANCH   7  20
TORSDOF 5
