REMARK  4 active torsions:
REMARK  status: ('A' for Active; 'I' for Inactive)
REMARK    1  A    between atoms: C2_2  and  C3_3 
REMARK    2  A    between atoms: C2_2  and  C8_8 
REMARK    3  A    between atoms: C3_3  and  C4_4 
REMARK    4  A    between atoms: C4_4  and  C5_5 
REMARK       I    between atoms: C8_8  and  N1_10 
ROOT
HETATM    1  C8  UNL     1       0.864  -0.678   0.005  1.00  0.00     0.361 C 
HETATM    2  O1  UNL     1       0.262  -1.541  -0.687  1.00  0.00    -0.259 OA
HETATM    3  N1  UNL     1       0.245   0.059   1.137  1.00  0.00     0.094 N 
HETATM    4  C9  UNL     1      -1.099  -0.424   1.234  1.00  0.00     0.261 A 
HETATM    5  N2  UNL     1      -1.034  -1.468   2.116  1.00  0.00    -0.233 NA
HETATM    6  C10 UNL     1      -2.098  -2.213   2.468  1.00  0.00     0.151 A 
HETATM    7  C11 UNL     1      -3.326  -1.894   1.894  1.00  0.00     0.090 A 
HETATM    8  N3  UNL     1      -4.343  -2.671   2.274  1.00  0.00    -0.240 NA
HETATM    9  C12 UNL     1      -5.566  -2.469   1.786  1.00  0.00     0.236 A 
HETATM   10  N4  UNL     1      -5.717  -1.464   0.910  1.00  0.00    -0.224 NA
HETATM   11  C13 UNL     1      -4.739  -0.668   0.505  1.00  0.00     0.142 A 
HETATM   12  C14 UNL     1      -3.435  -0.849   0.998  1.00  0.00     0.056 A 
HETATM   13  C15 UNL     1      -2.310  -0.122   0.680  1.00  0.00     0.054 A 
HETATM   14  C16 UNL     1      -1.921   1.017  -0.130  1.00  0.00     0.043 C 
HETATM   15 BR1  UNL     1      -0.335   1.928   0.233  1.00  0.00     0.120 Br
HETATM   16  C17 UNL     1      -2.480   1.654  -1.145  1.00  0.00     0.022 C 
HETATM   17  C18 UNL     1      -3.753   1.458  -1.876  1.00  0.00     0.018 C 
HETATM   18  C19 UNL     1      -4.937   0.881  -1.608  1.00  0.00     0.090 C 
HETATM   19  N5  UNL     1      -5.425   0.198  -0.428  1.00  0.00    -0.350 N 
HETATM   20  H10 UNL     1       0.886   0.723   1.657  1.00  0.00     0.314 HD
HETATM   21  H16 UNL     1      -6.435   0.376  -0.257  1.00  0.00     0.166 HD
ENDROOT
BRANCH   1  22
HETATM   22  C2  UNL     1       2.246  -0.455  -0.400  1.00  0.00     0.006 C 
HETATM   23  C1  UNL     1       2.017  -1.384  -1.344  1.00  0.00     0.045 C 
BRANCH  22  24
HETATM   24  C3  UNL     1       3.623  -0.088  -0.638  1.00  0.00     0.054 C 
BRANCH  24  25
HETATM   25  C4  UNL     1       4.505   0.733  -0.125  1.00  0.00    -0.017 C 
BRANCH  25  26
HETATM   26  C5  UNL     1       5.182   1.752   0.709  1.00  0.00    -0.008 C 
HETATM   27  C6  UNL     1       6.434   2.071   0.475  1.00  0.00    -0.031 C 
HETATM   28  C7  UNL     1       7.083   1.355  -0.648  1.00  0.00     0.036 C 
ENDBRANCH  25  26
ENDBRANCH  24  25
ENDBRANCH  22  24
ENDBRANCH   1  22
TORSDOF 4
