REMARK  2 active torsions:
REMARK  status: ('A' for Active; 'I' for Inactive)
REMARK    1  A    between atoms: C13_16  and  N3_17 
REMARK    2  A    between atoms: N3_17  and  C14_18 
ROOT
HETATM    1  C1  UNL     1      -5.543   2.144   1.422  1.00  0.00     0.044 C 
HETATM    2  C2  UNL     1      -4.253   1.394   1.184  1.00  0.00    -0.079 A 
HETATM    3  C3  UNL     1      -2.959   1.507   1.174  1.00  0.00     0.010 A 
HETATM    4  C4  UNL     1      -2.155   0.293   0.825  1.00  0.00    -0.046 A 
HETATM    5  C5  UNL     1      -3.113  -0.634   0.602  1.00  0.00    -0.064 A 
HETATM    6  C6  UNL     1      -3.342  -2.064   0.220  1.00  0.00     0.116 C 
HETATM    7  C7  UNL     1      -2.291  -2.663  -0.644  1.00  0.00     0.360 A 
HETATM    8  O1  UNL     1      -1.606  -1.855  -0.031  1.00  0.00    -0.146 OA
HETATM    9  N1  UNL     1      -0.901  -2.693  -1.052  1.00  0.00     0.109 N 
HETATM   10  C8  UNL     1       0.383  -2.111  -0.713  1.00  0.00     0.246 C 
HETATM   11  C9  UNL     1       0.642  -1.305   0.284  1.00  0.00    -0.009 C 
HETATM   12  C10 UNL     1       0.057  -0.599   1.490  1.00  0.00     0.054 C 
HETATM   13  C11 UNL     1      -0.719   0.605   0.905  1.00  0.00     0.063 C 
HETATM   14  C12 UNL     1      -0.029   0.941  -0.403  1.00  0.00     0.096 C 
HETATM   15  N2  UNL     1       1.268   0.801  -0.348  1.00  0.00    -0.275 NA
HETATM   16  C13 UNL     1       1.872  -0.502   0.030  1.00  0.00     0.236 C 
HETATM   17  C20 UNL     1      -4.471  -0.000   0.850  1.00  0.00     0.068 A 
HETATM   18  H7  UNL     1      -1.024  -3.396  -1.842  1.00  0.00     0.328 HD
ENDROOT
BRANCH  16  19
HETATM   19  N3  UNL     1       2.743  -0.970  -0.984  1.00  0.00    -0.364 N 
HETATM   20  H14 UNL     1       2.833  -1.756  -1.695  1.00  0.00     0.162 HD
BRANCH  19  21
HETATM   21  C14 UNL     1       3.903  -0.119  -1.116  1.00  0.00     0.031 A 
HETATM   22  C15 UNL     1       4.924  -0.322  -2.036  1.00  0.00     0.029 A 
HETATM   23  C16 UNL     1       6.028   0.449  -2.188  1.00  0.00     0.004 A 
HETATM   24  C17 UNL     1       6.190   1.533  -1.385  1.00  0.00     0.019 A 
HETATM   25  C18 UNL     1       5.246   1.842  -0.432  1.00  0.00     0.013 A 
HETATM   26 BR1  UNL     1       5.439   3.350   0.708  1.00  0.00    -0.051 Br
HETATM   27  C19 UNL     1       4.158   1.012  -0.342  1.00  0.00     0.048 A 
ENDBRANCH  19  21
ENDBRANCH  16  19
TORSDOF 2
