REMARK  7 active torsions:
REMARK  status: ('A' for Active; 'I' for Inactive)
REMARK    1  A    between atoms: C2_2  and  C3_3 
REMARK    2  A    between atoms: C3_3  and  C4_4 
REMARK       I    between atoms: C4_4  and  N1_6 
REMARK    3  A    between atoms: N1_6  and  C5_7 
REMARK    4  A    between atoms: C7_9  and  C8_10 
REMARK    5  A    between atoms: C11_15  and  C12_16 
REMARK    6  A    between atoms: C12_16  and  C13_17 
REMARK    7  A    between atoms: C14_18  and  C15_20 
ROOT
HETATM    1  C8  UNL     1      -0.509  -0.020   0.055  1.00  0.00     0.036 C 
HETATM    2  C9  UNL     1       0.346  -0.358  -0.897  1.00  0.00     0.083 A 
HETATM    3  N2  UNL     1       0.052  -0.560  -2.274  1.00  0.00    -0.240 NA
HETATM    4  C10 UNL     1       1.170  -0.882  -2.879  1.00  0.00     0.234 A 
HETATM    5  N3  UNL     1       2.214  -0.897  -1.914  1.00  0.00    -0.244 NA
HETATM    6  C11 UNL     1       1.774  -0.594  -0.734  1.00  0.00     0.068 A 
ENDROOT
BRANCH   1   7
HETATM    7  C7  UNL     1      -1.918   0.185  -0.261  1.00  0.00     0.027 C 
HETATM    8  C5  UNL     1      -2.851   0.526   0.631  1.00  0.00     0.008 C 
HETATM    9  C6  UNL     1      -2.531   0.733   2.054  1.00  0.00     0.068 C 
BRANCH   8  10
HETATM   10  N1  UNL     1      -4.220   0.716   0.274  1.00  0.00    -0.328 N 
HETATM   11  C4  UNL     1      -5.095  -0.159   0.959  1.00  0.00     0.246 C 
HETATM   12  O1  UNL     1      -4.955  -1.068   1.812  1.00  0.00    -0.268 OA
HETATM   13  H4  UNL     1      -4.655   1.384  -0.397  1.00  0.00     0.169 HD
BRANCH  11  14
HETATM   14  C3  UNL     1      -6.536  -0.105   0.717  1.00  0.00     0.085 C 
BRANCH  14  15
HETATM   15  C2  UNL     1      -7.107  -0.077  -0.482  1.00  0.00    -0.031 C 
HETATM   16  C1  UNL     1      -7.203  -0.073  -1.808  1.00  0.00     0.024 C 
ENDBRANCH  14  15
ENDBRANCH  11  14
ENDBRANCH   8  10
ENDBRANCH   1   7
BRANCH   6  17
HETATM   17  C12 UNL     1       2.542  -0.502   0.531  1.00  0.00     0.090 C 
BRANCH  17  18
HETATM   18  C13 UNL     1       3.983  -0.811   0.321  1.00  0.00    -0.006 C 
HETATM   19  C14 UNL     1       4.935   0.071   0.594  1.00  0.00    -0.015 C 
HETATM   20 BR1  UNL     1       4.501   1.799   1.276  1.00  0.00    -0.056 Br
BRANCH  19  21
HETATM   21  C15 UNL     1       6.363  -0.285   0.367  1.00  0.00     0.041 C 
HETATM   22  C16 UNL     1       6.886   0.729  -0.644  1.00  0.00     0.010 C 
ENDBRANCH  19  21
ENDBRANCH  17  18
ENDBRANCH   6  17
TORSDOF 7
