REMARK  6 active torsions:
REMARK  status: ('A' for Active; 'I' for Inactive)
REMARK    1  A    between atoms: C2_2  and  C3_3 
REMARK       I    between atoms: C3_3  and  N1_5 
REMARK    2  A    between atoms: N1_5  and  C4_6 
REMARK    3  A    between atoms: C4_6  and  S1_23 
REMARK    4  A    between atoms: C5_7  and  C6_8 
REMARK    5  A    between atoms: C9_11  and  N2_12 
REMARK    6  A    between atoms: N2_12  and  C10_13 
ROOT
HETATM    1  C6  UNL     1      -0.509  -1.557  -1.308  1.00  0.00     0.030 C 
HETATM    2  C7  UNL     1       0.711  -1.233  -0.917  1.00  0.00     0.043 A 
HETATM    3  C8  UNL     1       0.833  -0.150   0.073  1.00  0.00     0.137 A 
HETATM    4  C9  UNL     1       2.257   0.066   0.378  1.00  0.00     0.111 A 
HETATM    5  N3  UNL     1       3.204  -0.619  -0.168  1.00  0.00    -0.228 NA
HETATM    6  C16 UNL     1       3.013  -1.639  -1.106  1.00  0.00     0.235 A 
HETATM    7  N4  UNL     1       1.807  -1.940  -1.472  1.00  0.00    -0.246 NA
ENDROOT
BRANCH   1   8
HETATM    8  C5  UNL     1      -1.729  -0.924  -0.832  1.00  0.00     0.039 C 
HETATM    9  C4  UNL     1      -2.953  -1.237  -1.212  1.00  0.00     0.072 C 
BRANCH   9  10
HETATM   10  N1  UNL     1      -4.166  -0.656  -0.784  1.00  0.00    -0.318 N 
HETATM   11  C3  UNL     1      -4.358   0.393   0.150  1.00  0.00     0.245 C 
HETATM   12  O1  UNL     1      -3.380   0.920   0.704  1.00  0.00    -0.268 OA
HETATM   13  H4  UNL     1      -5.062  -1.004  -1.168  1.00  0.00     0.169 HD
BRANCH  11  14
HETATM   14  C2  UNL     1      -5.668   0.906   0.509  1.00  0.00     0.064 C 
HETATM   15  C1  UNL     1      -6.757   0.398  -0.037  1.00  0.00     0.017 C 
ENDBRANCH  11  14
ENDBRANCH   9  10
BRANCH   9  16
HETATM   16  S1  UNL     1      -3.023  -2.556  -2.411  1.00  0.00    -0.117 SA
HETATM   17  C17 UNL     1      -4.763  -2.891  -2.850  1.00  0.00     0.097 C 
ENDBRANCH   9  16
ENDBRANCH   1   8
BRANCH   4  18
HETATM   18  N2  UNL     1       2.547   1.089   1.325  1.00  0.00    -0.344 N 
HETATM   19  H9  UNL     1       1.837   1.549   1.933  1.00  0.00     0.167 HD
BRANCH  18  20
HETATM   20  C10 UNL     1       3.884   1.576   1.515  1.00  0.00     0.034 A 
HETATM   21  C11 UNL     1       4.599   0.894   2.481  1.00  0.00     0.029 A 
HETATM   22  C12 UNL     1       5.902   1.195   2.827  1.00  0.00     0.004 A 
HETATM   23  C13 UNL     1       6.520   2.255   2.151  1.00  0.00     0.019 A 
HETATM   24  C14 UNL     1       5.800   2.931   1.187  1.00  0.00     0.013 A 
HETATM   25 BR1  UNL     1       6.589   4.382   0.234  1.00  0.00    -0.051 Br
HETATM   26  C15 UNL     1       4.499   2.619   0.852  1.00  0.00     0.048 A 
ENDBRANCH  18  20
ENDBRANCH   4  18
TORSDOF 6
