REMARK  5 active torsions:
REMARK  status: ('A' for Active; 'I' for Inactive)
REMARK    1  A    between atoms: C2_2  and  C3_4 
REMARK    2  A    between atoms: C3_4  and  C4_5 
REMARK       I    between atoms: C4_5  and  N1_7 
REMARK    3  A    between atoms: N1_7  and  C5_8 
REMARK    4  A    between atoms: C10_15  and  N4_16 
REMARK    5  A    between atoms: N4_16  and  C11_17 
ROOT
HETATM    1  C5  UNL     1       1.721   0.297   1.333  1.00  0.00     0.035 A 
HETATM    2  C6  UNL     1       2.215   1.472   1.879  1.00  0.00     0.032 A 
HETATM    3  C7  UNL     1       1.380   2.553   2.032  1.00  0.00     0.035 A 
HETATM    4  C8  UNL     1       0.072   2.432   1.636  1.00  0.00     0.072 A 
HETATM    5  N2  UNL     1      -0.676   3.545   1.827  1.00  0.00    -0.241 NA
HETATM    6  C9  UNL     1      -1.958   3.508   1.469  1.00  0.00     0.236 A 
HETATM    7  N3  UNL     1      -2.470   2.395   0.940  1.00  0.00    -0.224 NA
HETATM    8  C10 UNL     1      -1.827   1.247   0.709  1.00  0.00     0.142 A 
HETATM    9  C17 UNL     1      -0.509   1.322   1.090  1.00  0.00     0.041 A 
HETATM   10  C18 UNL     1       0.388   0.274   0.965  1.00  0.00     0.047 A 
ENDROOT
BRANCH   8  11
HETATM   11  N4  UNL     1      -2.337   0.057   0.153  1.00  0.00    -0.340 N 
HETATM   12  H10 UNL     1      -1.735  -0.762   0.032  1.00  0.00     0.167 HD
BRANCH  11  13
HETATM   13  C11 UNL     1      -3.651  -0.194  -0.293  1.00  0.00     0.035 A 
HETATM   14  C12 UNL     1      -4.670   0.721  -0.176  1.00  0.00     0.029 A 
HETATM   15  C13 UNL     1      -5.955   0.489  -0.610  1.00  0.00     0.004 A 
HETATM   16  C14 UNL     1      -6.297  -0.703  -1.202  1.00  0.00     0.019 A 
HETATM   17  C15 UNL     1      -5.307  -1.644  -1.339  1.00  0.00     0.013 A 
HETATM   18 BR1  UNL     1      -5.659  -3.328  -2.138  1.00  0.00    -0.051 Br
HETATM   19  C16 UNL     1      -4.037  -1.373  -0.891  1.00  0.00     0.048 A 
ENDBRANCH  11  13
ENDBRANCH   8  11
BRANCH   1  20
HETATM   20  N1  UNL     1       2.546  -0.859   1.156  1.00  0.00    -0.327 N 
HETATM   21  C4  UNL     1       3.227  -0.923  -0.118  1.00  0.00     0.229 C 
HETATM   22  O2  UNL     1       3.207  -0.122  -1.085  1.00  0.00    -0.273 OA
HETATM   23  H6  UNL     1       2.699  -1.639   1.838  1.00  0.00     0.169 HD
BRANCH  21  24
HETATM   24  C3  UNL     1       4.129  -2.051  -0.490  1.00  0.00     0.180 C 
BRANCH  24  25
HETATM   25  C2  UNL     1       5.514  -1.569  -0.750  1.00  0.00     0.131 C 
HETATM   26  C1  UNL     1       6.283  -1.783  -2.033  1.00  0.00     0.091 C 
HETATM   27  O1  UNL     1       5.929  -0.974   0.230  1.00  0.00    -0.298 OA
ENDBRANCH  24  25
ENDBRANCH  21  24
ENDBRANCH   1  20
TORSDOF 5
