REMARK  0 active torsions:
REMARK  status: ('A' for Active; 'I' for Inactive)
ROOT
HETATM    1  O1  UNL     1      -0.675   2.635  -0.584  1.00  0.00    -0.268 OA
HETATM    2  C1  UNL     1       0.496   2.189  -0.571  1.00  0.00     0.245 C 
HETATM    3  C2  UNL     1       1.044   3.504  -0.520  1.00  0.00     0.080 C 
HETATM    4  C3  UNL     1       2.336   3.623  -0.390  1.00  0.00     0.089 C 
HETATM    5  C4  UNL     1       3.366   2.606  -0.271  1.00  0.00     0.307 C 
HETATM    6  O2  UNL     1       2.595   1.622  -0.309  1.00  0.00    -0.258 OA
HETATM    7  O3  UNL     1       4.320   1.655  -0.160  1.00  0.00    -0.170 OA
HETATM    8  N1  UNL     1       4.072   0.333  -0.112  1.00  0.00    -0.121 NA
HETATM    9  C5  UNL     1       3.368  -0.071   0.941  1.00  0.00     0.111 C 
HETATM   10 BR1  UNL     1       2.619   0.904   2.436  1.00  0.00    -0.031 Br
HETATM   11  C6  UNL     1       3.097  -1.508   1.053  1.00  0.00     0.096 C 
HETATM   12  C7  UNL     1       1.729  -1.890   0.649  1.00  0.00    -0.024 C 
HETATM   13  C8  UNL     1       0.474  -2.387   0.748  1.00  0.00    -0.025 C 
HETATM   14  C9  UNL     1      -0.547  -2.449  -0.293  1.00  0.00     0.082 C 
HETATM   15  C10 UNL     1      -1.815  -1.808  -0.050  1.00  0.00     0.033 C 
HETATM   16  N2  UNL     1      -2.693  -2.624   0.409  1.00  0.00    -0.249 NA
HETATM   17  C11 UNL     1      -4.046  -2.456   0.731  1.00  0.00     0.233 C 
HETATM   18  N3  UNL     1      -4.614  -1.272   0.491  1.00  0.00    -0.245 NA
HETATM   19  C12 UNL     1      -3.692  -0.354  -0.138  1.00  0.00     0.051 A 
HETATM   20  C13 UNL     1      -3.937   0.597  -1.061  1.00  0.00     0.030 A 
HETATM   21  C14 UNL     1      -2.628   1.193  -1.315  1.00  0.00     0.028 A 
HETATM   22  C15 UNL     1      -1.627   0.674  -0.624  1.00  0.00     0.028 A 
HETATM   23  N4  UNL     1      -0.257   1.030  -0.622  1.00  0.00    -0.326 N 
HETATM   24  C16 UNL     1      -2.263  -0.401   0.106  1.00  0.00     0.135 A 
HETATM   25  H12 UNL     1       0.115   0.115  -0.732  1.00  0.00     0.169 HD
ENDROOT
TORSDOF 0
