REMARK  8 active torsions:
REMARK  status: ('A' for Active; 'I' for Inactive)
REMARK    1  A    between atoms: C2_2  and  C3_3 
REMARK    2  A    between atoms: C3_3  and  C4_4 
REMARK    3  A    between atoms: C8_9  and  N2_10 
REMARK    4  A    between atoms: N2_10  and  C9_11 
REMARK    5  A    between atoms: C9_11  and  C10_12 
REMARK    6  A    between atoms: C10_12  and  C11_13 
REMARK    7  A    between atoms: C11_13  and  C12_14 
REMARK    8  A    between atoms: C12_14  and  C13_15 
ROOT
HETATM    1  C4  UNL     1      -4.250   0.845  -0.971  1.00  0.00     0.014 C 
HETATM    2  C5  UNL     1      -3.159   0.565  -0.261  1.00  0.00    -0.038 C 
HETATM    3  C6  UNL     1      -2.066   0.434  -1.254  1.00  0.00     0.156 C 
HETATM    4  N1  UNL     1      -0.750   0.542  -0.647  1.00  0.00    -0.379 N 
HETATM    5  C7  UNL     1      -0.331   0.336   0.694  1.00  0.00     0.128 A 
HETATM    6  C8  UNL     1       1.056   0.231   0.649  1.00  0.00     0.160 A 
HETATM    7  N3  UNL     1       1.681   0.033   1.840  1.00  0.00    -0.222 NA
HETATM    8  C15 UNL     1       0.984  -0.055   2.990  1.00  0.00     0.238 A 
HETATM    9  N4  UNL     1      -0.368   0.053   2.994  1.00  0.00    -0.216 NA
HETATM   10  C16 UNL     1      -1.043   0.250   1.845  1.00  0.00     0.197 A 
HETATM   11  O1  UNL     1      -2.404   0.337   2.020  1.00  0.00    -0.328 OA
HETATM   12  C17 UNL     1      -3.487   0.509   1.165  1.00  0.00     0.213 C 
HETATM   13  H7  UNL     1       0.008   0.823  -1.338  1.00  0.00     0.160 HD
ENDROOT
BRANCH   6  14
HETATM   14  N2  UNL     1       1.811   0.307  -0.566  1.00  0.00    -0.342 N 
HETATM   15  H8  UNL     1       2.125   1.087  -1.203  1.00  0.00     0.167 HD
BRANCH  14  16
HETATM   16  C9  UNL     1       2.121  -1.047  -0.832  1.00  0.00     0.146 C 
BRANCH  16  17
HETATM   17  C10 UNL     1       3.280  -1.390  -0.326  1.00  0.00    -0.111 C 
BRANCH  17  18
HETATM   18  C11 UNL     1       4.483  -1.610   0.183  1.00  0.00     0.057 C 
BRANCH  18  19
HETATM   19  C12 UNL     1       5.577  -1.388  -0.703  1.00  0.00     0.004 C 
BRANCH  19  20
HETATM   20  C13 UNL     1       6.317  -0.324  -0.900  1.00  0.00    -0.030 C 
HETATM   21  C14 UNL     1       6.105   0.921  -0.161  1.00  0.00     0.036 C 
ENDBRANCH  19  20
ENDBRANCH  18  19
ENDBRANCH  17  18
ENDBRANCH  16  17
ENDBRANCH  14  16
ENDBRANCH   6  14
BRANCH   1  22
HETATM   22  C3  UNL     1      -5.577   1.062  -0.422  1.00  0.00     0.051 C 
BRANCH  22  23
HETATM   23  C2  UNL     1      -6.332  -0.011  -0.402  1.00  0.00    -0.155 C 
HETATM   24  C1  UNL     1      -6.972  -1.159  -0.588  1.00  0.00     0.096 C 
ENDBRANCH  22  23
ENDBRANCH   1  22
TORSDOF 8
