REMARK  1 active torsions:
REMARK  status: ('A' for Active; 'I' for Inactive)
REMARK    1  A    between atoms: C11_15  and  O2_16 
ROOT
HETATM    1  C1  UNL     1       0.968  -4.006   0.361  1.00  0.00     0.039 C 
HETATM    2  C2  UNL     1      -0.250  -3.202   0.110  1.00  0.00     0.007 C 
HETATM    3  C3  UNL     1      -0.952  -2.137  -0.201  1.00  0.00     0.081 C 
HETATM    4  O1  UNL     1      -2.370  -1.838  -0.317  1.00  0.00    -0.290 OA
HETATM    5  C4  UNL     1      -2.762  -0.576   0.249  1.00  0.00     0.202 A 
HETATM    6  N1  UNL     1      -3.631  -0.495   1.300  1.00  0.00    -0.215 NA
HETATM    7  C5  UNL     1      -3.927   0.726   1.773  1.00  0.00     0.238 A 
HETATM    8  N2  UNL     1      -3.424   1.898   1.282  1.00  0.00    -0.222 NA
HETATM    9  C6  UNL     1      -2.554   1.839   0.231  1.00  0.00     0.160 A 
HETATM   10  C7  UNL     1      -2.210   0.594  -0.309  1.00  0.00     0.129 A 
HETATM   11  N3  UNL     1      -1.322   0.774  -1.445  1.00  0.00    -0.379 N 
HETATM   12  C8  UNL     1      -0.211  -0.151  -1.734  1.00  0.00     0.161 C 
HETATM   13  C9  UNL     1      -0.016  -1.002  -0.490  1.00  0.00    -0.008 C 
HETATM   14  C10 UNL     1       0.928  -0.802   0.413  1.00  0.00     0.021 C 
HETATM   15  C11 UNL     1       1.813   0.342   0.068  1.00  0.00     0.174 C 
HETATM   16  C13 UNL     1       1.030   1.620   0.020  1.00  0.00    -0.029 C 
HETATM   17  C14 UNL     1       0.129   2.099   0.795  1.00  0.00     0.005 C 
HETATM   18  C15 UNL     1      -0.530   2.736  -0.122  1.00  0.00     0.026 C 
HETATM   19  C16 UNL     1       0.800   2.881  -0.722  1.00  0.00     0.096 C 
HETATM   20  N4  UNL     1      -1.936   3.041  -0.275  1.00  0.00    -0.341 N 
HETATM   21  H6  UNL     1      -1.471   1.580  -2.081  1.00  0.00     0.160 HD
HETATM   22  H16 UNL     1      -2.214   3.944  -0.668  1.00  0.00     0.167 HD
ENDROOT
BRANCH  15  23
HETATM   23  O2  UNL     1       2.822   0.369   1.022  1.00  0.00    -0.382 OA
HETATM   24  C12 UNL     1       4.094   0.264   0.530  1.00  0.00     0.202 C 
ENDBRANCH  15  23
TORSDOF 1
