REMARK  6 active torsions:
REMARK  status: ('A' for Active; 'I' for Inactive)
REMARK    1  A    between atoms: C1_2  and  O2_3 
REMARK    2  A    between atoms: C1_2  and  C2_4 
REMARK    3  A    between atoms: C2_4  and  C3_5 
REMARK       I    between atoms: C3_5  and  N1_7 
REMARK    4  A    between atoms: N1_7  and  C4_8 
REMARK    5  A    between atoms: C9_15  and  N4_16 
REMARK    6  A    between atoms: N4_16  and  P1_17 
ROOT
HETATM    1  C4  UNL     1       1.852  -0.046   0.729  1.00  0.00     0.035 A 
HETATM    2  C5  UNL     1       2.174  -0.613   1.964  1.00  0.00     0.032 A 
HETATM    3  C6  UNL     1       1.330  -1.534   2.588  1.00  0.00     0.035 A 
HETATM    4  C7  UNL     1       0.155  -1.873   1.947  1.00  0.00     0.072 A 
HETATM    5  N2  UNL     1      -0.726  -2.752   2.467  1.00  0.00    -0.241 NA
HETATM    6  C8  UNL     1      -1.866  -3.069   1.825  1.00  0.00     0.236 A 
HETATM    7  N3  UNL     1      -2.155  -2.510   0.636  1.00  0.00    -0.222 NA
HETATM    8  C9  UNL     1      -1.335  -1.623   0.042  1.00  0.00     0.162 A 
HETATM    9  C15 UNL     1      -0.171  -1.313   0.719  1.00  0.00     0.043 A 
HETATM   10  C16 UNL     1       0.668  -0.406   0.112  1.00  0.00     0.047 A 
ENDROOT
BRANCH   1  11
HETATM   11  N1  UNL     1       2.862   0.849   0.313  1.00  0.00    -0.327 N 
HETATM   12  C3  UNL     1       3.934   0.309  -0.477  1.00  0.00     0.232 C 
HETATM   13  O3  UNL     1       3.939  -0.925  -0.769  1.00  0.00    -0.273 OA
HETATM   14  H4  UNL     1       3.022   1.865   0.452  1.00  0.00     0.169 HD
BRANCH  12  15
HETATM   15  C2  UNL     1       5.132   0.882  -1.084  1.00  0.00     0.212 C 
BRANCH  15  16
HETATM   16  C1  UNL     1       5.312   2.337  -0.856  1.00  0.00     0.148 C 
HETATM   17  O1  UNL     1       4.712   3.297  -0.263  1.00  0.00    -0.650 OA
BRANCH  16  18
HETATM   18  O2  UNL     1       6.472   2.791  -1.467  1.00  0.00    -0.776 OA
HETATM   19  H1  UNL     1       6.797   3.742  -1.489  1.00  0.00     0.167 HD
ENDBRANCH  16  18
ENDBRANCH  15  16
ENDBRANCH  12  15
ENDBRANCH   1  11
BRANCH   8  20
HETATM   20  N4  UNL     1      -1.641  -1.021  -1.232  1.00  0.00    -0.246 NA
BRANCH  20  21
HETATM   21  P1  UNL     1      -3.202  -0.876  -1.538  1.00  0.00    -0.013 P 
HETATM   22  C10 UNL     1      -3.499   0.522  -2.623  1.00  0.00     0.041 A 
HETATM   23  C11 UNL     1      -4.189   1.633  -2.411  1.00  0.00     0.012 A 
HETATM   24 BR1  UNL     1      -4.376   3.005  -3.724  1.00  0.00    -0.051 Br
HETATM   25  C12 UNL     1      -4.795   1.737  -1.111  1.00  0.00     0.015 A 
HETATM   26  C13 UNL     1      -4.714   0.846  -0.158  1.00  0.00    -0.019 A 
HETATM   27  C14 UNL     1      -4.057  -0.498   0.011  1.00  0.00     0.080 A 
HETATM   28  H8  UNL     1      -3.722  -2.054  -2.066  1.00  0.00     0.081 HD
ENDBRANCH  20  21
ENDBRANCH   8  20
TORSDOF 6
