REMARK  10 active torsions:
REMARK  status: ('A' for Active; 'I' for Inactive)
REMARK    1  A    between atoms: C2_2  and  O1_3 
REMARK    2  A    between atoms: O1_3  and  C3_4 
REMARK    3  A    between atoms: C3_4  and  C4_5 
REMARK    4  A    between atoms: C5_6  and  P1_7 
REMARK    5  A    between atoms: P1_7  and  N1_8 
REMARK    6  A    between atoms: N1_8  and  C6_9 
REMARK    7  A    between atoms: C6_9  and  C7_10 
REMARK    8  A    between atoms: C7_10  and  C8_11 
REMARK    9  A    between atoms: C11_16  and  C12_17 
REMARK   10  A    between atoms: C12_17  and  C13_18 
ROOT
HETATM    1  C8  UNL     1      -2.149  -0.491  -2.197  1.00  0.00     0.008 A 
HETATM    2  C9  UNL     1      -1.690  -0.830  -3.444  1.00  0.00     0.131 A 
HETATM    3  N2  UNL     1      -2.427  -1.629  -4.196  1.00  0.00    -0.253 NA
HETATM    4  C10 UNL     1      -3.608  -2.119  -3.782  1.00  0.00     0.233 A 
HETATM    5  N3  UNL     1      -4.071  -1.797  -2.567  1.00  0.00    -0.241 NA
HETATM    6  C11 UNL     1      -3.353  -0.988  -1.771  1.00  0.00     0.070 A 
ENDROOT
BRANCH   1   7
HETATM    7  C7  UNL     1      -1.449   0.293  -1.428  1.00  0.00     0.003 C 
BRANCH   7   8
HETATM    8  C6  UNL     1      -0.144   0.952  -1.640  1.00  0.00     0.119 C 
BRANCH   8   9
HETATM    9  N1  UNL     1       0.796   0.640  -0.551  1.00  0.00    -0.295 NA
HETATM   10  H11 UNL     1       0.431   0.933   0.361  1.00  0.00     0.127 HD
BRANCH   9  11
HETATM   11  P1  UNL     1       1.002  -1.135  -0.547  1.00  0.00    -0.033 P 
HETATM   12  H10 UNL     1       1.367  -1.656  -1.851  1.00  0.00     0.078 HD
BRANCH  11  13
HETATM   13  C5  UNL     1       2.344  -1.561   0.621  1.00  0.00     0.017 C 
HETATM   14  C4  UNL     1       3.504  -0.962   0.853  1.00  0.00     0.001 C 
BRANCH  14  15
HETATM   15  C3  UNL     1       3.897   0.247   0.121  1.00  0.00     0.195 C 
BRANCH  15  16
HETATM   16  O1  UNL     1       4.120   1.355   0.929  1.00  0.00    -0.388 OA
BRANCH  16  17
HETATM   17  C2  UNL     1       5.141   1.058   1.817  1.00  0.00     0.163 C 
HETATM   18  C1  UNL     1       6.398   0.724   1.002  1.00  0.00     0.033 C 
ENDBRANCH  16  17
ENDBRANCH  15  16
ENDBRANCH  14  15
ENDBRANCH  11  13
ENDBRANCH   9  11
ENDBRANCH   8   9
ENDBRANCH   7   8
ENDBRANCH   1   7
BRANCH   6  19
HETATM   19  C12 UNL     1      -3.921  -0.753  -0.608  1.00  0.00     0.044 C 
BRANCH  19  20
HETATM   20  C13 UNL     1      -3.769  -0.049   0.649  1.00  0.00    -0.033 A 
HETATM   21  C14 UNL     1      -4.244   1.237   0.815  1.00  0.00     0.011 A 
HETATM   22  C15 UNL     1      -4.137   1.996   1.986  1.00  0.00     0.002 A 
HETATM   23  C16 UNL     1      -3.489   1.315   2.991  1.00  0.00     0.019 A 
HETATM   24  C17 UNL     1      -2.968   0.044   2.966  1.00  0.00     0.011 A 
HETATM   25 BR1  UNL     1      -2.096  -0.750   4.459  1.00  0.00    -0.051 Br
HETATM   26  C18 UNL     1      -3.129  -0.626   1.752  1.00  0.00     0.030 A 
ENDBRANCH  19  20
ENDBRANCH   6  19
TORSDOF 10
