REMARK  3 active torsions:
REMARK  status: ('A' for Active; 'I' for Inactive)
REMARK    1  A    between atoms: N1_2  and  C3_4 
REMARK    2  A    between atoms: C3_4  and  C4_5 
REMARK    3  A    between atoms: C4_5  and  N2_6 
ROOT
HETATM    1  N2  UNL     1       0.351   0.251  -0.484  1.00  0.00     0.136 NA
HETATM    2  C5  UNL     1      -0.250  -0.728   0.289  1.00  0.00     0.319 C 
HETATM    3  C6  UNL     1      -1.592  -1.245   0.038  1.00  0.00     0.027 A 
HETATM    4  C7  UNL     1      -1.612  -2.227  -0.889  1.00  0.00     0.095 A 
HETATM    5  N3  UNL     1      -2.672  -2.988  -1.429  1.00  0.00    -0.393 N 
HETATM    6  C8  UNL     1      -3.971  -2.818  -0.876  1.00  0.00     0.169 A 
HETATM    7  C9  UNL     1      -3.990  -1.746   0.132  1.00  0.00     0.047 A 
HETATM    8 BR1  UNL     1      -5.693  -1.410   0.852  1.00  0.00    -0.050 Br
HETATM    9  C10 UNL     1      -2.986  -1.037   0.557  1.00  0.00     0.132 A 
HETATM   10  N4  UNL     1      -3.191  -0.057   1.403  1.00  0.00    -0.398 NA
HETATM   11  C11 UNL     1      -3.544   0.787   2.179  1.00  0.00     0.299 C 
HETATM   12  N5  UNL     1      -2.256   1.378   2.315  1.00  0.00    -0.233 NA
HETATM   13  C12 UNL     1      -1.548   1.806   1.297  1.00  0.00     0.074 C 
HETATM   14  C13 UNL     1      -0.242   2.384   1.521  1.00  0.00     0.030 C 
HETATM   15  C14 UNL     1       0.316   2.579   0.299  1.00  0.00     0.048 C 
HETATM   16  C15 UNL     1      -0.102   1.545  -0.741  1.00  0.00     0.350 C 
HETATM   17  C16 UNL     1       0.475   1.988  -2.094  1.00  0.00     0.088 C 
HETATM   18  N6  UNL     1      -1.555   1.714  -0.960  1.00  0.00     0.068 NA
HETATM   19  C17 UNL     1      -2.256   1.452   0.087  1.00  0.00     0.725 C 
HETATM   20  H14 UNL     1      -2.601  -3.671  -2.204  1.00  0.00     0.159 HD
ENDROOT
BRANCH   1  21
HETATM   21  C4  UNL     1       1.753   0.392  -0.022  1.00  0.00     0.306 C 
BRANCH  21  22
HETATM   22  C3  UNL     1       2.592  -0.747  -0.453  1.00  0.00     0.301 C 
BRANCH  22  23
HETATM   23  N1  UNL     1       3.982  -0.614  -0.018  1.00  0.00     0.081 N 
HETATM   24  C1  UNL     1       4.093  -0.756   1.425  1.00  0.00     0.309 C 
HETATM   25  C2  UNL     1       4.568   0.632  -0.464  1.00  0.00     0.309 C 
ENDBRANCH  22  23
ENDBRANCH  21  22
ENDBRANCH   1  21
TORSDOF 3
