REMARK  0 active torsions:
REMARK  status: ('A' for Active; 'I' for Inactive)
ROOT
HETATM    1  C1  UNL     1      -3.872  -1.669  -0.610  1.00  0.00     0.032 C 
HETATM    2  C2  UNL     1      -2.886  -0.886  -1.555  1.00  0.00     0.075 C 
HETATM    3  C3  UNL     1      -3.798   0.296  -1.979  1.00  0.00     0.036 C 
HETATM    4  C4  UNL     1      -3.842   1.214  -0.749  1.00  0.00    -0.011 A 
HETATM    5  O1  UNL     1      -3.405   1.999   0.123  1.00  0.00     0.000 OA
HETATM    6  O2  UNL     1      -3.342   2.113   0.250  1.00  0.00     0.000 OA
HETATM    7  C5  UNL     1      -2.026   2.530   0.154  1.00  0.00     0.031 A 
HETATM    8  C6  UNL     1      -1.396   2.824   1.422  1.00  0.00    -0.026 C 
HETATM    9  C7  UNL     1      -0.565   1.837   1.155  1.00  0.00     0.011 C 
HETATM   10  C8  UNL     1      -0.079   0.755   0.309  1.00  0.00     0.030 C 
HETATM   11  C9  UNL     1       0.998   0.139   0.845  1.00  0.00     0.135 C 
HETATM   12  N1  UNL     1       2.046  -0.778   0.947  1.00  0.00    -0.224 NA
HETATM   13  C10 UNL     1       2.603  -1.632   0.189  1.00  0.00     0.076 C 
HETATM   14  C11 UNL     1       3.756  -2.388   0.858  1.00  0.00     0.083 C 
HETATM   15  C12 UNL     1       4.938  -1.273   0.730  1.00  0.00     0.101 C 
HETATM   16  C13 UNL     1       4.142  -0.154   1.168  1.00  0.00    -0.104 C 
HETATM   17  C14 UNL     1       3.528   0.674   1.492  1.00  0.00    -0.087 C 
HETATM   18  C15 UNL     1       2.694   1.749   1.913  1.00  0.00     0.215 C 
HETATM   19  N2  UNL     1       1.431   0.809   2.111  1.00  0.00    -0.364 N 
HETATM   20  N3  UNL     1       2.670  -2.272  -1.125  1.00  0.00    -0.296 NA
HETATM   21  C16 UNL     1       1.692  -1.949  -1.948  1.00  0.00     0.223 C 
HETATM   22  C17 UNL     1       0.458  -1.323  -2.506  1.00  0.00     0.196 C 
HETATM   23  N4  UNL     1       0.344  -0.729  -1.403  1.00  0.00    -0.291 NA
HETATM   24  C18 UNL     1      -0.714   0.226  -0.995  1.00  0.00     0.234 C 
HETATM   25  N5  UNL     1      -1.881  -0.457  -0.659  1.00  0.00    -0.393 N 
HETATM   26  H17 UNL     1       0.746   0.467   2.812  1.00  0.00     0.162 HD
HETATM   27  H21 UNL     1      -1.732  -1.174   0.117  1.00  0.00     0.156 HD
ENDROOT
TORSDOF 0
