REMARK  3 active torsions:
REMARK  status: ('A' for Active; 'I' for Inactive)
REMARK    1  A    between atoms: C3_3  and  C4_5 
REMARK    2  A    between atoms: C8_11  and  N3_12 
REMARK    3  A    between atoms: N3_12  and  C9_13 
ROOT
HETATM    1  C4  UNL     1      -2.613   0.263  -0.308  1.00  0.00    -0.004 C 
HETATM    2  C5  UNL     1      -2.930   0.804  -1.538  1.00  0.00     0.070 C 
HETATM    3  C6  UNL     1      -2.205   0.753  -2.872  1.00  0.00     0.156 C 
HETATM    4  N1  UNL     1      -1.024  -0.123  -2.774  1.00  0.00    -0.282 NA
HETATM    5  C7  UNL     1      -0.239   0.044  -1.750  1.00  0.00     0.228 C 
HETATM    6  N2  UNL     1       0.946  -0.497  -1.189  1.00  0.00    -0.225 NA
HETATM    7  C8  UNL     1       0.696  -0.906   0.077  1.00  0.00     0.129 C 
HETATM    8  C15 UNL     1      -0.574  -0.792   0.818  1.00  0.00     0.047 C 
HETATM    9  C16 UNL     1      -1.809  -0.398   0.796  1.00  0.00    -0.013 C 
ENDROOT
BRANCH   7  10
HETATM   10  N3  UNL     1       1.871  -1.445   0.628  1.00  0.00    -0.341 N 
HETATM   11  H8  UNL     1       1.671  -2.239   1.286  1.00  0.00     0.167 HD
BRANCH  10  12
HETATM   12  C9  UNL     1       3.187  -0.993   0.363  1.00  0.00     0.034 A 
HETATM   13  C10 UNL     1       4.207  -1.753   0.950  1.00  0.00     0.029 A 
HETATM   14  C11 UNL     1       5.534  -1.422   0.785  1.00  0.00     0.004 A 
HETATM   15  C12 UNL     1       5.934  -0.336   0.040  1.00  0.00     0.019 A 
HETATM   16  C13 UNL     1       4.934   0.415  -0.540  1.00  0.00     0.013 A 
HETATM   17 BR1  UNL     1       5.358   1.943  -1.594  1.00  0.00    -0.051 Br
HETATM   18  C14 UNL     1       3.614   0.064  -0.360  1.00  0.00     0.048 A 
ENDBRANCH  10  12
ENDBRANCH   7  10
BRANCH   1  19
HETATM   19  C3  UNL     1      -3.875   0.858   0.180  1.00  0.00    -0.063 A 
HETATM   20  C2  UNL     1      -4.504   0.831   1.521  1.00  0.00     0.024 A 
HETATM   21  C1  UNL     1      -5.611   1.554   1.278  1.00  0.00     0.010 A 
HETATM   22  O1  UNL     1      -4.939   1.469   0.226  1.00  0.00     0.000 OA
ENDBRANCH   1  19
TORSDOF 3
