REMARK  3 active torsions:
REMARK  status: ('A' for Active; 'I' for Inactive)
REMARK       I    between atoms: C1_2  and  N1_4 
REMARK    1  A    between atoms: N1_4  and  C2_5 
REMARK    2  A    between atoms: C7_12  and  N4_13 
REMARK    3  A    between atoms: N4_13  and  C8_14 
ROOT
HETATM    1  C2  UNL     1       2.490   0.523   0.140  1.00  0.00     0.036 A 
HETATM    2  C3  UNL     1       3.322  -0.559   0.306  1.00  0.00     0.032 A 
HETATM    3  C4  UNL     1       2.993  -1.870   0.033  1.00  0.00     0.035 A 
HETATM    4  C5  UNL     1       1.747  -2.146  -0.442  1.00  0.00     0.072 A 
HETATM    5  N2  UNL     1       1.324  -3.389  -0.740  1.00  0.00    -0.241 NA
HETATM    6  C6  UNL     1       0.061  -3.602  -1.213  1.00  0.00     0.236 A 
HETATM    7  N3  UNL     1      -0.773  -2.579  -1.387  1.00  0.00    -0.224 NA
HETATM    8  C7  UNL     1      -0.395  -1.317  -1.103  1.00  0.00     0.142 A 
HETATM    9  C14 UNL     1       0.875  -1.094  -0.626  1.00  0.00     0.041 A 
HETATM   10  C15 UNL     1       1.244   0.191  -0.341  1.00  0.00     0.047 A 
ENDROOT
BRANCH   8  11
HETATM   11  N4  UNL     1      -1.324  -0.275  -1.307  1.00  0.00    -0.340 N 
HETATM   12  H5  UNL     1      -1.186   0.050  -2.288  1.00  0.00     0.167 HD
BRANCH  11  13
HETATM   13  C8  UNL     1      -2.271   0.254  -0.389  1.00  0.00     0.033 A 
HETATM   14  C9  UNL     1      -2.336  -0.266   0.864  1.00  0.00     0.029 A 
HETATM   15  C10 UNL     1      -3.283   0.306   1.691  1.00  0.00     0.002 A 
HETATM   16  C11 UNL     1      -4.096   1.329   1.262  1.00  0.00     0.000 A 
HETATM   17  C12 UNL     1      -3.997   1.832  -0.027  1.00  0.00     0.002 A 
HETATM   18  C13 UNL     1      -3.058   1.277  -0.872  1.00  0.00     0.029 A 
ENDBRANCH  11  13
ENDBRANCH   8  11
BRANCH   1  19
HETATM   19  N1  UNL     1       2.779   1.865   0.403  1.00  0.00    -0.318 N 
HETATM   20  C1  UNL     1       3.952   2.463   0.892  1.00  0.00     0.292 C 
HETATM   21  O1  UNL     1       4.937   1.743   1.156  1.00  0.00    -0.260 OA
HETATM   22 BR1  UNL     1       4.216   4.308   1.206  1.00  0.00     0.017 Br
HETATM   23  H1  UNL     1       2.051   2.599   0.232  1.00  0.00     0.169 HD
ENDBRANCH   1  19
TORSDOF 3
