REMARK  5 active torsions:
REMARK  status: ('A' for Active; 'I' for Inactive)
REMARK    1  A    between atoms: C2_2  and  C3_3 
REMARK    2  A    between atoms: C8_9  and  C9_10 
REMARK    3  A    between atoms: C9_10  and  N1_11 
REMARK    4  A    between atoms: C16_19  and  N2_20 
REMARK    5  A    between atoms: N2_20  and  C17_21 
ROOT
HETATM    1  N1  UNL     1      -0.818   0.332   1.254  1.00  0.00    -0.350 N 
HETATM    2  C10 UNL     1      -0.802   1.706   1.588  1.00  0.00     0.201 A 
HETATM    3  O2  UNL     1      -1.924   2.039   2.046  1.00  0.00    -0.344 OA
HETATM    4  C11 UNL     1      -0.782   3.111   1.929  1.00  0.00     0.184 A 
HETATM    5  C12 UNL     1      -1.825   3.732   2.431  1.00  0.00     0.040 C 
HETATM    6  C13 UNL     1       0.519   0.729   0.908  1.00  0.00     0.244 A 
HETATM    7  C14 UNL     1       0.830   0.588  -0.511  1.00  0.00     0.026 C 
HETATM    8  C15 UNL     1       1.747   0.232  -1.396  1.00  0.00     0.050 C 
HETATM    9  C16 UNL     1       3.060  -0.244  -0.973  1.00  0.00     0.129 C 
HETATM   10  N3  UNL     1       3.512  -0.531   0.228  1.00  0.00    -0.225 NA
HETATM   11  C23 UNL     1       2.665  -0.389   1.391  1.00  0.00     0.232 C 
HETATM   12  N4  UNL     1       1.519   0.080   1.713  1.00  0.00    -0.252 NA
ENDROOT
BRANCH   1  13
HETATM   13  C9  UNL     1      -2.028  -0.421   1.469  1.00  0.00     0.131 C 
BRANCH  13  14
HETATM   14  C8  UNL     1      -2.933  -0.401   0.255  1.00  0.00     0.036 C 
HETATM   15  C4  UNL     1      -4.171  -1.173   0.473  1.00  0.00    -0.051 C 
HETATM   16  C3  UNL     1      -5.393  -0.671   0.509  1.00  0.00     0.005 C 
HETATM   17  C5  UNL     1      -3.966  -2.648   0.662  1.00  0.00     0.202 C 
HETATM   18  O1  UNL     1      -3.241  -3.131  -0.407  1.00  0.00    -0.387 OA
HETATM   19  C6  UNL     1      -3.073  -2.208  -1.434  1.00  0.00     0.168 C 
HETATM   20  C7  UNL     1      -2.231  -1.030  -0.946  1.00  0.00     0.037 C 
BRANCH  16  21
HETATM   21  C2  UNL     1      -5.715   0.737   0.340  1.00  0.00    -0.010 C 
HETATM   22  C1  UNL     1      -6.950   1.188   0.385  1.00  0.00     0.011 C 
ENDBRANCH  16  21
ENDBRANCH  13  14
ENDBRANCH   1  13
BRANCH   9  23
HETATM   23  N2  UNL     1       3.993  -0.428  -2.024  1.00  0.00    -0.341 N 
HETATM   24  H20 UNL     1       3.593  -0.522  -3.000  1.00  0.00     0.167 HD
BRANCH  23  25
HETATM   25  C17 UNL     1       5.401  -0.480  -1.761  1.00  0.00     0.034 A 
HETATM   26  C18 UNL     1       6.039   0.750  -1.815  1.00  0.00     0.029 A 
HETATM   27  C19 UNL     1       7.397   0.776  -1.572  1.00  0.00     0.004 A 
HETATM   28  C20 UNL     1       8.104  -0.374  -1.285  1.00  0.00     0.019 A 
HETATM   29  C21 UNL     1       7.465  -1.603  -1.232  1.00  0.00     0.013 A 
HETATM   30 BR1  UNL     1       8.417  -3.209  -0.837  1.00  0.00    -0.051 Br
HETATM   31  C22 UNL     1       6.104  -1.643  -1.473  1.00  0.00     0.048 A 
ENDBRANCH  23  25
ENDBRANCH   9  23
TORSDOF 5
