REMARK  5 active torsions:
REMARK  status: ('A' for Active; 'I' for Inactive)
REMARK    1  A    between atoms: C2_2  and  C3_3 
REMARK    2  A    between atoms: C8_9  and  C9_10 
REMARK    3  A    between atoms: C14_15  and  C15_16 
REMARK    4  A    between atoms: C15_16  and  C16_17 
REMARK       I    between atoms: N2_19  and  C17_20 
REMARK    5  A    between atoms: C17_20  and  C18_22 
ROOT
HETATM    1  C3  UNL     1       5.632   1.011   1.549  1.00  0.00     0.101 A 
HETATM    2  C4  UNL     1       4.473   1.497   1.245  1.00  0.00     0.034 A 
HETATM    3  N1  UNL     1       3.302   2.032   0.778  1.00  0.00    -0.393 N 
HETATM    4  C5  UNL     1       2.511   1.547  -0.330  1.00  0.00     0.125 C 
HETATM    5  C6  UNL     1       1.893   0.253   0.116  1.00  0.00     0.075 C 
HETATM    6  C7  UNL     1       1.448  -0.584  -0.989  1.00  0.00     0.024 C 
HETATM    7  C8  UNL     1       0.089  -0.595  -1.004  1.00  0.00     0.071 C 
HETATM    8  N3  UNL     1       2.603  -1.118  -1.635  1.00  0.00    -0.245 NA
HETATM    9  C20 UNL     1       3.767  -0.656  -1.497  1.00  0.00     0.319 C 
HETATM   10  N4  UNL     1       4.571   0.386  -0.829  1.00  0.00    -0.000 N 
HETATM   11  C21 UNL     1       5.402   0.947   0.162  1.00  0.00     0.224 A 
HETATM   12  C22 UNL     1       6.121   0.484  -0.882  1.00  0.00     0.419 A 
HETATM   13 BR1  UNL     1       7.307  -0.204  -2.180  1.00  0.00    -0.165 Br
HETATM   14  H5  UNL     1       3.573   2.640   1.566  1.00  0.00     0.159 HD
HETATM   15  H27 UNL     1       4.540  -0.561  -0.254  1.00  0.00     0.290 HD
ENDROOT
BRANCH   7  16
HETATM   16  C9  UNL     1      -0.915  -1.248  -1.838  1.00  0.00     0.010 C 
HETATM   17  C10 UNL     1      -2.025  -0.729  -1.183  1.00  0.00     0.013 C 
HETATM   18  C11 UNL     1      -1.852   0.225  -0.007  1.00  0.00     0.063 C 
HETATM   19  N2  UNL     1      -3.490  -0.856  -1.159  1.00  0.00    -0.313 N 
HETATM   20  C12 UNL     1      -3.026   1.207  -0.371  1.00  0.00     0.011 C 
HETATM   21  C13 UNL     1      -2.991   2.460   0.333  1.00  0.00     0.012 C 
HETATM   22  C14 UNL     1      -4.160   0.301  -0.470  1.00  0.00     0.099 C 
HETATM   23  C17 UNL     1      -3.994  -2.046  -1.700  1.00  0.00     0.247 C 
HETATM   24  O1  UNL     1      -3.532  -3.032  -2.308  1.00  0.00    -0.268 OA
BRANCH  22  25
HETATM   25  C15 UNL     1      -4.888  -0.235   0.666  1.00  0.00     0.057 C 
BRANCH  25  26
HETATM   26  C16 UNL     1      -5.592   0.731   1.556  1.00  0.00     0.224 C 
HETATM   27  F1  UNL     1      -4.862   1.653   2.205  1.00  0.00    -0.255 F 
ENDBRANCH  25  26
ENDBRANCH  22  25
BRANCH  23  28
HETATM   28  C18 UNL     1      -5.147  -2.867  -1.929  1.00  0.00     0.064 C 
HETATM   29  C19 UNL     1      -5.048  -3.996  -2.589  1.00  0.00     0.017 C 
ENDBRANCH  23  28
ENDBRANCH   7  16
BRANCH   1  30
HETATM   30  C2  UNL     1       5.341   0.724   2.996  1.00  0.00    -0.023 C 
HETATM   31  C1  UNL     1       5.693   0.252   4.276  1.00  0.00     0.008 C 
ENDBRANCH   1  30
TORSDOF 5
