REMARK  5 active torsions:
REMARK  status: ('A' for Active; 'I' for Inactive)
REMARK    1  A    between atoms: C2_2  and  C3_3 
REMARK    2  A    between atoms: C2_2  and  O3_21 
REMARK    3  A    between atoms: C3_3  and  C4_4 
REMARK       I    between atoms: C4_4  and  N1_6 
REMARK    4  A    between atoms: N1_6  and  C5_7 
REMARK    5  A    between atoms: O3_21  and  C15_22 
ROOT
HETATM    1  C5  UNL     1       0.105   0.747  -0.693  1.00  0.00     0.035 A 
HETATM    2  C6  UNL     1       0.511   0.466  -1.991  1.00  0.00     0.032 A 
HETATM    3  C7  UNL     1       1.887   0.207  -2.122  1.00  0.00     0.034 A 
HETATM    4  C8  UNL     1       2.862   0.203  -1.112  1.00  0.00     0.066 A 
HETATM    5  C9  UNL     1       2.368   0.498   0.169  1.00  0.00    -0.009 A 
HETATM    6  C10 UNL     1       1.031   0.754   0.328  1.00  0.00     0.040 A 
HETATM    7  C11 UNL     1       3.060   0.612   1.483  1.00  0.00     0.164 C 
HETATM    8  N2  UNL     1       4.466   0.509   1.316  1.00  0.00    -0.352 N 
HETATM    9  C12 UNL     1       5.881   0.405   1.153  1.00  0.00     0.259 C 
HETATM   10  O2  UNL     1       6.004   0.633   2.378  1.00  0.00    -0.267 OA
HETATM   11  C13 UNL     1       6.854   0.151   0.089  1.00  0.00     0.192 C 
HETATM   12  N3  UNL     1       6.532  -0.085  -1.124  1.00  0.00    -0.249 NA
HETATM   13  C14 UNL     1       5.216  -0.142  -1.640  1.00  0.00     0.233 C 
HETATM   14  N4  UNL     1       3.997  -0.118  -1.867  1.00  0.00    -0.242 NA
HETATM   15  H13 UNL     1       4.485   0.321   0.333  1.00  0.00     0.163 HD
ENDROOT
BRANCH   1  16
HETATM   16  N1  UNL     1      -1.287   1.035  -0.448  1.00  0.00    -0.327 N 
HETATM   17  C4  UNL     1      -2.169  -0.061  -0.165  1.00  0.00     0.224 C 
HETATM   18  O1  UNL     1      -1.476  -1.133  -0.197  1.00  0.00    -0.273 OA
HETATM   19  H7  UNL     1      -1.505   2.072  -0.507  1.00  0.00     0.169 HD
BRANCH  17  20
HETATM   20  C3  UNL     1      -3.558   0.367   0.068  1.00  0.00     0.134 C 
BRANCH  20  21
HETATM   21  C2  UNL     1      -4.494  -0.795   0.324  1.00  0.00     0.127 C 
HETATM   22  C1  UNL     1      -4.541  -1.753  -0.824  1.00  0.00     0.040 C 
BRANCH  21  23
HETATM   23  O3  UNL     1      -5.728  -0.303   0.661  1.00  0.00    -0.375 OA
BRANCH  23  24
HETATM   24  C15 UNL     1      -6.139  -0.622   1.949  1.00  0.00     0.253 C 
HETATM   25 BR1  UNL     1      -7.883   0.155   2.231  1.00  0.00    -0.068 Br
ENDBRANCH  23  24
ENDBRANCH  21  23
ENDBRANCH  20  21
ENDBRANCH  17  20
ENDBRANCH   1  16
TORSDOF 5
