REMARK  1 active torsions:
REMARK  status: ('A' for Active; 'I' for Inactive)
REMARK    1  A    between atoms: O1_2  and  C2_3 
ROOT
HETATM    1  C2  UNL     1       1.602  -0.787  -0.066  1.00  0.00     0.052 C 
HETATM    2  C3  UNL     1       0.859  -1.857  -0.527  1.00  0.00     0.047 C 
HETATM    3  C4  UNL     1      -0.515  -1.833  -1.162  1.00  0.00     0.007 C 
HETATM    4  C5  UNL     1      -0.787  -3.137  -1.114  1.00  0.00     0.093 C 
HETATM    5  N1  UNL     1      -1.166  -3.371   0.166  1.00  0.00    -0.268 NA
HETATM    6  C6  UNL     1      -1.916  -2.563   1.067  1.00  0.00     0.267 C 
HETATM    7  N2  UNL     1      -1.509  -1.153   1.168  1.00  0.00    -0.390 N 
HETATM    8  C7  UNL     1      -1.319  -0.272   0.013  1.00  0.00     0.071 A 
HETATM    9  C8  UNL     1      -1.546   1.088   0.350  1.00  0.00     0.046 A 
HETATM   10  C9  UNL     1      -1.485   2.041  -0.728  1.00  0.00     0.025 A 
HETATM   11  C10 UNL     1      -1.256   0.854  -1.272  1.00  0.00     0.071 A 
HETATM   12  C11 UNL     1      -1.001   0.292  -2.457  1.00  0.00     0.006 A 
HETATM   13 BR1  UNL     1      -0.665  -0.227  -4.211  1.00  0.00    -0.054 Br
HETATM   14  C12 UNL     1      -1.057  -0.509  -1.377  1.00  0.00    -0.003 A 
HETATM   15  C13 UNL     1      -1.723   3.171   0.105  1.00  0.00     0.095 C 
HETATM   16  N3  UNL     1      -0.424   3.578   0.062  1.00  0.00    -0.304 NA
HETATM   17  C14 UNL     1       0.541   2.877  -0.672  1.00  0.00     0.153 C 
HETATM   18  C15 UNL     1       1.500   1.958  -0.055  1.00  0.00     0.023 C 
HETATM   19  C16 UNL     1       1.943   0.673   0.196  1.00  0.00     0.059 C 
HETATM   20  H7  UNL     1      -1.344  -0.633   2.103  1.00  0.00     0.156 HD
ENDROOT
BRANCH   1  21
HETATM   21  O1  UNL     1       2.876  -0.868   0.547  1.00  0.00    -0.360 OA
HETATM   22  C1  UNL     1       3.082  -1.549   1.750  1.00  0.00     0.209 C 
ENDBRANCH   1  21
TORSDOF 1
