REMARK  3 active torsions:
REMARK  status: ('A' for Active; 'I' for Inactive)
REMARK    1  A    between atoms: C5_8  and  C6_9 
REMARK    2  A    between atoms: C6_9  and  C7_10 
REMARK    3  A    between atoms: C7_10  and  N2_11 
ROOT
HETATM    1  O1  UNL     1      -1.453  -1.539  -1.001  1.00  0.00    -0.339 OA
HETATM    2  C1  UNL     1      -2.128  -2.654  -0.943  1.00  0.00     0.219 A 
HETATM    3  C2  UNL     1      -1.148  -2.755  -1.965  1.00  0.00     0.214 A 
HETATM    4  C3  UNL     1      -0.141  -2.435  -2.726  1.00  0.00     0.084 C 
HETATM    5  C4  UNL     1       0.582  -1.212  -2.571  1.00  0.00     0.241 C 
HETATM    6  O2  UNL     1       1.394  -1.204  -3.520  1.00  0.00    -0.269 OA
HETATM    7  N1  UNL     1       1.195   0.009  -2.279  1.00  0.00    -0.335 N 
HETATM    8  C5  UNL     1       1.054   0.755  -1.075  1.00  0.00     0.209 C 
HETATM    9  N4  UNL     1      -0.224   1.507  -1.015  1.00  0.00    -0.274 NA
HETATM   10  C11 UNL     1      -0.851   1.536   0.136  1.00  0.00     0.147 C 
HETATM   11  C12 UNL     1      -2.032   2.055   0.771  1.00  0.00     0.105 A 
HETATM   12  N5  UNL     1      -1.966   3.389   0.707  1.00  0.00    -0.236 NA
HETATM   13  C13 UNL     1      -2.923   4.193   1.202  1.00  0.00     0.258 A 
HETATM   14  N6  UNL     1      -3.980   3.619   1.781  1.00  0.00    -0.143 NA
HETATM   15  N7  UNL     1      -4.035   2.310   1.839  1.00  0.00    -0.147 NA
HETATM   16  C14 UNL     1      -3.106   1.452   1.360  1.00  0.00     0.110 A 
HETATM   17  C15 UNL     1      -3.480   0.056   1.569  1.00  0.00     0.052 C 
HETATM   18  C16 UNL     1      -3.305  -1.117   1.031  1.00  0.00     0.088 C 
HETATM   19  N8  UNL     1      -2.781  -1.977   0.064  1.00  0.00    -0.362 N 
HETATM   20  H3  UNL     1       1.825   0.696  -2.735  1.00  0.00     0.164 HD
HETATM   21  H16 UNL     1      -3.111  -2.976  -0.139  1.00  0.00     0.162 HD
ENDROOT
BRANCH   8  22
HETATM   22  C6  UNL     1       2.210   1.554  -0.602  1.00  0.00     0.069 C 
BRANCH  22  23
HETATM   23  C7  UNL     1       3.442   0.747  -0.323  1.00  0.00     0.133 C 
BRANCH  23  24
HETATM   24  N2  UNL     1       3.263  -0.257   0.683  1.00  0.00    -0.350 N 
HETATM   25  C8  UNL     1       2.880  -1.547   0.615  1.00  0.00     0.111 A 
HETATM   26  C9  UNL     1       2.843  -2.142   1.835  1.00  0.00     0.135 A 
HETATM   27  N3  UNL     1       3.220  -1.189   2.723  1.00  0.00    -0.255 NA
HETATM   28  C10 UNL     1       3.469  -0.059   2.009  1.00  0.00     0.209 A 
ENDBRANCH  23  24
ENDBRANCH  22  23
ENDBRANCH   8  22
TORSDOF 3
