REMARK  9 active torsions:
REMARK  status: ('A' for Active; 'I' for Inactive)
REMARK    1  A    between atoms: C2_3  and  C3_4 
REMARK    2  A    between atoms: C3_4  and  O1_5 
REMARK    3  A    between atoms: O1_5  and  C4_6 
REMARK    4  A    between atoms: C4_6  and  C5_8 
REMARK    5  A    between atoms: C5_8  and  C6_9 
REMARK    6  A    between atoms: C6_9  and  N2_10 
REMARK    7  A    between atoms: C12_18  and  N5_19 
REMARK    8  A    between atoms: N5_19  and  C13_20 
REMARK    9  A    between atoms: C19_27  and  O3_28 
ROOT
HETATM    1  N2  UNL     1      -0.323  -1.640  -0.033  1.00  0.00    -0.347 N 
HETATM    2  C7  UNL     1       0.824  -2.340  -0.481  1.00  0.00     0.089 C 
HETATM    3  C8  UNL     1       1.136  -2.752  -1.721  1.00  0.00     0.019 C 
HETATM    4  C9  UNL     1       0.078  -2.401  -2.675  1.00  0.00     0.034 C 
HETATM    5  C10 UNL     1      -1.040  -1.794  -2.312  1.00  0.00     0.099 C 
HETATM    6  N3  UNL     1      -1.998  -1.454  -3.317  1.00  0.00    -0.241 NA
HETATM    7  C11 UNL     1      -3.061  -0.770  -3.041  1.00  0.00     0.235 C 
HETATM    8  N4  UNL     1      -3.289  -0.372  -1.698  1.00  0.00    -0.223 NA
HETATM    9  C12 UNL     1      -2.514  -0.672  -0.704  1.00  0.00     0.168 C 
HETATM   10  C19 UNL     1      -1.446  -1.643  -0.898  1.00  0.00     0.242 C 
ENDROOT
BRANCH   1  11
HETATM   11  C6  UNL     1      -0.206  -1.037   1.250  1.00  0.00     0.136 C 
BRANCH  11  12
HETATM   12  C5  UNL     1       1.199  -0.953   1.802  1.00  0.00     0.131 C 
BRANCH  12  13
HETATM   13  C4  UNL     1       2.011  -0.147   0.826  1.00  0.00     0.260 C 
HETATM   14  O2  UNL     1       1.729   0.336  -0.301  1.00  0.00    -0.265 OA
BRANCH  13  15
HETATM   15  O1  UNL     1       3.299   0.113   1.262  1.00  0.00    -0.316 OA
BRANCH  15  16
HETATM   16  C3  UNL     1       4.244   0.854   0.533  1.00  0.00     0.224 C 
BRANCH  16  17
HETATM   17  C2  UNL     1       4.600   0.299  -0.781  1.00  0.00     0.109 C 
HETATM   18  N1  UNL     1       5.745   0.268  -1.356  1.00  0.00    -0.308 NA
HETATM   19  C1  UNL     1       6.938   0.808  -0.769  1.00  0.00     0.177 C 
ENDBRANCH  16  17
ENDBRANCH  15  16
ENDBRANCH  13  15
ENDBRANCH  12  13
ENDBRANCH  11  12
ENDBRANCH   1  11
BRANCH  10  20
HETATM   20  O3  UNL     1      -2.062  -2.937  -0.536  1.00  0.00    -0.359 OA
HETATM   21  H20 UNL     1      -3.006  -2.812  -0.384  1.00  0.00     0.213 HD
ENDBRANCH  10  20
BRANCH   9  22
HETATM   22  N5  UNL     1      -2.919  -0.152   0.549  1.00  0.00    -0.340 N 
HETATM   23  H15 UNL     1      -2.874  -0.821   1.352  1.00  0.00     0.167 HD
BRANCH  22  24
HETATM   24  C13 UNL     1      -3.391   1.162   0.779  1.00  0.00     0.034 A 
HETATM   25  C14 UNL     1      -3.731   1.484   2.109  1.00  0.00     0.029 A 
HETATM   26  C15 UNL     1      -4.202   2.688   2.516  1.00  0.00     0.004 A 
HETATM   27  C16 UNL     1      -4.390   3.725   1.621  1.00  0.00     0.019 A 
HETATM   28  C17 UNL     1      -4.058   3.413   0.319  1.00  0.00     0.013 A 
HETATM   29 BR1  UNL     1      -4.320   4.826  -0.953  1.00  0.00    -0.051 Br
HETATM   30  C18 UNL     1      -3.578   2.195  -0.107  1.00  0.00     0.048 A 
ENDBRANCH  22  24
ENDBRANCH   9  22
TORSDOF 9
