REMARK  1 active torsions:
REMARK  status: ('A' for Active; 'I' for Inactive)
REMARK    1  A    between atoms: C1_2  and  C2_4 
ROOT
HETATM    1  C2  UNL     1      -3.726  -0.293   0.231  1.00  0.00     0.115 A 
HETATM    2  C3  UNL     1      -2.451  -0.697  -0.203  1.00  0.00     0.054 A 
HETATM    3  C4  UNL     1      -1.503   0.213   0.156  1.00  0.00     0.042 A 
HETATM    4  C5  UNL     1      -0.241  -0.128  -0.247  1.00  0.00     0.138 A 
HETATM    5  N1  UNL     1       0.745   0.702   0.053  1.00  0.00    -0.215 NA
HETATM    6  C6  UNL     1       0.717   1.853   0.705  1.00  0.00     0.129 A 
HETATM    7  N2  UNL     1      -0.518   2.202   1.109  1.00  0.00    -0.231 NA
HETATM    8  C7  UNL     1      -1.571   1.426   0.849  1.00  0.00     0.090 A 
HETATM    9  C8  UNL     1      -2.893   1.704   1.219  1.00  0.00     0.150 A 
HETATM   10  N3  UNL     1      -3.922   0.873   0.918  1.00  0.00    -0.254 NA
HETATM   11  C9  UNL     1       2.001   2.568   0.927  1.00  0.00     0.086 C 
HETATM   12  C10 UNL     1       3.085   1.496   0.724  1.00  0.00     0.006 C 
HETATM   13  C11 UNL     1       3.761   0.337   0.427  1.00  0.00     0.021 C 
HETATM   14  C12 UNL     1       3.420  -1.024  -0.107  1.00  0.00    -0.023 C 
HETATM   15  C13 UNL     1       2.613  -2.004  -0.598  1.00  0.00    -0.011 C 
HETATM   16  C14 UNL     1       1.209  -2.318  -0.979  1.00  0.00     0.148 C 
HETATM   17  N4  UNL     1       0.280  -1.232  -0.947  1.00  0.00    -0.371 N 
HETATM   18  H11 UNL     1      -0.400  -1.087  -1.766  1.00  0.00     0.161 HD
ENDROOT
BRANCH   1  19
HETATM   19  C1  UNL     1      -4.866  -1.177  -0.083  1.00  0.00     0.246 C 
HETATM   20  O1  UNL     1      -4.712  -2.244  -0.707  1.00  0.00    -0.278 OA
HETATM   21 BR1  UNL     1      -6.605  -0.654   0.492  1.00  0.00    -0.002 Br
ENDBRANCH   1  19
TORSDOF 1
