REMARK  5 active torsions:
REMARK  status: ('A' for Active; 'I' for Inactive)
REMARK    1  A    between atoms: O1_1  and  C1_2 
REMARK    2  A    between atoms: C1_2  and  N1_3 
REMARK    3  A    between atoms: N1_3  and  C2_4 
REMARK    4  A    between atoms: C8_13  and  N5_14 
REMARK    5  A    between atoms: N5_14  and  C9_15 
ROOT
HETATM    1  C2  UNL     1      -1.568   0.676   0.024  1.00  0.00     0.152 A 
HETATM    2  N2  UNL     1      -2.611   0.319   0.831  1.00  0.00    -0.239 NA
HETATM    3  C3  UNL     1      -2.860  -0.978   1.119  1.00  0.00     0.151 A 
HETATM    4  C4  UNL     1      -2.095  -2.007   0.629  1.00  0.00     0.089 A 
HETATM    5  N3  UNL     1      -2.364  -3.279   0.930  1.00  0.00    -0.240 NA
HETATM    6  C5  UNL     1      -1.565  -4.254   0.410  1.00  0.00     0.233 A 
HETATM    7  N4  UNL     1      -0.514  -3.961  -0.398  1.00  0.00    -0.253 NA
HETATM    8  C6  UNL     1      -0.222  -2.688  -0.717  1.00  0.00     0.134 A 
HETATM    9  C7  UNL     1      -1.027  -1.700  -0.193  1.00  0.00     0.042 A 
HETATM   10  C8  UNL     1      -0.807  -0.366  -0.463  1.00  0.00     0.093 A 
ENDROOT
BRANCH  10  11
HETATM   11  N5  UNL     1       0.300  -0.050  -1.314  1.00  0.00    -0.352 N 
HETATM   12  H8  UNL     1       0.167   0.008  -2.334  1.00  0.00     0.166 HD
BRANCH  11  13
HETATM   13  C9  UNL     1       1.592   0.188  -0.772  1.00  0.00     0.033 A 
HETATM   14  C10 UNL     1       2.688   0.495  -1.552  1.00  0.00     0.029 A 
HETATM   15  C11 UNL     1       3.927   0.720  -0.998  1.00  0.00     0.004 A 
HETATM   16  C12 UNL     1       4.103   0.640   0.387  1.00  0.00     0.019 A 
HETATM   17  C13 UNL     1       3.037   0.337   1.198  1.00  0.00     0.013 A 
HETATM   18 BR1  UNL     1       3.161   0.201   3.103  1.00  0.00    -0.051 Br
HETATM   19  C14 UNL     1       1.806   0.117   0.605  1.00  0.00     0.048 A 
ENDBRANCH  11  13
ENDBRANCH  10  11
BRANCH   1  20
HETATM   20  N1  UNL     1      -1.300   2.039  -0.284  1.00  0.00    -0.352 N 
HETATM   21  H4  UNL     1      -0.499   2.234  -0.898  1.00  0.00     0.163 HD
BRANCH  20  22
HETATM   22  C1  UNL     1      -2.181   3.056   0.294  1.00  0.00     0.288 C 
BRANCH  22  23
HETATM   23  O1  UNL     1      -1.801   4.331  -0.091  1.00  0.00    -0.382 OA
HETATM   24  H1  UNL     1      -2.519   4.939   0.215  1.00  0.00     0.211 HD
ENDBRANCH  22  23
ENDBRANCH  20  22
ENDBRANCH   1  20
TORSDOF 5
