REMARK  4 active torsions:
REMARK  status: ('A' for Active; 'I' for Inactive)
REMARK    1  A    between atoms: C3_4  and  C4_5 
REMARK       I    between atoms: C4_5  and  N2_7 
REMARK    2  A    between atoms: N2_7  and  C5_8 
REMARK    3  A    between atoms: C8_11  and  N3_12 
REMARK    4  A    between atoms: N3_12  and  C9_13 
ROOT
HETATM    1  N1  UNL     1       6.620   3.288  -3.900  1.00  0.00    -0.192 NA
HETATM    2  C1  UNL     1       5.933   2.678  -3.194  1.00  0.00     0.088 C 
HETATM    3  C2  UNL     1       5.062   1.933  -2.299  1.00  0.00     0.099 C 
HETATM    4  C3  UNL     1       4.584   2.449  -1.178  1.00  0.00     0.085 C 
ENDROOT
BRANCH   4   5
HETATM    5  C4  UNL     1       3.702   1.726  -0.251  1.00  0.00     0.247 C 
HETATM    6  O1  UNL     1       3.317   2.310   0.785  1.00  0.00    -0.268 OA
HETATM    7  N2  UNL     1       3.348   0.400  -0.606  1.00  0.00    -0.308 N 
HETATM    8  H3  UNL     1       3.634  -0.132  -1.446  1.00  0.00     0.170 HD
BRANCH   7   9
HETATM    9  C5  UNL     1       2.495  -0.276   0.308  1.00  0.00     0.131 A 
HETATM   10  C6  UNL     1       1.138  -0.285   0.298  1.00  0.00     0.068 A 
HETATM   11  C7  UNL     1       0.382  -0.956   1.209  1.00  0.00     0.044 A 
HETATM   12  C8  UNL     1      -0.992  -0.984   1.223  1.00  0.00     0.142 A 
HETATM   13  C16 UNL     1       1.099  -1.640   2.160  1.00  0.00     0.089 A 
HETATM   14  N4  UNL     1      -1.520  -1.710   2.213  1.00  0.00    -0.224 NA
HETATM   15  C15 UNL     1      -0.871  -2.383   3.149  1.00  0.00     0.236 A 
HETATM   16  N5  UNL     1       0.451  -2.338   3.110  1.00  0.00    -0.240 NA
HETATM   17  C17 UNL     1       2.473  -1.662   2.213  1.00  0.00     0.151 A 
HETATM   18  N6  UNL     1       3.162  -0.964   1.266  1.00  0.00    -0.241 NA
BRANCH  12  19
HETATM   19  N3  UNL     1      -1.710  -0.273   0.242  1.00  0.00    -0.340 N 
HETATM   20  H5  UNL     1      -1.223   0.282  -0.487  1.00  0.00     0.167 HD
BRANCH  19  21
HETATM   21  C9  UNL     1      -3.106  -0.146   0.022  1.00  0.00     0.035 A 
HETATM   22  C10 UNL     1      -3.719   0.655  -0.936  1.00  0.00     0.029 A 
HETATM   23  C11 UNL     1      -5.078   0.717  -1.082  1.00  0.00     0.004 A 
HETATM   24  C12 UNL     1      -5.926  -0.002  -0.301  1.00  0.00     0.019 A 
HETATM   25  C13 UNL     1      -5.353  -0.806   0.658  1.00  0.00     0.013 A 
HETATM   26 BR1  UNL     1      -6.583  -1.806   1.742  1.00  0.00    -0.051 Br
HETATM   27  C14 UNL     1      -3.984  -0.865   0.801  1.00  0.00     0.048 A 
ENDBRANCH  19  21
ENDBRANCH  12  19
ENDBRANCH   7   9
ENDBRANCH   4   5
TORSDOF 4
