REMARK  5 active torsions:
REMARK  status: ('A' for Active; 'I' for Inactive)
REMARK    1  A    between atoms: C6_6  and  N1_7 
REMARK    2  A    between atoms: N1_7  and  C7_8 
REMARK    3  A    between atoms: C13_18  and  C14_20 
REMARK    4  A    between atoms: C16_22  and  N6_24 
REMARK    5  A    between atoms: N6_24  and  C17_25 
ROOT
HETATM    1  C7  UNL     1      -2.029  -0.664  -0.644  1.00  0.00     0.141 A 
HETATM    2  N2  UNL     1      -2.880  -0.582  -1.709  1.00  0.00    -0.224 NA
HETATM    3  C8  UNL     1      -2.623  -1.138  -2.902  1.00  0.00     0.236 A 
HETATM    4  N3  UNL     1      -1.475  -1.838  -3.146  1.00  0.00    -0.240 NA
HETATM    5  C9  UNL     1      -0.589  -1.956  -2.131  1.00  0.00     0.089 A 
HETATM    6  C10 UNL     1       0.569  -2.654  -2.351  1.00  0.00     0.148 A 
HETATM    7  N4  UNL     1       1.436  -2.764  -1.343  1.00  0.00    -0.237 NA
HETATM    8  C11 UNL     1       1.220  -2.215  -0.111  1.00  0.00     0.266 A 
HETATM    9  N5  UNL     1       2.195  -2.380   0.911  1.00  0.00    -0.314 N 
HETATM   10  C12 UNL     1       2.566  -3.258   2.000  1.00  0.00     0.157 C 
HETATM   11  C13 UNL     1       3.003  -1.247   0.673  1.00  0.00     0.141 A 
HETATM   12  O1  UNL     1       2.201  -0.970  -0.284  1.00  0.00    -0.282 OA
HETATM   13  C18 UNL     1       0.032  -1.531   0.030  1.00  0.00     0.078 A 
HETATM   14  C19 UNL     1      -0.909  -1.369  -0.944  1.00  0.00     0.043 A 
ENDROOT
BRANCH  11  15
HETATM   15  C14 UNL     1       3.944  -0.166   0.601  1.00  0.00     0.175 A 
HETATM   16  C15 UNL     1       5.005   0.301   1.159  1.00  0.00     0.061 A 
HETATM   17  C16 UNL     1       4.642   1.196   0.072  1.00  0.00     0.182 A 
HETATM   18  O2  UNL     1       3.693   1.140  -0.736  1.00  0.00    -0.278 OA
BRANCH  17  19
HETATM   19  N6  UNL     1       5.496   2.298  -0.092  1.00  0.00    -0.308 N 
HETATM   20  H16 UNL     1       6.342   2.622   0.396  1.00  0.00     0.171 HD
BRANCH  19  21
HETATM   21  C17 UNL     1       5.499   3.358  -0.987  1.00  0.00     0.355 C 
HETATM   22  O3  UNL     1       4.527   3.290  -1.807  1.00  0.00    -0.283 OA
ENDBRANCH  19  21
ENDBRANCH  17  19
ENDBRANCH  11  15
BRANCH   1  23
HETATM   23  N1  UNL     1      -2.355  -0.053   0.592  1.00  0.00    -0.343 N 
HETATM   24  H8  UNL     1      -1.767  -0.069   1.443  1.00  0.00     0.167 HD
BRANCH  23  25
HETATM   25  C6  UNL     1      -3.613   0.637   0.625  1.00  0.00     0.018 A 
HETATM   26  C2  UNL     1      -4.328   1.465  -0.371  1.00  0.00     0.054 A 
HETATM   27  C1  UNL     1      -3.535   2.676  -0.788  1.00  0.00     0.020 C 
HETATM   28  C3  UNL     1      -5.559   1.835   0.375  1.00  0.00    -0.016 A 
HETATM   29  C4  UNL     1      -5.607   1.336   1.599  1.00  0.00    -0.001 A 
HETATM   30  C5  UNL     1      -4.367   0.581   1.740  1.00  0.00     0.025 A 
ENDBRANCH  23  25
ENDBRANCH   1  23
TORSDOF 5
