REMARK  5 active torsions:
REMARK  status: ('A' for Active; 'I' for Inactive)
REMARK    1  A    between atoms: S1_3  and  N1_5 
REMARK    2  A    between atoms: N1_5  and  C2_6 
REMARK    3  A    between atoms: C2_6  and  C3_7 
REMARK    4  A    between atoms: C3_7  and  N2_8 
REMARK    5  A    between atoms: N2_8  and  C4_9 
ROOT
HETATM    1  O1  UNL     1       4.824  -1.970  -0.503  1.00  0.00    -0.271 OA
HETATM    2  C1  UNL     1       3.606  -2.258  -0.576  1.00  0.00     0.321 C 
HETATM    3  S1  UNL     1       2.035  -2.668  -0.597  1.00  0.00     0.219 S 
HETATM    4  O2  UNL     1       1.503  -3.377   0.698  1.00  0.00    -0.225 OA
ENDROOT
BRANCH   3   5
HETATM    5  N1  UNL     1       1.050  -1.438  -1.053  1.00  0.00    -0.179 NA
BRANCH   5   6
HETATM    6  C2  UNL     1       1.155  -0.349  -0.139  1.00  0.00     0.091 C 
HETATM    7  C10 UNL     1       2.270   0.557  -0.235  1.00  0.00     0.023 A 
HETATM    8  C11 UNL     1       3.460   0.959  -0.856  1.00  0.00     0.152 A 
HETATM    9  C13 UNL     1       2.913   1.692   0.272  1.00  0.00     0.152 A 
HETATM   10  N3  UNL     1       4.597   1.555  -1.254  1.00  0.00    -0.261 NA
HETATM   11  C12 UNL     1       4.767   2.608  -0.429  1.00  0.00     0.223 A 
HETATM   12  N4  UNL     1       3.785   2.698   0.472  1.00  0.00    -0.261 NA
BRANCH   6  13
HETATM   13  C3  UNL     1       0.210  -0.211   0.773  1.00  0.00     0.121 C 
BRANCH  13  14
HETATM   14  N2  UNL     1      -0.880  -1.091   0.872  1.00  0.00    -0.364 N 
HETATM   15  H2  UNL     1      -0.894  -2.102   1.137  1.00  0.00     0.165 HD
BRANCH  14  16
HETATM   16  C4  UNL     1      -2.148  -0.510   0.563  1.00  0.00     0.033 A 
HETATM   17  C5  UNL     1      -2.274   0.809   0.199  1.00  0.00     0.029 A 
HETATM   18  C6  UNL     1      -3.462   1.441  -0.114  1.00  0.00     0.004 A 
HETATM   19  C7  UNL     1      -4.607   0.681  -0.054  1.00  0.00     0.019 A 
HETATM   20  C8  UNL     1      -4.554  -0.649   0.304  1.00  0.00     0.013 A 
HETATM   21 BR1  UNL     1      -6.111  -1.743   0.402  1.00  0.00    -0.051 Br
HETATM   22  C9  UNL     1      -3.334  -1.219   0.604  1.00  0.00     0.048 A 
ENDBRANCH  14  16
ENDBRANCH  13  14
ENDBRANCH   6  13
ENDBRANCH   5   6
ENDBRANCH   3   5
TORSDOF 5
