REMARK  1 active torsions:
REMARK  status: ('A' for Active; 'I' for Inactive)
REMARK    1  A    between atoms: C7_10  and  N2_11 
ROOT
HETATM    1  O1  UNL     1       4.005  -0.475   1.997  1.00  0.00    -0.268 OA
HETATM    2  C1  UNL     1       3.336   0.317   1.307  1.00  0.00     0.244 C 
HETATM    3  C2  UNL     1       3.494   1.633   0.765  1.00  0.00     0.075 C 
HETATM    4  C3  UNL     1       2.975   2.539   0.016  1.00  0.00     0.058 C 
HETATM    5  C4  UNL     1       1.959   3.071  -0.858  1.00  0.00     0.372 A 
HETATM    6  O2  UNL     1       1.544   1.904  -0.648  1.00  0.00    -0.146 OA
HETATM    7  N1  UNL     1       0.748   2.779  -1.527  1.00  0.00     0.090 N 
HETATM    8  C5  UNL     1      -0.280   1.806  -1.809  1.00  0.00     0.279 C 
HETATM    9  C6  UNL     1      -1.012   1.310  -0.594  1.00  0.00     0.078 C 
HETATM   10  C7  UNL     1      -2.002   0.244  -1.088  1.00  0.00     0.192 C 
HETATM   11  N4  UNL     1      -1.264  -0.891  -1.692  1.00  0.00    -0.354 N 
HETATM   12  C11 UNL     1      -0.335  -1.662  -0.932  1.00  0.00     0.137 C 
HETATM   13  N5  UNL     1      -1.314  -2.173  -0.266  1.00  0.00    -0.074 NA
HETATM   14  F1  UNL     1      -1.140  -3.064   0.704  1.00  0.00    -0.073 F 
HETATM   15  C12 UNL     1       1.066  -2.116  -0.595  1.00  0.00     0.109 C 
HETATM   16  C13 UNL     1       1.074  -2.740   0.756  1.00  0.00    -0.002 C 
HETATM   17  C14 UNL     1       1.758  -1.968   1.633  1.00  0.00     0.087 C 
HETATM   18  N6  UNL     1       2.402  -0.740   1.372  1.00  0.00    -0.334 N 
HETATM   19  H3  UNL     1       0.626   3.741  -1.984  1.00  0.00     0.322 HD
HETATM   20  H12 UNL     1      -1.345  -1.227  -2.689  1.00  0.00     0.163 HD
HETATM   21  H17 UNL     1       1.618  -0.259   0.885  1.00  0.00     0.168 HD
ENDROOT
BRANCH  10  22
HETATM   22  N2  UNL     1      -2.748  -0.233   0.058  1.00  0.00    -0.328 N 
HETATM   23  C8  UNL     1      -2.526  -0.070   1.379  1.00  0.00     0.113 A 
HETATM   24  C9  UNL     1      -3.493  -0.698   2.122  1.00  0.00     0.135 A 
HETATM   25  N3  UNL     1      -4.323  -1.257   1.199  1.00  0.00    -0.255 NA
HETATM   26  C10 UNL     1      -3.876  -0.978  -0.042  1.00  0.00     0.210 A 
ENDBRANCH  10  22
TORSDOF 1
