REMARK  5 active torsions:
REMARK  status: ('A' for Active; 'I' for Inactive)
REMARK    1  A    between atoms: C3_3  and  N1_4 
REMARK    2  A    between atoms: N1_4  and  C4_5 
REMARK    3  A    between atoms: N3_17  and  C14_18 
REMARK    4  A    between atoms: C14_18  and  O2_19 
REMARK    5  A    between atoms: O2_19  and  C15_20 
ROOT
HETATM    1  C1  UNL     1       3.517   4.932   1.452  1.00  0.00     0.014 C 
HETATM    2  C2  UNL     1       4.433   4.175   1.235  1.00  0.00    -0.098 C 
HETATM    3  C3  UNL     1       5.543   3.279   0.956  1.00  0.00     0.214 C 
ENDROOT
BRANCH   3   4
HETATM    4  N1  UNL     1       5.222   1.982   1.479  1.00  0.00    -0.367 N 
HETATM    5  H4  UNL     1       5.539   1.355   2.259  1.00  0.00     0.161 HD
BRANCH   4   6
HETATM    6  C4  UNL     1       4.261   1.047   1.051  1.00  0.00     0.107 C 
HETATM    7  C5  UNL     1       4.292  -0.158   0.487  1.00  0.00     0.075 C 
HETATM    8  C6  UNL     1       4.706  -1.402  -0.101  1.00  0.00     0.029 C 
HETATM    9  C7  UNL     1       4.179  -2.513  -0.576  1.00  0.00    -0.020 C 
HETATM   10  C8  UNL     1       2.982  -3.309  -0.860  1.00  0.00     0.002 C 
HETATM   11  C9  UNL     1       1.731  -3.125  -0.665  1.00  0.00     0.073 C 
HETATM   12  C10 UNL     1       0.347  -2.847  -0.411  1.00  0.00     0.241 C 
HETATM   13  O1  UNL     1      -0.500  -2.080   0.087  1.00  0.00    -0.269 OA
HETATM   14  N2  UNL     1      -0.774  -3.614  -0.796  1.00  0.00    -0.358 N 
HETATM   15  C11 UNL     1      -2.107  -3.120  -0.460  1.00  0.00     0.124 C 
HETATM   16  H10 UNL     1      -0.464  -4.466  -1.284  1.00  0.00     0.162 HD
HETATM   17  C12 UNL     1      -2.285  -1.789  -1.152  1.00  0.00     0.041 C 
HETATM   18  C13 UNL     1      -3.530  -1.061  -0.704  1.00  0.00     0.149 C 
HETATM   19  N3  UNL     1      -3.503   0.339  -1.114  1.00  0.00    -0.282 N 
HETATM   20  N4  UNL     1      -2.290   0.844  -1.630  1.00  0.00    -0.186 NA
HETATM   21  C17 UNL     1      -1.282   1.043  -0.834  1.00  0.00     0.157 C 
HETATM   22  C18 UNL     1      -0.081   1.314  -0.078  1.00  0.00     0.138 C 
HETATM   23  N5  UNL     1       0.862   1.483   0.782  1.00  0.00    -0.253 NA
HETATM   24  C19 UNL     1       2.143   1.970   0.394  1.00  0.00     0.234 C 
HETATM   25  N6  UNL     1       2.830   1.082   1.048  1.00  0.00    -0.229 NA
BRANCH  19  26
HETATM   26  C14 UNL     1      -4.800   0.947  -0.828  1.00  0.00     0.313 C 
BRANCH  26  27
HETATM   27  O2  UNL     1      -5.094   0.865   0.545  1.00  0.00    -0.363 OA
BRANCH  27  28
HETATM   28  C15 UNL     1      -6.235   1.432   1.060  1.00  0.00     0.152 C 
HETATM   29  C16 UNL     1      -6.671   1.233   2.295  1.00  0.00     0.037 C 
ENDBRANCH  27  28
ENDBRANCH  26  27
ENDBRANCH  19  26
ENDBRANCH   4   6
ENDBRANCH   3   4
TORSDOF 5
