REMARK  5 active torsions:
REMARK  status: ('A' for Active; 'I' for Inactive)
REMARK    1  A    between atoms: C2_2  and  S1_3 
REMARK    2  A    between atoms: S1_3  and  N1_6 
REMARK    3  A    between atoms: N1_6  and  C3_7 
REMARK    4  A    between atoms: C6_10  and  N2_11 
REMARK    5  A    between atoms: N2_11  and  C7_12 
ROOT
HETATM    1  C3  UNL     1       1.933  -0.294   0.527  1.00  0.00     0.136 C 
HETATM    2  C4  UNL     1       0.562  -0.224   0.591  1.00  0.00     0.055 C 
HETATM    3  C5  UNL     1      -0.693  -0.738   0.452  1.00  0.00     0.054 C 
HETATM    4  C6  UNL     1      -1.095  -0.942  -0.852  1.00  0.00     0.129 C 
HETATM    5  N3  UNL     1      -0.897  -2.059  -1.572  1.00  0.00    -0.225 NA
HETATM    6  C13 UNL     1      -0.174  -3.014  -0.916  1.00  0.00     0.234 C 
HETATM    7  N4  UNL     1       1.131  -3.115  -0.516  1.00  0.00    -0.253 NA
HETATM    8  C14 UNL     1       1.479  -3.019   0.757  1.00  0.00     0.137 C 
HETATM    9  C15 UNL     1       2.236  -2.259   1.645  1.00  0.00     0.138 C 
HETATM   10  N5  UNL     1       2.327  -0.899   1.633  1.00  0.00    -0.241 NA
ENDROOT
BRANCH   4  11
HETATM   11  N2  UNL     1      -1.690   0.327  -1.040  1.00  0.00    -0.341 N 
HETATM   12  H7  UNL     1      -0.998   0.975  -1.523  1.00  0.00     0.167 HD
BRANCH  11  13
HETATM   13  C7  UNL     1      -2.968   0.814  -0.708  1.00  0.00     0.034 A 
HETATM   14  C8  UNL     1      -3.338   2.085  -1.074  1.00  0.00     0.029 A 
HETATM   15  C9  UNL     1      -4.576   2.603  -0.760  1.00  0.00     0.004 A 
HETATM   16  C10 UNL     1      -5.483   1.858  -0.065  1.00  0.00     0.019 A 
HETATM   17  C11 UNL     1      -5.104   0.592   0.295  1.00  0.00     0.013 A 
HETATM   18 BR1  UNL     1      -6.364  -0.447   1.259  1.00  0.00    -0.051 Br
HETATM   19  C12 UNL     1      -3.865   0.027  -0.000  1.00  0.00     0.048 A 
ENDBRANCH  11  13
ENDBRANCH   4  11
BRANCH   1  20
HETATM   20  N1  UNL     1       2.650   0.227  -0.584  1.00  0.00    -0.265 N 
HETATM   21  H4  UNL     1       2.096   0.663  -1.350  1.00  0.00     0.180 HD
BRANCH  20  22
HETATM   22  S1  UNL     1       4.363   0.057  -0.490  1.00  0.00     0.253 S 
HETATM   23  O1  UNL     1       5.076   0.567  -1.707  1.00  0.00    -0.201 OA
HETATM   24  O2  UNL     1       4.744  -1.390  -0.288  1.00  0.00    -0.201 OA
BRANCH  22  25
HETATM   25  C2  UNL     1       4.907   0.961   0.927  1.00  0.00     0.121 C 
HETATM   26  C1  UNL     1       4.751   2.258   0.669  1.00  0.00     0.025 C 
ENDBRANCH  22  25
ENDBRANCH  20  22
ENDBRANCH   1  20
TORSDOF 5
