REMARK  3 active torsions:
REMARK  status: ('A' for Active; 'I' for Inactive)
REMARK    1  A    between atoms: O1_2  and  C2_3 
REMARK    2  A    between atoms: C10_11  and  N1_12 
REMARK    3  A    between atoms: N1_12  and  C11_13 
ROOT
HETATM    1  C2  UNL     1      -4.276   0.583  -0.501  1.00  0.00     0.068 A 
HETATM    2  C3  UNL     1      -4.784  -0.558   0.085  1.00  0.00     0.039 A 
HETATM    3  C4  UNL     1      -3.999  -1.535   0.660  1.00  0.00     0.040 A 
HETATM    4  C5  UNL     1      -2.625  -1.331   0.634  1.00  0.00     0.084 A 
HETATM    5  C6  UNL     1      -2.077  -0.205   0.058  1.00  0.00    -0.017 A 
HETATM    6  C7  UNL     1      -2.906   0.743  -0.504  1.00  0.00     0.047 A 
HETATM    7  C8  UNL     1      -0.638   0.062   0.001  1.00  0.00     0.088 A 
HETATM    8  C9  UNL     1       0.192  -0.994   0.622  1.00  0.00     0.045 A 
HETATM    9  C10 UNL     1       1.559  -0.855   0.629  1.00  0.00     0.140 A 
HETATM   10  N2  UNL     1       2.221  -1.863   1.214  1.00  0.00    -0.224 NA
HETATM   11  C17 UNL     1       1.673  -2.950   1.768  1.00  0.00     0.238 A 
HETATM   12  N3  UNL     1       0.332  -3.046   1.739  1.00  0.00    -0.217 NA
HETATM   13  C18 UNL     1      -0.416  -2.093   1.178  1.00  0.00     0.181 A 
HETATM   14  O2  UNL     1      -1.787  -2.282   1.198  1.00  0.00    -0.291 OA
ENDROOT
BRANCH   9  15
HETATM   15  N1  UNL     1       2.157   0.286   0.048  1.00  0.00    -0.340 N 
HETATM   16  H9  UNL     1       1.501   1.006  -0.382  1.00  0.00     0.167 HD
BRANCH  15  17
HETATM   17  C11 UNL     1       3.523   0.641  -0.061  1.00  0.00     0.035 A 
HETATM   18  C12 UNL     1       3.937   1.828  -0.678  1.00  0.00     0.029 A 
HETATM   19  C13 UNL     1       5.264   2.168  -0.781  1.00  0.00     0.004 A 
HETATM   20  C14 UNL     1       6.256   1.355  -0.279  1.00  0.00     0.019 A 
HETATM   21  C15 UNL     1       5.908   0.188   0.332  1.00  0.00     0.013 A 
HETATM   22 BR1  UNL     1       7.278  -0.926   1.020  1.00  0.00    -0.051 Br
HETATM   23  C16 UNL     1       4.568  -0.119   0.416  1.00  0.00     0.048 A 
ENDBRANCH  15  17
ENDBRANCH   9  15
BRANCH   1  24
HETATM   24  O1  UNL     1      -5.060   1.572  -1.083  1.00  0.00    -0.356 OA
HETATM   25  C1  UNL     1      -6.460   1.519  -1.139  1.00  0.00     0.210 C 
ENDBRANCH   1  24
TORSDOF 3
