REMARK  8 active torsions:
REMARK  status: ('A' for Active; 'I' for Inactive)
REMARK    1  A    between atoms: N3_8  and  C6_9 
REMARK    2  A    between atoms: C6_9  and  N4_10 
REMARK       I    between atoms: N4_10  and  C8_12 
REMARK    3  A    between atoms: C8_12  and  C9_14 
REMARK    4  A    between atoms: C10_15  and  C11_16 
REMARK       I    between atoms: C11_16  and  N5_18 
REMARK    5  A    between atoms: N5_18  and  C12_19 
REMARK    6  A    between atoms: C12_19  and  C13_20 
REMARK    7  A    between atoms: C13_20  and  C14_21 
REMARK    8  A    between atoms: C14_21  and  N6_22 
ROOT
HETATM    1  N4  UNL     1       2.692  -0.424   1.348  1.00  0.00    -0.335 N 
HETATM    2  C7  UNL     1       2.139   0.286   2.494  1.00  0.00     0.154 C 
HETATM    3  C8  UNL     1       1.942  -1.101   0.362  1.00  0.00     0.244 C 
HETATM    4  O1  UNL     1       2.921  -1.482  -0.331  1.00  0.00    -0.268 OA
ENDROOT
BRANCH   3   5
HETATM    5  C9  UNL     1       0.576  -1.392   0.044  1.00  0.00     0.080 C 
HETATM    6  C10 UNL     1      -0.489  -1.013   0.735  1.00  0.00     0.079 C 
BRANCH   6   7
HETATM    7  C11 UNL     1      -1.887  -1.291   0.442  1.00  0.00     0.241 C 
HETATM    8  O2  UNL     1      -2.764  -0.827   1.246  1.00  0.00    -0.269 OA
HETATM    9  N5  UNL     1      -2.401  -2.031  -0.650  1.00  0.00    -0.358 N 
HETATM   10  H12 UNL     1      -1.531  -2.350  -1.193  1.00  0.00     0.162 HD
BRANCH   9  11
HETATM   11  C12 UNL     1      -3.647  -2.426  -1.175  1.00  0.00     0.124 C 
BRANCH  11  12
HETATM   12  C13 UNL     1      -4.598  -1.443  -1.719  1.00  0.00     0.050 C 
BRANCH  12  13
HETATM   13  C14 UNL     1      -5.012  -0.383  -0.762  1.00  0.00     0.273 C 
BRANCH  13  14
HETATM   14  N6  UNL     1      -6.014   0.520  -1.364  1.00  0.00     0.080 N 
HETATM   15  C15 UNL     1      -7.271  -0.121  -1.586  1.00  0.00     0.309 C 
HETATM   16  C16 UNL     1      -5.479   1.178  -2.513  1.00  0.00     0.309 C 
ENDBRANCH  13  14
ENDBRANCH  12  13
ENDBRANCH  11  12
ENDBRANCH   9  11
ENDBRANCH   6   7
ENDBRANCH   3   5
BRANCH   1  17
HETATM   17  C6  UNL     1       4.139  -0.446   1.188  1.00  0.00     0.276 C 
BRANCH  17  18
HETATM   18  N3  UNL     1       4.541   0.670   0.414  1.00  0.00    -0.267 NA
HETATM   19  C5  UNL     1       5.508   1.464   0.538  1.00  0.00     0.095 A 
HETATM   20  C2  UNL     1       6.624   1.647   1.451  1.00  0.00     0.066 A 
HETATM   21  C4  UNL     1       5.525   2.500  -0.525  1.00  0.00     0.151 A 
HETATM   22  C1  UNL     1       6.644   0.747   2.411  1.00  0.00     0.068 C 
HETATM   23  N1  UNL     1       7.561   2.698   1.283  1.00  0.00    -0.244 NA
HETATM   24  C3  UNL     1       7.488   3.544   0.329  1.00  0.00     0.232 A 
HETATM   25  N2  UNL     1       6.418   3.410  -0.589  1.00  0.00    -0.252 NA
ENDBRANCH  17  18
ENDBRANCH   1  17
TORSDOF 8
