REMARK  2 active torsions:
REMARK  status: ('A' for Active; 'I' for Inactive)
REMARK    1  A    between atoms: C10_14  and  N3_15 
REMARK    2  A    between atoms: N3_15  and  C11_16 
ROOT
HETATM    1  O1  UNL     1       3.724  -0.739   0.424  1.00  0.00    -0.343 OA
HETATM    2  C1  UNL     1       3.913  -1.868   0.944  1.00  0.00     0.211 A 
HETATM    3  C2  UNL     1       4.674  -1.456  -0.231  1.00  0.00     0.189 A 
HETATM    4  C3  UNL     1       4.654  -0.350  -0.999  1.00  0.00     0.018 C 
HETATM    5  C4  UNL     1       4.005   0.958  -1.179  1.00  0.00    -0.021 C 
HETATM    6  B1  UNL     1       3.243   1.014  -2.600  1.00  0.00     0.269 B 
HETATM    7  N1  UNL     1       1.837   0.366  -2.598  1.00  0.00    -0.451 N 
HETATM    8  C5  UNL     1       0.616   0.693  -1.962  1.00  0.00     0.074 C 
HETATM    9  C6  UNL     1       0.069   0.268  -0.840  1.00  0.00    -0.022 C 
HETATM   10  C7  UNL     1       0.551  -0.735   0.181  1.00  0.00     0.051 C 
HETATM   11  C8  UNL     1       0.919   0.109   1.363  1.00  0.00     0.047 C 
HETATM   12  C9  UNL     1      -0.350   0.600   2.020  1.00  0.00     0.093 C 
HETATM   13  N2  UNL     1      -1.145   1.055   1.128  1.00  0.00    -0.275 NA
HETATM   14  C10 UNL     1      -1.200   0.741  -0.247  1.00  0.00     0.236 C 
HETATM   15  C17 UNL     1       1.948  -0.378   2.291  1.00  0.00     0.127 C 
HETATM   16  N4  UNL     1       2.901  -1.337   1.785  1.00  0.00    -0.385 N 
HETATM   17  H5  UNL     1       3.888   0.806  -3.558  1.00  0.00    -0.001 HD
HETATM   18  H6  UNL     1       1.552  -0.491  -3.117  1.00  0.00     0.137 HD
HETATM   19  H20 UNL     1       3.035  -2.298   2.233  1.00  0.00     0.156 HD
ENDROOT
BRANCH  14  20
HETATM   20  N3  UNL     1      -2.285  -0.171  -0.574  1.00  0.00    -0.364 N 
HETATM   21  H13 UNL     1      -2.060  -1.028  -1.162  1.00  0.00     0.162 HD
BRANCH  20  22
HETATM   22  C11 UNL     1      -3.647  -0.057  -0.193  1.00  0.00     0.031 A 
HETATM   23  C12 UNL     1      -4.631  -0.978  -0.546  1.00  0.00     0.029 A 
HETATM   24  C13 UNL     1      -5.926  -0.766  -0.120  1.00  0.00     0.004 A 
HETATM   25  C14 UNL     1      -6.323   0.307   0.640  1.00  0.00     0.019 A 
HETATM   26  C15 UNL     1      -5.353   1.197   0.976  1.00  0.00     0.013 A 
HETATM   27 BR1  UNL     1      -5.904   2.705   2.043  1.00  0.00    -0.051 Br
HETATM   28  C16 UNL     1      -4.054   1.025   0.575  1.00  0.00     0.048 A 
ENDBRANCH  20  22
ENDBRANCH  14  20
TORSDOF 2
