REMARK  8 active torsions:
REMARK  status: ('A' for Active; 'I' for Inactive)
REMARK    1  A    between atoms: C2_2  and  S1_3 
REMARK    2  A    between atoms: S1_3  and  N1_6 
REMARK    3  A    between atoms: N1_6  and  C3_7 
REMARK    4  A    between atoms: N2_11  and  C7_12 
REMARK    5  A    between atoms: C7_12  and  N3_13 
REMARK    6  A    between atoms: N4_14  and  C8_15 
REMARK    7  A    between atoms: C8_15  and  N5_16 
REMARK    8  A    between atoms: N5_16  and  C9_17 
ROOT
HETATM    1  C3  UNL     1       3.862   0.758  -0.364  1.00  0.00     0.133 A 
HETATM    2  C4  UNL     1       3.475   0.219   0.783  1.00  0.00     0.030 A 
HETATM    3  C5  UNL     1       2.127  -0.123   1.309  1.00  0.00     0.091 A 
HETATM    4  C6  UNL     1       1.140   0.259   0.266  1.00  0.00     0.052 A 
HETATM    5  N2  UNL     1      -0.023  -0.022   0.690  1.00  0.00    -0.269 NA
HETATM    6  C15 UNL     1       1.555   0.854  -1.002  1.00  0.00     0.146 A 
HETATM    7  N6  UNL     1       2.802   1.069  -1.260  1.00  0.00    -0.241 NA
ENDROOT
BRANCH   5   8
HETATM    8  C7  UNL     1      -1.217   0.221  -0.076  1.00  0.00     0.322 C 
BRANCH   8   9
HETATM    9  N3  UNL     1      -1.604  -0.910  -0.865  1.00  0.00    -0.175 NA
HETATM   10  N4  UNL     1      -2.376  -0.782  -1.825  1.00  0.00    -0.177 NA
BRANCH  10  11
HETATM   11  C8  UNL     1      -2.899   0.510  -2.164  1.00  0.00     0.295 C 
BRANCH  11  12
HETATM   12  N5  UNL     1      -3.596   1.099  -1.044  1.00  0.00    -0.370 N 
HETATM   13  H12 UNL     1      -3.289   2.011  -0.634  1.00  0.00     0.161 HD
BRANCH  12  14
HETATM   14  C9  UNL     1      -4.729   0.454  -0.461  1.00  0.00     0.030 A 
HETATM   15  C10 UNL     1      -5.404   1.016   0.616  1.00  0.00     0.029 A 
HETATM   16  C11 UNL     1      -6.499   0.416   1.198  1.00  0.00     0.004 A 
HETATM   17  C12 UNL     1      -6.939  -0.789   0.688  1.00  0.00     0.019 A 
HETATM   18  C13 UNL     1      -6.293  -1.377  -0.381  1.00  0.00     0.013 A 
HETATM   19 BR1  UNL     1      -6.994  -3.025  -0.983  1.00  0.00    -0.051 Br
HETATM   20  C14 UNL     1      -5.190  -0.750  -0.950  1.00  0.00     0.048 A 
ENDBRANCH  12  14
ENDBRANCH  11  12
ENDBRANCH  10  11
ENDBRANCH   8   9
ENDBRANCH   5   8
BRANCH   1  21
HETATM   21  N1  UNL     1       5.219   0.987  -0.635  1.00  0.00    -0.265 N 
HETATM   22  H4  UNL     1       5.317   1.956  -1.043  1.00  0.00     0.180 HD
BRANCH  21  23
HETATM   23  S1  UNL     1       6.543  -0.081  -0.374  1.00  0.00     0.253 S 
HETATM   24  O1  UNL     1       7.763   0.594  -0.983  1.00  0.00    -0.201 OA
HETATM   25  O2  UNL     1       6.300  -1.300  -1.231  1.00  0.00    -0.201 OA
BRANCH  23  26
HETATM   26  C2  UNL     1       6.780  -0.518   1.287  1.00  0.00     0.121 C 
HETATM   27  C1  UNL     1       7.194   0.424   2.133  1.00  0.00     0.025 C 
ENDBRANCH  23  26
ENDBRANCH  21  23
ENDBRANCH   1  21
TORSDOF 8
