REMARK  8 active torsions:
REMARK  status: ('A' for Active; 'I' for Inactive)
REMARK    1  A    between atoms: C2_2  and  S1_3 
REMARK    2  A    between atoms: S1_3  and  N1_6 
REMARK    3  A    between atoms: N1_6  and  C3_7 
REMARK    4  A    between atoms: C4_8  and  C5_9 
REMARK    5  A    between atoms: C8_14  and  N4_15 
REMARK    6  A    between atoms: N4_15  and  C9_16 
REMARK    7  A    between atoms: C9_16  and  C10_17 
REMARK    8  A    between atoms: C11_18  and  C12_19 
ROOT
HETATM    1  C5  UNL     1       0.277   1.067   0.013  1.00  0.00     0.028 A 
HETATM    2  C6  UNL     1       0.954   2.234  -0.266  1.00  0.00     0.133 A 
HETATM    3  N2  UNL     1       0.332   3.392  -0.010  1.00  0.00    -0.253 NA
HETATM    4  C7  UNL     1      -0.917   3.385   0.506  1.00  0.00     0.234 A 
HETATM    5  N3  UNL     1      -1.569   2.241   0.776  1.00  0.00    -0.224 NA
HETATM    6  C8  UNL     1      -0.998   1.053   0.539  1.00  0.00     0.136 A 
ENDROOT
BRANCH   1   7
HETATM    7  C4  UNL     1       0.965  -0.186  -0.271  1.00  0.00     0.034 C 
HETATM    8  C3  UNL     1       2.186  -0.176  -0.775  1.00  0.00     0.101 C 
BRANCH   8   9
HETATM    9  N1  UNL     1       3.007  -1.286  -1.114  1.00  0.00    -0.292 N 
HETATM   10  H4  UNL     1       3.067  -1.804  -2.029  1.00  0.00     0.178 HD
BRANCH   9  11
HETATM   11  S1  UNL     1       3.999  -1.764   0.233  1.00  0.00     0.251 S 
HETATM   12  O1  UNL     1       3.056  -1.968   1.397  1.00  0.00    -0.201 OA
HETATM   13  O2  UNL     1       4.792  -2.982  -0.060  1.00  0.00    -0.201 OA
BRANCH  11  14
HETATM   14  C2  UNL     1       5.013  -0.376   0.588  1.00  0.00     0.121 C 
HETATM   15  C1  UNL     1       6.324  -0.536   0.451  1.00  0.00     0.025 C 
ENDBRANCH  11  14
ENDBRANCH   9  11
ENDBRANCH   8   9
ENDBRANCH   1   7
BRANCH   6  16
HETATM   16  N4  UNL     1      -1.690  -0.153   0.827  1.00  0.00    -0.371 N 
HETATM   17  H9  UNL     1      -1.261  -1.087   0.652  1.00  0.00     0.161 HD
BRANCH  16  18
HETATM   18  C9  UNL     1      -3.036  -0.166   1.382  1.00  0.00     0.148 C 
BRANCH  18  19
HETATM   19  C10 UNL     1      -3.938   0.513   0.423  1.00  0.00    -0.011 C 
HETATM   20  C11 UNL     1      -4.982  -0.073  -0.148  1.00  0.00    -0.018 C 
BRANCH  20  21
HETATM   21  C12 UNL     1      -5.469  -1.468   0.027  1.00  0.00     0.112 C 
HETATM   22 BR1  UNL     1      -5.455  -2.413  -1.674  1.00  0.00    -0.092 Br
ENDBRANCH  20  21
ENDBRANCH  18  19
ENDBRANCH  16  18
ENDBRANCH   6  16
TORSDOF 8
