REMARK  5 active torsions:
REMARK  status: ('A' for Active; 'I' for Inactive)
REMARK    1  A    between atoms: S1_2  and  O2_3 
REMARK    2  A    between atoms: S1_2  and  N1_4 
REMARK    3  A    between atoms: N1_4  and  C1_5 
REMARK    4  A    between atoms: C6_12  and  N4_13 
REMARK    5  A    between atoms: N4_13  and  C7_14 
ROOT
HETATM    1  C1  UNL     1       2.960  -0.008   0.783  1.00  0.00     0.043 A 
HETATM    2  C2  UNL     1       3.749   0.785  -0.050  1.00  0.00     0.032 A 
HETATM    3  C3  UNL     1       3.102   1.529  -1.041  1.00  0.00     0.035 A 
HETATM    4  C4  UNL     1       1.738   1.432  -1.128  1.00  0.00     0.072 A 
HETATM    5  N2  UNL     1       1.157   2.175  -2.093  1.00  0.00    -0.241 NA
HETATM    6  C5  UNL     1      -0.178   2.145  -2.244  1.00  0.00     0.236 A 
HETATM    7  N3  UNL     1      -0.945   1.398  -1.462  1.00  0.00    -0.224 NA
HETATM    8  C6  UNL     1      -0.437   0.646  -0.496  1.00  0.00     0.142 A 
HETATM    9  C13 UNL     1       0.928   0.659  -0.324  1.00  0.00     0.041 A 
HETATM   10  C14 UNL     1       1.596  -0.059   0.637  1.00  0.00     0.048 A 
ENDROOT
BRANCH   8  11
HETATM   11  N4  UNL     1      -1.215  -0.143   0.366  1.00  0.00    -0.340 N 
HETATM   12  H6  UNL     1      -0.825  -0.739   1.095  1.00  0.00     0.167 HD
BRANCH  11  13
HETATM   13  C7  UNL     1      -2.627  -0.284   0.418  1.00  0.00     0.035 A 
HETATM   14  C8  UNL     1      -3.360  -0.905   1.407  1.00  0.00     0.029 A 
HETATM   15  C9  UNL     1      -4.710  -1.029   1.446  1.00  0.00     0.004 A 
HETATM   16  C10 UNL     1      -5.475  -0.510   0.439  1.00  0.00     0.019 A 
HETATM   17  C11 UNL     1      -4.813   0.117  -0.571  1.00  0.00     0.013 A 
HETATM   18 BR1  UNL     1      -5.930   0.833  -1.966  1.00  0.00    -0.051 Br
HETATM   19  C12 UNL     1      -3.445   0.219  -0.571  1.00  0.00     0.048 A 
ENDBRANCH  11  13
ENDBRANCH   8  11
BRANCH   1  20
HETATM   20  N1  UNL     1       3.789  -0.673   1.725  1.00  0.00    -0.283 N 
HETATM   21  H2  UNL     1       4.039  -0.705   2.756  1.00  0.00     0.178 HD
BRANCH  20  22
HETATM   22  S1  UNL     1       4.887  -1.951   1.172  1.00  0.00     0.261 S 
HETATM   23  O1  UNL     1       6.272  -1.318   0.899  1.00  0.00    -0.204 OA
BRANCH  22  24
HETATM   24  O2  UNL     1       4.303  -2.466  -0.360  1.00  0.00    -0.289 OA
HETATM   25  H1  UNL     1       4.214  -1.684  -0.980  1.00  0.00     0.232 HD
ENDBRANCH  22  24
ENDBRANCH  20  22
ENDBRANCH   1  20
TORSDOF 5
