REMARK  4 active torsions:
REMARK  status: ('A' for Active; 'I' for Inactive)
REMARK    1  A    between atoms: C2_2  and  S1_3 
REMARK    2  A    between atoms: S1_3  and  N1_6 
REMARK    3  A    between atoms: C7_13  and  N4_14 
REMARK    4  A    between atoms: N4_14  and  C8_15 
ROOT
HETATM    1  N1  UNL     1      -2.438   0.269   0.417  1.00  0.00    -0.258 N 
HETATM    2  C3  UNL     1      -3.032  -0.809   1.116  1.00  0.00     0.110 A 
HETATM    3  C4  UNL     1      -2.381  -1.966   1.270  1.00  0.00     0.032 A 
HETATM    4  C5  UNL     1      -1.041  -2.151   0.722  1.00  0.00    -0.002 A 
HETATM    5  C6  UNL     1      -0.335  -3.265   0.835  1.00  0.00     0.121 A 
HETATM    6  N2  UNL     1       0.960  -3.301   0.249  1.00  0.00    -0.287 N 
HETATM    7  N3  UNL     1       1.561  -2.231  -0.451  1.00  0.00    -0.156 NA
HETATM    8  C7  UNL     1       0.893  -1.109  -0.584  1.00  0.00     0.160 A 
HETATM    9  C14 UNL     1      -0.459  -1.021   0.007  1.00  0.00     0.040 A 
HETATM   10  C15 UNL     1      -1.130   0.133  -0.135  1.00  0.00     0.125 A 
HETATM   11  H7  UNL     1       1.542  -4.185   0.328  1.00  0.00     0.188 HD
ENDROOT
BRANCH   8  12
HETATM   12  N4  UNL     1       1.487  -0.012  -1.292  1.00  0.00    -0.339 N 
HETATM   13  H8  UNL     1       0.785   0.509  -1.902  1.00  0.00     0.167 HD
BRANCH  12  14
HETATM   14  C8  UNL     1       2.898   0.228  -1.087  1.00  0.00     0.035 A 
HETATM   15  C9  UNL     1       3.980  -0.328  -1.697  1.00  0.00     0.029 A 
HETATM   16  C10 UNL     1       5.228   0.092  -1.319  1.00  0.00     0.004 A 
HETATM   17  C11 UNL     1       5.439   1.046  -0.354  1.00  0.00     0.019 A 
HETATM   18  C12 UNL     1       4.355   1.631   0.285  1.00  0.00     0.013 A 
HETATM   19 BR1  UNL     1       4.645   2.954   1.619  1.00  0.00    -0.051 Br
HETATM   20  C13 UNL     1       3.097   1.202  -0.101  1.00  0.00     0.048 A 
ENDBRANCH  12  14
ENDBRANCH   8  12
BRANCH   1  21
HETATM   21  S1  UNL     1      -3.275   1.759   0.224  1.00  0.00     0.257 S 
HETATM   22  O1  UNL     1      -2.416   2.749  -0.509  1.00  0.00    -0.201 OA
HETATM   23  O2  UNL     1      -3.531   2.306   1.621  1.00  0.00    -0.201 OA
BRANCH  21  24
HETATM   24  C2  UNL     1      -4.754   1.558  -0.673  1.00  0.00     0.122 C 
HETATM   25  C1  UNL     1      -5.610   2.566  -0.789  1.00  0.00     0.025 C 
ENDBRANCH  21  24
ENDBRANCH   1  21
TORSDOF 4
