REMARK  7 active torsions:
REMARK  status: ('A' for Active; 'I' for Inactive)
REMARK    1  A    between atoms: C2_2  and  S1_3 
REMARK    2  A    between atoms: S1_3  and  N1_5 
REMARK    3  A    between atoms: N1_5  and  C3_6 
REMARK    4  A    between atoms: C4_7  and  C5_8 
REMARK    5  A    between atoms: C6_9  and  N2_10 
REMARK    6  A    between atoms: N2_10  and  O2_11 
REMARK    7  A    between atoms: C8_15  and  N5_16 
ROOT
HETATM    1  C5  UNL     1      -0.845  -1.307  -0.262  1.00  0.00     0.059 A 
HETATM    2  C6  UNL     1      -0.815  -2.668  -0.384  1.00  0.00     0.162 A 
HETATM    3  N3  UNL     1      -1.746  -3.500   0.133  1.00  0.00    -0.222 NA
HETATM    4  C7  UNL     1      -2.765  -2.916   0.813  1.00  0.00     0.237 A 
HETATM    5  N4  UNL     1      -2.799  -1.585   0.935  1.00  0.00    -0.223 NA
HETATM    6  C8  UNL     1      -1.884  -0.744   0.428  1.00  0.00     0.145 A 
ENDROOT
BRANCH   1   7
HETATM    7  C4  UNL     1       0.150  -0.405  -0.791  1.00  0.00     0.037 C 
HETATM    8  C3  UNL     1       1.248  -0.624  -1.477  1.00  0.00     0.099 C 
BRANCH   8   9
HETATM    9  N1  UNL     1       2.244   0.217  -2.012  1.00  0.00    -0.313 N 
HETATM   10  H4  UNL     1       2.451   0.485  -3.006  1.00  0.00     0.175 HD
BRANCH   9  11
HETATM   11  S1  UNL     1       3.264   0.894  -0.793  1.00  0.00     0.138 S 
HETATM   12  O1  UNL     1       2.625   1.067   0.550  1.00  0.00    -0.231 OA
BRANCH  11  13
HETATM   13  C2  UNL     1       4.880   0.214  -0.733  1.00  0.00     0.091 C 
HETATM   14  C1  UNL     1       5.551   0.998   0.108  1.00  0.00     0.023 C 
ENDBRANCH  11  13
ENDBRANCH   9  11
ENDBRANCH   8   9
ENDBRANCH   1   7
BRANCH   2  15
HETATM   15  N2  UNL     1       0.222  -3.311  -1.087  1.00  0.00    -0.251 N 
HETATM   16  H7  UNL     1       0.996  -3.780  -1.568  1.00  0.00     0.196 HD
BRANCH  15  17
HETATM   17  O2  UNL     1      -0.167  -3.470  -2.394  1.00  0.00    -0.288 OA
HETATM   18  H8  UNL     1      -0.433  -2.609  -2.755  1.00  0.00     0.244 HD
ENDBRANCH  15  17
ENDBRANCH   2  15
BRANCH   6  19
HETATM   19  N5  UNL     1      -2.149   0.628   0.670  1.00  0.00    -0.336 N 
HETATM   20  C9  UNL     1      -1.972   0.865   2.085  1.00  0.00     0.112 A 
HETATM   21  C10 UNL     1      -2.105   2.058   2.692  1.00  0.00     0.026 A 
HETATM   22 BR1  UNL     1      -1.884   2.422   4.533  1.00  0.00    -0.050 Br
HETATM   23  C11 UNL     1      -2.471   3.224   1.870  1.00  0.00     0.018 A 
HETATM   24  C12 UNL     1      -2.632   2.945   0.589  1.00  0.00    -0.005 A 
HETATM   25  C13 UNL     1      -2.526   1.705  -0.220  1.00  0.00     0.157 A 
ENDBRANCH   6  19
TORSDOF 7
