REMARK  3 active torsions:
REMARK  status: ('A' for Active; 'I' for Inactive)
REMARK    1  A    between atoms: C2_2  and  S1_3 
REMARK    2  A    between atoms: S1_3  and  N1_6 
REMARK    3  A    between atoms: N1_6  and  C3_7 
ROOT
HETATM    1  C3  UNL     1       1.130  -0.139   0.763  1.00  0.00     0.009 A 
HETATM    2  C4  UNL     1       0.701  -0.579  -0.477  1.00  0.00     0.057 A 
HETATM    3  C5  UNL     1       0.126  -1.756  -0.396  1.00  0.00     0.057 A 
HETATM    4  C6  UNL     1      -0.669  -2.513  -1.202  1.00  0.00     0.163 A 
HETATM    5  N2  UNL     1      -1.442  -3.587  -1.439  1.00  0.00    -0.248 NA
HETATM    6  C7  UNL     1      -1.568  -4.440  -0.339  1.00  0.00     0.225 A 
HETATM    7  N3  UNL     1      -0.846  -3.886   0.688  1.00  0.00    -0.266 NA
HETATM    8  C8  UNL     1      -0.193  -2.737   0.481  1.00  0.00     0.120 A 
HETATM    9  C9  UNL     1       0.426  -1.624   0.927  1.00  0.00     0.093 A 
HETATM   10  C10 UNL     1       0.906  -0.970   1.916  1.00  0.00     0.004 A 
HETATM   11  C11 UNL     1       1.453  -0.148   2.923  1.00  0.00     0.042 C 
HETATM   12  C12 UNL     1       0.172   0.501   3.026  1.00  0.00    -0.023 A 
HETATM   13 BR1  UNL     1      -0.934   1.865   3.908  1.00  0.00    -0.126 Br
HETATM   14  C13 UNL     1      -1.187   0.798   2.355  1.00  0.00     0.092 A 
HETATM   15  C14 UNL     1      -2.003   0.653   1.285  1.00  0.00     0.012 C 
HETATM   16  C15 UNL     1      -2.389   0.146  -0.123  1.00  0.00     0.004 C 
HETATM   17  C16 UNL     1      -2.081  -0.561  -1.274  1.00  0.00     0.129 C 
HETATM   18  N4  UNL     1      -1.129  -1.401  -2.071  1.00  0.00    -0.386 N 
HETATM   19  H13 UNL     1      -1.272  -0.755  -2.882  1.00  0.00     0.156 HD
ENDROOT
BRANCH   1  20
HETATM   20  N1  UNL     1       1.677   1.120   0.475  1.00  0.00    -0.291 N 
HETATM   21  H4  UNL     1       1.629   1.576   1.419  1.00  0.00     0.178 HD
BRANCH  20  22
HETATM   22  S1  UNL     1       2.343   2.106  -0.776  1.00  0.00     0.235 S 
HETATM   23  O1  UNL     1       3.613   1.558  -1.346  1.00  0.00    -0.205 OA
HETATM   24  O2  UNL     1       2.680   3.471  -0.222  1.00  0.00    -0.205 OA
BRANCH  22  25
HETATM   25  C2  UNL     1       1.185   2.377  -2.057  1.00  0.00     0.150 C 
HETATM   26  C1  UNL     1       1.434   3.415  -2.863  1.00  0.00     0.025 C 
ENDBRANCH  22  25
ENDBRANCH  20  22
ENDBRANCH   1  20
TORSDOF 3
