REMARK  6 active torsions:
REMARK  status: ('A' for Active; 'I' for Inactive)
REMARK    1  A    between atoms: C2_2  and  S1_3 
REMARK    2  A    between atoms: S1_3  and  N1_6 
REMARK    3  A    between atoms: N1_6  and  C3_7 
REMARK    4  A    between atoms: C3_7  and  C4_8 
REMARK    5  A    between atoms: C9_15  and  N4_16 
REMARK    6  A    between atoms: N4_16  and  C10_17 
ROOT
HETATM    1  C4  UNL     1       1.565  -1.511   1.079  1.00  0.00    -0.043 A 
HETATM    2  C5  UNL     1       1.443  -2.778   1.607  1.00  0.00     0.011 A 
HETATM    3  C6  UNL     1       0.196  -3.346   1.621  1.00  0.00     0.033 A 
HETATM    4  C7  UNL     1      -0.885  -2.663   1.121  1.00  0.00     0.072 A 
HETATM    5  N2  UNL     1      -2.080  -3.285   1.167  1.00  0.00    -0.241 NA
HETATM    6  C8  UNL     1      -3.205  -2.716   0.709  1.00  0.00     0.236 A 
HETATM    7  N3  UNL     1      -3.076  -1.491   0.200  1.00  0.00    -0.224 NA
HETATM    8  C9  UNL     1      -1.947  -0.785   0.105  1.00  0.00     0.142 A 
HETATM    9  C16 UNL     1      -0.813  -1.397   0.584  1.00  0.00     0.039 A 
HETATM   10  C17 UNL     1       0.450  -0.865   0.589  1.00  0.00     0.026 A 
ENDROOT
BRANCH   8  11
HETATM   11  N4  UNL     1      -1.822   0.515  -0.438  1.00  0.00    -0.340 N 
HETATM   12  H10 UNL     1      -0.917   1.014  -0.473  1.00  0.00     0.167 HD
BRANCH  11  13
HETATM   13  C10 UNL     1      -2.803   1.365  -1.009  1.00  0.00     0.035 A 
HETATM   14  C11 UNL     1      -2.599   2.664  -1.473  1.00  0.00     0.029 A 
HETATM   15  C12 UNL     1      -3.591   3.432  -2.017  1.00  0.00     0.004 A 
HETATM   16  C13 UNL     1      -4.863   2.971  -2.141  1.00  0.00     0.019 A 
HETATM   17  C14 UNL     1      -5.127   1.693  -1.700  1.00  0.00     0.013 A 
HETATM   18 BR1  UNL     1      -6.920   1.085  -1.892  1.00  0.00    -0.051 Br
HETATM   19  C15 UNL     1      -4.106   0.943  -1.157  1.00  0.00     0.048 A 
ENDBRANCH  11  13
ENDBRANCH   8  11
BRANCH   1  20
HETATM   20  C3  UNL     1       2.911  -0.898   1.064  1.00  0.00     0.142 C 
BRANCH  20  21
HETATM   21  N1  UNL     1       3.645  -1.192  -0.148  1.00  0.00    -0.215 NA
HETATM   22  H4  UNL     1       3.177  -0.841  -1.001  1.00  0.00     0.140 HD
BRANCH  21  23
HETATM   23  S1  UNL     1       5.182  -0.402   0.008  1.00  0.00     0.215 S 
HETATM   24  O1  UNL     1       6.025  -0.751  -1.193  1.00  0.00    -0.211 OA
HETATM   25  O2  UNL     1       5.842  -0.936   1.256  1.00  0.00    -0.211 OA
BRANCH  23  26
HETATM   26  C2  UNL     1       4.968   1.336   0.148  1.00  0.00     0.144 C 
HETATM   27  C1  UNL     1       4.773   1.799   1.398  1.00  0.00     0.024 C 
ENDBRANCH  23  26
ENDBRANCH  21  23
ENDBRANCH  20  21
ENDBRANCH   1  20
TORSDOF 6
