REMARK  7 active torsions:
REMARK  status: ('A' for Active; 'I' for Inactive)
REMARK    1  A    between atoms: S1_2  and  C1_4 
REMARK    2  A    between atoms: S1_2  and  C3_7 
REMARK    3  A    between atoms: C1_4  and  C2_5 
REMARK    4  A    between atoms: C2_5  and  O3_6 
REMARK    5  A    between atoms: C6_10  and  N1_12 
REMARK    6  A    between atoms: N1_12  and  C7_13 
REMARK    7  A    between atoms: C7_13  and  C8_14 
ROOT
HETATM    1  C3  UNL     1      -2.661  -0.662   1.052  1.00  0.00     0.151 A 
HETATM    2  C4  UNL     1      -1.599  -0.001   1.538  1.00  0.00     0.054 A 
HETATM    3  C5  UNL     1      -0.382  -0.054   0.737  1.00  0.00    -0.017 A 
HETATM    4  C6  UNL     1       0.648   0.605   1.241  1.00  0.00     0.082 C 
HETATM    5 BR1  UNL     1       0.525   1.546   2.893  1.00  0.00    -0.031 Br
HETATM    6  C13 UNL     1      -0.204  -0.762  -0.555  1.00  0.00     0.088 A 
HETATM    7  C14 UNL     1      -1.496  -1.413  -0.892  1.00  0.00     0.095 A 
HETATM    8  N2  UNL     1      -2.550  -1.357  -0.181  1.00  0.00    -0.253 NA
ENDROOT
BRANCH   4   9
HETATM    9  N1  UNL     1       1.954   0.747   0.717  1.00  0.00    -0.380 N 
HETATM   10  H7  UNL     1       2.009   1.533   0.017  1.00  0.00     0.160 HD
BRANCH   9  11
HETATM   11  C7  UNL     1       2.959  -0.196   1.227  1.00  0.00     0.155 C 
BRANCH  11  12
HETATM   12  C8  UNL     1       4.234   0.160   0.527  1.00  0.00    -0.046 C 
HETATM   13  C9  UNL     1       5.229   0.517   1.316  1.00  0.00    -0.006 C 
HETATM   14  P1  UNL     1       6.760   0.162   0.793  1.00  0.00    -0.022 P 
HETATM   15  C10 UNL     1       6.801   0.166  -1.063  1.00  0.00     0.013 C 
HETATM   16  C11 UNL     1       5.560   0.120  -1.561  1.00  0.00    -0.021 C 
HETATM   17  C12 UNL     1       4.223   0.069  -0.945  1.00  0.00     0.064 C 
ENDBRANCH  11  12
ENDBRANCH   9  11
ENDBRANCH   4   9
BRANCH   1  18
HETATM   18  S1  UNL     1      -4.155  -0.642   1.960  1.00  0.00     0.194 S 
HETATM   19  O1  UNL     1      -3.901  -0.611   3.433  1.00  0.00    -0.221 OA
HETATM   20  O2  UNL     1      -4.927  -1.909   1.661  1.00  0.00    -0.221 OA
BRANCH  18  21
HETATM   21  C1  UNL     1      -5.170   0.735   1.471  1.00  0.00     0.173 C 
BRANCH  21  22
HETATM   22  C2  UNL     1      -5.517   0.658  -0.001  1.00  0.00     0.179 C 
BRANCH  22  23
HETATM   23  O3  UNL     1      -4.391   0.673  -0.801  1.00  0.00    -0.400 OA
HETATM   24  H5  UNL     1      -4.515   0.117  -1.626  1.00  0.00     0.209 HD
ENDBRANCH  22  23
ENDBRANCH  21  22
ENDBRANCH  18  21
ENDBRANCH   1  18
TORSDOF 7
