REMARK  3 active torsions:
REMARK  status: ('A' for Active; 'I' for Inactive)
REMARK    1  A    between atoms: S1_2  and  N1_6 
REMARK    2  A    between atoms: N1_6  and  C3_7 
REMARK    3  A    between atoms: C8_14  and  N4_15 
ROOT
HETATM    1  C1  UNL     1       4.287   2.268   1.467  1.00  0.00     0.146 C 
HETATM    2  S1  UNL     1       3.855   2.128  -0.247  1.00  0.00     0.095 S 
HETATM    3  O1  UNL     1       4.168   3.470  -0.889  1.00  0.00    -0.242 OA
HETATM    4  C2  UNL     1       4.742   1.084  -0.977  1.00  0.00     0.304 C 
HETATM    5  O2  UNL     1       5.417   0.142  -1.380  1.00  0.00    -0.272 OA
ENDROOT
BRANCH   2   6
HETATM    6  N1  UNL     1       2.164   1.787  -0.363  1.00  0.00    -0.310 N 
HETATM    7  H4  UNL     1       1.531   2.497  -0.796  1.00  0.00     0.176 HD
BRANCH   6   8
HETATM    8  C3  UNL     1       1.655   0.573   0.121  1.00  0.00     0.040 A 
HETATM    9  C4  UNL     1       2.530  -0.352   0.695  1.00  0.00     0.032 A 
HETATM   10  C5  UNL     1       2.070  -1.567   1.186  1.00  0.00     0.035 A 
HETATM   11  C6  UNL     1       0.710  -1.889   1.115  1.00  0.00     0.072 A 
HETATM   12  N2  UNL     1       0.168  -3.024   1.548  1.00  0.00    -0.241 NA
HETATM   13  C15 UNL     1      -0.075  -0.920   0.535  1.00  0.00     0.041 A 
HETATM   14  C7  UNL     1      -1.133  -3.328   1.470  1.00  0.00     0.236 A 
HETATM   15  N3  UNL     1      -1.948  -2.390   0.901  1.00  0.00    -0.224 NA
HETATM   16  C8  UNL     1      -1.415  -1.220   0.451  1.00  0.00     0.140 A 
HETATM   17  C16 UNL     1       0.297   0.301   0.026  1.00  0.00     0.047 A 
BRANCH  16  18
HETATM   18  N4  UNL     1      -2.479  -0.434  -0.028  1.00  0.00    -0.355 N 
HETATM   19  C9  UNL     1      -3.253   0.990   0.683  1.00  0.00     0.205 A 
HETATM   20  C10 UNL     1      -3.976   0.869  -0.455  1.00  0.00    -0.151 A 
HETATM   21  C11 UNL     1      -4.512   0.757  -1.326  1.00  0.00     0.042 A 
HETATM   22  C12 UNL     1      -5.169   0.595  -2.423  1.00  0.00     0.021 A 
HETATM   23  C13 UNL     1      -4.044  -0.418  -2.154  1.00  0.00     0.032 A 
HETATM   24  C14 UNL     1      -2.883  -1.030  -1.338  1.00  0.00     0.132 A 
ENDBRANCH  16  18
ENDBRANCH   6   8
ENDBRANCH   2   6
TORSDOF 3
