REMARK  7 active torsions:
REMARK  status: ('A' for Active; 'I' for Inactive)
REMARK    1  A    between atoms: N1_1  and  C1_2 
REMARK    2  A    between atoms: C1_2  and  C10_16 
REMARK    3  A    between atoms: C4_5  and  S1_6 
REMARK    4  A    between atoms: S1_6  and  C5_8 
REMARK    5  A    between atoms: S1_6  and  C6_10 
REMARK    6  A    between atoms: C6_10  and  C7_11 
REMARK    7  A    between atoms: C7_11  and  O3_12 
ROOT
HETATM    1  C1  UNL     1       1.687   0.324  -0.092  1.00  0.00     0.024 C 
HETATM    2  C2  UNL     1       0.719  -0.140   0.653  1.00  0.00    -0.029 A 
HETATM    3  C3  UNL     1      -0.618   0.339   0.321  1.00  0.00     0.050 A 
HETATM    4  C4  UNL     1      -1.701  -0.036   0.993  1.00  0.00     0.119 A 
HETATM    5  N2  UNL     1      -1.556  -0.955   2.098  1.00  0.00    -0.256 NA
HETATM    6  C8  UNL     1      -0.354  -1.389   2.400  1.00  0.00     0.095 A 
HETATM    7  C9  UNL     1       0.969  -1.081   1.766  1.00  0.00     0.087 A 
ENDROOT
BRANCH   1   8
HETATM    8  N1  UNL     1       1.341   1.236  -1.131  1.00  0.00    -0.302 NA
HETATM    9  H1  UNL     1       1.678   1.301  -2.123  1.00  0.00     0.124 HD
HETATM   10  H2  UNL     1       1.185   1.823  -1.969  1.00  0.00     0.124 HD
ENDBRANCH   1   8
BRANCH   1  11
HETATM   11  C10 UNL     1       3.113   0.130  -0.181  1.00  0.00     0.003 A 
HETATM   12  C11 UNL     1       3.766  -1.092  -0.170  1.00  0.00     0.014 A 
HETATM   13  C12 UNL     1       5.124  -1.273  -0.233  1.00  0.00     0.001 A 
HETATM   14  C13 UNL     1       5.911  -0.150  -0.317  1.00  0.00     0.001 A 
HETATM   15  C14 UNL     1       5.382   1.120  -0.337  1.00  0.00     0.020 A 
HETATM   16  C15 UNL     1       4.012   1.200  -0.269  1.00  0.00     0.023 A 
HETATM   17 BR1  UNL     1       3.223   2.949  -0.290  1.00  0.00    -0.050 Br
ENDBRANCH   1  11
BRANCH   4  18
HETATM   18  S1  UNL     1      -3.309   0.486   0.659  1.00  0.00     0.067 S 
HETATM   19  O1  UNL     1      -3.288   1.874   0.130  1.00  0.00    -0.256 OA
BRANCH  18  20
HETATM   20  C5  UNL     1      -4.208   0.472   1.963  1.00  0.00     0.291 C 
HETATM   21  O2  UNL     1      -4.866   0.252   3.000  1.00  0.00    -0.274 OA
ENDBRANCH  18  20
BRANCH  18  22
HETATM   22  C6  UNL     1      -4.120  -0.545  -0.552  1.00  0.00     0.137 C 
BRANCH  22  23
HETATM   23  C7  UNL     1      -5.523   0.005  -0.762  1.00  0.00     0.176 C 
BRANCH  23  24
HETATM   24  O3  UNL     1      -6.243  -0.028   0.427  1.00  0.00    -0.400 OA
HETATM   25  H8  UNL     1      -6.660   0.812   0.685  1.00  0.00     0.209 HD
ENDBRANCH  23  24
ENDBRANCH  22  23
ENDBRANCH  18  22
ENDBRANCH   4  18
TORSDOF 7
