REMARK  5 active torsions:
REMARK  status: ('A' for Active; 'I' for Inactive)
REMARK    1  A    between atoms: C2_2  and  S1_3 
REMARK    2  A    between atoms: S1_3  and  N1_6 
REMARK    3  A    between atoms: N1_6  and  C3_7 
REMARK    4  A    between atoms: C8_14  and  N4_15 
REMARK    5  A    between atoms: N4_15  and  C9_16 
ROOT
HETATM    1  C3  UNL     1       2.206   0.351   0.166  1.00  0.00     0.043 A 
HETATM    2  C4  UNL     1       2.882   0.073  -1.003  1.00  0.00     0.032 A 
HETATM    3  C5  UNL     1       2.144  -0.210  -2.133  1.00  0.00     0.035 A 
HETATM    4  C6  UNL     1       0.769  -0.209  -2.068  1.00  0.00     0.072 A 
HETATM    5  N2  UNL     1       0.123  -0.496  -3.222  1.00  0.00    -0.241 NA
HETATM    6  C7  UNL     1      -1.237  -0.512  -3.230  1.00  0.00     0.236 A 
HETATM    7  N3  UNL     1      -1.891  -0.244  -2.098  1.00  0.00    -0.224 NA
HETATM    8  C8  UNL     1      -1.339   0.048  -0.922  1.00  0.00     0.142 A 
HETATM    9  C15 UNL     1       0.037   0.057  -0.942  1.00  0.00     0.041 A 
HETATM   10  C16 UNL     1       0.828   0.332   0.151  1.00  0.00     0.048 A 
ENDROOT
BRANCH   8  11
HETATM   11  N4  UNL     1      -2.016   0.333   0.275  1.00  0.00    -0.340 N 
HETATM   12  H8  UNL     1      -1.511   0.537   1.153  1.00  0.00     0.167 HD
BRANCH  11  13
HETATM   13  C9  UNL     1      -3.412   0.391   0.493  1.00  0.00     0.035 A 
HETATM   14  C10 UNL     1      -4.329   0.241  -0.510  1.00  0.00     0.029 A 
HETATM   15  C11 UNL     1      -5.692   0.289  -0.330  1.00  0.00     0.004 A 
HETATM   16  C12 UNL     1      -6.220   0.499   0.929  1.00  0.00     0.019 A 
HETATM   17  C13 UNL     1      -5.346   0.653   1.958  1.00  0.00     0.013 A 
HETATM   18 BR1  UNL     1      -6.002   0.944   3.713  1.00  0.00    -0.051 Br
HETATM   19  C14 UNL     1      -3.999   0.596   1.720  1.00  0.00     0.048 A 
ENDBRANCH  11  13
ENDBRANCH   8  11
BRANCH   1  20
HETATM   20  N1  UNL     1       2.959   0.644   1.338  1.00  0.00    -0.281 N 
HETATM   21  H4  UNL     1       2.540   1.478   1.823  1.00  0.00     0.179 HD
BRANCH  20  22
HETATM   22  S1  UNL     1       4.341  -0.252   1.856  1.00  0.00     0.252 S 
HETATM   23  O1  UNL     1       4.850   0.399   3.108  1.00  0.00    -0.201 OA
HETATM   24  O2  UNL     1       3.902  -1.640   2.156  1.00  0.00    -0.201 OA
BRANCH  22  25
HETATM   25  C2  UNL     1       5.630  -0.196   0.691  1.00  0.00     0.121 C 
HETATM   26  C1  UNL     1       6.348  -1.261   0.399  1.00  0.00     0.025 C 
ENDBRANCH  22  25
ENDBRANCH  20  22
ENDBRANCH   1  20
TORSDOF 5
