REMARK  5 active torsions:
REMARK  status: ('A' for Active; 'I' for Inactive)
REMARK    1  A    between atoms: O1_2  and  C2_3 
REMARK    2  A    between atoms: N2_13  and  C11_14 
REMARK    3  A    between atoms: N3_15  and  C12_16 
REMARK    4  A    between atoms: C12_16  and  N4_17 
REMARK    5  A    between atoms: N4_17  and  C13_18 
ROOT
HETATM    1  C2  UNL     1      -5.632   0.782  -0.483  1.00  0.00     0.069 A 
HETATM    2  C3  UNL     1      -5.113   1.561   0.556  1.00  0.00     0.039 A 
HETATM    3  C4  UNL     1      -3.748   1.720   0.694  1.00  0.00     0.040 A 
HETATM    4  C5  UNL     1      -2.910   1.089  -0.222  1.00  0.00     0.085 A 
HETATM    5  C6  UNL     1      -3.395   0.300  -1.277  1.00  0.00    -0.004 A 
HETATM    6  C7  UNL     1      -4.782   0.154  -1.395  1.00  0.00     0.048 A 
HETATM    7  C8  UNL     1      -2.779  -0.459  -2.355  1.00  0.00     0.156 C 
HETATM    8  N1  UNL     1      -1.392  -0.587  -2.432  1.00  0.00    -0.410 N 
HETATM    9  C9  UNL     1      -0.594  -0.717  -1.279  1.00  0.00     0.201 C 
HETATM   10  C10 UNL     1      -0.454   0.544  -0.470  1.00  0.00     0.164 C 
HETATM   11  N2  UNL     1       0.684   1.036  -0.129  1.00  0.00    -0.220 NA
HETATM   12  O2  UNL     1      -1.530   1.301  -0.011  1.00  0.00    -0.294 OA
HETATM   13  H9  UNL     1      -0.916   0.033  -3.125  1.00  0.00     0.153 HD
ENDROOT
BRANCH  11  14
HETATM   14  C11 UNL     1       1.843   0.317  -0.561  1.00  0.00     0.231 C 
HETATM   15  N3  UNL     1       2.745  -0.599  -0.442  1.00  0.00    -0.263 NA
BRANCH  15  16
HETATM   16  C12 UNL     1       2.670  -1.451   0.732  1.00  0.00     0.272 C 
BRANCH  16  17
HETATM   17  N4  UNL     1       3.539  -0.838   1.719  1.00  0.00    -0.372 N 
HETATM   18  H15 UNL     1       3.134  -0.538   2.610  1.00  0.00     0.161 HD
BRANCH  17  19
HETATM   19  C13 UNL     1       4.909  -0.662   1.451  1.00  0.00     0.030 A 
HETATM   20  C14 UNL     1       5.517  -1.039   0.285  1.00  0.00     0.029 A 
HETATM   21  C15 UNL     1       6.867  -0.863   0.028  1.00  0.00     0.004 A 
HETATM   22  C16 UNL     1       7.665  -0.270   1.002  1.00  0.00     0.019 A 
HETATM   23  C17 UNL     1       7.071   0.116   2.185  1.00  0.00     0.013 A 
HETATM   24 BR1  UNL     1       8.076   0.940   3.590  1.00  0.00    -0.051 Br
HETATM   25  C18 UNL     1       5.735  -0.078   2.395  1.00  0.00     0.048 A 
ENDBRANCH  17  19
ENDBRANCH  16  17
ENDBRANCH  15  16
ENDBRANCH  11  14
BRANCH   1  26
HETATM   26  O1  UNL     1      -7.001   0.607  -0.642  1.00  0.00    -0.356 OA
HETATM   27  C1  UNL     1      -7.866   1.254   0.296  1.00  0.00     0.210 C 
ENDBRANCH   1  26
TORSDOF 5
