REMARK  9 active torsions:
REMARK  status: ('A' for Active; 'I' for Inactive)
REMARK    1  A    between atoms: S1_2  and  C2_3 
REMARK    2  A    between atoms: S1_2  and  C15_20 
REMARK    3  A    between atoms: C2_3  and  N1_4 
REMARK    4  A    between atoms: C3_5  and  C4_6 
REMARK    5  A    between atoms: C5_8  and  C6_9 
REMARK    6  A    between atoms: C13_17  and  C14_18 
REMARK    7  A    between atoms: C14_18  and  N3_19 
REMARK    8  A    between atoms: C15_20  and  O1_21 
REMARK    9  A    between atoms: C15_20  and  O2_22 
ROOT
HETATM    1  C4  UNL     1       0.075  -0.669  -0.351  1.00  0.00     0.086 A 
HETATM    2  N2  UNL     1       1.214  -0.218   0.090  1.00  0.00    -0.246 NA
HETATM    3  C5  UNL     1       1.635  -0.945   1.215  1.00  0.00     0.068 A 
HETATM    4  C12 UNL     1       0.770  -1.915   1.555  1.00  0.00     0.047 A 
HETATM    5  C13 UNL     1      -0.261  -1.760   0.548  1.00  0.00     0.011 A 
ENDROOT
BRANCH   1   6
HETATM    6  C3  UNL     1      -0.681  -0.176  -1.497  1.00  0.00     0.143 C 
HETATM    7  N1  UNL     1      -1.807  -0.669  -1.885  1.00  0.00    -0.290 NA
BRANCH   7   8
HETATM    8  C2  UNL     1      -2.496  -0.133  -3.022  1.00  0.00     0.222 C 
BRANCH   8   9
HETATM    9  S1  UNL     1      -3.098   1.568  -2.727  1.00  0.00    -0.111 SA
HETATM   10  C1  UNL     1      -4.000   2.402  -4.079  1.00  0.00     0.091 C 
BRANCH   9  11
HETATM   11  C15 UNL     1      -2.312   2.538  -1.676  1.00  0.00     0.165 C 
BRANCH  11  12
HETATM   12  O1  UNL     1      -2.491   3.871  -2.030  1.00  0.00    -0.771 OA
HETATM   13  H15 UNL     1      -2.075   4.142  -2.916  1.00  0.00     0.168 HD
ENDBRANCH  11  12
BRANCH  11  14
HETATM   14  O2  UNL     1      -1.551   3.017  -0.622  1.00  0.00    -0.771 OA
HETATM   15  H16 UNL     1      -1.571   2.481   0.242  1.00  0.00     0.168 HD
ENDBRANCH  11  14
ENDBRANCH   9  11
ENDBRANCH   8   9
ENDBRANCH   7   8
ENDBRANCH   1   6
BRANCH   5  16
HETATM   16  C14 UNL     1      -1.328  -2.537   0.516  1.00  0.00     0.094 C 
BRANCH  16  17
HETATM   17  N3  UNL     1      -2.487  -2.710  -0.241  1.00  0.00    -0.407 N 
HETATM   18  H13 UNL     1      -2.589  -3.315  -1.108  1.00  0.00     0.155 HD
HETATM   19  H14 UNL     1      -3.423  -2.292  -0.095  1.00  0.00     0.155 HD
ENDBRANCH  16  17
ENDBRANCH   5  16
BRANCH   3  20
HETATM   20  C6  UNL     1       2.881  -0.713   1.981  1.00  0.00    -0.006 A 
HETATM   21  C7  UNL     1       3.182  -1.489   3.061  1.00  0.00     0.014 A 
HETATM   22  C8  UNL     1       4.365  -1.230   3.747  1.00  0.00     0.002 A 
HETATM   23  C9  UNL     1       5.211  -0.232   3.363  1.00  0.00     0.019 A 
HETATM   24  C10 UNL     1       4.914   0.564   2.263  1.00  0.00     0.011 A 
HETATM   25 BR1  UNL     1       6.109   1.954   1.740  1.00  0.00    -0.051 Br
HETATM   26  C11 UNL     1       3.739   0.296   1.594  1.00  0.00     0.032 A 
ENDBRANCH   3  20
TORSDOF 9
