REMARK  3 active torsions:
REMARK  status: ('A' for Active; 'I' for Inactive)
REMARK    1  A    between atoms: C2_2  and  S1_3 
REMARK    2  A    between atoms: S1_3  and  C3_6 
REMARK    3  A    between atoms: C6_9  and  C7_10 
ROOT
HETATM    1  C3  UNL     1      -2.007  -0.553  -0.209  1.00  0.00     0.155 A 
HETATM    2  C4  UNL     1      -0.663  -0.374  -0.095  1.00  0.00     0.060 A 
HETATM    3  C5  UNL     1       0.169  -1.396   0.274  1.00  0.00     0.027 A 
HETATM    4  C6  UNL     1       1.498  -1.069   0.340  1.00  0.00     0.081 A 
HETATM    5  N1  UNL     1       2.312  -2.105   0.699  1.00  0.00    -0.240 NA
HETATM    6  C13 UNL     1       1.868  -3.335   0.968  1.00  0.00     0.234 A 
HETATM    7  N2  UNL     1       0.550  -3.633   0.897  1.00  0.00    -0.240 NA
HETATM    8  C14 UNL     1      -0.297  -2.649   0.547  1.00  0.00     0.088 A 
HETATM    9  C15 UNL     1      -1.665  -2.818   0.427  1.00  0.00     0.150 A 
HETATM   10  N3  UNL     1      -2.490  -1.802   0.061  1.00  0.00    -0.246 NA
ENDROOT
BRANCH   4  11
HETATM   11  C7  UNL     1       2.170   0.194   0.084  1.00  0.00    -0.005 A 
HETATM   12  C8  UNL     1       1.931   1.471   0.544  1.00  0.00     0.014 A 
HETATM   13  C9  UNL     1       2.711   2.526   0.125  1.00  0.00     0.002 A 
HETATM   14  C10 UNL     1       3.761   2.392  -0.759  1.00  0.00     0.019 A 
HETATM   15  C11 UNL     1       4.015   1.135  -1.227  1.00  0.00     0.011 A 
HETATM   16 BR1  UNL     1       5.462   0.932  -2.449  1.00  0.00    -0.051 Br
HETATM   17  C12 UNL     1       3.239   0.074  -0.813  1.00  0.00     0.032 A 
ENDBRANCH   4  11
BRANCH   1  18
HETATM   18  S1  UNL     1      -3.172   0.645  -0.665  1.00  0.00     0.213 S 
HETATM   19  O1  UNL     1      -3.913   0.250  -1.916  1.00  0.00    -0.217 OA
HETATM   20  O2  UNL     1      -2.500   1.958  -0.977  1.00  0.00    -0.217 OA
BRANCH  18  21
HETATM   21  C2  UNL     1      -4.368   0.898   0.598  1.00  0.00     0.105 C 
HETATM   22  C1  UNL     1      -5.072   2.019   0.486  1.00  0.00     0.024 C 
ENDBRANCH  18  21
ENDBRANCH   1  18
TORSDOF 3
