REMARK  6 active torsions:
REMARK  status: ('A' for Active; 'I' for Inactive)
REMARK    1  A    between atoms: C2_2  and  C3_3 
REMARK    2  A    between atoms: C3_3  and  C4_4 
REMARK    3  A    between atoms: C9_10  and  S1_11 
REMARK    4  A    between atoms: S1_11  and  C10_12 
REMARK    5  A    between atoms: C10_12  and  C11_13 
REMARK    6  A    between atoms: C11_13  and  O1_14 
ROOT
HETATM    1  C4  UNL     1       3.418   1.483   0.186  1.00  0.00     0.082 C 
HETATM    2  C5  UNL     1       3.349   0.164   0.039  1.00  0.00     0.122 C 
HETATM    3  N1  UNL     1       2.159  -0.635   0.209  1.00  0.00    -0.348 N 
HETATM    4  C6  UNL     1       0.817  -0.162   0.230  1.00  0.00     0.136 C 
HETATM    5  C7  UNL     1      -0.153  -1.014  -0.057  1.00  0.00    -0.005 A 
HETATM    6  C8  UNL     1      -1.545  -0.511  -0.032  1.00  0.00     0.050 A 
HETATM    7  C9  UNL     1      -2.538  -1.340  -0.315  1.00  0.00     0.093 A 
HETATM    8  N2  UNL     1      -2.257  -2.678  -0.634  1.00  0.00    -0.258 NA
HETATM    9  C12 UNL     1      -1.043  -3.148  -0.664  1.00  0.00     0.095 A 
HETATM   10  C13 UNL     1       0.219  -2.401  -0.381  1.00  0.00     0.089 A 
HETATM   11  N3  UNL     1       0.430   1.191   0.544  1.00  0.00    -0.207 NA
HETATM   12  C14 UNL     1       1.144   2.200   0.816  1.00  0.00     0.200 C 
HETATM   13  N4  UNL     1       2.345   2.378   0.538  1.00  0.00    -0.224 NA
HETATM   14  H5  UNL     1       2.253  -1.664   0.331  1.00  0.00     0.167 HD
ENDROOT
BRANCH   1  15
HETATM   15  C3  UNL     1       4.737   2.037  -0.043  1.00  0.00     0.083 C 
BRANCH  15  16
HETATM   16  C2  UNL     1       5.794   1.333   0.262  1.00  0.00    -0.153 C 
HETATM   17  C1  UNL     1       6.703   0.451   0.642  1.00  0.00     0.096 C 
ENDBRANCH  15  16
ENDBRANCH   1  15
BRANCH   7  18
HETATM   18  S1  UNL     1      -4.245  -0.864  -0.320  1.00  0.00    -0.108 SA
BRANCH  18  19
HETATM   19  C10 UNL     1      -4.373   0.892   0.115  1.00  0.00     0.107 C 
BRANCH  19  20
HETATM   20  C11 UNL     1      -5.841   1.265   0.102  1.00  0.00     0.174 C 
BRANCH  20  21
HETATM   21  O1  UNL     1      -6.352   1.040  -1.163  1.00  0.00    -0.400 OA
HETATM   22  H11 UNL     1      -7.251   0.635  -1.095  1.00  0.00     0.209 HD
ENDBRANCH  20  21
ENDBRANCH  19  20
ENDBRANCH  18  19
ENDBRANCH   7  18
TORSDOF 6
