REMARK  6 active torsions:
REMARK  status: ('A' for Active; 'I' for Inactive)
REMARK    1  A    between atoms: S1_2  and  C1_4 
REMARK    2  A    between atoms: S1_2  and  C3_7 
REMARK    3  A    between atoms: C1_4  and  C2_5 
REMARK    4  A    between atoms: C2_5  and  O3_6 
REMARK    5  A    between atoms: C6_10  and  N1_11 
REMARK    6  A    between atoms: N1_11  and  C7_12 
ROOT
HETATM    1  C3  UNL     1       0.945  -0.711   0.172  1.00  0.00     0.151 A 
HETATM    2  C4  UNL     1      -0.286  -0.293  -0.258  1.00  0.00     0.061 A 
HETATM    3  C5  UNL     1      -1.277  -1.245  -0.335  1.00  0.00     0.043 A 
HETATM    4  C6  UNL     1      -2.523  -0.832  -0.760  1.00  0.00     0.141 A 
HETATM    5  N2  UNL     1      -3.541  -1.740  -0.846  1.00  0.00    -0.224 NA
HETATM    6  C10 UNL     1      -3.335  -3.034  -0.518  1.00  0.00     0.236 A 
HETATM    7  N3  UNL     1      -2.115  -3.481  -0.092  1.00  0.00    -0.240 NA
HETATM    8  C11 UNL     1      -1.092  -2.577  -0.005  1.00  0.00     0.089 A 
HETATM    9  C12 UNL     1       0.180  -2.947   0.426  1.00  0.00     0.150 A 
HETATM   10  N4  UNL     1       1.125  -1.999   0.491  1.00  0.00    -0.247 NA
ENDROOT
BRANCH   1  11
HETATM   11  S1  UNL     1       2.302   0.400   0.329  1.00  0.00     0.194 S 
HETATM   12  O1  UNL     1       2.739   0.582   1.736  1.00  0.00    -0.221 OA
HETATM   13  O2  UNL     1       1.845   1.731  -0.250  1.00  0.00    -0.221 OA
BRANCH  11  14
HETATM   14  C1  UNL     1       3.674  -0.129  -0.685  1.00  0.00     0.173 C 
BRANCH  14  15
HETATM   15  C2  UNL     1       4.801   0.864  -0.502  1.00  0.00     0.179 C 
BRANCH  15  16
HETATM   16  O3  UNL     1       4.384   2.143  -0.895  1.00  0.00    -0.400 OA
HETATM   17  H5  UNL     1       4.708   2.839  -0.268  1.00  0.00     0.209 HD
ENDBRANCH  15  16
ENDBRANCH  14  15
ENDBRANCH  11  14
ENDBRANCH   1  11
BRANCH   4  18
HETATM   18  N1  UNL     1      -2.880   0.488  -1.145  1.00  0.00    -0.344 N 
HETATM   19  H7  UNL     1      -2.973   0.515  -2.192  1.00  0.00     0.167 HD
BRANCH  18  20
HETATM   20  C7  UNL     1      -3.117   1.694  -0.435  1.00  0.00     0.011 A 
HETATM   21  C8  UNL     1      -2.578   2.791   0.160  1.00  0.00     0.005 A 
HETATM   22  C9  UNL     1      -4.071   2.644   0.178  1.00  0.00     0.086 A 
ENDBRANCH  18  20
ENDBRANCH   4  18
TORSDOF 6
