REMARK  6 active torsions:
REMARK  status: ('A' for Active; 'I' for Inactive)
REMARK    1  A    between atoms: S1_2  and  C1_4 
REMARK    2  A    between atoms: S1_2  and  C3_7 
REMARK    3  A    between atoms: C1_4  and  C2_5 
REMARK    4  A    between atoms: C2_5  and  O3_6 
REMARK    5  A    between atoms: C6_10  and  N1_11 
REMARK    6  A    between atoms: N1_11  and  C7_12 
ROOT
HETATM    1  C3  UNL     1      -1.818   0.644  -0.443  1.00  0.00     0.151 A 
HETATM    2  C4  UNL     1      -0.470   0.342  -0.516  1.00  0.00     0.061 A 
HETATM    3  C5  UNL     1       0.449   0.965   0.300  1.00  0.00     0.043 A 
HETATM    4  C6  UNL     1       1.776   0.615   0.172  1.00  0.00     0.142 A 
HETATM    5  N2  UNL     1       2.680   1.200   0.946  1.00  0.00    -0.224 NA
HETATM    6  C12 UNL     1       2.273   2.132   1.846  1.00  0.00     0.236 A 
HETATM    7  N3  UNL     1       0.961   2.473   1.968  1.00  0.00    -0.240 NA
HETATM    8  C13 UNL     1       0.017   1.901   1.200  1.00  0.00     0.089 A 
HETATM    9  C14 UNL     1      -1.330   2.188   1.259  1.00  0.00     0.150 A 
HETATM   10  N4  UNL     1      -2.225   1.568   0.450  1.00  0.00    -0.247 NA
ENDROOT
BRANCH   4  11
HETATM   11  N1  UNL     1       2.274  -0.349  -0.747  1.00  0.00    -0.339 N 
HETATM   12  H7  UNL     1       1.785  -0.939  -1.451  1.00  0.00     0.167 HD
BRANCH  11  13
HETATM   13  C7  UNL     1       3.658  -0.704  -0.870  1.00  0.00     0.046 C 
HETATM   14  C8  UNL     1       4.713   0.048  -1.143  1.00  0.00     0.004 C 
HETATM   15  C9  UNL     1       5.846  -0.453  -0.678  1.00  0.00     0.033 C 
HETATM   16  C10 UNL     1       5.594  -1.898  -0.600  1.00  0.00     0.014 C 
HETATM   17 BR1  UNL     1       6.693  -3.451  -0.385  1.00  0.00    -0.051 Br
HETATM   18  C11 UNL     1       4.268  -2.043  -0.716  1.00  0.00     0.049 C 
ENDBRANCH  11  13
ENDBRANCH   4  11
BRANCH   1  19
HETATM   19  S1  UNL     1      -3.009  -0.129  -1.464  1.00  0.00     0.194 S 
HETATM   20  O1  UNL     1      -2.322  -1.132  -2.346  1.00  0.00    -0.221 OA
HETATM   21  O2  UNL     1      -3.723   0.886  -2.327  1.00  0.00    -0.221 OA
BRANCH  19  22
HETATM   22  C1  UNL     1      -4.231  -1.001  -0.514  1.00  0.00     0.173 C 
BRANCH  22  23
HETATM   23  C2  UNL     1      -4.990  -0.104   0.420  1.00  0.00     0.179 C 
BRANCH  23  24
HETATM   24  O3  UNL     1      -5.936  -0.872   1.134  1.00  0.00    -0.400 OA
HETATM   25  H5  UNL     1      -5.947  -1.811   0.823  1.00  0.00     0.209 HD
ENDBRANCH  23  24
ENDBRANCH  22  23
ENDBRANCH  19  22
ENDBRANCH   1  19
TORSDOF 6
