REMARK  7 active torsions:
REMARK  status: ('A' for Active; 'I' for Inactive)
REMARK    1  A    between atoms: S1_2  and  C2_4 
REMARK    2  A    between atoms: S1_2  and  C4_7 
REMARK    3  A    between atoms: C2_4  and  C3_5 
REMARK    4  A    between atoms: C3_5  and  O2_6 
REMARK    5  A    between atoms: N3_12  and  C7_13 
REMARK    6  A    between atoms: C7_13  and  N4_14 
REMARK    7  A    between atoms: N4_14  and  C8_15 
ROOT
HETATM    1  C4  UNL     1      -2.825   1.590   0.179  1.00  0.00     0.338 A 
HETATM    2  N1  UNL     1      -2.632   1.026  -1.135  1.00  0.00    -0.241 NA
HETATM    3  C5  UNL     1      -1.447   0.658  -1.472  1.00  0.00     0.207 A 
HETATM    4  N2  UNL     1      -0.234   0.716  -0.733  1.00  0.00    -0.315 N 
HETATM    5  C6  UNL     1      -0.393   1.267   0.566  1.00  0.00     0.246 A 
HETATM    6  N3  UNL     1       0.632   1.377   1.342  1.00  0.00    -0.231 NA
HETATM    7  O3  UNL     1      -1.664   1.664   0.933  1.00  0.00    -0.282 OA
HETATM    8  H10 UNL     1       0.667   0.379  -1.131  1.00  0.00     0.170 HD
ENDROOT
BRANCH   6   9
HETATM    9  C7  UNL     1       1.933   0.932   0.871  1.00  0.00     0.274 C 
BRANCH   9  10
HETATM   10  N4  UNL     1       1.931  -0.511   0.705  1.00  0.00    -0.372 N 
HETATM   11  H13 UNL     1       1.744  -1.529   0.648  1.00  0.00     0.161 HD
BRANCH  10  12
HETATM   12  C8  UNL     1       3.249  -0.864   0.237  1.00  0.00     0.029 C 
HETATM   13  C9  UNL     1       4.219  -1.089   1.138  1.00  0.00     0.029 C 
HETATM   14  C10 UNL     1       5.636  -1.459   0.952  1.00  0.00    -0.002 C 
HETATM   15  C11 UNL     1       6.307  -1.246  -0.165  1.00  0.00    -0.023 C 
HETATM   16  C12 UNL     1       6.020  -0.660  -1.480  1.00  0.00     0.054 C 
HETATM   17  C13 UNL     1       4.620  -0.875  -1.875  1.00  0.00    -0.021 C 
HETATM   18  C14 UNL     1       3.476  -0.964  -1.217  1.00  0.00     0.025 C 
ENDBRANCH  10  12
ENDBRANCH   9  10
ENDBRANCH   6   9
BRANCH   1  19
HETATM   19  S1  UNL     1      -4.051   0.523   0.963  1.00  0.00    -0.005 S 
HETATM   20  C1  UNL     1      -3.430  -0.897   1.317  1.00  0.00     0.112 C 
HETATM   21  O1  UNL     1      -4.387   1.054   2.351  1.00  0.00    -0.266 OA
BRANCH  19  22
HETATM   22  C2  UNL     1      -5.438   0.497  -0.087  1.00  0.00     0.126 C 
BRANCH  22  23
HETATM   23  C3  UNL     1      -6.607  -0.306   0.335  1.00  0.00     0.176 C 
BRANCH  23  24
HETATM   24  O2  UNL     1      -6.345  -1.649   0.483  1.00  0.00    -0.400 OA
HETATM   25  H7  UNL     1      -6.395  -2.064  -0.424  1.00  0.00     0.209 HD
ENDBRANCH  23  24
ENDBRANCH  22  23
ENDBRANCH  19  22
ENDBRANCH   1  19
TORSDOF 7
