REMARK  4 active torsions:
REMARK  status: ('A' for Active; 'I' for Inactive)
REMARK    1  A    between atoms: C2_2  and  S1_3 
REMARK    2  A    between atoms: S1_3  and  C3_6 
REMARK    3  A    between atoms: C5_8  and  N1_9 
REMARK    4  A    between atoms: N1_9  and  C6_10 
ROOT
HETATM    1  C3  UNL     1      -1.875  -0.697   0.233  1.00  0.00     0.152 C 
HETATM    2  C4  UNL     1      -1.255  -0.540   1.421  1.00  0.00     0.079 C 
HETATM    3  C5  UNL     1       0.159  -0.890   1.093  1.00  0.00     0.195 A 
HETATM    4  N2  UNL     1       0.886  -1.146   2.306  1.00  0.00    -0.240 NA
HETATM    5  C12 UNL     1       1.429  -2.329   2.162  1.00  0.00     0.231 A 
HETATM    6  N3  UNL     1       1.087  -2.890   0.885  1.00  0.00    -0.240 NA
HETATM    7  C13 UNL     1       0.322  -2.035   0.245  1.00  0.00     0.108 A 
HETATM    8  C14 UNL     1      -0.405  -2.078  -1.010  1.00  0.00     0.150 C 
HETATM    9  N4  UNL     1      -1.536  -1.393  -0.976  1.00  0.00    -0.247 NA
ENDROOT
BRANCH   3  10
HETATM   10  N1  UNL     1       0.689   0.346   0.453  1.00  0.00    -0.354 N 
HETATM   11  H5  UNL     1      -0.011   1.153   0.399  1.00  0.00     0.163 HD
BRANCH  10  12
HETATM   12  C6  UNL     1       1.925   0.798  -0.143  1.00  0.00     0.031 A 
HETATM   13  C7  UNL     1       2.104   2.084  -0.672  1.00  0.00     0.029 A 
HETATM   14  C8  UNL     1       3.334   2.365  -1.206  1.00  0.00     0.004 A 
HETATM   15  C9  UNL     1       4.390   1.484  -1.259  1.00  0.00     0.019 A 
HETATM   16  C10 UNL     1       4.208   0.224  -0.739  1.00  0.00     0.013 A 
HETATM   17 BR1  UNL     1       5.718  -0.934  -0.851  1.00  0.00    -0.051 Br
HETATM   18  C11 UNL     1       2.983  -0.082  -0.197  1.00  0.00     0.048 A 
ENDBRANCH  10  12
ENDBRANCH   3  10
BRANCH   1  19
HETATM   19  S1  UNL     1      -3.609  -0.333   0.156  1.00  0.00     0.198 S 
HETATM   20  O1  UNL     1      -4.108  -0.117   1.581  1.00  0.00    -0.221 OA
HETATM   21  O2  UNL     1      -4.399  -1.393  -0.524  1.00  0.00    -0.221 OA
BRANCH  19  22
HETATM   22  C2  UNL     1      -3.851   1.227  -0.650  1.00  0.00     0.134 C 
HETATM   23  C1  UNL     1      -5.161   1.536  -0.598  1.00  0.00     0.023 C 
ENDBRANCH  19  22
ENDBRANCH   1  19
TORSDOF 4
