REMARK  3 active torsions:
REMARK  status: ('A' for Active; 'I' for Inactive)
REMARK    1  A    between atoms: C2_2  and  S1_3 
REMARK    2  A    between atoms: S1_3  and  C3_6 
REMARK    3  A    between atoms: C6_9  and  N1_10 
ROOT
HETATM    1  C3  UNL     1       2.046   0.311   0.294  1.00  0.00     0.155 A 
HETATM    2  C4  UNL     1       0.695   0.152   0.379  1.00  0.00     0.062 A 
HETATM    3  C5  UNL     1       0.120  -1.039   0.733  1.00  0.00     0.043 A 
HETATM    4  C6  UNL     1      -1.257  -1.109   0.794  1.00  0.00     0.148 A 
HETATM    5  N2  UNL     1      -1.771  -2.319   1.152  1.00  0.00    -0.223 NA
HETATM    6  C13 UNL     1      -0.996  -3.379   1.429  1.00  0.00     0.236 A 
HETATM    7  N3  UNL     1       0.334  -3.284   1.362  1.00  0.00    -0.240 NA
HETATM    8  C14 UNL     1       0.917  -2.141   1.021  1.00  0.00     0.089 A 
HETATM    9  C15 UNL     1       2.291  -1.959   0.929  1.00  0.00     0.150 A 
HETATM   10  N4  UNL     1       2.835  -0.767   0.575  1.00  0.00    -0.246 NA
ENDROOT
BRANCH   4  11
HETATM   11  N1  UNL     1      -2.079   0.011   0.501  1.00  0.00    -0.307 N 
HETATM   12  C7  UNL     1      -2.507   0.965   1.480  1.00  0.00     0.099 A 
HETATM   13  C8  UNL     1      -3.274   2.003   1.188  1.00  0.00     0.018 A 
HETATM   14  C9  UNL     1      -3.739   2.238  -0.195  1.00  0.00     0.004 A 
HETATM   15  C10 UNL     1      -3.399   1.409  -1.192  1.00  0.00     0.029 A 
HETATM   16  C11 UNL     1      -2.556   0.286  -0.811  1.00  0.00     0.031 A 
HETATM   17  C12 UNL     1      -2.215  -0.539  -1.788  1.00  0.00     0.043 C 
ENDBRANCH   4  11
BRANCH   1  18
HETATM   18  S1  UNL     1       2.947   1.732  -0.136  1.00  0.00     0.213 S 
HETATM   19  O1  UNL     1       2.087   2.912  -0.412  1.00  0.00    -0.217 OA
HETATM   20  O2  UNL     1       3.909   2.060   0.972  1.00  0.00    -0.217 OA
BRANCH  18  21
HETATM   21  C2  UNL     1       3.928   1.408  -1.573  1.00  0.00     0.105 C 
HETATM   22  C1  UNL     1       4.360   0.158  -1.673  1.00  0.00     0.024 C 
ENDBRANCH  18  21
ENDBRANCH   1  18
TORSDOF 3
