REMARK  4 active torsions:
REMARK  status: ('A' for Active; 'I' for Inactive)
REMARK    1  A    between atoms: N1_1  and  C1_2 
REMARK    2  A    between atoms: S1_5  and  C3_7 
REMARK    3  A    between atoms: C6_11  and  N3_12 
REMARK    4  A    between atoms: N3_12  and  C7_13 
ROOT
HETATM    1  C1  UNL     1      -2.421   1.855  -0.653  1.00  0.00     0.263 A 
HETATM    2  N2  UNL     1      -2.192   0.886   0.159  1.00  0.00     0.105 N 
HETATM    3  C2  UNL     1      -3.256   0.043   0.680  1.00  0.00     0.384 C 
HETATM    4  S1  UNL     1      -2.696  -1.646   0.840  1.00  0.00     0.049 S 
HETATM    5  O1  UNL     1      -3.850  -2.424   1.378  1.00  0.00    -0.257 OA
HETATM    6  C4  UNL     1      -1.511  -1.624   1.915  1.00  0.00     0.078 C 
HETATM    7  C5  UNL     1      -0.548  -0.646   1.464  1.00  0.00     0.059 C 
HETATM    8  C6  UNL     1       0.248   0.287   1.008  1.00  0.00     0.134 C 
HETATM    9  N4  UNL     1      -0.992   0.716   0.476  1.00  0.00    -0.142 N 
HETATM   10  C13 UNL     1      -0.981   1.739  -0.344  1.00  0.00     0.431 A 
ENDROOT
BRANCH   8  11
HETATM   11  N3  UNL     1       1.484   0.953   0.826  1.00  0.00    -0.341 N 
HETATM   12  H8  UNL     1       1.546   1.826   1.389  1.00  0.00     0.167 HD
BRANCH  11  13
HETATM   13  C7  UNL     1       2.430   0.369  -0.059  1.00  0.00     0.034 A 
HETATM   14  C8  UNL     1       2.054  -0.789  -0.707  1.00  0.00     0.029 A 
HETATM   15  C9  UNL     1       2.967  -1.392  -1.583  1.00  0.00     0.004 A 
HETATM   16  C10 UNL     1       4.217  -0.841  -1.795  1.00  0.00     0.019 A 
HETATM   17  C11 UNL     1       4.548   0.317  -1.125  1.00  0.00     0.013 A 
HETATM   18 BR1  UNL     1       6.249   1.206  -1.314  1.00  0.00    -0.051 Br
HETATM   19  C12 UNL     1       3.670   0.938  -0.253  1.00  0.00     0.048 A 
ENDBRANCH  11  13
ENDBRANCH   8  11
BRANCH   4  20
HETATM   20  C3  UNL     1      -2.193  -2.298  -0.689  1.00  0.00     0.329 C 
HETATM   21  O2  UNL     1      -1.455  -1.743  -1.483  1.00  0.00    -0.293 OA
ENDBRANCH   4  20
BRANCH   1  22
HETATM   22  N1  UNL     1      -2.902   2.860  -1.529  1.00  0.00    -0.377 N 
HETATM   23  H1  UNL     1      -2.395   2.747  -2.456  1.00  0.00     0.157 HD
HETATM   24  H2  UNL     1      -3.494   3.132  -0.716  1.00  0.00     0.157 HD
ENDBRANCH   1  22
TORSDOF 4
