REMARK  7 active torsions:
REMARK  status: ('A' for Active; 'I' for Inactive)
REMARK    1  A    between atoms: C2_2  and  C3_3 
REMARK    2  A    between atoms: C3_3  and  C4_4 
REMARK    3  A    between atoms: C5_6  and  C6_7 
REMARK    4  A    between atoms: C6_7  and  N1_8 
REMARK    5  A    between atoms: N1_8  and  C7_9 
REMARK    6  A    between atoms: C10_12  and  S1_13 
REMARK    7  A    between atoms: S1_13  and  C11_15 
ROOT
HETATM    1  C7  UNL     1      -0.392  -0.673   0.801  1.00  0.00     0.125 C 
HETATM    2  C8  UNL     1      -1.084  -0.137  -0.255  1.00  0.00     0.053 C 
HETATM    3  C9  UNL     1      -2.132  -0.512  -1.037  1.00  0.00     0.045 C 
HETATM    4  C10 UNL     1      -3.450  -0.379  -0.584  1.00  0.00     0.123 C 
HETATM    5  N2  UNL     1      -3.546  -1.045   0.572  1.00  0.00    -0.250 NA
HETATM    6  C13 UNL     1      -3.490  -2.379   0.693  1.00  0.00     0.137 C 
HETATM    7  C14 UNL     1      -2.660  -3.341   0.155  1.00  0.00     0.137 C 
HETATM    8  N3  UNL     1      -1.399  -3.760   0.413  1.00  0.00    -0.253 NA
HETATM    9  C15 UNL     1      -0.504  -2.959   1.048  1.00  0.00     0.234 C 
HETATM   10  N4  UNL     1      -0.932  -1.732   1.444  1.00  0.00    -0.225 NA
ENDROOT
BRANCH   1  11
HETATM   11  N1  UNL     1       0.836   0.001   1.061  1.00  0.00    -0.371 N 
HETATM   12  H7  UNL     1       0.757   0.784   1.728  1.00  0.00     0.161 HD
BRANCH  11  13
HETATM   13  C6  UNL     1       2.109  -0.347   0.466  1.00  0.00     0.150 C 
BRANCH  13  14
HETATM   14  C5  UNL     1       3.194   0.550   0.948  1.00  0.00     0.012 C 
HETATM   15  C4  UNL     1       3.933   1.331   0.170  1.00  0.00     0.015 C 
HETATM   16 BR1  UNL     1       3.561   1.284  -1.702  1.00  0.00    -0.051 Br
BRANCH  15  17
HETATM   17  C3  UNL     1       5.020   2.286   0.284  1.00  0.00     0.069 C 
BRANCH  17  18
HETATM   18  C2  UNL     1       6.260   1.910   0.011  1.00  0.00    -0.154 C 
HETATM   19  C1  UNL     1       7.378   1.284  -0.328  1.00  0.00     0.096 C 
ENDBRANCH  17  18
ENDBRANCH  15  17
ENDBRANCH  13  14
ENDBRANCH  11  13
ENDBRANCH   1  11
BRANCH   4  20
HETATM   20  S1  UNL     1      -4.491   0.594  -1.670  1.00  0.00     0.074 S 
HETATM   21  O1  UNL     1      -5.919   0.068  -1.605  1.00  0.00    -0.251 OA
BRANCH  20  22
HETATM   22  C11 UNL     1      -4.403   2.302  -1.191  1.00  0.00     0.103 C 
HETATM   23  C12 UNL     1      -4.085   3.314  -0.394  1.00  0.00     0.020 C 
ENDBRANCH  20  22
ENDBRANCH   4  20
TORSDOF 7
