REMARK  2 active torsions:
REMARK  status: ('A' for Active; 'I' for Inactive)
REMARK    1  A    between atoms: C2_2  and  S1_3 
REMARK    2  A    between atoms: S1_3  and  C3_6 
ROOT
HETATM    1  C3  UNL     1       1.394   0.560   0.776  1.00  0.00     0.163 A 
HETATM    2  N1  UNL     1       1.674   1.848   1.017  1.00  0.00    -0.246 NA
HETATM    3  C4  UNL     1       0.866   2.863   0.712  1.00  0.00     0.150 A 
HETATM    4  C5  UNL     1      -0.339   2.588   0.109  1.00  0.00     0.090 A 
HETATM    5  N2  UNL     1      -1.081   3.678  -0.152  1.00  0.00    -0.240 NA
HETATM    6  C6  UNL     1      -2.281   3.531  -0.735  1.00  0.00     0.236 A 
HETATM    7  N3  UNL     1      -2.648   2.258  -1.016  1.00  0.00    -0.224 NA
HETATM    8  C7  UNL     1      -1.902   1.175  -0.753  1.00  0.00     0.142 A 
HETATM    9  C8  UNL     1      -0.667   1.283  -0.158  1.00  0.00     0.050 A 
HETATM   10  C9  UNL     1       0.178   0.207   0.159  1.00  0.00     0.006 A 
HETATM   11  C10 UNL     1      -0.166  -1.169  -0.157  1.00  0.00     0.041 C 
HETATM   12  C11 UNL     1       0.850  -1.996  -0.899  1.00  0.00     0.019 C 
HETATM   13  C12 UNL     1      -0.948  -1.913   0.855  1.00  0.00    -0.018 C 
HETATM   14  C13 UNL     1      -2.220  -2.018   1.206  1.00  0.00    -0.002 C 
HETATM   15  C14 UNL     1      -3.430  -1.397   0.693  1.00  0.00     0.017 C 
HETATM   16  C15 UNL     1      -3.573  -0.542  -0.293  1.00  0.00     0.090 C 
HETATM   17  N4  UNL     1      -2.792   0.150  -1.254  1.00  0.00    -0.350 N 
HETATM   18  H14 UNL     1      -2.808  -0.021  -2.282  1.00  0.00     0.166 HD
ENDROOT
BRANCH   1  19
HETATM   19  S1  UNL     1       2.590  -0.567   1.272  1.00  0.00     0.214 S 
HETATM   20  O1  UNL     1       3.530   0.167   2.265  1.00  0.00    -0.217 OA
HETATM   21  O2  UNL     1       2.159  -1.721   2.062  1.00  0.00    -0.217 OA
BRANCH  19  22
HETATM   22  C2  UNL     1       3.745  -0.973  -0.018  1.00  0.00     0.105 C 
HETATM   23  C1  UNL     1       4.739  -0.169  -0.383  1.00  0.00     0.024 C 
ENDBRANCH  19  22
ENDBRANCH   1  19
TORSDOF 2
