REMARK  5 active torsions:
REMARK  status: ('A' for Active; 'I' for Inactive)
REMARK    1  A    between atoms: C2_2  and  C4_4 
REMARK    2  A    between atoms: C4_4  and  C5_5 
REMARK    3  A    between atoms: C9_10  and  N2_11 
REMARK    4  A    between atoms: N2_11  and  C10_12 
REMARK    5  A    between atoms: C15_18  and  O1_19 
ROOT
HETATM    1  C5  UNL     1      -2.711   0.573   1.073  1.00  0.00     0.090 C 
HETATM    2  C6  UNL     1      -1.850   1.481   1.505  1.00  0.00     0.028 C 
HETATM    3  C7  UNL     1      -0.884   1.939   0.736  1.00  0.00     0.103 C 
HETATM    4  N1  UNL     1       0.167   1.039   0.318  1.00  0.00    -0.358 N 
HETATM    5  C8  UNL     1       0.094  -0.375   0.020  1.00  0.00     0.132 A 
HETATM    6  C9  UNL     1       1.217  -0.837  -0.636  1.00  0.00     0.161 A 
HETATM    7  N3  UNL     1       1.180  -2.147  -0.933  1.00  0.00    -0.222 NA
HETATM    8  C16 UNL     1       0.116  -2.930  -0.605  1.00  0.00     0.238 A 
HETATM    9  N4  UNL     1      -0.953  -2.429   0.033  1.00  0.00    -0.215 NA
HETATM   10  C17 UNL     1      -1.029  -1.141   0.380  1.00  0.00     0.202 A 
HETATM   11  O2  UNL     1      -2.201  -0.723   1.047  1.00  0.00    -0.289 OA
HETATM   12  H9  UNL     1       1.125   1.474   0.212  1.00  0.00     0.165 HD
ENDROOT
BRANCH   6  13
HETATM   13  N2  UNL     1       2.276   0.064  -0.923  1.00  0.00    -0.337 N 
HETATM   14  H10 UNL     1       2.174   0.824  -1.644  1.00  0.00     0.167 HD
BRANCH  13  15
HETATM   15  C10 UNL     1       3.596   0.277  -0.476  1.00  0.00     0.068 A 
HETATM   16  C11 UNL     1       4.049   1.413   0.139  1.00  0.00     0.032 A 
HETATM   17  C12 UNL     1       5.348   1.602   0.552  1.00  0.00     0.004 A 
HETATM   18  C13 UNL     1       6.259   0.569   0.328  1.00  0.00     0.022 A 
HETATM   19  C14 UNL     1       5.864  -0.604  -0.287  1.00  0.00     0.046 A 
HETATM   20 BR1  UNL     1       7.183  -1.974  -0.566  1.00  0.00    -0.048 Br
HETATM   21  C15 UNL     1       4.564  -0.717  -0.667  1.00  0.00     0.109 A 
BRANCH  21  22
HETATM   22  O1  UNL     1       4.199  -1.911  -1.285  1.00  0.00    -0.357 OA
HETATM   23  H14 UNL     1       4.256  -2.805  -0.805  1.00  0.00     0.217 HD
ENDBRANCH  21  22
ENDBRANCH  13  15
ENDBRANCH   6  13
BRANCH   1  24
HETATM   24  C4  UNL     1      -4.018   1.040   0.701  1.00  0.00     0.040 C 
BRANCH  24  25
HETATM   25  C2  UNL     1      -5.055   0.395   0.244  1.00  0.00    -0.085 C 
HETATM   26  C1  UNL     1      -5.070  -1.094   0.010  1.00  0.00     0.043 C 
HETATM   27  C3  UNL     1      -6.341   1.064  -0.082  1.00  0.00     0.043 C 
ENDBRANCH  24  25
ENDBRANCH   1  24
TORSDOF 5
