REMARK  3 active torsions:
REMARK  status: ('A' for Active; 'I' for Inactive)
REMARK    1  A    between atoms: C7_8  and  N2_9 
REMARK    2  A    between atoms: N2_9  and  C8_10 
REMARK    3  A    between atoms: C13_16  and  O1_17 
ROOT
HETATM    1  C1  UNL     1       6.034  -0.898   0.403  1.00  0.00     0.018 C 
HETATM    2  C2  UNL     1       4.923  -0.473  -0.527  1.00  0.00     0.030 A 
HETATM    3  C3  UNL     1       3.726  -1.327  -0.444  1.00  0.00    -0.007 A 
HETATM    4  C4  UNL     1       2.636  -0.645  -0.127  1.00  0.00    -0.010 A 
HETATM    5  C5  UNL     1       1.322  -1.285   0.013  1.00  0.00     0.161 C 
HETATM    6  N1  UNL     1       0.209  -0.476  -0.357  1.00  0.00    -0.379 N 
HETATM    7  C6  UNL     1       0.028   0.911  -0.403  1.00  0.00     0.129 A 
HETATM    8  C7  UNL     1      -1.252   1.237  -0.845  1.00  0.00     0.160 A 
HETATM    9  N3  UNL     1      -1.651   2.515  -0.969  1.00  0.00    -0.222 NA
HETATM   10  C14 UNL     1      -0.787   3.499  -0.656  1.00  0.00     0.238 A 
HETATM   11  N4  UNL     1       0.473   3.226  -0.221  1.00  0.00    -0.215 NA
HETATM   12  C15 UNL     1       0.867   1.936  -0.099  1.00  0.00     0.202 A 
HETATM   13  O2  UNL     1       2.182   1.762   0.357  1.00  0.00    -0.290 OA
HETATM   14  C16 UNL     1       3.093   0.741   0.017  1.00  0.00     0.082 A 
HETATM   15  C17 UNL     1       4.392   0.870  -0.204  1.00  0.00     0.019 A 
HETATM   16  H8  UNL     1      -0.653  -1.022  -0.659  1.00  0.00     0.160 HD
ENDROOT
BRANCH   8  17
HETATM   17  N2  UNL     1      -2.220   0.281  -1.189  1.00  0.00    -0.337 N 
HETATM   18  H9  UNL     1      -2.240  -0.097  -2.175  1.00  0.00     0.167 HD
BRANCH  17  19
HETATM   19  C8  UNL     1      -3.300  -0.433  -0.604  1.00  0.00     0.068 A 
HETATM   20  C9  UNL     1      -3.487  -1.781  -0.448  1.00  0.00     0.032 A 
HETATM   21  C10 UNL     1      -4.645  -2.214   0.158  1.00  0.00     0.004 A 
HETATM   22  C11 UNL     1      -5.629  -1.360   0.619  1.00  0.00     0.022 A 
HETATM   23  C12 UNL     1      -5.437  -0.005   0.460  1.00  0.00     0.046 A 
HETATM   24 BR1  UNL     1      -6.808   1.148   1.102  1.00  0.00    -0.048 Br
HETATM   25  C13 UNL     1      -4.275   0.462  -0.150  1.00  0.00     0.109 A 
BRANCH  25  26
HETATM   26  O1  UNL     1      -4.223   1.859  -0.239  1.00  0.00    -0.357 OA
HETATM   27  H13 UNL     1      -3.981   2.335   0.635  1.00  0.00     0.217 HD
ENDBRANCH  25  26
ENDBRANCH  17  19
ENDBRANCH   8  17
TORSDOF 3
