REMARK  7 active torsions:
REMARK  status: ('A' for Active; 'I' for Inactive)
REMARK    1  A    between atoms: C2_2  and  S1_3 
REMARK    2  A    between atoms: S1_3  and  C3_5 
REMARK    3  A    between atoms: N1_9  and  C7_10 
REMARK    4  A    between atoms: C7_10  and  N2_11 
REMARK    5  A    between atoms: N2_11  and  C8_12 
REMARK    6  A    between atoms: C8_12  and  S2_13 
REMARK    7  A    between atoms: S2_13  and  C9_14 
ROOT
HETATM    1  C3  UNL     1      -4.732  -0.355  -0.692  1.00  0.00     0.120 A 
HETATM    2  C4  UNL     1      -4.519  -1.281   0.214  1.00  0.00     0.021 A 
HETATM    3  C5  UNL     1      -3.230  -1.744   0.783  1.00  0.00     0.090 A 
HETATM    4  C6  UNL     1      -2.146  -0.958   0.140  1.00  0.00     0.057 A 
HETATM    5  N1  UNL     1      -0.957  -1.281   0.567  1.00  0.00    -0.244 NA
HETATM    6  C15 UNL     1      -2.418   0.057  -0.857  1.00  0.00     0.145 A 
HETATM    7  N3  UNL     1      -3.622   0.325  -1.233  1.00  0.00    -0.250 NA
ENDROOT
BRANCH   5   8
HETATM    8  C7  UNL     1       0.138  -0.579   0.005  1.00  0.00     0.244 C 
BRANCH   8   9
HETATM    9  N2  UNL     1       0.963   0.194  -0.662  1.00  0.00    -0.192 NA
BRANCH   9  10
HETATM   10  C8  UNL     1       2.283   0.185  -0.488  1.00  0.00     0.035 C 
BRANCH  10  11
HETATM   11  S2  UNL     1       3.709   0.157  -0.282  1.00  0.00    -0.027 SA
BRANCH  11  12
HETATM   12  C9  UNL     1       5.435   0.104  -0.009  1.00  0.00     0.015 A 
HETATM   13  C10 UNL     1       5.884  -0.736   0.987  1.00  0.00     0.019 A 
HETATM   14  C11 UNL     1       7.248  -0.780   1.205  1.00  0.00     0.003 A 
HETATM   15  C12 UNL     1       7.990   0.038   0.382  1.00  0.00     0.019 A 
HETATM   16  C13 UNL     1       7.569   0.886  -0.620  1.00  0.00     0.012 A 
HETATM   17 BR1  UNL     1       8.797   1.929  -1.634  1.00  0.00    -0.051 Br
HETATM   18  C14 UNL     1       6.186   0.913  -0.821  1.00  0.00     0.038 A 
ENDBRANCH  11  12
ENDBRANCH  10  11
ENDBRANCH   9  10
ENDBRANCH   8   9
ENDBRANCH   5   8
BRANCH   1  19
HETATM   19  S1  UNL     1      -6.289   0.182  -1.359  1.00  0.00     0.074 S 
HETATM   20  O1  UNL     1      -7.446  -0.597  -0.784  1.00  0.00    -0.251 OA
BRANCH  19  21
HETATM   21  C2  UNL     1      -6.522   1.886  -0.983  1.00  0.00     0.103 C 
HETATM   22  C1  UNL     1      -7.382   2.480  -0.165  1.00  0.00     0.020 C 
ENDBRANCH  19  21
ENDBRANCH   1  19
TORSDOF 7
