REMARK  4 active torsions:
REMARK  status: ('A' for Active; 'I' for Inactive)
REMARK    1  A    between atoms: C2_2  and  S1_3 
REMARK    2  A    between atoms: S1_3  and  C3_5 
REMARK    3  A    between atoms: C6_8  and  N1_9 
REMARK    4  A    between atoms: N1_9  and  C7_10 
ROOT
HETATM    1  C3  UNL     1       2.310  -0.702  -0.562  1.00  0.00     0.128 C 
HETATM    2  C4  UNL     1       1.159  -1.263  -0.891  1.00  0.00     0.045 C 
HETATM    3  C5  UNL     1      -0.101  -0.632  -1.239  1.00  0.00     0.053 C 
HETATM    4  C6  UNL     1      -0.606   0.580  -1.368  1.00  0.00     0.129 C 
HETATM    5  N2  UNL     1       0.195   1.755  -1.122  1.00  0.00    -0.225 NA
HETATM    6  C13 UNL     1       0.874   1.720  -0.033  1.00  0.00     0.236 C 
HETATM    7  N3  UNL     1       0.949   0.678   0.975  1.00  0.00    -0.237 NA
HETATM    8  C14 UNL     1       2.067   0.733   1.590  1.00  0.00     0.120 C 
HETATM    9  C15 UNL     1       3.085   0.897   0.821  1.00  0.00     0.120 C 
HETATM   10  N4  UNL     1       2.898   0.589  -0.403  1.00  0.00    -0.234 NA
ENDROOT
BRANCH   4  11
HETATM   11  N1  UNL     1      -1.848   1.135  -1.712  1.00  0.00    -0.341 N 
HETATM   12  H6  UNL     1      -2.013   1.630  -2.628  1.00  0.00     0.167 HD
BRANCH  11  13
HETATM   13  C7  UNL     1      -2.845   0.976  -0.736  1.00  0.00     0.034 A 
HETATM   14  C8  UNL     1      -3.592  -0.173  -0.865  1.00  0.00     0.029 A 
HETATM   15  C9  UNL     1      -4.608  -0.411   0.065  1.00  0.00     0.004 A 
HETATM   16  C10 UNL     1      -4.883   0.459   1.095  1.00  0.00     0.019 A 
HETATM   17  C11 UNL     1      -4.128   1.621   1.227  1.00  0.00     0.013 A 
HETATM   18 BR1  UNL     1      -4.458   2.868   2.633  1.00  0.00    -0.051 Br
HETATM   19  C12 UNL     1      -3.151   1.818   0.305  1.00  0.00     0.048 A 
ENDBRANCH  11  13
ENDBRANCH   4  11
BRANCH   1  20
HETATM   20  S1  UNL     1       3.739  -1.728  -0.170  1.00  0.00     0.092 S 
HETATM   21  O1  UNL     1       3.321  -3.161  -0.427  1.00  0.00    -0.247 OA
BRANCH  20  22
HETATM   22  C2  UNL     1       4.305  -1.461   1.467  1.00  0.00     0.075 C 
HETATM   23  C1  UNL     1       5.561  -1.885   1.344  1.00  0.00     0.021 C 
ENDBRANCH  20  22
ENDBRANCH   1  20
TORSDOF 4
