REMARK  4 active torsions:
REMARK  status: ('A' for Active; 'I' for Inactive)
REMARK    1  A    between atoms: C2_2  and  S1_3 
REMARK    2  A    between atoms: S1_3  and  C3_5 
REMARK    3  A    between atoms: C6_8  and  N1_9 
REMARK    4  A    between atoms: C11_15  and  N2_16 
ROOT
HETATM    1  C3  UNL     1       3.061   0.645  -0.201  1.00  0.00     0.140 A 
HETATM    2  C4  UNL     1       1.851   0.545   0.318  1.00  0.00     0.034 A 
HETATM    3  C5  UNL     1       0.482   0.441  -0.176  1.00  0.00     0.043 A 
HETATM    4  C6  UNL     1      -0.569   0.351   0.630  1.00  0.00     0.030 A 
HETATM    5  C12 UNL     1      -0.399   0.351   2.094  1.00  0.00     0.206 A 
HETATM    6  N3  UNL     1       0.969   0.456   2.513  1.00  0.00    -0.281 NA
HETATM    7  C13 UNL     1       1.997   0.544   1.771  1.00  0.00     0.082 A 
HETATM    8  C14 UNL     1       3.445   0.656   1.993  1.00  0.00     0.150 A 
HETATM    9  N4  UNL     1       4.016   0.712   0.826  1.00  0.00    -0.248 NA
ENDROOT
BRANCH   4  10
HETATM   10  N1  UNL     1      -1.863   0.254   0.089  1.00  0.00    -0.349 N 
HETATM   11  C7  UNL     1      -1.971  -0.506  -1.169  1.00  0.00     0.145 C 
HETATM   12  C8  UNL     1      -3.337  -1.087  -1.372  1.00  0.00     0.098 C 
HETATM   13 BR1  UNL     1      -4.418   0.002  -2.575  1.00  0.00    -0.085 Br
HETATM   14  C9  UNL     1      -4.078  -1.345  -0.106  1.00  0.00    -0.010 C 
HETATM   15  C10 UNL     1      -3.972  -0.428   0.853  1.00  0.00     0.026 C 
HETATM   16  C11 UNL     1      -3.114   0.766   0.545  1.00  0.00     0.342 C 
BRANCH  16  17
HETATM   17  N2  UNL     1      -3.083   1.717   1.596  1.00  0.00     0.105 N 
HETATM   18  H11 UNL     1      -3.826   1.585   2.304  1.00  0.00     0.315 HD
HETATM   19  H12 UNL     1      -3.095   2.689   1.213  1.00  0.00     0.315 HD
ENDBRANCH  16  17
ENDBRANCH   4  10
BRANCH   1  20
HETATM   20  S1  UNL     1       3.359   0.685  -1.957  1.00  0.00     0.093 S 
HETATM   21  O1  UNL     1       4.165   1.941  -2.247  1.00  0.00    -0.247 OA
BRANCH  20  22
HETATM   22  C2  UNL     1       4.355  -0.694  -2.457  1.00  0.00     0.075 C 
HETATM   23  C1  UNL     1       5.506  -0.920  -1.797  1.00  0.00     0.021 C 
ENDBRANCH  20  22
ENDBRANCH   1  20
TORSDOF 4
