REMARK  4 active torsions:
REMARK  status: ('A' for Active; 'I' for Inactive)
REMARK    1  A    between atoms: C2_2  and  S1_3 
REMARK    2  A    between atoms: S1_3  and  C3_5 
REMARK    3  A    between atoms: C6_8  and  C7_9 
REMARK    4  A    between atoms: C9_11  and  N1_12 
ROOT
HETATM    1  C3  UNL     1      -2.616  -0.606   0.126  1.00  0.00     0.124 A 
HETATM    2  C4  UNL     1      -1.255  -0.558   0.047  1.00  0.00     0.057 A 
HETATM    3  C5  UNL     1      -0.359  -1.583   0.234  1.00  0.00     0.027 A 
HETATM    4  C6  UNL     1       0.987  -1.355   0.137  1.00  0.00     0.081 A 
HETATM    5  N2  UNL     1       1.687  -2.450   0.383  1.00  0.00    -0.240 NA
HETATM    6  C12 UNL     1       1.187  -3.642   0.686  1.00  0.00     0.234 A 
HETATM    7  N3  UNL     1      -0.143  -3.821   0.767  1.00  0.00    -0.240 NA
HETATM    8  C13 UNL     1      -0.986  -2.772   0.539  1.00  0.00     0.088 A 
HETATM    9  C14 UNL     1      -2.351  -2.894   0.635  1.00  0.00     0.150 A 
HETATM   10  N4  UNL     1      -3.171  -1.820   0.431  1.00  0.00    -0.249 NA
ENDROOT
BRANCH   4  11
HETATM   11  C7  UNL     1       1.623  -0.140  -0.287  1.00  0.00    -0.008 A 
HETATM   12  C8  UNL     1       2.948  -0.031  -0.065  1.00  0.00     0.026 A 
HETATM   13  C9  UNL     1       3.542   1.231  -0.525  1.00  0.00     0.264 A 
HETATM   14  C10 UNL     1       2.375   1.921  -1.119  1.00  0.00     0.013 A 
HETATM   15  C11 UNL     1       1.370   1.105  -0.944  1.00  0.00     0.012 A 
BRANCH  13  16
HETATM   16  N1  UNL     1       4.572   0.924  -1.498  1.00  0.00     0.090 N 
HETATM   17  H7  UNL     1       5.530   1.101  -1.127  1.00  0.00     0.314 HD
HETATM   18  H8  UNL     1       4.394   1.305  -2.441  1.00  0.00     0.314 HD
ENDBRANCH  13  16
ENDBRANCH   4  11
BRANCH   1  19
HETATM   19  S1  UNL     1      -3.671   0.791  -0.139  1.00  0.00     0.074 S 
HETATM   20  O1  UNL     1      -3.082   1.739  -1.172  1.00  0.00    -0.251 OA
BRANCH  19  21
HETATM   21  C2  UNL     1      -3.974   1.666   1.374  1.00  0.00     0.103 C 
HETATM   22  C1  UNL     1      -4.319   2.928   1.260  1.00  0.00     0.020 C 
ENDBRANCH  19  21
ENDBRANCH   1  19
TORSDOF 4
