REMARK  4 active torsions:
REMARK  status: ('A' for Active; 'I' for Inactive)
REMARK    1  A    between atoms: N1_2  and  S1_3 
REMARK    2  A    between atoms: S1_3  and  C2_5 
REMARK    3  A    between atoms: C5_8  and  N2_9 
REMARK    4  A    between atoms: N2_9  and  C6_10 
ROOT
HETATM    1  C2  UNL     1       1.995   0.054  -1.318  1.00  0.00     0.139 A 
HETATM    2  C3  UNL     1       1.033   0.077  -0.330  1.00  0.00     0.060 A 
HETATM    3  C4  UNL     1       0.546   1.324  -0.021  1.00  0.00     0.043 A 
HETATM    4  C5  UNL     1      -0.432   1.494   0.958  1.00  0.00     0.142 A 
HETATM    5  N3  UNL     1      -0.947   2.711   1.299  1.00  0.00    -0.224 NA
HETATM    6  C12 UNL     1      -0.458   3.796   0.629  1.00  0.00     0.236 A 
HETATM    7  N4  UNL     1       0.486   3.707  -0.327  1.00  0.00    -0.240 NA
HETATM    8  C13 UNL     1       0.970   2.482  -0.635  1.00  0.00     0.089 A 
HETATM    9  C14 UNL     1       1.949   2.375  -1.627  1.00  0.00     0.150 A 
HETATM   10  N5  UNL     1       2.449   1.147  -1.953  1.00  0.00    -0.248 NA
ENDROOT
BRANCH   4  11
HETATM   11  N2  UNL     1      -0.870   0.292   1.597  1.00  0.00    -0.340 N 
HETATM   12  H6  UNL     1      -0.466  -0.128   2.480  1.00  0.00     0.167 HD
BRANCH  11  13
HETATM   13  C6  UNL     1      -1.953  -0.421   1.006  1.00  0.00     0.035 A 
HETATM   14  C7  UNL     1      -2.456  -1.609   1.548  1.00  0.00     0.029 A 
HETATM   15  C8  UNL     1      -3.517  -2.251   0.910  1.00  0.00     0.004 A 
HETATM   16  C9  UNL     1      -4.072  -1.727  -0.247  1.00  0.00     0.019 A 
HETATM   17  C10 UNL     1      -3.609  -0.558  -0.819  1.00  0.00     0.013 A 
HETATM   18 BR1  UNL     1      -4.366   0.155  -2.398  1.00  0.00    -0.051 Br
HETATM   19  C11 UNL     1      -2.570   0.019  -0.145  1.00  0.00     0.048 A 
ENDBRANCH  11  13
ENDBRANCH   4  11
BRANCH   1  20
HETATM   20  S1  UNL     1       2.688  -1.496  -1.795  1.00  0.00     0.143 S 
HETATM   21  O1  UNL     1       1.619  -2.564  -1.585  1.00  0.00    -0.234 OA
BRANCH  20  22
HETATM   22  N1  UNL     1       4.087  -1.790  -0.770  1.00  0.00    -0.241 NA
HETATM   23  C1  UNL     1       3.617  -1.742   0.607  1.00  0.00     0.123 C 
HETATM   24  H4  UNL     1       4.716  -0.949  -0.918  1.00  0.00     0.137 HD
ENDBRANCH  20  22
ENDBRANCH   1  20
TORSDOF 4
