REMARK  7 active torsions:
REMARK  status: ('A' for Active; 'I' for Inactive)
REMARK    1  A    between atoms: N1_3  and  C3_4 
REMARK    2  A    between atoms: C3_4  and  C13_16 
REMARK    3  A    between atoms: C4_5  and  C5_6 
REMARK    4  A    between atoms: C13_16  and  C15_18 
REMARK    5  A    between atoms: C15_18  and  C16_19 
REMARK    6  A    between atoms: C16_19  and  C17_20 
REMARK    7  A    between atoms: C17_20  and  O3_22 
ROOT
HETATM    1  C3  UNL     1      -0.783   0.825  -0.039  1.00  0.00     0.059 C 
HETATM    2  C4  UNL     1       0.658   0.906   0.075  1.00  0.00     0.050 C 
ENDROOT
BRANCH   1   3
HETATM    3  N1  UNL     1      -1.547   1.707   0.771  1.00  0.00    -0.265 NA
HETATM    4  C2  UNL     1      -2.527   2.433   0.365  1.00  0.00     0.086 C 
HETATM    5  C1  UNL     1      -2.996   3.177   1.583  1.00  0.00     0.057 C 
ENDBRANCH   1   3
BRANCH   1   6
HETATM    6  C13 UNL     1      -1.115  -0.131  -0.928  1.00  0.00    -0.054 C 
HETATM    7  C14 UNL     1      -0.327  -1.054  -1.778  1.00  0.00     0.046 C 
BRANCH   6   8
HETATM    8  C15 UNL     1      -2.581  -0.385  -1.168  1.00  0.00     0.046 C 
BRANCH   8   9
HETATM    9  C16 UNL     1      -2.893  -1.809  -0.827  1.00  0.00     0.114 C 
BRANCH   9  10
HETATM   10  C17 UNL     1      -4.330  -2.144  -1.029  1.00  0.00     0.139 C 
HETATM   11  O2  UNL     1      -5.189  -1.299  -1.445  1.00  0.00    -0.650 OA
BRANCH  10  12
HETATM   12  O3  UNL     1      -4.772  -3.426  -0.757  1.00  0.00    -0.776 OA
HETATM   13  H18 UNL     1      -5.663  -3.808  -0.979  1.00  0.00     0.167 HD
ENDBRANCH  10  12
ENDBRANCH   9  10
ENDBRANCH   8   9
ENDBRANCH   6   8
ENDBRANCH   1   6
BRANCH   2  14
HETATM   14  C5  UNL     1       1.567   0.084   0.505  1.00  0.00     0.047 A 
HETATM   15  C6  UNL     1       1.451  -1.263   1.048  1.00  0.00     0.257 A 
HETATM   16  O1  UNL     1       0.410  -1.916   1.231  1.00  0.00    -0.267 OA
HETATM   17  N2  UNL     1       2.745  -1.764   1.361  1.00  0.00    -0.322 N 
HETATM   18  C7  UNL     1       3.631  -0.715   1.004  1.00  0.00     0.046 A 
HETATM   19  H6  UNL     1       2.973  -2.687   1.757  1.00  0.00     0.169 HD
HETATM   20  C8  UNL     1       5.017  -0.693   1.109  1.00  0.00     0.030 A 
HETATM   21  C12 UNL     1       2.991   0.390   0.498  1.00  0.00     0.006 A 
HETATM   22  C9  UNL     1       5.717   0.422   0.710  1.00  0.00     0.002 A 
HETATM   23  C10 UNL     1       5.107   1.565   0.191  1.00  0.00     0.001 A 
HETATM   24  C11 UNL     1       3.713   1.479   0.111  1.00  0.00     0.015 A 
ENDBRANCH   2  14
TORSDOF 7
