REMARK  7 active torsions:
REMARK  status: ('A' for Active; 'I' for Inactive)
REMARK    1  A    between atoms: C2_2  and  C3_3 
REMARK    2  A    between atoms: C3_3  and  C4_4 
REMARK    3  A    between atoms: C4_4  and  C5_5 
REMARK    4  A    between atoms: C5_5  and  C6_6 
REMARK    5  A    between atoms: C6_6  and  N1_7 
REMARK    6  A    between atoms: C9_13  and  C10_14 
REMARK    7  A    between atoms: C10_14  and  C11_15 
ROOT
HETATM    1  N1  UNL     1       1.482  -0.922   0.178  1.00  0.00    -0.279 N 
HETATM    2  N2  UNL     1       2.135  -1.027   1.424  1.00  0.00    -0.291 N 
HETATM    3  C7  UNL     1       1.578  -0.916   2.731  1.00  0.00     0.225 C 
HETATM    4  N3  UNL     1       0.285  -0.690   2.829  1.00  0.00    -0.225 NA
HETATM    5  C8  UNL     1      -0.459  -0.578   1.597  1.00  0.00     0.156 A 
HETATM    6  N4  UNL     1      -1.680  -0.765   1.224  1.00  0.00    -0.235 NA
HETATM    7  C9  UNL     1      -1.881  -0.508  -0.139  1.00  0.00     0.039 A 
HETATM    8  C17 UNL     1      -0.701  -0.132  -0.651  1.00  0.00     0.035 A 
HETATM    9  C18 UNL     1       0.311  -0.139   0.412  1.00  0.00     0.204 A 
HETATM   10  H8  UNL     1       3.184  -1.222   1.435  1.00  0.00     0.188 HD
ENDROOT
BRANCH   7  11
HETATM   11  C10 UNL     1      -3.202  -0.692  -0.762  1.00  0.00     0.099 C 
BRANCH  11  12
HETATM   12  C11 UNL     1      -4.253   0.214  -0.297  1.00  0.00    -0.029 A 
HETATM   13  C12 UNL     1      -4.045   1.401   0.357  1.00  0.00     0.033 A 
HETATM   14  C13 UNL     1      -5.076   2.218   0.755  1.00  0.00     0.034 A 
HETATM   15 CL1  UNL     1      -4.778   3.749   1.593  1.00  0.00    -0.084 Cl
HETATM   16  C14 UNL     1      -6.393   1.880   0.514  1.00  0.00     0.025 A 
HETATM   17  C15 UNL     1      -6.633   0.670  -0.154  1.00  0.00     0.026 A 
HETATM   18  C16 UNL     1      -5.568  -0.139  -0.546  1.00  0.00     0.040 A 
HETATM   19 CL2  UNL     1      -5.950  -1.650  -1.383  1.00  0.00    -0.084 Cl
ENDBRANCH  11  12
ENDBRANCH   7  11
BRANCH   1  20
HETATM   20  C6  UNL     1       1.966  -1.478  -0.997  1.00  0.00     0.166 C 
BRANCH  20  21
HETATM   21  C5  UNL     1       3.284  -1.618  -1.065  1.00  0.00    -0.110 C 
BRANCH  21  22
HETATM   22  C4  UNL     1       4.580  -1.827  -0.923  1.00  0.00     0.057 C 
BRANCH  22  23
HETATM   23  C3  UNL     1       5.302  -0.635  -0.698  1.00  0.00     0.004 C 
BRANCH  23  24
HETATM   24  C2  UNL     1       5.554   0.290   0.194  1.00  0.00    -0.030 C 
HETATM   25  C1  UNL     1       6.356   1.525   0.298  1.00  0.00     0.036 C 
ENDBRANCH  23  24
ENDBRANCH  22  23
ENDBRANCH  21  22
ENDBRANCH  20  21
ENDBRANCH   1  20
TORSDOF 7
