REMARK  5 active torsions:
REMARK  status: ('A' for Active; 'I' for Inactive)
REMARK    1  A    between atoms: C2_2  and  C3_3 
REMARK    2  A    between atoms: C3_3  and  C4_4 
REMARK    3  A    between atoms: C5_6  and  N1_8 
REMARK    4  A    between atoms: N1_8  and  C7_9 
REMARK    5  A    between atoms: C7_9  and  C8_10 
ROOT
HETATM    1  C8  UNL     1       0.901   0.919   0.412  1.00  0.00     0.010 C 
HETATM    2  C9  UNL     1       2.041   0.826  -0.234  1.00  0.00     0.042 A 
HETATM    3  C10 UNL     1       2.583   1.615  -1.322  1.00  0.00     0.256 A 
HETATM    4  O2  UNL     1       2.044   2.596  -1.902  1.00  0.00    -0.267 OA
HETATM    5  N2  UNL     1       3.862   1.170  -1.717  1.00  0.00    -0.322 N 
HETATM    6  C11 UNL     1       4.157   0.071  -0.870  1.00  0.00     0.046 A 
HETATM    7  C12 UNL     1       5.288  -0.724  -0.841  1.00  0.00     0.030 A 
HETATM    8  C13 UNL     1       5.373  -1.753   0.074  1.00  0.00     0.002 A 
HETATM    9  C14 UNL     1       4.361  -2.026   0.974  1.00  0.00     0.001 A 
HETATM   10  C15 UNL     1       3.256  -1.203   0.903  1.00  0.00     0.014 A 
HETATM   11  C16 UNL     1       3.115  -0.147  -0.002  1.00  0.00     0.006 A 
HETATM   12  H14 UNL     1       4.483   1.542  -2.463  1.00  0.00     0.169 HD
ENDROOT
BRANCH   1  13
HETATM   13  C7  UNL     1      -0.160   1.915   0.162  1.00  0.00     0.148 C 
BRANCH  13  14
HETATM   14  N1  UNL     1      -1.405   1.278  -0.197  1.00  0.00    -0.389 N 
HETATM   15  H10 UNL     1      -1.724   1.397  -1.207  1.00  0.00     0.159 HD
BRANCH  14  16
HETATM   16  C5  UNL     1      -2.209   0.515   0.697  1.00  0.00     0.010 C 
HETATM   17  C3  UNL     1      -3.401   0.177   0.293  1.00  0.00     0.001 C 
HETATM   18  C6  UNL     1      -1.708   0.130   2.048  1.00  0.00     0.068 C 
BRANCH  17  19
HETATM   19  C2  UNL     1      -4.198   0.381  -0.941  1.00  0.00     0.039 C 
HETATM   20  C1  UNL     1      -4.588  -0.936  -1.572  1.00  0.00     0.010 C 
ENDBRANCH  17  19
BRANCH  17  21
HETATM   21  C4  UNL     1      -4.239  -0.590   1.201  1.00  0.00     0.267 C 
HETATM   22  O1  UNL     1      -4.570  -1.191   2.233  1.00  0.00    -0.302 OA
ENDBRANCH  17  21
ENDBRANCH  14  16
ENDBRANCH  13  14
ENDBRANCH   1  13
TORSDOF 5
