REMARK  6 active torsions:
REMARK  status: ('A' for Active; 'I' for Inactive)
REMARK    1  A    between atoms: C4_5  and  N1_6 
REMARK    2  A    between atoms: N1_6  and  C5_7 
REMARK    3  A    between atoms: C6_8  and  C7_9 
REMARK    4  A    between atoms: C7_9  and  C8_10 
REMARK    5  A    between atoms: C8_10  and  C9_11 
REMARK    6  A    between atoms: C9_11  and  N2_12 
ROOT
HETATM    1  O1  UNL     1      -4.155  -2.344   4.635  1.00  0.00    -0.275 OA
HETATM    2  C1  UNL     1      -3.856  -1.956   3.443  1.00  0.00     0.224 C 
HETATM    3  C2  UNL     1      -2.832  -0.885   3.341  1.00  0.00     0.066 C 
HETATM    4  C3  UNL     1      -2.100  -0.191   2.461  1.00  0.00     0.004 C 
HETATM    5  C4  UNL     1      -1.984  -0.212   0.989  1.00  0.00     0.112 C 
HETATM    6  C12 UNL     1      -2.708  -1.243   0.247  1.00  0.00     0.044 C 
HETATM    7  C13 UNL     1      -3.609  -2.234   0.092  1.00  0.00    -0.018 C 
HETATM    8  C14 UNL     1      -4.652  -3.170   0.496  1.00  0.00     0.008 C 
HETATM    9  C15 UNL     1      -5.266  -3.447   1.664  1.00  0.00     0.065 C 
HETATM   10  N4  UNL     1      -4.420  -2.480   2.228  1.00  0.00    -0.236 NA
HETATM   11  H20 UNL     1      -4.852  -3.125   2.922  1.00  0.00     0.136 HD
ENDROOT
BRANCH   5  12
HETATM   12  N1  UNL     1      -0.571  -0.357   0.587  1.00  0.00    -0.391 N 
HETATM   13  H4  UNL     1       0.121  -0.367   1.396  1.00  0.00     0.159 HD
BRANCH  12  14
HETATM   14  C5  UNL     1       0.326  -0.492  -0.501  1.00  0.00     0.079 C 
HETATM   15  C6  UNL     1       0.889   0.391  -1.284  1.00  0.00    -0.010 C 
BRANCH  15  16
HETATM   16  C7  UNL     1       1.017   1.826  -1.593  1.00  0.00     0.030 C 
BRANCH  16  17
HETATM   17  C8  UNL     1       2.452   2.306  -1.409  1.00  0.00     0.025 C 
BRANCH  17  18
HETATM   18  C9  UNL     1       3.437   1.579  -2.266  1.00  0.00     0.145 C 
BRANCH  18  19
HETATM   19  N2  UNL     1       4.786   2.109  -2.021  1.00  0.00    -0.301 N 
HETATM   20  C10 UNL     1       5.621   2.013  -0.814  1.00  0.00     0.193 A 
HETATM   21  C11 UNL     1       6.514   2.790  -1.731  1.00  0.00     0.132 A 
HETATM   22  N3  UNL     1       5.738   2.842  -2.760  1.00  0.00    -0.192 NA
ENDBRANCH  18  19
ENDBRANCH  17  18
ENDBRANCH  16  17
ENDBRANCH  15  16
ENDBRANCH  12  14
ENDBRANCH   5  12
TORSDOF 6
