REMARK  3 active torsions:
REMARK  status: ('A' for Active; 'I' for Inactive)
REMARK    1  A    between atoms: O1_2  and  C2_3 
REMARK    2  A    between atoms: C12_16  and  N4_17 
REMARK    3  A    between atoms: N4_17  and  C13_18 
ROOT
HETATM    1  C2  UNL     1       4.131   0.613   0.686  1.00  0.00     0.068 A 
HETATM    2  C3  UNL     1       4.355  -0.146  -0.455  1.00  0.00     0.037 A 
HETATM    3  C4  UNL     1       3.374  -1.070  -0.727  1.00  0.00     0.011 A 
HETATM    4  C5  UNL     1       2.225  -1.319  -0.012  1.00  0.00    -0.044 A 
HETATM    5  C6  UNL     1       2.047  -0.541   1.111  1.00  0.00    -0.031 A 
HETATM    6  C7  UNL     1       2.993   0.422   1.463  1.00  0.00     0.046 A 
HETATM    7  C8  UNL     1       0.960  -0.530   2.093  1.00  0.00     0.159 C 
HETATM    8  N1  UNL     1      -0.347  -0.714   1.491  1.00  0.00    -0.381 N 
HETATM    9  C9  UNL     1      -0.688  -1.075   0.160  1.00  0.00     0.100 A 
HETATM   10  C10 UNL     1       0.028  -1.799  -0.767  1.00  0.00     0.070 A 
HETATM   11  N2  UNL     1      -0.557  -1.989  -1.961  1.00  0.00    -0.244 NA
HETATM   12  C11 UNL     1      -1.778  -1.503  -2.248  1.00  0.00     0.235 A 
HETATM   13  N3  UNL     1      -2.452  -0.800  -1.321  1.00  0.00    -0.222 NA
HETATM   14  C12 UNL     1      -1.941  -0.565  -0.106  1.00  0.00     0.158 A 
HETATM   15  C18 UNL     1       1.379  -2.391  -0.588  1.00  0.00     0.101 C 
HETATM   16  H9  UNL     1      -1.165  -0.565   2.116  1.00  0.00     0.160 HD
ENDROOT
BRANCH  14  17
HETATM   17  N4  UNL     1      -2.757   0.195   0.771  1.00  0.00    -0.339 N 
HETATM   18  H11 UNL     1      -2.731   0.586   1.732  1.00  0.00     0.167 HD
BRANCH  17  19
HETATM   19  C13 UNL     1      -4.069   0.669   0.394  1.00  0.00     0.029 A 
HETATM   20  C14 UNL     1      -4.038   1.586  -0.589  1.00  0.00     0.006 A 
HETATM   21  C15 UNL     1      -5.422   2.037  -0.936  1.00  0.00     0.056 A 
HETATM   22  C16 UNL     1      -6.228   1.225   0.011  1.00  0.00    -0.021 A 
HETATM   23  C17 UNL     1      -5.447   0.451   0.762  1.00  0.00     0.025 A 
ENDBRANCH  17  19
ENDBRANCH  14  17
BRANCH   1  24
HETATM   24  O1  UNL     1       5.054   1.579   1.061  1.00  0.00    -0.356 OA
HETATM   25  C1  UNL     1       6.199   1.743   0.246  1.00  0.00     0.210 C 
ENDBRANCH   1  24
TORSDOF 3
