REMARK  8 active torsions:
REMARK  status: ('A' for Active; 'I' for Inactive)
REMARK    1  A    between atoms: C2_2  and  N1_3 
REMARK    2  A    between atoms: N1_3  and  C3_4 
REMARK    3  A    between atoms: N1_3  and  C5_6 
REMARK    4  A    between atoms: C5_6  and  C6_7 
REMARK    5  A    between atoms: C6_7  and  N2_8 
REMARK    6  A    between atoms: N2_8  and  C7_9 
REMARK    7  A    between atoms: N3_12  and  C10_13 
REMARK    8  A    between atoms: C10_13  and  C11_14 
ROOT
HETATM    1  C7  UNL     1       0.522   0.843   0.315  1.00  0.00     0.025 C 
HETATM    2  C8  UNL     1      -0.238   1.810   0.925  1.00  0.00     0.021 C 
HETATM    3  C9  UNL     1      -1.691   1.854   1.386  1.00  0.00     0.148 C 
HETATM    4  N3  UNL     1      -2.479   1.940   0.219  1.00  0.00    -0.392 N 
HETATM    5  C12 UNL     1      -3.088   0.821  -0.350  1.00  0.00     0.136 A 
HETATM    6  C13 UNL     1      -4.540   0.776  -0.053  1.00  0.00     0.001 A 
HETATM    7  C14 UNL     1      -5.214  -0.325   0.189  1.00  0.00     0.011 A 
HETATM    8  C15 UNL     1      -4.592  -1.635   0.202  1.00  0.00     0.273 A 
HETATM    9  N4  UNL     1      -5.014  -2.547  -0.841  1.00  0.00     0.096 N 
HETATM   10  C16 UNL     1      -4.145  -3.679  -0.547  1.00  0.00     0.275 C 
HETATM   11  C17 UNL     1      -2.877  -3.088   0.080  1.00  0.00     0.067 C 
HETATM   12  C18 UNL     1      -3.111  -1.642  -0.059  1.00  0.00    -0.033 A 
HETATM   13  C19 UNL     1      -2.462  -0.490  -0.267  1.00  0.00    -0.027 A 
HETATM   14  C20 UNL     1      -1.084  -1.011  -0.324  1.00  0.00     0.012 C 
HETATM   15  C21 UNL     1       0.124  -0.498  -0.097  1.00  0.00     0.029 C 
HETATM   16  H26 UNL     1      -6.007  -2.832  -0.760  1.00  0.00     0.317 HD
ENDROOT
BRANCH   1  17
HETATM   17  N2  UNL     1       1.771   1.459   0.167  1.00  0.00    -0.389 N 
HETATM   18  H15 UNL     1       2.191   1.971   0.988  1.00  0.00     0.159 HD
BRANCH  17  19
HETATM   19  C6  UNL     1       2.577   1.485  -0.991  1.00  0.00     0.139 C 
BRANCH  19  20
HETATM   20  C5  UNL     1       3.355   0.274  -1.364  1.00  0.00     0.136 C 
BRANCH  20  21
HETATM   21  N1  UNL     1       4.378  -0.099  -0.493  1.00  0.00    -0.412 N 
BRANCH  21  22
HETATM   22  C2  UNL     1       4.198  -0.554   0.798  1.00  0.00     0.112 C 
HETATM   23  C1  UNL     1       4.034  -2.049   0.976  1.00  0.00     0.026 C 
ENDBRANCH  21  22
BRANCH  21  24
HETATM   24  C3  UNL     1       5.597  -0.455  -1.137  1.00  0.00     0.112 C 
HETATM   25  C4  UNL     1       6.777   0.232  -0.525  1.00  0.00     0.026 C 
ENDBRANCH  21  24
ENDBRANCH  20  21
ENDBRANCH  19  20
ENDBRANCH  17  19
ENDBRANCH   1  17
BRANCH   4  26
HETATM   26  C10 UNL     1      -3.339   3.079   0.279  1.00  0.00     0.187 C 
BRANCH  26  27
HETATM   27  C11 UNL     1      -2.508   4.321   0.175  1.00  0.00     0.250 C 
HETATM   28  O1  UNL     1      -1.323   4.545   0.007  1.00  0.00    -0.305 OA
ENDBRANCH  26  27
ENDBRANCH   4  26
TORSDOF 8
