REMARK  6 active torsions:
REMARK  status: ('A' for Active; 'I' for Inactive)
REMARK    1  A    between atoms: N1_2  and  C2_3 
REMARK    2  A    between atoms: C2_3  and  C3_4 
REMARK    3  A    between atoms: C3_4  and  C4_5 
REMARK    4  A    between atoms: C4_5  and  C5_6 
REMARK    5  A    between atoms: C8_9  and  C9_10 
REMARK    6  A    between atoms: C15_18  and  N3_19 
ROOT
HETATM    1  C9  UNL     1      -2.381  -1.115  -0.194  1.00  0.00     0.148 A 
HETATM    2  C10 UNL     1      -2.604  -2.069   0.948  1.00  0.00     0.235 A 
HETATM    3  O1  UNL     1      -1.976  -3.046   1.407  1.00  0.00    -0.272 OA
HETATM    4  N2  UNL     1      -3.828  -1.720   1.616  1.00  0.00    -0.326 N 
HETATM    5  C11 UNL     1      -4.421  -0.594   0.979  1.00  0.00     0.044 A 
HETATM    6  C12 UNL     1      -5.566   0.165   1.168  1.00  0.00     0.030 A 
HETATM    7  C13 UNL     1      -5.893   1.238   0.363  1.00  0.00     0.004 A 
HETATM    8  C14 UNL     1      -5.042   1.572  -0.680  1.00  0.00     0.029 A 
HETATM    9  C15 UNL     1      -3.899   0.816  -0.871  1.00  0.00     0.035 A 
HETATM   10  C16 UNL     1      -3.581  -0.254  -0.061  1.00  0.00     0.012 A 
HETATM   11  H15 UNL     1      -4.321  -2.131   2.439  1.00  0.00     0.169 HD
ENDROOT
BRANCH   1  12
HETATM   12  C8  UNL     1      -1.108  -0.371  -0.011  1.00  0.00    -0.038 A 
HETATM   13  C6  UNL     1       0.181  -1.061  -0.109  1.00  0.00    -0.052 A 
HETATM   14  C5  UNL     1       1.133  -0.171   0.093  1.00  0.00    -0.070 A 
HETATM   15  C7  UNL     1       0.578  -2.461  -0.371  1.00  0.00     0.049 C 
HETATM   16  C18 UNL     1       0.545   1.166   0.338  1.00  0.00     0.062 A 
HETATM   17  C17 UNL     1      -0.919   0.910   0.245  1.00  0.00    -0.014 A 
BRANCH  14  18
HETATM   18  C4  UNL     1       2.613  -0.309   0.110  1.00  0.00     0.037 C 
BRANCH  18  19
HETATM   19  C3  UNL     1       3.292   0.543  -0.926  1.00  0.00     0.034 C 
BRANCH  19  20
HETATM   20  C2  UNL     1       4.791   0.278  -0.766  1.00  0.00     0.269 C 
BRANCH  20  21
HETATM   21  N1  UNL     1       5.138   0.668   0.594  1.00  0.00     0.079 N 
HETATM   22  C1  UNL     1       6.526   0.466   0.870  1.00  0.00     0.306 C 
HETATM   23  H4  UNL     1       4.878   1.638   0.800  1.00  0.00     0.315 HD
ENDBRANCH  20  21
ENDBRANCH  19  20
ENDBRANCH  18  19
ENDBRANCH  14  18
ENDBRANCH   1  12
BRANCH   9  24
HETATM   24  N3  UNL     1      -3.132   1.297  -1.992  1.00  0.00    -0.399 N 
HETATM   25  H19 UNL     1      -2.485   2.121  -2.089  1.00  0.00     0.156 HD
HETATM   26  H20 UNL     1      -3.093   0.875  -2.950  1.00  0.00     0.156 HD
ENDBRANCH   9  24
TORSDOF 6
