REMARK  10 active torsions:
REMARK  status: ('A' for Active; 'I' for Inactive)
REMARK    1  A    between atoms: C2_2  and  S1_3 
REMARK    2  A    between atoms: S1_3  and  C3_4 
REMARK    3  A    between atoms: C3_4  and  C4_5 
REMARK    4  A    between atoms: C4_5  and  C15_18 
REMARK    5  A    between atoms: C5_6  and  C6_7 
REMARK    6  A    between atoms: C6_7  and  C7_8 
REMARK    7  A    between atoms: C7_8  and  C8_9 
REMARK    8  A    between atoms: C8_9  and  C9_10 
REMARK    9  A    between atoms: C9_10  and  N1_11 
REMARK   10  A    between atoms: C19_23  and  N3_24 
ROOT
HETATM    1  C4  UNL     1      -2.660   0.550  -0.492  1.00  0.00    -0.041 C 
HETATM    2  C5  UNL     1      -1.496  -0.022  -0.510  1.00  0.00    -0.018 C 
ENDROOT
BRANCH   1   3
HETATM    3  C3  UNL     1      -2.656   2.026  -0.339  1.00  0.00     0.112 C 
BRANCH   3   4
HETATM    4  S1  UNL     1      -3.557   2.435   1.209  1.00  0.00    -0.165 SA
BRANCH   4   5
HETATM    5  C2  UNL     1      -2.631   1.813   2.645  1.00  0.00     0.069 C 
HETATM    6  C1  UNL     1      -1.326   2.566   2.765  1.00  0.00     0.016 C 
ENDBRANCH   4   5
ENDBRANCH   3   4
ENDBRANCH   1   3
BRANCH   1   7
HETATM    7  C15 UNL     1      -3.969  -0.058  -0.603  1.00  0.00    -0.014 A 
HETATM    8  C16 UNL     1      -5.121   0.635  -0.574  1.00  0.00     0.068 A 
HETATM    9  C17 UNL     1      -6.268  -0.237  -0.706  1.00  0.00     0.186 A 
HETATM   10  O1  UNL     1      -7.476   0.093  -0.716  1.00  0.00    -0.287 OA
HETATM   11  C18 UNL     1      -5.766  -1.577  -0.825  1.00  0.00     0.051 A 
HETATM   12  C19 UNL     1      -6.344  -2.818  -0.973  1.00  0.00     0.041 A 
HETATM   13  C23 UNL     1      -4.404  -1.439  -0.760  1.00  0.00    -0.009 A 
HETATM   14  C20 UNL     1      -5.635  -3.994  -1.068  1.00  0.00     0.030 A 
HETATM   15  C21 UNL     1      -4.267  -3.856  -1.004  1.00  0.00     0.003 A 
HETATM   16  C22 UNL     1      -3.710  -2.607  -0.855  1.00  0.00     0.013 A 
BRANCH  12  17
HETATM   17  N3  UNL     1      -7.756  -2.861  -1.028  1.00  0.00    -0.398 N 
HETATM   18  H29 UNL     1      -8.784  -2.863  -0.988  1.00  0.00     0.156 HD
HETATM   19  H30 UNL     1      -8.189  -3.188  -1.927  1.00  0.00     0.156 HD
ENDBRANCH  12  17
ENDBRANCH   1   7
BRANCH   2  20
HETATM   20  C6  UNL     1      -0.114   0.470  -0.410  1.00  0.00     0.028 C 
BRANCH  20  21
HETATM   21  C7  UNL     1       0.637  -0.107   0.772  1.00  0.00     0.006 C 
BRANCH  21  22
HETATM   22  C8  UNL     1       2.047   0.376   0.917  1.00  0.00     0.030 C 
BRANCH  22  23
HETATM   23  C9  UNL     1       2.848   0.018  -0.283  1.00  0.00     0.272 C 
BRANCH  23  24
HETATM   24  N1  UNL     1       4.239   0.449  -0.184  1.00  0.00     0.091 N 
HETATM   25  C10 UNL     1       4.943  -0.302   0.837  1.00  0.00     0.291 C 
HETATM   26  C11 UNL     1       6.371   0.121   0.902  1.00  0.00     0.146 C 
HETATM   27  N2  UNL     1       6.922   0.653  -0.298  1.00  0.00    -0.413 N 
HETATM   28  C12 UNL     1       7.284   2.034  -0.238  1.00  0.00     0.143 C 
HETATM   29  C13 UNL     1       6.316   0.217  -1.512  1.00  0.00     0.146 C 
HETATM   30  C14 UNL     1       4.836   0.071  -1.455  1.00  0.00     0.291 C 
ENDBRANCH  23  24
ENDBRANCH  22  23
ENDBRANCH  21  22
ENDBRANCH  20  21
ENDBRANCH   2  20
TORSDOF 10
