REMARK  1 active torsions:
REMARK  status: ('A' for Active; 'I' for Inactive)
REMARK    1  A    between atoms: C2_2  and  N1_3 
ROOT
HETATM    1  N1  UNL     1      -2.544  -1.348  -0.573  1.00  0.00    -0.411 N 
HETATM    2  C3  UNL     1      -1.650  -1.850  -1.510  1.00  0.00     0.136 C 
HETATM    3  C4  UNL     1      -0.417  -2.613  -1.193  1.00  0.00     0.142 C 
HETATM    4  N2  UNL     1       0.634  -1.965  -0.496  1.00  0.00    -0.355 N 
HETATM    5  C5  UNL     1       1.658  -1.330   0.193  1.00  0.00     0.250 C 
HETATM    6  O1  UNL     1       1.209  -1.198   1.318  1.00  0.00    -0.268 OA
HETATM    7  C6  UNL     1       2.980  -0.772   0.170  1.00  0.00     0.046 C 
HETATM    8  C7  UNL     1       4.133  -1.373   0.230  1.00  0.00     0.013 C 
HETATM    9  C8  UNL     1       4.004  -2.830   0.349  1.00  0.00     0.068 C 
HETATM   10  N3  UNL     1       5.128  -0.339   0.114  1.00  0.00    -0.392 N 
HETATM   11  C9  UNL     1       4.455   0.815  -0.530  1.00  0.00     0.138 C 
HETATM   12  C10 UNL     1       3.119   0.678   0.137  1.00  0.00     0.136 C 
HETATM   13  C11 UNL     1       2.014   1.430  -0.494  1.00  0.00     0.232 C 
HETATM   14  O2  UNL     1       1.440   1.928  -1.519  1.00  0.00    -0.272 OA
HETATM   15  N4  UNL     1       0.875   1.994   0.093  1.00  0.00    -0.326 N 
HETATM   16  C12 UNL     1      -0.329   2.664   0.303  1.00  0.00     0.041 A 
HETATM   17  C13 UNL     1      -0.097   3.932   0.893  1.00  0.00     0.033 A 
HETATM   18  C14 UNL     1      -1.153   4.790   1.214  1.00  0.00     0.044 A 
HETATM   19  C15 UNL     1      -2.416   4.261   0.893  1.00  0.00     0.117 A 
HETATM   20  F1  UNL     1      -3.402   5.103   1.202  1.00  0.00    -0.206 F 
HETATM   21  C16 UNL     1      -2.615   3.013   0.314  1.00  0.00     0.051 A 
HETATM   22  C17 UNL     1      -1.564   2.191   0.006  1.00  0.00    -0.027 A 
HETATM   23  C18 UNL     1      -1.819   0.938  -0.725  1.00  0.00     0.060 C 
HETATM   24  C19 UNL     1      -2.193  -0.194   0.199  1.00  0.00     0.121 C 
HETATM   25  H10 UNL     1       1.378  -1.910  -1.270  1.00  0.00     0.162 HD
HETATM   26  H14 UNL     1       6.092  -0.595   0.498  1.00  0.00     0.159 HD
HETATM   27  H18 UNL     1       1.031   1.704   1.103  1.00  0.00     0.169 HD
ENDROOT
BRANCH   1  28
HETATM   28  C2  UNL     1      -3.250  -2.382   0.142  1.00  0.00     0.112 C 
HETATM   29  C1  UNL     1      -4.496  -1.759   0.736  1.00  0.00     0.026 C 
ENDBRANCH   1  28
TORSDOF 1
