REMARK  6 active torsions:
REMARK  status: ('A' for Active; 'I' for Inactive)
REMARK    1  A    between atoms: C2_2  and  C3_3 
REMARK    2  A    between atoms: C3_3  and  C4_4 
REMARK    3  A    between atoms: C4_4  and  N1_5 
REMARK    4  A    between atoms: C5_6  and  C6_7 
REMARK    5  A    between atoms: C6_7  and  N2_8 
REMARK       I    between atoms: N2_8  and  C7_9 
REMARK    6  A    between atoms: C7_9  and  C8_11 
ROOT
HETATM    1  C8  UNL     1      -1.810   1.168  -0.776  1.00  0.00     0.066 C 
HETATM    2  C9  UNL     1      -2.315   1.356  -1.981  1.00  0.00     0.015 C 
HETATM    3  C10 UNL     1      -1.252   1.603  -3.021  1.00  0.00     0.068 C 
HETATM    4  N3  UNL     1      -3.624   1.380  -2.534  1.00  0.00    -0.392 N 
HETATM    5  C11 UNL     1      -4.698   0.870  -1.666  1.00  0.00     0.126 C 
HETATM    6  C12 UNL     1      -4.350  -0.352  -0.921  1.00  0.00     0.034 A 
HETATM    7  C13 UNL     1      -4.969  -0.465   0.406  1.00  0.00     0.011 A 
HETATM    8  C14 UNL     1      -5.341  -0.657   1.688  1.00  0.00    -0.015 C 
HETATM    9  C15 UNL     1      -4.104  -1.236   2.180  1.00  0.00    -0.006 C 
HETATM   10  C16 UNL     1      -3.116  -1.245   1.304  1.00  0.00    -0.013 C 
HETATM   11  C17 UNL     1      -3.441  -0.568   0.056  1.00  0.00     0.032 A 
HETATM   12  C18 UNL     1      -2.791   0.936   0.296  1.00  0.00     0.224 C 
HETATM   13  F1  UNL     1      -3.747   1.829   0.456  1.00  0.00    -0.243 F 
HETATM   14  H17 UNL     1      -3.694   1.757  -3.509  1.00  0.00     0.159 HD
ENDROOT
BRANCH   1  15
HETATM   15  C7  UNL     1      -0.422   1.176  -0.389  1.00  0.00     0.252 C 
HETATM   16  N2  UNL     1       0.961   1.296  -0.630  1.00  0.00    -0.355 N 
HETATM   17  H13 UNL     1       1.013   1.480  -1.637  1.00  0.00     0.162 HD
HETATM   18  O1  UNL     1      -0.340   0.954   0.864  1.00  0.00    -0.268 OA
BRANCH  16  19
HETATM   19  C6  UNL     1       1.710   1.118   0.596  1.00  0.00     0.162 C 
BRANCH  19  20
HETATM   20  C5  UNL     1       1.488  -0.193   1.219  1.00  0.00     0.677 C 
HETATM   21  N1  UNL     1       2.401  -1.113   1.317  1.00  0.00     0.021 NA
BRANCH  21  22
HETATM   22  C4  UNL     1       3.718  -0.817   0.774  1.00  0.00     0.250 C 
BRANCH  22  23
HETATM   23  C3  UNL     1       4.574  -2.059   1.028  1.00  0.00     0.028 C 
BRANCH  23  24
HETATM   24  C2  UNL     1       5.950  -1.784   0.475  1.00  0.00    -0.003 C 
HETATM   25  C1  UNL     1       6.518  -0.571   1.200  1.00  0.00     0.005 C 
ENDBRANCH  23  24
ENDBRANCH  22  23
ENDBRANCH  21  22
ENDBRANCH  19  20
ENDBRANCH  16  19
ENDBRANCH   1  15
TORSDOF 6
