REMARK  7 active torsions:
REMARK  status: ('A' for Active; 'I' for Inactive)
REMARK    1  A    between atoms: C2_2  and  N1_3 
REMARK    2  A    between atoms: N1_3  and  C3_4 
REMARK    3  A    between atoms: N1_3  and  C5_7 
REMARK    4  A    between atoms: C3_4  and  C4_5 
REMARK    5  A    between atoms: C5_7  and  N2_8 
REMARK    6  A    between atoms: N2_8  and  C6_9 
REMARK    7  A    between atoms: C10_14  and  C12_16 
ROOT
HETATM    1  C6  UNL     1       0.356   0.467   1.362  1.00  0.00     0.132 C 
HETATM    2  C7  UNL     1       0.281   1.934   1.110  1.00  0.00     0.024 C 
HETATM    3  C8  UNL     1      -1.021   2.217   1.147  1.00  0.00    -0.000 C 
HETATM    4  C9  UNL     1      -1.470   3.631   0.931  1.00  0.00     0.067 C 
HETATM    5  N3  UNL     1      -1.868   1.092   1.398  1.00  0.00    -0.381 N 
HETATM    6  C10 UNL     1      -0.987  -0.028   0.998  1.00  0.00     0.066 C 
HETATM    7  C11 UNL     1      -1.361  -1.153   1.946  1.00  0.00     0.042 C 
HETATM    8  H17 UNL     1      -2.827   1.237   1.766  1.00  0.00     0.160 HD
ENDROOT
BRANCH   6   9
HETATM    9  C12 UNL     1      -1.253  -0.299  -0.430  1.00  0.00     0.143 A 
HETATM   10  C13 UNL     1      -1.112   0.947  -1.222  1.00  0.00     0.233 A 
HETATM   11  O2  UNL     1      -0.209   1.764  -1.585  1.00  0.00    -0.272 OA
HETATM   12  N4  UNL     1      -2.379   1.386  -1.753  1.00  0.00    -0.326 N 
HETATM   13  C14 UNL     1      -3.391   0.438  -1.375  1.00  0.00     0.042 A 
HETATM   14  H22 UNL     1      -2.739   2.197  -2.329  1.00  0.00     0.169 HD
HETATM   15  C15 UNL     1      -4.734   0.264  -1.573  1.00  0.00     0.032 A 
HETATM   16  C19 UNL     1      -2.736  -0.550  -0.628  1.00  0.00    -0.014 A 
HETATM   17  C16 UNL     1      -5.487  -0.779  -1.111  1.00  0.00     0.026 A 
HETATM   18  C17 UNL     1      -4.841  -1.758  -0.373  1.00  0.00     0.034 A 
HETATM   19 CL1  UNL     1      -5.799  -3.095   0.220  1.00  0.00    -0.084 Cl
HETATM   20  C18 UNL     1      -3.489  -1.612  -0.156  1.00  0.00     0.034 A 
ENDBRANCH   6   9
BRANCH   1  21
HETATM   21  N2  UNL     1       1.514  -0.192   0.970  1.00  0.00    -0.396 N 
HETATM   22  H11 UNL     1       1.807  -0.987   1.564  1.00  0.00     0.155 HD
BRANCH  21  23
HETATM   23  C5  UNL     1       2.098  -0.055  -0.296  1.00  0.00     0.236 C 
BRANCH  23  24
HETATM   24  N1  UNL     1       3.324  -0.811  -0.413  1.00  0.00    -0.392 N 
BRANCH  24  25
HETATM   25  C2  UNL     1       4.387  -0.479   0.415  1.00  0.00     0.114 C 
HETATM   26  C1  UNL     1       5.432   0.437  -0.160  1.00  0.00     0.026 C 
ENDBRANCH  24  25
BRANCH  24  27
HETATM   27  C3  UNL     1       3.481  -1.615  -1.549  1.00  0.00     0.188 C 
BRANCH  27  28
HETATM   28  C4  UNL     1       3.827  -3.048  -1.217  1.00  0.00     0.250 C 
HETATM   29  O1  UNL     1       4.033  -4.028  -1.906  1.00  0.00    -0.305 OA
ENDBRANCH  27  28
ENDBRANCH  24  27
ENDBRANCH  23  24
ENDBRANCH  21  23
ENDBRANCH   1  21
TORSDOF 7
