REMARK  9 active torsions:
REMARK  status: ('A' for Active; 'I' for Inactive)
REMARK    1  A    between atoms: C2_2  and  N1_3 
REMARK    2  A    between atoms: N1_3  and  C3_4 
REMARK    3  A    between atoms: N1_3  and  C5_6 
REMARK    4  A    between atoms: C5_6  and  C6_7 
REMARK    5  A    between atoms: C6_7  and  N2_8 
REMARK    6  A    between atoms: N2_8  and  C7_9 
REMARK    7  A    between atoms: C7_9  and  C10_12 
REMARK    8  A    between atoms: C10_12  and  C11_14 
REMARK    9  A    between atoms: C11_14  and  C12_15 
ROOT
HETATM    1  C10 UNL     1      -0.612  -0.594   1.720  1.00  0.00     0.221 C 
HETATM    2  F1  UNL     1      -0.005   0.475   2.346  1.00  0.00    -0.243 F 
ENDROOT
BRANCH   1   3
HETATM    3  C7  UNL     1       0.423  -1.309   0.813  1.00  0.00     0.052 C 
HETATM    4  C8  UNL     1      -0.233  -2.555   0.292  1.00  0.00     0.041 C 
HETATM    5  C9  UNL     1       1.519  -1.705   1.771  1.00  0.00     0.041 C 
BRANCH   3   6
HETATM    6  N2  UNL     1       0.841  -0.368  -0.110  1.00  0.00    -0.409 N 
HETATM    7  H15 UNL     1       0.819   0.621   0.152  1.00  0.00     0.154 HD
BRANCH   6   8
HETATM    8  C6  UNL     1       1.699  -0.620  -1.176  1.00  0.00     0.145 C 
BRANCH   8   9
HETATM    9  C5  UNL     1       3.134  -0.940  -0.888  1.00  0.00     0.291 C 
BRANCH   9  10
HETATM   10  N1  UNL     1       3.842   0.086  -0.177  1.00  0.00     0.089 N 
BRANCH  10  11
HETATM   11  C2  UNL     1       4.052   1.260  -0.967  1.00  0.00     0.268 C 
HETATM   12  C1  UNL     1       4.520   2.439  -0.119  1.00  0.00     0.037 C 
ENDBRANCH  10  11
BRANCH  10  13
HETATM   13  C3  UNL     1       5.090  -0.443   0.341  1.00  0.00     0.268 C 
HETATM   14  C4  UNL     1       5.987  -1.013  -0.732  1.00  0.00     0.037 C 
ENDBRANCH  10  13
ENDBRANCH   9  10
ENDBRANCH   8   9
ENDBRANCH   6   8
ENDBRANCH   3   6
ENDBRANCH   1   3
BRANCH   1  15
HETATM   15  C11 UNL     1      -1.735  -0.084   0.922  1.00  0.00     0.030 C 
BRANCH  15  16
HETATM   16  C12 UNL     1      -2.983   0.055   1.328  1.00  0.00     0.043 A 
HETATM   17  C13 UNL     1      -3.520  -0.261   2.639  1.00  0.00     0.256 A 
HETATM   18  O1  UNL     1      -2.932  -0.725   3.645  1.00  0.00    -0.267 OA
HETATM   19  N3  UNL     1      -4.926   0.062   2.610  1.00  0.00    -0.322 N 
HETATM   20  C14 UNL     1      -5.226   0.556   1.321  1.00  0.00     0.046 A 
HETATM   21  H24 UNL     1      -5.606  -0.043   3.383  1.00  0.00     0.169 HD
HETATM   22  C15 UNL     1      -6.439   1.003   0.799  1.00  0.00     0.031 A 
HETATM   23  C20 UNL     1      -4.076   0.562   0.534  1.00  0.00     0.007 A 
HETATM   24  C16 UNL     1      -6.488   1.452  -0.510  1.00  0.00     0.009 A 
HETATM   25  C17 UNL     1      -5.343   1.459  -1.305  1.00  0.00    -0.061 A 
HETATM   26  C18 UNL     1      -5.548   1.967  -2.684  1.00  0.00     0.048 C 
HETATM   27  C19 UNL     1      -4.141   1.011  -0.769  1.00  0.00     0.021 A 
ENDBRANCH  15  16
ENDBRANCH   1  15
TORSDOF 9
