REMARK  7 active torsions:
REMARK  status: ('A' for Active; 'I' for Inactive)
REMARK    1  A    between atoms: C2_2  and  N1_3 
REMARK    2  A    between atoms: N1_3  and  C3_4 
REMARK    3  A    between atoms: N1_3  and  C5_6 
REMARK    4  A    between atoms: C5_6  and  C6_7 
REMARK    5  A    between atoms: C6_7  and  N2_8 
REMARK       I    between atoms: N2_8  and  C7_9 
REMARK    6  A    between atoms: C7_9  and  C8_11 
REMARK    7  A    between atoms: C14_18  and  O2_19 
ROOT
HETATM    1  C8  UNL     1       0.849  -0.850   0.429  1.00  0.00     0.088 C 
HETATM    2  C9  UNL     1       1.514  -1.779   1.079  1.00  0.00     0.019 C 
HETATM    3  C10 UNL     1       0.648  -2.930   1.433  1.00  0.00     0.069 C 
HETATM    4  N3  UNL     1       2.856  -1.927   1.514  1.00  0.00    -0.392 N 
HETATM    5  C11 UNL     1       3.889  -0.953   1.395  1.00  0.00     0.135 C 
HETATM    6  C12 UNL     1       3.940  -0.394  -0.009  1.00  0.00     0.091 A 
HETATM    7  C13 UNL     1       2.867   0.611  -0.198  1.00  0.00     0.054 A 
HETATM    8  C14 UNL     1       1.581   0.372  -0.002  1.00  0.00     0.106 C 
HETATM    9  N4  UNL     1       3.397   1.851  -0.606  1.00  0.00    -0.356 N 
HETATM   10  C15 UNL     1       4.798   1.624  -0.635  1.00  0.00     0.039 A 
HETATM   11  C16 UNL     1       5.794   2.547  -0.964  1.00  0.00     0.030 A 
HETATM   12  C17 UNL     1       7.117   2.243  -0.949  1.00  0.00     0.002 A 
HETATM   13  C18 UNL     1       7.471   0.940  -0.585  1.00  0.00     0.001 A 
HETATM   14  C19 UNL     1       6.505  -0.009  -0.250  1.00  0.00     0.010 A 
HETATM   15  C20 UNL     1       5.167   0.346  -0.280  1.00  0.00    -0.020 A 
HETATM   16  H19 UNL     1       3.082  -2.841   1.957  1.00  0.00     0.159 HD
HETATM   17  H24 UNL     1       2.895   2.721  -0.832  1.00  0.00     0.166 HD
ENDROOT
BRANCH   1  18
HETATM   18  C7  UNL     1      -0.519  -0.803   0.038  1.00  0.00     0.256 C 
HETATM   19  N2  UNL     1      -1.725  -1.493   0.060  1.00  0.00    -0.355 N 
HETATM   20  H15 UNL     1      -1.603  -2.403   0.537  1.00  0.00     0.162 HD
HETATM   21  O1  UNL     1      -0.933   0.207  -0.578  1.00  0.00    -0.267 OA
BRANCH  19  22
HETATM   22  C6  UNL     1      -3.039  -1.202  -0.430  1.00  0.00     0.142 C 
BRANCH  22  23
HETATM   23  C5  UNL     1      -3.615   0.002   0.200  1.00  0.00     0.136 C 
BRANCH  23  24
HETATM   24  N1  UNL     1      -4.943   0.371  -0.210  1.00  0.00    -0.412 N 
BRANCH  24  25
HETATM   25  C2  UNL     1      -5.955  -0.558   0.202  1.00  0.00     0.112 C 
HETATM   26  C1  UNL     1      -7.256   0.223   0.295  1.00  0.00     0.026 C 
ENDBRANCH  24  25
BRANCH  24  27
HETATM   27  C3  UNL     1      -5.054   0.872  -1.532  1.00  0.00     0.112 C 
HETATM   28  C4  UNL     1      -3.950   1.859  -1.814  1.00  0.00     0.026 C 
ENDBRANCH  24  27
ENDBRANCH  23  24
ENDBRANCH  22  23
ENDBRANCH  19  22
ENDBRANCH   1  18
BRANCH   8  29
HETATM   29  O2  UNL     1       0.800   1.497  -0.255  1.00  0.00    -0.358 OA
HETATM   30  H23 UNL     1       0.647   1.864  -1.164  1.00  0.00     0.217 HD
ENDBRANCH   8  29
TORSDOF 7
