REMARK  2 active torsions:
REMARK  status: ('A' for Active; 'I' for Inactive)
REMARK    1  A    between atoms: C2_2  and  N1_3 
REMARK    2  A    between atoms: C10_13  and  C11_14 
ROOT
HETATM    1  N1  UNL     1      -3.993   0.886  -0.567  1.00  0.00     0.089 N 
HETATM    2  C3  UNL     1      -4.554  -0.129   0.329  1.00  0.00     0.292 C 
HETATM    3  C4  UNL     1      -4.479  -1.574  -0.091  1.00  0.00     0.151 C 
HETATM    4  N2  UNL     1      -3.081  -1.863  -0.220  1.00  0.00    -0.372 N 
HETATM    5  C5  UNL     1      -1.728  -2.146  -0.346  1.00  0.00     0.081 A 
HETATM    6  O1  UNL     1      -2.092  -3.335  -0.724  1.00  0.00    -0.301 OA
HETATM    7  C6  UNL     1      -0.384  -2.543  -0.507  1.00  0.00     0.239 C 
HETATM    8  C7  UNL     1       0.401  -1.374  -0.263  1.00  0.00    -0.060 C 
HETATM    9  C8  UNL     1       1.527  -2.377  -0.562  1.00  0.00     0.045 C 
HETATM   10  C9  UNL     1       0.823   0.157  -0.171  1.00  0.00    -0.030 C 
HETATM   11  C10 UNL     1       2.152   0.152   0.228  1.00  0.00     0.030 C 
HETATM   12  C19 UNL     1      -0.286   0.471  -0.697  1.00  0.00    -0.072 C 
HETATM   13  C20 UNL     1       0.144   1.929  -0.589  1.00  0.00     0.044 C 
HETATM   14  C21 UNL     1      -1.581   0.485  -1.317  1.00  0.00     0.065 C 
HETATM   15  C22 UNL     1      -2.574   1.053  -0.361  1.00  0.00     0.276 C 
HETATM   16  H10 UNL     1      -2.413  -1.250   0.264  1.00  0.00     0.235 HD
ENDROOT
BRANCH  11  17
HETATM   17  C11 UNL     1       3.053  -0.432   0.949  1.00  0.00     0.045 A 
HETATM   18  C12 UNL     1       3.225  -1.518   1.881  1.00  0.00     0.257 A 
HETATM   19  O2  UNL     1       2.256  -2.103   2.389  1.00  0.00    -0.267 OA
HETATM   20  N3  UNL     1       4.585  -1.720   2.060  1.00  0.00    -0.322 N 
HETATM   21  C13 UNL     1       5.264  -0.763   1.250  1.00  0.00     0.046 A 
HETATM   22  H16 UNL     1       4.913  -2.471   2.693  1.00  0.00     0.169 HD
HETATM   23  C14 UNL     1       6.642  -0.692   1.186  1.00  0.00     0.032 A 
HETATM   24  C18 UNL     1       4.413   0.048   0.554  1.00  0.00     0.008 A 
HETATM   25  C15 UNL     1       7.194   0.273   0.355  1.00  0.00     0.026 A 
HETATM   26  C16 UNL     1       6.393   1.089  -0.343  1.00  0.00     0.035 A 
HETATM   27 CL1  UNL     1       7.051   2.317  -1.405  1.00  0.00    -0.084 Cl
HETATM   28  C17 UNL     1       5.026   1.009  -0.271  1.00  0.00     0.038 A 
ENDBRANCH  11  17
BRANCH   1  29
HETATM   29  C2  UNL     1      -4.495   2.134   0.170  1.00  0.00     0.268 C 
HETATM   30  C1  UNL     1      -5.957   2.277   0.084  1.00  0.00     0.037 C 
ENDBRANCH   1  29
TORSDOF 2
