REMARK  7 active torsions:
REMARK  status: ('A' for Active; 'I' for Inactive)
REMARK    1  A    between atoms: C2_2  and  N1_3 
REMARK    2  A    between atoms: N1_3  and  C3_4 
REMARK    3  A    between atoms: N1_3  and  C5_6 
REMARK    4  A    between atoms: C5_6  and  C6_7 
REMARK    5  A    between atoms: C6_7  and  N2_8 
REMARK       I    between atoms: N2_8  and  C7_9 
REMARK    6  A    between atoms: C7_9  and  C8_11 
REMARK    7  A    between atoms: C11_15  and  C12_16 
ROOT
HETATM    1  C8  UNL     1       2.254  -0.537  -0.220  1.00  0.00     0.072 A 
HETATM    2  C9  UNL     1       2.874  -0.343  -1.340  1.00  0.00     0.023 A 
HETATM    3  C10 UNL     1       2.251   0.029  -2.634  1.00  0.00     0.069 C 
HETATM    4  N3  UNL     1       4.306  -0.514  -1.266  1.00  0.00    -0.377 N 
HETATM    5  C11 UNL     1       4.920  -0.870  -0.007  1.00  0.00     0.153 A 
HETATM    6  S1  UNL     1       3.509  -0.975   1.034  1.00  0.00    -0.206 SA
HETATM    7  C14 UNL     1       3.461   0.020   2.491  1.00  0.00     0.073 C 
HETATM    8  H19 UNL     1       5.008  -0.408  -2.044  1.00  0.00     0.160 HD
HETATM    9  H23 UNL     1       3.148  -2.563   1.465  1.00  0.00     0.088 HD
ENDROOT
BRANCH   1  10
HETATM   10  C7  UNL     1       0.890  -0.477   0.174  1.00  0.00     0.258 C 
HETATM   11  N2  UNL     1      -0.292  -0.179  -0.545  1.00  0.00    -0.355 N 
HETATM   12  H15 UNL     1      -0.144   0.039  -1.552  1.00  0.00     0.162 HD
HETATM   13  O1  UNL     1       0.500  -0.713   1.372  1.00  0.00    -0.267 OA
BRANCH  11  14
HETATM   14  C6  UNL     1      -1.608  -0.182   0.094  1.00  0.00     0.142 C 
BRANCH  14  15
HETATM   15  C5  UNL     1      -2.591   0.175  -0.969  1.00  0.00     0.136 C 
BRANCH  15  16
HETATM   16  N1  UNL     1      -3.951   0.239  -0.596  1.00  0.00    -0.412 N 
BRANCH  16  17
HETATM   17  C2  UNL     1      -4.607  -0.970  -0.250  1.00  0.00     0.112 C 
HETATM   18  C1  UNL     1      -4.375  -1.488   1.130  1.00  0.00     0.026 C 
ENDBRANCH  16  17
BRANCH  16  19
HETATM   19  C3  UNL     1      -4.385   1.419   0.060  1.00  0.00     0.112 C 
HETATM   20  C4  UNL     1      -5.787   1.751  -0.408  1.00  0.00     0.026 C 
ENDBRANCH  16  19
ENDBRANCH  15  16
ENDBRANCH  14  15
ENDBRANCH  11  14
ENDBRANCH   1  10
BRANCH   5  21
HETATM   21  C12 UNL     1       5.876   0.166   0.442  1.00  0.00     0.037 C 
HETATM   22  C13 UNL     1       5.990   1.251  -0.283  1.00  0.00     0.187 C 
HETATM   23  F1  UNL     1       5.482   1.802  -1.412  1.00  0.00    -0.220 F 
ENDBRANCH   5  21
TORSDOF 7
