REMARK  6 active torsions:
REMARK  status: ('A' for Active; 'I' for Inactive)
REMARK    1  A    between atoms: C2_2  and  N1_3 
REMARK    2  A    between atoms: N1_3  and  C3_4 
REMARK    3  A    between atoms: N1_3  and  C5_6 
REMARK    4  A    between atoms: C5_6  and  C6_7 
REMARK    5  A    between atoms: C6_7  and  N2_8 
REMARK       I    between atoms: N2_8  and  C7_9 
REMARK    6  A    between atoms: C7_9  and  C8_11 
ROOT
HETATM    1  C8  UNL     1      -0.768   0.193  -0.656  1.00  0.00     0.240 C 
HETATM    2  C9  UNL     1      -0.946  -1.239  -1.062  1.00  0.00     0.060 C 
HETATM    3  N3  UNL     1      -1.118   1.027  -1.810  1.00  0.00     0.106 N 
HETATM    4  C10 UNL     1      -2.286   1.775  -1.320  1.00  0.00     0.307 C 
HETATM    5  C11 UNL     1      -2.971   0.852  -0.350  1.00  0.00    -0.029 C 
HETATM    6  C12 UNL     1      -4.249   0.528  -0.394  1.00  0.00     0.045 C 
HETATM    7  C13 UNL     1      -5.288   0.972  -1.359  1.00  0.00     0.253 C 
HETATM    8  O2  UNL     1      -5.129   1.784  -2.341  1.00  0.00    -0.268 OA
HETATM    9  N4  UNL     1      -6.536   0.311  -0.992  1.00  0.00    -0.345 N 
HETATM   10  C14 UNL     1      -6.312   0.293   0.412  1.00  0.00     0.143 A 
HETATM   11  C15 UNL     1      -7.142  -0.589   1.237  1.00  0.00     0.022 A 
HETATM   12  C16 UNL     1      -6.364  -1.547   1.761  1.00  0.00     0.010 A 
HETATM   13 BR1  UNL     1      -6.804  -3.002   2.923  1.00  0.00    -0.051 Br
HETATM   14  C17 UNL     1      -4.965  -1.429   1.298  1.00  0.00     0.029 A 
HETATM   15  C18 UNL     1      -4.960  -0.386   0.500  1.00  0.00    -0.014 A 
HETATM   16  C19 UNL     1      -1.743   0.655   0.413  1.00  0.00     0.061 C 
HETATM   17  C20 UNL     1      -1.794  -0.331   1.529  1.00  0.00     0.018 C 
HETATM   18  H19 UNL     1      -1.334   0.457  -2.644  1.00  0.00     0.317 HD
HETATM   19  H22 UNL     1      -7.214   0.043  -1.759  1.00  0.00     0.163 HD
ENDROOT
BRANCH   1  20
HETATM   20  C7  UNL     1       0.646   0.422  -0.321  1.00  0.00     0.257 C 
HETATM   21  N2  UNL     1       1.550   1.270  -1.010  1.00  0.00    -0.357 N 
HETATM   22  H15 UNL     1       1.061   1.737  -1.826  1.00  0.00     0.162 HD
HETATM   23  O1  UNL     1       1.035  -0.224   0.683  1.00  0.00    -0.271 OA
BRANCH  21  24
HETATM   24  C6  UNL     1       2.946   1.504  -0.694  1.00  0.00     0.152 C 
BRANCH  24  25
HETATM   25  C5  UNL     1       3.678   0.213  -0.761  1.00  0.00     0.292 C 
BRANCH  25  26
HETATM   26  N1  UNL     1       5.079   0.249  -0.487  1.00  0.00     0.089 N 
BRANCH  26  27
HETATM   27  C2  UNL     1       5.430   0.563   0.864  1.00  0.00     0.268 C 
HETATM   28  C1  UNL     1       4.828  -0.300   1.917  1.00  0.00     0.037 C 
ENDBRANCH  26  27
BRANCH  26  29
HETATM   29  C3  UNL     1       5.626  -1.017  -0.934  1.00  0.00     0.268 C 
HETATM   30  C4  UNL     1       7.110  -1.034  -1.081  1.00  0.00     0.037 C 
ENDBRANCH  26  29
ENDBRANCH  25  26
ENDBRANCH  24  25
ENDBRANCH  21  24
ENDBRANCH   1  20
TORSDOF 6
