REMARK  2 active torsions:
REMARK  status: ('A' for Active; 'I' for Inactive)
REMARK    1  A    between atoms: C3_3  and  N1_4 
REMARK    2  A    between atoms: C12_17  and  C13_18 
ROOT
HETATM    1  N1  UNL     1      -3.463   0.267  -2.278  1.00  0.00    -0.330 N 
HETATM    2  C4  UNL     1      -4.142   1.345  -2.754  1.00  0.00     0.475 C 
HETATM    3  O1  UNL     1      -4.695   2.380  -3.112  1.00  0.00    -0.392 OA
HETATM    4  H4  UNL     1      -4.024  -0.327  -2.963  1.00  0.00     0.168 HD
ENDROOT
BRANCH   1   5
HETATM    5  C3  UNL     1      -2.455   0.119  -1.302  1.00  0.00     0.126 C 
HETATM    6  C2  UNL     1      -1.964   1.103  -0.624  1.00  0.00     0.048 C 
HETATM    7  C1  UNL     1      -2.516   2.445  -0.906  1.00  0.00     0.072 C 
HETATM    8  N4  UNL     1      -0.962   1.389   0.365  1.00  0.00    -0.376 N 
HETATM    9  C9  UNL     1      -1.186   0.995   1.761  1.00  0.00     0.153 C 
HETATM   10  C10 UNL     1       0.215   2.085  -0.085  1.00  0.00     0.150 C 
HETATM   11  C8  UNL     1      -0.793  -0.538   1.738  1.00  0.00     0.291 C 
HETATM   12  N3  UNL     1      -1.906  -1.136   0.964  1.00  0.00     0.089 N 
HETATM   13  C6  UNL     1      -1.606  -2.292   0.214  1.00  0.00     0.318 C 
HETATM   14  C7  UNL     1      -2.756  -1.695   2.113  1.00  0.00     0.310 C 
HETATM   15  C5  UNL     1      -1.359  -1.917  -1.305  1.00  0.00     0.213 C 
HETATM   16  N2  UNL     1      -2.537  -1.243  -1.659  1.00  0.00    -0.352 N 
HETATM   17  N5  UNL     1      -0.201  -1.076  -1.423  1.00  0.00    -0.338 N 
HETATM   18  H6  UNL     1      -3.113  -1.979  -2.066  1.00  0.00     0.163 HD
HETATM   19  C20 UNL     1       1.156  -0.765  -1.288  1.00  0.00     0.223 C 
HETATM   20  H26 UNL     1      -0.408  -0.158  -1.876  1.00  0.00     0.164 HD
HETATM   21  C19 UNL     1       2.045   0.488  -1.537  1.00  0.00     0.142 C 
HETATM   22  O2  UNL     1       1.305  -1.930  -0.857  1.00  0.00    -0.273 OA
HETATM   23  C12 UNL     1       2.575   0.719  -0.153  1.00  0.00    -0.041 C 
HETATM   24  C11 UNL     1       1.462   1.400   0.191  1.00  0.00     0.001 C 
BRANCH  23  25
HETATM   25  C13 UNL     1       3.729   0.153   0.509  1.00  0.00    -0.027 A 
HETATM   26  C14 UNL     1       4.663  -0.360  -0.336  1.00  0.00     0.012 A 
HETATM   27  C15 UNL     1       5.715  -0.910   0.411  1.00  0.00     0.004 A 
HETATM   28  C16 UNL     1       5.825  -0.944   1.790  1.00  0.00     0.042 A 
HETATM   29  C17 UNL     1       4.790  -0.378   2.503  1.00  0.00     0.117 A 
HETATM   30  F1  UNL     1       4.899  -0.420   3.852  1.00  0.00    -0.206 F 
HETATM   31  C18 UNL     1       3.727   0.179   1.881  1.00  0.00     0.054 A 
ENDBRANCH  23  25
ENDBRANCH   1   5
TORSDOF 2
