REMARK  2 active torsions:
REMARK  status: ('A' for Active; 'I' for Inactive)
REMARK    1  A    between atoms: C9_11  and  C10_12 
REMARK    2  A    between atoms: C9_11  and  C11_14 
ROOT
HETATM    1  C1  UNL     1      -0.150   3.229   0.231  1.00  0.00     0.067 C 
HETATM    2  C2  UNL     1      -0.953   1.952   0.379  1.00  0.00    -0.000 C 
HETATM    3  C3  UNL     1      -2.291   2.129   0.273  1.00  0.00     0.016 C 
HETATM    4  C4  UNL     1      -3.547   1.288   0.343  1.00  0.00     0.143 C 
HETATM    5  N1  UNL     1      -3.168   0.064   0.888  1.00  0.00    -0.416 N 
HETATM    6  C5  UNL     1      -3.737  -1.167   0.572  1.00  0.00     0.144 C 
HETATM    7  C6  UNL     1      -3.255  -1.649  -0.797  1.00  0.00     0.291 C 
HETATM    8  N2  UNL     1      -1.811  -1.340  -0.863  1.00  0.00     0.088 N 
HETATM    9  C7  UNL     1      -1.369  -1.992  -2.045  1.00  0.00     0.310 C 
HETATM   10  C8  UNL     1      -1.086  -1.650   0.296  1.00  0.00     0.315 C 
HETATM   11  C9  UNL     1       0.107  -0.734   0.598  1.00  0.00     0.140 C 
HETATM   12  N4  UNL     1      -0.412   0.598   0.479  1.00  0.00    -0.373 N 
HETATM   13  H7  UNL     1      -2.971   0.087   1.927  1.00  0.00     0.153 HD
HETATM   14  H23 UNL     1      -0.028   0.918  -0.462  1.00  0.00     0.161 HD
ENDROOT
BRANCH  11  15
HETATM   15  C10 UNL     1       0.448  -1.111   2.031  1.00  0.00     0.269 C 
HETATM   16  O1  UNL     1       0.894  -2.232   2.207  1.00  0.00    -0.304 OA
ENDBRANCH  11  15
BRANCH  11  17
HETATM   17  C11 UNL     1       1.298  -0.941  -0.218  1.00  0.00     0.011 A 
HETATM   18  C12 UNL     1       1.841  -1.647  -1.173  1.00  0.00     0.087 A 
HETATM   19  C13 UNL     1       3.204  -1.291  -1.540  1.00  0.00     0.248 A 
HETATM   20  O2  UNL     1       3.895  -1.845  -2.430  1.00  0.00    -0.268 OA
HETATM   21  N3  UNL     1       3.504  -0.206  -0.657  1.00  0.00    -0.310 N 
HETATM   22  C14 UNL     1       4.775   0.495  -0.656  1.00  0.00     0.163 A 
HETATM   23  C18 UNL     1       2.339   0.023   0.167  1.00  0.00     0.050 A 
HETATM   24  C15 UNL     1       4.802   1.556   0.357  1.00  0.00     0.035 A 
HETATM   25  C16 UNL     1       3.817   1.868   1.177  1.00  0.00     0.116 A 
HETATM   26  F1  UNL     1       3.810   2.837   2.118  1.00  0.00    -0.206 F 
HETATM   27  C17 UNL     1       2.626   1.040   1.002  1.00  0.00     0.072 A 
ENDBRANCH  11  17
TORSDOF 2
