REMARK  7 active torsions:
REMARK  status: ('A' for Active; 'I' for Inactive)
REMARK    1  A    between atoms: C2_2  and  N1_3 
REMARK    2  A    between atoms: N1_3  and  C3_4 
REMARK    3  A    between atoms: N1_3  and  C5_6 
REMARK    4  A    between atoms: C5_6  and  C6_7 
REMARK    5  A    between atoms: C6_7  and  N2_8 
REMARK       I    between atoms: N2_8  and  C7_9 
REMARK    6  A    between atoms: C7_9  and  C8_11 
REMARK    7  A    between atoms: C15_20  and  C16_21 
ROOT
HETATM    1  C8  UNL     1      -0.845   0.029   0.474  1.00  0.00     0.340 C 
HETATM    2  N3  UNL     1      -1.102  -0.978  -0.500  1.00  0.00     0.105 N 
HETATM    3  C9  UNL     1      -1.928  -2.078   0.039  1.00  0.00     0.307 C 
HETATM    4  C10 UNL     1      -3.307  -1.619   0.342  1.00  0.00    -0.030 C 
HETATM    5  C11 UNL     1      -3.146  -0.810   1.309  1.00  0.00     0.023 C 
HETATM    6  C12 UNL     1      -3.024   0.122   2.340  1.00  0.00     0.172 C 
HETATM    7  O2  UNL     1      -2.520   0.267   3.478  1.00  0.00    -0.291 OA
HETATM    8  C13 UNL     1      -3.795   1.177   1.677  1.00  0.00     0.117 C 
HETATM    9  C14 UNL     1      -2.811   1.911   0.776  1.00  0.00    -0.004 C 
HETATM   10  C15 UNL     1      -1.686   1.248   0.413  1.00  0.00    -0.041 C 
HETATM   11  C18 UNL     1      -4.162   0.020   0.700  1.00  0.00    -0.032 C 
HETATM   12  C19 UNL     1      -4.887  -0.218  -0.433  1.00  0.00    -0.009 C 
HETATM   13  C20 UNL     1      -4.763  -1.698  -0.062  1.00  0.00     0.036 C 
HETATM   14  C21 UNL     1      -5.015  -2.595  -1.214  1.00  0.00     0.019 C 
HETATM   15  H15 UNL     1      -1.535  -0.606  -1.370  1.00  0.00     0.317 HD
ENDROOT
BRANCH   1  16
HETATM   16  C7  UNL     1       0.617   0.423   0.344  1.00  0.00     0.255 C 
HETATM   17  N2  UNL     1       1.503   1.269   1.004  1.00  0.00    -0.357 N 
HETATM   18  H13 UNL     1       0.946   1.720   1.783  1.00  0.00     0.162 HD
HETATM   19  O1  UNL     1       0.758  -0.341  -0.642  1.00  0.00    -0.271 OA
BRANCH  17  20
HETATM   20  C6  UNL     1       2.869   1.342   0.533  1.00  0.00     0.142 C 
BRANCH  20  21
HETATM   21  C5  UNL     1       3.497  -0.005   0.652  1.00  0.00     0.141 C 
BRANCH  21  22
HETATM   22  N1  UNL     1       4.877  -0.053   0.207  1.00  0.00    -0.392 N 
BRANCH  22  23
HETATM   23  C2  UNL     1       5.576   1.080  -0.312  1.00  0.00     0.058 C 
HETATM   24  C1  UNL     1       6.133   1.090  -1.524  1.00  0.00     0.049 C 
ENDBRANCH  22  23
BRANCH  22  25
HETATM   25  C3  UNL     1       5.354  -1.427   0.397  1.00  0.00     0.117 C 
HETATM   26  C4  UNL     1       4.653  -2.362  -0.551  1.00  0.00     0.026 C 
ENDBRANCH  22  25
ENDBRANCH  21  22
ENDBRANCH  20  21
ENDBRANCH  17  20
ENDBRANCH   1  16
BRANCH  10  27
HETATM   27  C16 UNL     1      -1.034   2.058  -0.656  1.00  0.00     0.032 C 
HETATM   28  C17 UNL     1      -1.789   3.325  -1.005  1.00  0.00     0.010 C 
ENDBRANCH  10  27
TORSDOF 7
