REMARK  4 active torsions:
REMARK  status: ('A' for Active; 'I' for Inactive)
REMARK    1  A    between atoms: C3_4  and  C4_5 
REMARK    2  A    between atoms: C5_6  and  N1_7 
REMARK       I    between atoms: N1_7  and  C6_8 
REMARK    3  A    between atoms: C6_8  and  C7_10 
REMARK    4  A    between atoms: C8_11  and  C9_12 
ROOT
HETATM    1  C9  UNL     1       2.030  -0.289  -0.636  1.00  0.00     0.036 C 
HETATM    2  C10 UNL     1       2.674  -0.689  -1.719  1.00  0.00    -0.040 C 
HETATM    3  C11 UNL     1       2.155  -1.901  -2.403  1.00  0.00     0.048 C 
HETATM    4  C12 UNL     1       3.883  -0.122  -2.417  1.00  0.00     0.159 C 
HETATM    5  N2  UNL     1       3.682   1.229  -2.862  1.00  0.00    -0.354 N 
HETATM    6  C13 UNL     1       3.537   2.477  -2.185  1.00  0.00     0.243 C 
HETATM    7  O2  UNL     1       3.786   3.478  -2.893  1.00  0.00    -0.269 OA
HETATM    8  C14 UNL     1       3.157   2.896  -0.819  1.00  0.00     0.098 C 
HETATM    9  C15 UNL     1       2.606   2.170   0.170  1.00  0.00     0.011 C 
HETATM   10  C16 UNL     1       2.364   2.927   1.402  1.00  0.00     0.068 C 
HETATM   11  N3  UNL     1       2.190   0.794   0.302  1.00  0.00    -0.360 N 
HETATM   12  H15 UNL     1       3.631   1.333  -3.904  1.00  0.00     0.163 HD
HETATM   13  H20 UNL     1       1.948   0.508   1.297  1.00  0.00     0.166 HD
ENDROOT
BRANCH   1  14
HETATM   14  C8  UNL     1       0.915  -1.134  -0.320  1.00  0.00     0.035 C 
HETATM   15  C7  UNL     1      -0.007  -1.156   0.624  1.00  0.00     0.076 C 
BRANCH  15  16
HETATM   16  C6  UNL     1      -1.129  -2.050   0.899  1.00  0.00     0.245 C 
HETATM   17  N1  UNL     1      -1.968  -1.814   2.016  1.00  0.00    -0.334 N 
HETATM   18  H7  UNL     1      -1.824  -1.014   2.672  1.00  0.00     0.168 HD
HETATM   19  O1  UNL     1      -1.277  -3.003   0.093  1.00  0.00    -0.268 OA
BRANCH  17  20
HETATM   20  C5  UNL     1      -3.009  -2.790   2.123  1.00  0.00     0.091 C 
HETATM   21  C4  UNL     1      -4.228  -2.270   2.065  1.00  0.00     0.020 C 
BRANCH  21  22
HETATM   22  C3  UNL     1      -4.408  -0.828   1.905  1.00  0.00     0.038 C 
HETATM   23  C2  UNL     1      -5.610  -0.276   1.843  1.00  0.00     0.090 C 
HETATM   24  C1  UNL     1      -5.753   1.192   1.680  1.00  0.00     0.082 C 
HETATM   25  F1  UNL     1      -6.701  -1.059   1.929  1.00  0.00    -0.211 F 
ENDBRANCH  21  22
ENDBRANCH  17  20
ENDBRANCH  15  16
ENDBRANCH   1  14
TORSDOF 4
