REMARK  1 active torsions:
REMARK  status: ('A' for Active; 'I' for Inactive)
REMARK    1  A    between atoms: C3_3  and  C4_4 
ROOT
HETATM    1  C4  UNL     1       0.016   0.059  -0.006  1.00  0.00     0.048 C 
HETATM    2  C5  UNL     1      -1.165  -0.448  -0.002  1.00  0.00     0.047 A 
HETATM    3  C6  UNL     1      -1.565  -1.823  -0.143  1.00  0.00     0.257 A 
HETATM    4  O1  UNL     1      -1.040  -2.947  -0.299  1.00  0.00    -0.267 OA
HETATM    5  N1  UNL     1      -2.972  -1.979  -0.095  1.00  0.00    -0.322 N 
HETATM    6  C7  UNL     1      -3.468  -0.662   0.082  1.00  0.00     0.046 A 
HETATM    7  C8  UNL     1      -4.740  -0.122   0.205  1.00  0.00     0.033 A 
HETATM    8  C9  UNL     1      -5.079   1.198   0.375  1.00  0.00     0.044 A 
HETATM    9  C10 UNL     1      -4.051   2.109   0.432  1.00  0.00     0.117 A 
HETATM   10  F1  UNL     1      -4.280   3.428   0.596  1.00  0.00    -0.206 F 
HETATM   11  C11 UNL     1      -2.781   1.617   0.315  1.00  0.00     0.057 A 
HETATM   12  C12 UNL     1      -2.457   0.260   0.142  1.00  0.00     0.009 A 
HETATM   13  H5  UNL     1      -3.654  -2.776  -0.155  1.00  0.00     0.169 HD
ENDROOT
BRANCH   1  14
HETATM   14  C3  UNL     1       1.432   0.006  -0.090  1.00  0.00     0.039 C 
HETATM   15  C2  UNL     1       2.244  -1.033  -0.252  1.00  0.00     0.012 C 
HETATM   16  C1  UNL     1       2.020  -2.490  -0.403  1.00  0.00     0.054 C 
HETATM   17  C15 UNL     1       3.630  -0.604  -0.300  1.00  0.00     0.179 C 
HETATM   18  C13 UNL     1       3.558   0.831  -0.729  1.00  0.00     0.152 C 
HETATM   19  O2  UNL     1       4.719  -1.210  -0.059  1.00  0.00    -0.290 OA
HETATM   20  N2  UNL     1       2.316   1.166  -0.005  1.00  0.00    -0.378 N 
HETATM   21  C14 UNL     1       4.676   1.546  -0.045  1.00  0.00     0.040 C 
HETATM   22  H9  UNL     1       2.199   2.092   0.450  1.00  0.00     0.160 HD
ENDBRANCH   1  14
TORSDOF 1
