REMARK  6 active torsions:
REMARK  status: ('A' for Active; 'I' for Inactive)
REMARK    1  A    between atoms: O1_2  and  C2_3 
REMARK    2  A    between atoms: C6_7  and  C7_8 
REMARK    3  A    between atoms: C7_8  and  N1_9 
REMARK    4  A    between atoms: N1_9  and  C8_10 
REMARK    5  A    between atoms: C11_15  and  N4_16 
REMARK    6  A    between atoms: N4_16  and  C12_17 
ROOT
HETATM    1  C8  UNL     1      -0.233   0.705   0.702  1.00  0.00     0.092 A 
HETATM    2  C9  UNL     1       0.563   0.530   1.804  1.00  0.00     0.151 A 
HETATM    3  N2  UNL     1       0.061   0.021   2.949  1.00  0.00    -0.252 NA
HETATM    4  C10 UNL     1      -1.243  -0.331   3.041  1.00  0.00     0.235 A 
HETATM    5  N3  UNL     1      -1.964  -0.140   1.943  1.00  0.00    -0.222 NA
HETATM    6  C11 UNL     1      -1.563   0.353   0.771  1.00  0.00     0.157 A 
ENDROOT
BRANCH   1   7
HETATM    7  N1  UNL     1       0.438   1.259  -0.408  1.00  0.00    -0.381 N 
HETATM    8  H9  UNL     1      -0.184   1.399  -1.228  1.00  0.00     0.160 HD
BRANCH   7   9
HETATM    9  C7  UNL     1       1.765   1.706  -0.780  1.00  0.00     0.158 C 
BRANCH   9  10
HETATM   10  C6  UNL     1       2.731   0.595  -0.856  1.00  0.00    -0.038 A 
HETATM   11  C5  UNL     1       2.639  -0.004  -2.121  1.00  0.00     0.009 A 
HETATM   12  C4  UNL     1       3.453  -1.082  -2.478  1.00  0.00     0.003 A 
HETATM   13  C3  UNL     1       4.381  -1.597  -1.592  1.00  0.00     0.037 A 
HETATM   14  C2  UNL     1       4.450  -0.987  -0.353  1.00  0.00     0.068 A 
HETATM   15  C18 UNL     1       3.659   0.069   0.010  1.00  0.00     0.045 A 
BRANCH  14  16
HETATM   16  O1  UNL     1       5.357  -1.457   0.573  1.00  0.00    -0.356 OA
HETATM   17  C1  UNL     1       5.498  -0.906   1.848  1.00  0.00     0.210 C 
ENDBRANCH  14  16
ENDBRANCH   9  10
ENDBRANCH   7   9
ENDBRANCH   1   7
BRANCH   6  18
HETATM   18  N4  UNL     1      -2.385   0.531  -0.362  1.00  0.00    -0.339 N 
HETATM   19  H12 UNL     1      -2.006   0.917  -1.241  1.00  0.00     0.167 HD
BRANCH  18  20
HETATM   20  C12 UNL     1      -3.764   0.238  -0.497  1.00  0.00     0.035 A 
HETATM   21  C13 UNL     1      -4.540  -0.311   0.496  1.00  0.00     0.029 A 
HETATM   22  C14 UNL     1      -5.878  -0.603   0.391  1.00  0.00     0.004 A 
HETATM   23  C15 UNL     1      -6.518  -0.335  -0.796  1.00  0.00     0.019 A 
HETATM   24  C16 UNL     1      -5.811   0.211  -1.829  1.00  0.00     0.013 A 
HETATM   25 BR1  UNL     1      -6.668   0.590  -3.473  1.00  0.00    -0.051 Br
HETATM   26  C17 UNL     1      -4.477   0.476  -1.650  1.00  0.00     0.048 A 
ENDBRANCH  18  20
ENDBRANCH   6  18
TORSDOF 6
