REMARK  6 active torsions:
REMARK  status: ('A' for Active; 'I' for Inactive)
REMARK    1  A    between atoms: C3_3  and  C4_4 
REMARK       I    between atoms: C4_4  and  N1_6 
REMARK    2  A    between atoms: N1_6  and  C5_7 
REMARK    3  A    between atoms: C5_7  and  C6_8 
REMARK    4  A    between atoms: C6_8  and  N2_9 
REMARK    5  A    between atoms: C13_16  and  C14_17 
REMARK    6  A    between atoms: C14_17  and  C15_18 
ROOT
HETATM    1  C1  UNL     1       1.071  -1.360   3.270  1.00  0.00     0.071 C 
HETATM    2  C2  UNL     1       0.134  -1.025   2.200  1.00  0.00     0.045 A 
HETATM    3  C3  UNL     1       0.320  -0.971   0.866  1.00  0.00     0.064 A 
HETATM    4  C11 UNL     1      -0.788  -0.609  -0.007  1.00  0.00    -0.008 A 
HETATM    5  C12 UNL     1      -0.553  -0.569  -1.471  1.00  0.00     0.052 C 
HETATM    6  C13 UNL     1      -2.008  -0.317   0.390  1.00  0.00     0.106 A 
HETATM    7  O2  UNL     1      -2.186  -0.376   1.758  1.00  0.00    -0.237 OA
HETATM    8  N4  UNL     1      -1.197  -0.707   2.636  1.00  0.00    -0.264 N 
HETATM    9  H27 UNL     1      -1.474  -0.711   3.633  1.00  0.00     0.194 HD
ENDROOT
BRANCH   6  10
HETATM   10  C14 UNL     1      -3.154   0.050  -0.418  1.00  0.00     0.049 C 
BRANCH  10  11
HETATM   11  C15 UNL     1      -4.330   0.313   0.161  1.00  0.00    -0.025 A 
HETATM   12  C16 UNL     1      -4.628   0.275   1.616  1.00  0.00     0.159 A 
HETATM   13  N3  UNL     1      -6.025   0.640   1.742  1.00  0.00    -0.385 N 
HETATM   14  C17 UNL     1      -6.575   0.880   0.474  1.00  0.00     0.039 A 
HETATM   15  H23 UNL     1      -6.444   0.683   2.706  1.00  0.00     0.160 HD
HETATM   16  C18 UNL     1      -7.833   1.237   0.107  1.00  0.00     0.033 A 
HETATM   17  C22 UNL     1      -5.578   0.687  -0.449  1.00  0.00     0.001 A 
HETATM   18  C19 UNL     1      -8.171   1.424  -1.221  1.00  0.00     0.044 A 
HETATM   19  C20 UNL     1      -7.204   1.242  -2.187  1.00  0.00     0.117 A 
HETATM   20  F1  UNL     1      -7.501   1.418  -3.502  1.00  0.00    -0.206 F 
HETATM   21  C21 UNL     1      -5.939   0.880  -1.768  1.00  0.00     0.056 A 
ENDBRANCH  10  11
ENDBRANCH   6  10
BRANCH   3  22
HETATM   22  C4  UNL     1       1.657  -1.297   0.458  1.00  0.00     0.254 C 
HETATM   23  O1  UNL     1       2.492  -1.600   1.383  1.00  0.00    -0.268 OA
HETATM   24  N1  UNL     1       2.526  -1.443  -0.612  1.00  0.00    -0.355 N 
HETATM   25  H4  UNL     1       1.970  -1.219  -1.479  1.00  0.00     0.162 HD
BRANCH  24  26
HETATM   26  C5  UNL     1       3.898  -1.801  -0.733  1.00  0.00     0.153 C 
BRANCH  26  27
HETATM   27  C6  UNL     1       4.800  -0.840  -0.038  1.00  0.00     0.292 C 
BRANCH  27  28
HETATM   28  N2  UNL     1       4.652   0.489  -0.576  1.00  0.00     0.090 N 
HETATM   29  C7  UNL     1       5.166   0.601  -1.890  1.00  0.00     0.272 C 
HETATM   30  C8  UNL     1       6.569   1.172  -1.758  1.00  0.00     0.032 C 
HETATM   31  C9  UNL     1       6.496   2.004  -0.528  1.00  0.00     0.032 C 
HETATM   32  C10 UNL     1       5.368   1.431   0.261  1.00  0.00     0.272 C 
ENDBRANCH  27  28
ENDBRANCH  26  27
ENDBRANCH  24  26
ENDBRANCH   3  22
TORSDOF 6
