REMARK  0 active torsions:
REMARK  status: ('A' for Active; 'I' for Inactive)
ROOT
HETATM    1  O1  UNL     1      -2.368  -2.047  -0.739  1.00  0.00    -0.269 OA
HETATM    2  C1  UNL     1      -1.762  -2.177   0.344  1.00  0.00     0.242 C 
HETATM    3  C2  UNL     1      -0.525  -2.906   0.204  1.00  0.00     0.088 C 
HETATM    4  C3  UNL     1       0.215  -2.467  -0.757  1.00  0.00     0.006 C 
HETATM    5  C4  UNL     1       0.567  -1.194  -0.799  1.00  0.00     0.048 C 
HETATM    6  C5  UNL     1       1.784  -1.241  -1.703  1.00  0.00     0.116 C 
HETATM    7  C6  UNL     1       3.015  -1.136  -0.888  1.00  0.00     0.018 C 
HETATM    8  C7  UNL     1       3.761  -0.184  -1.511  1.00  0.00     0.028 C 
HETATM    9  C8  UNL     1       4.680   0.812  -0.887  1.00  0.00     0.040 C 
HETATM   10  C9  UNL     1       4.843   1.349   0.344  1.00  0.00     0.098 C 
HETATM   11  F1  UNL     1       5.986   2.034   0.438  1.00  0.00    -0.210 F 
HETATM   12  C10 UNL     1       4.045   1.351   1.604  1.00  0.00     0.114 C 
HETATM   13  C11 UNL     1       2.978   0.321   1.577  1.00  0.00     0.014 C 
HETATM   14  C12 UNL     1       1.693   0.458   1.399  1.00  0.00     0.008 C 
HETATM   15  C13 UNL     1       0.389  -0.248   1.316  1.00  0.00     0.179 C 
HETATM   16  N1  UNL     1      -0.179  -0.186  -0.044  1.00  0.00    -0.268 N 
HETATM   17  N2  UNL     1      -1.082   0.709  -0.321  1.00  0.00    -0.159 NA
HETATM   18  C14 UNL     1      -2.154   1.110  -0.488  1.00  0.00     0.122 C 
HETATM   19  C15 UNL     1      -2.521   2.548  -0.862  1.00  0.00     0.082 C 
HETATM   20  C16 UNL     1      -3.275   2.158  -2.168  1.00  0.00     0.027 C 
HETATM   21  C17 UNL     1      -3.405   0.627  -1.960  1.00  0.00     0.124 C 
HETATM   22  N3  UNL     1      -3.539   0.657  -0.494  1.00  0.00    -0.366 N 
HETATM   23  C18 UNL     1      -3.872   0.619   0.876  1.00  0.00     0.143 C 
HETATM   24  C19 UNL     1      -3.845  -0.748   1.439  1.00  0.00     0.143 C 
HETATM   25  N4  UNL     1      -2.649  -1.507   1.198  1.00  0.00    -0.356 N 
HETATM   26  C20 UNL     1       3.300  -1.113   1.618  1.00  0.00     0.252 C 
HETATM   27  O2  UNL     1       3.613  -2.248   1.994  1.00  0.00    -0.268 OA
HETATM   28  N5  UNL     1       3.259  -1.893   0.347  1.00  0.00    -0.327 N 
HETATM   29  H21 UNL     1      -2.036  -1.747   1.999  1.00  0.00     0.162 HD
HETATM   30  H22 UNL     1       3.323  -2.795  -0.129  1.00  0.00     0.169 HD
ENDROOT
TORSDOF 0
