REMARK  1 active torsions:
REMARK  status: ('A' for Active; 'I' for Inactive)
REMARK    1  A    between atoms: C3_3  and  C4_4 
ROOT
HETATM    1  C1  UNL     1      -0.458   3.022  -0.369  1.00  0.00     0.048 C 
HETATM    2  C2  UNL     1      -0.401   1.596  -0.707  1.00  0.00    -0.028 A 
HETATM    3  C3  UNL     1       0.306   0.497  -0.697  1.00  0.00     0.036 A 
HETATM    4  N2  UNL     1      -0.814  -0.224  -1.266  1.00  0.00    -0.366 N 
HETATM    5  C13 UNL     1      -1.562  -1.404  -1.733  1.00  0.00     0.126 C 
HETATM    6  C14 UNL     1      -1.582  -2.491  -0.666  1.00  0.00     0.050 C 
HETATM    7  C15 UNL     1      -2.211  -1.935   0.621  1.00  0.00     0.271 C 
HETATM    8  N3  UNL     1      -3.521  -1.510   0.289  1.00  0.00     0.085 N 
HETATM    9  C16 UNL     1      -4.286  -0.847   1.286  1.00  0.00     0.299 C 
HETATM   10  C17 UNL     1      -3.736   0.533   1.609  1.00  0.00     0.299 C 
HETATM   11  N4  UNL     1      -2.544   0.806   0.828  1.00  0.00     0.087 N 
HETATM   12  C18 UNL     1      -2.797   0.998  -0.559  1.00  0.00     0.305 C 
HETATM   13  C19 UNL     1      -1.526   0.996  -1.390  1.00  0.00     0.081 A 
HETATM   14  C20 UNL     1      -1.738   1.430  -2.828  1.00  0.00     0.045 C 
HETATM   15  H15 UNL     1      -4.077  -2.212  -0.204  1.00  0.00     0.315 HD
HETATM   16  H20 UNL     1      -2.134   1.680   1.279  1.00  0.00     0.316 HD
ENDROOT
BRANCH   3  17
HETATM   17  C4  UNL     1       1.591   0.001  -0.300  1.00  0.00     0.047 C 
HETATM   18  C5  UNL     1       2.668   0.467   0.260  1.00  0.00     0.047 A 
HETATM   19  C6  UNL     1       3.074   1.769   0.761  1.00  0.00     0.257 A 
HETATM   20  C12 UNL     1       3.873  -0.348   0.538  1.00  0.00     0.009 A 
HETATM   21  O1  UNL     1       2.432   2.839   0.776  1.00  0.00    -0.267 OA
HETATM   22  N1  UNL     1       4.385   1.797   1.300  1.00  0.00    -0.322 N 
HETATM   23  C7  UNL     1       4.809   0.461   1.127  1.00  0.00     0.046 A 
HETATM   24  H5  UNL     1       4.941   2.568   1.723  1.00  0.00     0.169 HD
HETATM   25  C8  UNL     1       6.007  -0.158   1.454  1.00  0.00     0.033 A 
HETATM   26  C9  UNL     1       6.340  -1.478   1.249  1.00  0.00     0.044 A 
HETATM   27  C10 UNL     1       5.392  -2.283   0.657  1.00  0.00     0.117 A 
HETATM   28  F1  UNL     1       5.534  -3.598   0.374  1.00  0.00    -0.206 F 
HETATM   29  C11 UNL     1       4.196  -1.698   0.322  1.00  0.00     0.057 A 
ENDBRANCH   3  17
TORSDOF 1
