REMARK  3 active torsions:
REMARK  status: ('A' for Active; 'I' for Inactive)
REMARK    1  A    between atoms: C1_2  and  C2_3 
REMARK    2  A    between atoms: C9_12  and  C10_13 
REMARK    3  A    between atoms: C10_13  and  C11_14 
ROOT
HETATM    1  C10 UNL     1       0.161  -0.466   1.143  1.00  0.00     0.037 C 
ENDROOT
BRANCH   1   2
HETATM    2  C9  UNL     1      -0.933   0.533   0.789  1.00  0.00     0.051 C 
HETATM    3  C2  UNL     1      -0.880   0.891  -0.651  1.00  0.00     0.144 C 
HETATM    4  N1  UNL     1      -1.462  -0.012  -1.573  1.00  0.00    -0.409 N 
HETATM    5  C3  UNL     1      -2.858   0.193  -1.812  1.00  0.00     0.145 C 
HETATM    6  H3  UNL     1      -0.900  -0.324  -2.368  1.00  0.00     0.154 HD
HETATM    7  C4  UNL     1      -3.575  -0.401  -0.609  1.00  0.00     0.292 C 
HETATM    8  N2  UNL     1      -3.405   0.414   0.565  1.00  0.00     0.095 N 
HETATM    9  C5  UNL     1      -4.452  -0.040   1.498  1.00  0.00     0.273 C 
HETATM   10  C8  UNL     1      -2.248   0.159   1.348  1.00  0.00     0.229 C 
HETATM   11  C6  UNL     1      -3.886  -1.393   1.926  1.00  0.00     0.032 C 
HETATM   12  C7  UNL     1      -2.388  -1.318   1.701  1.00  0.00     0.038 C 
BRANCH   3  13
HETATM   13  C1  UNL     1      -1.418   2.251  -0.886  1.00  0.00     0.256 C 
HETATM   14  O1  UNL     1      -0.938   3.038  -0.114  1.00  0.00    -0.305 OA
ENDBRANCH   3  13
ENDBRANCH   1   2
BRANCH   1  15
HETATM   15  C11 UNL     1       1.506   0.083   0.868  1.00  0.00    -0.008 C 
HETATM   16  C12 UNL     1       2.398  -0.415   0.046  1.00  0.00     0.041 A 
HETATM   17  C13 UNL     1       2.346  -1.596  -0.802  1.00  0.00     0.256 A 
HETATM   18  C19 UNL     1       3.714   0.149  -0.203  1.00  0.00     0.009 A 
HETATM   19  O2  UNL     1       1.379  -2.390  -0.900  1.00  0.00    -0.267 OA
HETATM   20  N3  UNL     1       3.556  -1.749  -1.529  1.00  0.00    -0.322 N 
HETATM   21  C14 UNL     1       4.364  -0.658  -1.130  1.00  0.00     0.046 A 
HETATM   22  H19 UNL     1       3.789  -2.508  -2.210  1.00  0.00     0.169 HD
HETATM   23  C15 UNL     1       5.645  -0.368  -1.565  1.00  0.00     0.033 A 
HETATM   24  C16 UNL     1       6.263   0.754  -1.047  1.00  0.00     0.044 A 
HETATM   25  C17 UNL     1       5.663   1.602  -0.114  1.00  0.00     0.117 A 
HETATM   26  F1  UNL     1       6.289   2.695   0.379  1.00  0.00    -0.206 F 
HETATM   27  C18 UNL     1       4.373   1.268   0.293  1.00  0.00     0.057 A 
ENDBRANCH   1  15
TORSDOF 3
