REMARK  6 active torsions:
REMARK  status: ('A' for Active; 'I' for Inactive)
REMARK    1  A    between atoms: C3_3  and  C4_4 
REMARK       I    between atoms: C4_4  and  N1_6 
REMARK    2  A    between atoms: N1_6  and  C5_7 
REMARK    3  A    between atoms: C5_7  and  C6_8 
REMARK    4  A    between atoms: C6_8  and  N2_9 
REMARK    5  A    between atoms: C17_22  and  N3_23 
REMARK    6  A    between atoms: N3_23  and  C18_24 
ROOT
HETATM    1  C1  UNL     1      -0.163  -2.154  -2.548  1.00  0.00     0.069 C 
HETATM    2  C2  UNL     1      -1.443  -1.705  -1.971  1.00  0.00     0.018 C 
HETATM    3  C3  UNL     1      -1.703  -1.054  -0.849  1.00  0.00     0.064 C 
HETATM    4  C11 UNL     1      -3.031  -0.612  -0.470  1.00  0.00    -0.008 C 
HETATM    5  C12 UNL     1      -3.447   0.086   0.710  1.00  0.00     0.007 A 
HETATM    6  C13 UNL     1      -3.024   0.104   2.014  1.00  0.00     0.057 A 
HETATM    7  C14 UNL     1      -3.358   0.861   3.101  1.00  0.00     0.117 A 
HETATM    8  F1  UNL     1      -2.755   0.645   4.287  1.00  0.00    -0.206 F 
HETATM    9  C15 UNL     1      -4.323   1.808   2.846  1.00  0.00     0.044 A 
HETATM   10  C16 UNL     1      -4.881   1.943   1.572  1.00  0.00     0.036 A 
HETATM   11  C17 UNL     1      -4.427   1.096   0.584  1.00  0.00     0.072 A 
HETATM   12  C19 UNL     1      -4.035  -0.859  -1.300  1.00  0.00     0.006 C 
HETATM   13  C20 UNL     1      -3.924  -1.549  -2.592  1.00  0.00     0.147 C 
HETATM   14  N4  UNL     1      -2.597  -2.033  -2.751  1.00  0.00    -0.389 N 
HETATM   15  H23 UNL     1      -2.552  -2.692  -3.546  1.00  0.00     0.159 HD
ENDROOT
BRANCH   3  16
HETATM   16  C4  UNL     1      -0.518  -0.771  -0.132  1.00  0.00     0.254 C 
HETATM   17  O1  UNL     1       0.594  -1.204  -0.559  1.00  0.00    -0.268 OA
HETATM   18  N1  UNL     1       0.206  -0.211   0.906  1.00  0.00    -0.355 N 
HETATM   19  H4  UNL     1      -0.474   0.329   1.475  1.00  0.00     0.162 HD
BRANCH  18  20
HETATM   20  C5  UNL     1       1.585  -0.293   1.129  1.00  0.00     0.153 C 
BRANCH  20  21
HETATM   21  C6  UNL     1       2.577   0.202   0.191  1.00  0.00     0.292 C 
BRANCH  21  22
HETATM   22  N2  UNL     1       3.904  -0.066   0.778  1.00  0.00     0.094 N 
HETATM   23  C7  UNL     1       4.182   0.709   1.938  1.00  0.00     0.298 C 
HETATM   24  C8  UNL     1       5.472   1.498   1.690  1.00  0.00     0.198 C 
HETATM   25  O2  UNL     1       6.536   0.681   1.345  1.00  0.00    -0.388 OA
HETATM   26  C9  UNL     1       6.269  -0.231   0.352  1.00  0.00     0.198 C 
HETATM   27  C10 UNL     1       4.929  -0.006  -0.249  1.00  0.00     0.298 C 
ENDBRANCH  21  22
ENDBRANCH  20  21
ENDBRANCH  18  20
ENDBRANCH   3  16
BRANCH  11  28
HETATM   28  N3  UNL     1      -5.129   1.470  -0.620  1.00  0.00    -0.205 NA
BRANCH  28  29
HETATM   29  C18 UNL     1      -4.585   2.428  -1.289  1.00  0.00     0.337 C 
HETATM   30  O3  UNL     1      -4.458   3.473  -1.968  1.00  0.00    -0.260 OA
ENDBRANCH  28  29
ENDBRANCH  11  28
TORSDOF 6
