REMARK  4 active torsions:
REMARK  status: ('A' for Active; 'I' for Inactive)
REMARK    1  A    between atoms: C3_3  and  C4_4 
REMARK    2  A    between atoms: C4_4  and  C6_6 
REMARK    3  A    between atoms: C6_6  and  C7_7 
REMARK    4  A    between atoms: C7_7  and  N1_8 
ROOT
HETATM    1  C1  UNL     1      -0.373   0.737  -2.452  1.00  0.00     0.069 C 
HETATM    2  C2  UNL     1      -1.160   1.308  -1.360  1.00  0.00     0.013 C 
HETATM    3  C3  UNL     1      -0.876   0.850  -0.164  1.00  0.00    -0.008 C 
HETATM    4  S1  UNL     1      -1.817   1.595   1.347  1.00  0.00    -0.178 SA
HETATM    5  C12 UNL     1      -1.786   0.760   2.820  1.00  0.00     0.032 A 
HETATM    6  C13 UNL     1      -2.310   0.026   3.894  1.00  0.00     0.009 A 
HETATM    7  C14 UNL     1      -3.812  -0.359   3.959  1.00  0.00     0.052 A 
HETATM    8  C15 UNL     1      -5.065  -0.216   3.259  1.00  0.00     0.170 A 
HETATM    9  F1  UNL     1      -5.624  -0.908   4.174  1.00  0.00    -0.196 F 
HETATM   10  C16 UNL     1      -4.494   0.489   2.326  1.00  0.00    -0.030 A 
HETATM   11  C17 UNL     1      -4.007   1.067   1.570  1.00  0.00    -0.053 A 
HETATM   12  C18 UNL     1      -3.386   1.774   0.653  1.00  0.00     0.040 A 
HETATM   13  C19 UNL     1      -4.117   2.264  -0.288  1.00  0.00     0.019 C 
HETATM   14  C20 UNL     1      -3.164   2.991  -1.132  1.00  0.00     0.148 C 
HETATM   15  N2  UNL     1      -2.128   2.280  -1.771  1.00  0.00    -0.389 N 
HETATM   16  H18 UNL     1      -1.151   3.127   1.538  1.00  0.00     0.096 HD
HETATM   17  H25 UNL     1      -1.991   2.484  -2.810  1.00  0.00     0.159 HD
ENDROOT
BRANCH   3  18
HETATM   18  C4  UNL     1       0.038  -0.095   0.393  1.00  0.00     0.024 C 
HETATM   19  C5  UNL     1      -0.753  -1.208   1.158  1.00  0.00     0.015 C 
BRANCH  18  20
HETATM   20  C6  UNL     1       1.158  -0.757  -0.261  1.00  0.00     0.029 C 
BRANCH  20  21
HETATM   21  C7  UNL     1       2.305   0.005  -0.784  1.00  0.00     0.126 C 
BRANCH  21  22
HETATM   22  N1  UNL     1       3.221  -0.994  -1.378  1.00  0.00    -0.348 N 
HETATM   23  C8  UNL     1       3.211  -1.469  -2.766  1.00  0.00     0.152 C 
HETATM   24  C9  UNL     1       4.705  -1.583  -3.106  1.00  0.00     0.188 C 
HETATM   25  O1  UNL     1       5.263  -2.689  -2.455  1.00  0.00    -0.380 OA
HETATM   26  C10 UNL     1       5.384  -2.413  -1.117  1.00  0.00     0.270 C 
HETATM   27  C11 UNL     1       4.243  -1.612  -0.606  1.00  0.00     0.243 C 
HETATM   28  O2  UNL     1       4.221  -1.493   0.666  1.00  0.00    -0.271 OA
ENDBRANCH  21  22
ENDBRANCH  20  21
ENDBRANCH  18  20
ENDBRANCH   3  18
TORSDOF 4
