REMARK  5 active torsions:
REMARK  status: ('A' for Active; 'I' for Inactive)
REMARK    1  A    between atoms: C2_2  and  C3_3 
REMARK    2  A    between atoms: C3_3  and  C4_4 
REMARK    3  A    between atoms: C12_16  and  O2_17 
REMARK    4  A    between atoms: C14_19  and  N3_21 
REMARK    5  A    between atoms: N3_21  and  C16_22 
ROOT
HETATM    1  C3  UNL     1      -0.578  -1.152  -0.743  1.00  0.00     0.076 C 
HETATM    2  N2  UNL     1      -0.380  -1.919   0.535  1.00  0.00    -0.358 N 
HETATM    3  C12 UNL     1       0.891  -2.565   0.241  1.00  0.00     0.135 C 
HETATM    4  C13 UNL     1       1.615  -1.728  -0.539  1.00  0.00     0.061 C 
HETATM    5  C14 UNL     1       0.743  -0.497  -0.729  1.00  0.00     0.075 C 
HETATM    6  C15 UNL     1       1.119   0.344  -1.877  1.00  0.00     0.046 C 
HETATM    7  H11 UNL     1      -0.762  -2.161   1.487  1.00  0.00     0.162 HD
ENDROOT
BRANCH   1   8
HETATM    8  C2  UNL     1      -0.587  -2.262  -1.766  1.00  0.00     0.030 C 
HETATM    9  C1  UNL     1      -0.745  -1.891  -3.181  1.00  0.00     0.007 C 
ENDBRANCH   1   8
BRANCH   1  10
HETATM   10  C4  UNL     1      -1.798  -0.375  -0.745  1.00  0.00     0.144 A 
HETATM   11  C5  UNL     1      -2.998  -1.200  -0.347  1.00  0.00     0.233 A 
HETATM   12  O1  UNL     1      -3.373  -2.341  -0.793  1.00  0.00    -0.272 OA
HETATM   13  N1  UNL     1      -3.772  -0.560   0.665  1.00  0.00    -0.326 N 
HETATM   14  C6  UNL     1      -3.120   0.699   0.868  1.00  0.00     0.042 A 
HETATM   15  H7  UNL     1      -4.619  -0.934   1.144  1.00  0.00     0.169 HD
HETATM   16  C7  UNL     1      -3.550   1.686   1.734  1.00  0.00     0.033 A 
HETATM   17  C11 UNL     1      -2.003   0.816   0.023  1.00  0.00    -0.013 A 
HETATM   18  C8  UNL     1      -2.853   2.867   1.785  1.00  0.00     0.044 A 
HETATM   19  C9  UNL     1      -1.743   3.091   0.999  1.00  0.00     0.117 A 
HETATM   20  F1  UNL     1      -1.038   4.247   1.030  1.00  0.00    -0.206 F 
HETATM   21  C10 UNL     1      -1.385   2.055   0.168  1.00  0.00     0.052 A 
ENDBRANCH   1  10
BRANCH   5  22
HETATM   22  N3  UNL     1       1.022   0.160   0.583  1.00  0.00    -0.375 N 
HETATM   23  H17 UNL     1       0.229   0.060   1.289  1.00  0.00     0.161 HD
BRANCH  22  24
HETATM   24  C16 UNL     1       2.143   0.873   1.097  1.00  0.00     0.031 A 
HETATM   25  C17 UNL     1       2.141   1.443   2.376  1.00  0.00     0.048 A 
HETATM   26  C18 UNL     1       3.283   2.080   2.741  1.00  0.00     0.118 A 
HETATM   27  N4  UNL     1       4.391   2.210   2.003  1.00  0.00    -0.273 NA
HETATM   28  C19 UNL     1       4.414   1.671   0.776  1.00  0.00     0.118 A 
HETATM   29  C20 UNL     1       3.292   1.012   0.342  1.00  0.00     0.048 A 
ENDBRANCH  22  24
ENDBRANCH   5  22
BRANCH   3  30
HETATM   30  O2  UNL     1       1.488  -3.808   0.586  1.00  0.00    -0.346 OA
HETATM   31  H12 UNL     1       2.360  -3.832   1.093  1.00  0.00     0.219 HD
ENDBRANCH   3  30
TORSDOF 5
