REMARK  2 active torsions:
REMARK  status: ('A' for Active; 'I' for Inactive)
REMARK    1  A    between atoms: C2_4  and  O1_5 
REMARK    2  A    between atoms: O1_5  and  C3_6 
ROOT
HETATM    1  C3  UNL     1      -1.312   0.954  -0.086  1.00  0.00     0.169 C 
HETATM    2  N1  UNL     1      -0.595   0.324  -0.919  1.00  0.00    -0.218 NA
HETATM    3  C4  UNL     1       0.788   0.090  -0.828  1.00  0.00     0.236 C 
HETATM    4  N2  UNL     1       1.310  -0.944  -0.243  1.00  0.00    -0.240 NA
HETATM    5  C5  UNL     1       2.731  -0.996  -0.258  1.00  0.00     0.086 A 
HETATM    6  C6  UNL     1       3.439  -2.126  -0.591  1.00  0.00     0.034 A 
HETATM    7  C7  UNL     1       4.816  -2.175  -0.606  1.00  0.00     0.002 A 
HETATM    8  C8  UNL     1       5.546  -1.051  -0.275  1.00  0.00     0.002 A 
HETATM    9  C9  UNL     1       4.831   0.099   0.063  1.00  0.00     0.034 A 
HETATM   10  C10 UNL     1       3.437   0.135   0.074  1.00  0.00     0.083 A 
HETATM   11  N3  UNL     1       2.763   1.354   0.433  1.00  0.00    -0.260 N 
HETATM   12  O2  UNL     1       1.887   1.203   1.492  1.00  0.00    -0.250 OA
HETATM   13  C11 UNL     1       0.526   1.429   1.395  1.00  0.00     0.172 C 
HETATM   14  C12 UNL     1      -0.762   1.540   1.125  1.00  0.00     0.084 C 
HETATM   15  H8  UNL     1       3.140   2.077  -0.246  1.00  0.00     0.195 HD
ENDROOT
BRANCH   1  16
HETATM   16  O1  UNL     1      -2.653   1.074  -0.359  1.00  0.00    -0.293 OA
BRANCH  16  17
HETATM   17  C2  UNL     1      -3.393   0.087  -1.047  1.00  0.00     0.396 C 
HETATM   18  C1  UNL     1      -4.831   0.773  -1.182  1.00  0.00     0.117 C 
HETATM   19  S1  UNL     1      -5.310   1.569   0.749  1.00  0.00     0.063 SA
HETATM   20  F1  UNL     1      -6.678   2.063   0.143  1.00  0.00    -0.159 F 
HETATM   21  C15 UNL     1      -4.375   0.459   0.946  1.00  0.00    -0.007 C 
HETATM   22  C14 UNL     1      -3.811  -0.212   1.040  1.00  0.00    -0.063 C 
HETATM   23  C13 UNL     1      -2.980  -1.200   1.144  1.00  0.00     0.367 C 
HETATM   24  N4  UNL     1      -3.270  -1.238  -0.599  1.00  0.00     0.127 N 
HETATM   25  H11 UNL     1      -2.421  -1.731  -0.788  1.00  0.00     0.320 HD
ENDBRANCH  16  17
ENDBRANCH   1  16
TORSDOF 2
