REMARK  6 active torsions:
REMARK  status: ('A' for Active; 'I' for Inactive)
REMARK    1  A    between atoms: C10_13  and  N2_14 
REMARK    2  A    between atoms: C11_15  and  C12_16 
REMARK    3  A    between atoms: C13_18  and  C14_19 
REMARK       I    between atoms: C14_19  and  N3_21 
REMARK    4  A    between atoms: N3_21  and  C15_22 
REMARK    5  A    between atoms: C15_22  and  C16_23 
REMARK    6  A    between atoms: C16_23  and  N4_24 
ROOT
HETATM    1  C1  UNL     1      -1.570   4.196   1.030  1.00  0.00     0.061 C 
HETATM    2  P1  UNL     1      -0.847   2.951  -0.095  1.00  0.00    -0.026 P 
HETATM    3  N1  UNL     1      -2.160   2.026  -0.666  1.00  0.00    -0.272 NA
HETATM    4  C2  UNL     1      -2.485   1.159   0.416  1.00  0.00     0.052 C 
HETATM    5  C3  UNL     1      -1.432   0.940   1.319  1.00  0.00    -0.032 C 
HETATM    6  C4  UNL     1      -1.934   0.079   2.303  1.00  0.00     0.065 C 
HETATM    7  C5  UNL     1      -1.435  -0.832   3.282  1.00  0.00    -0.019 C 
HETATM    8  C6  UNL     1      -1.921  -2.115   3.145  1.00  0.00     0.038 C 
HETATM    9  C7  UNL     1      -2.859  -2.717   2.177  1.00  0.00     0.116 C 
HETATM   10  F1  UNL     1      -2.846  -4.032   2.646  1.00  0.00    -0.206 F 
HETATM   11  C8  UNL     1      -3.653  -2.651   1.155  1.00  0.00     0.044 C 
HETATM   12  C9  UNL     1      -4.263  -1.811   0.102  1.00  0.00     0.023 C 
HETATM   13  C10 UNL     1      -4.292  -0.498  -0.301  1.00  0.00    -0.000 C 
HETATM   14  C11 UNL     1      -3.745   0.451   0.667  1.00  0.00     0.143 C 
HETATM   15  C13 UNL     1      -0.183   1.610   0.999  1.00  0.00     0.151 C 
HETATM   16  H4  UNL     1      -0.082   3.301  -0.976  1.00  0.00     0.077 HD
ENDROOT
BRANCH  15  17
HETATM   17  C14 UNL     1       0.701   0.826   0.095  1.00  0.00     0.231 C 
HETATM   18  O2  UNL     1       0.281  -0.290  -0.287  1.00  0.00    -0.272 OA
HETATM   19  N3  UNL     1       1.962   1.340  -0.307  1.00  0.00    -0.358 N 
HETATM   20  H16 UNL     1       2.198   2.291   0.089  1.00  0.00     0.162 HD
BRANCH  19  21
HETATM   21  C15 UNL     1       2.859   0.596  -1.204  1.00  0.00     0.152 C 
BRANCH  21  22
HETATM   22  C16 UNL     1       3.249  -0.725  -0.640  1.00  0.00     0.292 C 
BRANCH  22  23
HETATM   23  N4  UNL     1       4.136  -1.403  -1.549  1.00  0.00     0.094 N 
HETATM   24  C17 UNL     1       3.545  -1.829  -2.764  1.00  0.00     0.298 C 
HETATM   25  C18 UNL     1       4.648  -2.349  -3.683  1.00  0.00     0.198 C 
HETATM   26  O3  UNL     1       5.411  -1.286  -4.123  1.00  0.00    -0.388 OA
HETATM   27  C19 UNL     1       5.578  -0.290  -3.189  1.00  0.00     0.198 C 
HETATM   28  C20 UNL     1       5.383  -0.754  -1.783  1.00  0.00     0.298 C 
ENDBRANCH  22  23
ENDBRANCH  21  22
ENDBRANCH  19  21
ENDBRANCH  15  17
BRANCH  14  29
HETATM   29  C12 UNL     1      -4.845   1.587   0.612  1.00  0.00     0.247 C 
HETATM   30  O1  UNL     1      -5.746   2.352   0.395  1.00  0.00    -0.306 OA
ENDBRANCH  14  29
BRANCH  13  31
HETATM   31  N2  UNL     1      -5.029  -0.033  -1.471  1.00  0.00    -0.305 NA
HETATM   32  H11 UNL     1      -4.047  -0.173  -1.857  1.00  0.00     0.124 HD
HETATM   33  H12 UNL     1      -5.844  -0.003  -0.789  1.00  0.00     0.124 HD
ENDBRANCH  13  31
TORSDOF 6
