REMARK  3 active torsions:
REMARK  status: ('A' for Active; 'I' for Inactive)
REMARK    1  A    between atoms: C4_4  and  C5_5 
REMARK    2  A    between atoms: C5_5  and  C6_6 
REMARK    3  A    between atoms: C7_8  and  N1_9 
ROOT
HETATM    1  C1  UNL     1       0.392   1.326   1.643  1.00  0.00     0.045 C 
HETATM    2  C2  UNL     1       0.338   0.760   0.255  1.00  0.00    -0.057 C 
HETATM    3  C3  UNL     1      -0.494   0.751  -0.796  1.00  0.00    -0.009 C 
HETATM    4  C4  UNL     1      -1.603   0.285  -0.319  1.00  0.00     0.004 C 
HETATM    5  C7  UNL     1      -2.282  -0.735   0.446  1.00  0.00     0.041 C 
HETATM    6  C8  UNL     1      -2.291  -1.859   1.120  1.00  0.00     0.099 C 
HETATM    7  C9  UNL     1      -0.901  -2.491   1.166  1.00  0.00     0.308 A 
HETATM    8  O1  UNL     1       0.257  -2.966   1.156  1.00  0.00    -0.125 OA
HETATM    9  N2  UNL     1      -0.025  -1.933   0.134  1.00  0.00     0.106 N 
HETATM   10  C10 UNL     1       0.853  -1.380  -0.893  1.00  0.00     0.299 C 
HETATM   11  C11 UNL     1       1.400  -0.068  -0.361  1.00  0.00     0.034 A 
HETATM   12  C12 UNL     1       2.321  -0.375   0.721  1.00  0.00     0.009 A 
HETATM   13  C13 UNL     1       3.599  -0.227   0.973  1.00  0.00     0.113 A 
HETATM   14  N3  UNL     1       4.283   0.413  -0.106  1.00  0.00    -0.277 NA
HETATM   15  C14 UNL     1       3.551   0.738  -1.133  1.00  0.00     0.090 A 
HETATM   16  C15 UNL     1       2.119   0.605  -1.481  1.00  0.00     0.067 A 
HETATM   17  H9  UNL     1      -0.751  -1.583  -0.507  1.00  0.00     0.328 HD
ENDROOT
BRANCH   4  18
HETATM   18  C5  UNL     1      -2.500   1.324  -0.767  1.00  0.00     0.044 C 
BRANCH  18  19
HETATM   19  C6  UNL     1      -2.533   2.434  -1.441  1.00  0.00     0.189 C 
HETATM   20  F1  UNL     1      -3.401   3.389  -1.843  1.00  0.00    -0.219 F 
ENDBRANCH  18  19
ENDBRANCH   4  18
BRANCH   5  21
HETATM   21  N1  UNL     1      -3.648  -0.620   0.724  1.00  0.00    -0.398 N 
HETATM   22  H6  UNL     1      -4.335  -0.368   1.499  1.00  0.00     0.156 HD
HETATM   23  H7  UNL     1      -4.345  -0.831  -0.049  1.00  0.00     0.156 HD
ENDBRANCH   5  21
TORSDOF 3
