REMARK  2 active torsions:
REMARK  status: ('A' for Active; 'I' for Inactive)
REMARK    1  A    between atoms: C3_4  and  C4_5 
REMARK    2  A    between atoms: C16_20  and  C17_21 
ROOT
HETATM    1  C4  UNL     1       0.659  -0.341  -0.293  1.00  0.00     0.046 C 
HETATM    2  C5  UNL     1       1.054   0.894  -0.230  1.00  0.00     0.047 A 
HETATM    3  C6  UNL     1       0.523   2.143  -0.732  1.00  0.00     0.257 A 
HETATM    4  O1  UNL     1      -0.523   2.299  -1.392  1.00  0.00    -0.267 OA
HETATM    5  N2  UNL     1       1.342   3.246  -0.388  1.00  0.00    -0.322 N 
HETATM    6  C7  UNL     1       2.407   2.650   0.348  1.00  0.00     0.046 A 
HETATM    7  C8  UNL     1       3.506   3.207   0.946  1.00  0.00     0.033 A 
HETATM    8  C9  UNL     1       4.507   2.540   1.656  1.00  0.00     0.044 A 
HETATM    9  C10 UNL     1       4.348   1.156   1.753  1.00  0.00     0.117 A 
HETATM   10  F1  UNL     1       5.295   0.473   2.435  1.00  0.00    -0.206 F 
HETATM   11  C11 UNL     1       3.230   0.571   1.148  1.00  0.00     0.057 A 
HETATM   12  C12 UNL     1       2.283   1.294   0.463  1.00  0.00     0.009 A 
HETATM   13  H7  UNL     1       1.236   4.267  -0.602  1.00  0.00     0.169 HD
ENDROOT
BRANCH   1  14
HETATM   14  C3  UNL     1      -0.493  -1.000  -0.901  1.00  0.00     0.026 C 
HETATM   15  N1  UNL     1      -1.630  -0.488  -1.679  1.00  0.00    -0.385 N 
HETATM   16  C2  UNL     1      -2.925  -1.177  -1.349  1.00  0.00     0.088 C 
HETATM   17  H5  UNL     1      -1.843   0.249  -2.441  1.00  0.00     0.160 HD
HETATM   18  C1  UNL     1      -3.679  -0.264  -0.484  1.00  0.00     0.033 C 
HETATM   19  C16 UNL     1      -2.621  -2.539  -0.657  1.00  0.00     0.002 A 
HETATM   20  C15 UNL     1      -2.229  -3.929   0.047  1.00  0.00     0.017 A 
HETATM   21  C14 UNL     1      -2.122  -2.835  -0.518  1.00  0.00    -0.000 A 
HETATM   22  C17 UNL     1      -3.625  -3.194  -0.296  1.00  0.00     0.017 A 
HETATM   23  C13 UNL     1      -0.652  -2.366  -0.794  1.00  0.00     0.014 C 
ENDBRANCH   1  14
TORSDOF 2
