REMARK  2 active torsions:
REMARK  status: ('A' for Active; 'I' for Inactive)
REMARK       I    between atoms: N2_16  and  C13_17 
REMARK       I    between atoms: C13_17  and  N3_19 
REMARK    1  A    between atoms: N3_19  and  C14_20 
REMARK    2  A    between atoms: C14_20  and  C15_21 
ROOT
HETATM    1  C1  UNL     1      -2.168  -4.153  -1.061  1.00  0.00     0.045 C 
HETATM    2  C2  UNL     1      -1.753  -2.825  -0.560  1.00  0.00    -0.059 C 
HETATM    3  C3  UNL     1      -2.275  -1.729  -0.106  1.00  0.00     0.035 C 
HETATM    4  C4  UNL     1      -1.363  -0.664   0.235  1.00  0.00     0.056 C 
HETATM    5  C5  UNL     1      -1.581   0.527   0.689  1.00  0.00     0.071 A 
HETATM    6  C6  UNL     1      -0.688   1.599   1.060  1.00  0.00     0.259 A 
HETATM    7  O1  UNL     1       0.552   1.645   1.147  1.00  0.00    -0.267 OA
HETATM    8  N1  UNL     1      -1.367   2.799   1.389  1.00  0.00    -0.322 N 
HETATM    9  C7  UNL     1      -2.759   2.531   1.239  1.00  0.00     0.046 A 
HETATM   10  C8  UNL     1      -3.799   3.410   1.446  1.00  0.00     0.033 A 
HETATM   11  C9  UNL     1      -5.068   2.948   1.236  1.00  0.00     0.044 A 
HETATM   12  C10 UNL     1      -5.295   1.656   0.833  1.00  0.00     0.117 A 
HETATM   13  F1  UNL     1      -6.570   1.252   0.639  1.00  0.00    -0.206 F 
HETATM   14  C11 UNL     1      -4.190   0.864   0.655  1.00  0.00     0.057 A 
HETATM   15  C12 UNL     1      -2.866   1.193   0.829  1.00  0.00     0.012 A 
HETATM   16  N2  UNL     1      -0.132  -1.261  -0.131  1.00  0.00    -0.290 N 
HETATM   17  C13 UNL     1       1.081  -0.766  -0.646  1.00  0.00     0.323 C 
HETATM   18  O2  UNL     1       2.104  -1.536  -0.685  1.00  0.00    -0.247 OA
HETATM   19  N3  UNL     1       1.680   0.377  -1.214  1.00  0.00    -0.338 N 
HETATM   20  C20 UNL     1      -0.296  -2.678  -0.167  1.00  0.00     0.119 C 
HETATM   21  C21 UNL     1       0.510  -3.380  -1.230  1.00  0.00     0.037 C 
HETATM   22  H5  UNL     1      -0.951   3.730   1.690  1.00  0.00     0.169 HD
HETATM   23  H9  UNL     1       0.924   1.133  -1.317  1.00  0.00     0.164 HD
ENDROOT
BRANCH  19  24
HETATM   24  C14 UNL     1       3.023   0.570  -1.653  1.00  0.00     0.163 C 
BRANCH  24  25
HETATM   25  C15 UNL     1       4.014   0.808  -0.579  1.00  0.00    -0.038 A 
HETATM   26  C16 UNL     1       4.088   2.175  -0.278  1.00  0.00     0.028 A 
HETATM   27  C17 UNL     1       4.981   2.599   0.715  1.00  0.00     0.116 A 
HETATM   28  N4  UNL     1       5.781   1.770   1.407  1.00  0.00    -0.273 NA
HETATM   29  C18 UNL     1       5.689   0.444   1.095  1.00  0.00     0.116 A 
HETATM   30  C19 UNL     1       4.833  -0.041   0.129  1.00  0.00     0.028 A 
ENDBRANCH  24  25
ENDBRANCH  19  24
TORSDOF 2
