REMARK  4 active torsions:
REMARK  status: ('A' for Active; 'I' for Inactive)
REMARK    1  A    between atoms: C2_2  and  C3_3 
REMARK    2  A    between atoms: C4_4  and  C5_5 
REMARK    3  A    between atoms: C5_5  and  N1_6 
REMARK    4  A    between atoms: N1_6  and  N2_8 
ROOT
HETATM    1  C3  UNL     1      -0.774   1.042  -1.086  1.00  0.00     0.036 C 
HETATM    2  C4  UNL     1      -0.997   0.238  -0.051  1.00  0.00     0.088 C 
HETATM    3  O1  UNL     1      -0.351   0.262   1.219  1.00  0.00    -0.347 OA
HETATM    4  C9  UNL     1       0.703   1.121   1.626  1.00  0.00     0.212 C 
HETATM    5  C10 UNL     1       1.562   1.507   0.519  1.00  0.00    -0.022 C 
HETATM    6  C11 UNL     1       2.651   0.902   0.091  1.00  0.00     0.051 A 
HETATM    7  C12 UNL     1       3.471   1.349  -1.025  1.00  0.00     0.257 A 
HETATM    8  O2  UNL     1       3.471   2.299  -1.840  1.00  0.00    -0.267 OA
HETATM    9  N5  UNL     1       4.539   0.431  -1.197  1.00  0.00    -0.322 N 
HETATM   10  C13 UNL     1       4.442  -0.603  -0.226  1.00  0.00     0.046 A 
HETATM   11  C14 UNL     1       5.231  -1.719   0.004  1.00  0.00     0.033 A 
HETATM   12  C15 UNL     1       4.921  -2.602   1.014  1.00  0.00     0.044 A 
HETATM   13  C16 UNL     1       3.805  -2.334   1.780  1.00  0.00     0.117 A 
HETATM   14  F1  UNL     1       3.530  -3.225   2.765  1.00  0.00    -0.206 F 
HETATM   15  C17 UNL     1       3.060  -1.214   1.508  1.00  0.00     0.057 A 
HETATM   16  C18 UNL     1       3.325  -0.310   0.523  1.00  0.00     0.010 A 
HETATM   17  C19 UNL     1       1.110   2.691  -0.251  1.00  0.00     0.157 C 
HETATM   18  N6  UNL     1       0.159   2.141  -1.229  1.00  0.00    -0.387 N 
HETATM   19  H15 UNL     1       5.336   0.425  -1.905  1.00  0.00     0.169 HD
HETATM   20  H21 UNL     1       0.191   2.640  -2.142  1.00  0.00     0.159 HD
ENDROOT
BRANCH   2  21
HETATM   21  C5  UNL     1      -1.970  -0.836  -0.039  1.00  0.00     0.210 C 
BRANCH  21  22
HETATM   22  N1  UNL     1      -2.996  -0.659   0.998  1.00  0.00    -0.302 N 
HETATM   23  C6  UNL     1      -2.698  -0.754   2.414  1.00  0.00     0.173 C 
BRANCH  22  24
HETATM   24  N2  UNL     1      -4.326  -0.385   0.585  1.00  0.00    -0.168 N 
HETATM   25  C7  UNL     1      -5.412  -0.188   1.358  1.00  0.00     0.161 A 
HETATM   26  C8  UNL     1      -6.515   0.050   0.545  1.00  0.00     0.163 A 
HETATM   27  N3  UNL     1      -6.043  -0.013  -0.723  1.00  0.00    -0.141 NA
HETATM   28  N4  UNL     1      -4.742  -0.273  -0.659  1.00  0.00    -0.046 NA
ENDBRANCH  22  24
ENDBRANCH  21  22
ENDBRANCH   2  21
BRANCH   1  29
HETATM   29  C2  UNL     1      -1.519   0.905  -2.343  1.00  0.00     0.055 C 
HETATM   30  C1  UNL     1      -0.618   0.596  -3.522  1.00  0.00     0.011 C 
ENDBRANCH   1  29
TORSDOF 4
