REMARK  7 active torsions:
REMARK  status: ('A' for Active; 'I' for Inactive)
REMARK    1  A    between atoms: N1_2  and  C12_17 
REMARK    2  A    between atoms: C2_3  and  C3_4 
REMARK    3  A    between atoms: C12_17  and  C13_18 
REMARK    4  A    between atoms: C13_18  and  N4_19 
REMARK    5  A    between atoms: C13_18  and  C14_20 
REMARK    6  A    between atoms: C14_20  and  C15_21 
REMARK    7  A    between atoms: C15_21  and  N5_22 
ROOT
HETATM    1  C3  UNL     1       1.778  -0.603  -0.563  1.00  0.00    -0.027 C 
HETATM    2  C4  UNL     1       1.739   0.698  -0.564  1.00  0.00     0.074 C 
HETATM    3  N2  UNL     1       2.771   0.813   0.459  1.00  0.00    -0.228 NA
HETATM    4  C5  UNL     1       3.474   1.841   1.184  1.00  0.00     0.280 C 
HETATM    5  O1  UNL     1       3.422   3.074   1.168  1.00  0.00    -0.264 OA
HETATM    6  C6  UNL     1       4.312   1.076   1.988  1.00  0.00     0.006 C 
HETATM    7  C7  UNL     1       5.001   0.424   2.645  1.00  0.00    -0.006 C 
HETATM    8  N3  UNL     1       5.815  -0.368   3.409  1.00  0.00    -0.229 NA
HETATM    9  C8  UNL     1       5.148  -1.384   2.731  1.00  0.00     0.074 C 
HETATM   10  C9  UNL     1       4.342  -2.036   1.924  1.00  0.00     0.054 C 
HETATM   11  C10 UNL     1       3.332  -2.323   0.923  1.00  0.00     0.117 C 
HETATM   12  F1  UNL     1       3.271  -3.718   0.836  1.00  0.00    -0.206 F 
HETATM   13  C11 UNL     1       2.481  -1.741   0.101  1.00  0.00     0.052 C 
HETATM   14  H7  UNL     1       2.418   1.722   0.137  1.00  0.00     0.136 HD
HETATM   15  H8  UNL     1       5.958   0.620   3.590  1.00  0.00     0.142 HD
ENDROOT
BRANCH   1  16
HETATM   16  C2  UNL     1       0.795  -1.077  -1.552  1.00  0.00     0.156 C 
HETATM   17  N1  UNL     1       0.043  -0.242  -2.312  1.00  0.00    -0.411 N 
HETATM   18  C1  UNL     1       0.534   0.562  -3.350  1.00  0.00     0.143 C 
BRANCH  17  19
HETATM   19  C12 UNL     1      -1.215   0.164  -1.809  1.00  0.00     0.152 C 
BRANCH  19  20
HETATM   20  C13 UNL     1      -1.857  -0.684  -0.773  1.00  0.00     0.236 C 
BRANCH  20  21
HETATM   21  N4  UNL     1      -2.103  -2.052  -1.291  1.00  0.00     0.084 N 
HETATM   22  H15 UNL     1      -2.684  -1.908  -2.157  1.00  0.00     0.313 HD
HETATM   23  H16 UNL     1      -2.688  -2.546  -0.577  1.00  0.00     0.313 HD
ENDBRANCH  20  21
BRANCH  20  24
HETATM   24  C14 UNL     1      -3.230  -0.171  -0.425  1.00  0.00     0.059 C 
BRANCH  24  25
HETATM   25  C15 UNL     1      -3.180   1.216   0.115  1.00  0.00     0.154 C 
BRANCH  25  26
HETATM   26  N5  UNL     1      -4.536   1.682   0.478  1.00  0.00    -0.261 N 
HETATM   27  C16 UNL     1      -5.056   1.492   1.716  1.00  0.00     0.135 A 
HETATM   28  C17 UNL     1      -6.310   2.042   1.693  1.00  0.00     0.161 A 
HETATM   29  N6  UNL     1      -6.519   2.548   0.453  1.00  0.00    -0.143 NA
HETATM   30  N7  UNL     1      -5.427   2.313  -0.257  1.00  0.00    -0.067 NA
ENDBRANCH  25  26
ENDBRANCH  24  25
ENDBRANCH  20  24
ENDBRANCH  19  20
ENDBRANCH  17  19
ENDBRANCH   1  16
TORSDOF 7
