REMARK  6 active torsions:
REMARK  status: ('A' for Active; 'I' for Inactive)
REMARK    1  A    between atoms: C2_2  and  N5_14 
REMARK    2  A    between atoms: C3_3  and  C4_4 
REMARK       I    between atoms: C4_4  and  N1_6 
REMARK    3  A    between atoms: N1_6  and  C5_7 
REMARK    4  A    between atoms: C5_7  and  C6_8 
REMARK    5  A    between atoms: C6_8  and  N2_9 
REMARK    6  A    between atoms: N5_14  and  C9_15 
ROOT
HETATM    1  C1  UNL     1      -1.627  -0.550   1.320  1.00  0.00     0.068 C 
HETATM    2  C2  UNL     1      -1.865   0.649   0.494  1.00  0.00     0.011 C 
HETATM    3  C3  UNL     1      -0.919   1.333  -0.111  1.00  0.00     0.098 C 
ENDROOT
BRANCH   3   4
HETATM    4  C4  UNL     1       0.504   1.412  -0.344  1.00  0.00     0.243 C 
HETATM    5  O1  UNL     1       1.355   2.140  -0.969  1.00  0.00    -0.269 OA
HETATM    6  N1  UNL     1       1.328   0.416   0.265  1.00  0.00    -0.356 N 
HETATM    7  H5  UNL     1       1.022  -0.390   0.878  1.00  0.00     0.162 HD
BRANCH   6   8
HETATM    8  C5  UNL     1       2.748   0.573  -0.023  1.00  0.00     0.144 C 
BRANCH   8   9
HETATM    9  C6  UNL     1       3.533  -0.531   0.668  1.00  0.00     0.165 C 
BRANCH   9  10
HETATM   10  N2  UNL     1       4.938  -0.285   0.319  1.00  0.00    -0.282 N 
HETATM   11  C7  UNL     1       5.618  -0.774  -0.756  1.00  0.00     0.128 A 
HETATM   12  C8  UNL     1       6.889  -0.248  -0.620  1.00  0.00     0.154 A 
HETATM   13  N3  UNL     1       6.915   0.512   0.498  1.00  0.00    -0.171 NA
HETATM   14  N4  UNL     1       5.717   0.480   1.061  1.00  0.00     0.004 NA
ENDBRANCH   9  10
ENDBRANCH   8   9
ENDBRANCH   6   8
ENDBRANCH   3   4
BRANCH   2  15
HETATM   15  N5  UNL     1      -3.201   1.104   0.335  1.00  0.00    -0.357 N 
HETATM   16  H12 UNL     1      -3.354   2.032   0.761  1.00  0.00     0.166 HD
BRANCH  15  17
HETATM   17  C9  UNL     1      -4.307   0.476  -0.306  1.00  0.00     0.083 C 
HETATM   18  C10 UNL     1      -4.507   0.721  -1.581  1.00  0.00     0.018 C 
HETATM   19  C11 UNL     1      -5.412   0.079  -2.232  1.00  0.00    -0.011 C 
HETATM   20  C12 UNL     1      -5.809  -1.115  -1.850  1.00  0.00     0.016 C 
HETATM   21  C13 UNL     1      -5.963  -1.211  -0.390  1.00  0.00     0.045 C 
HETATM   22  C14 UNL     1      -5.229  -0.432   0.408  1.00  0.00     0.143 C 
HETATM   23  F1  UNL     1      -5.252  -0.402   1.740  1.00  0.00    -0.204 F 
ENDBRANCH  15  17
ENDBRANCH   2  15
TORSDOF 6
