REMARK  7 active torsions:
REMARK  status: ('A' for Active; 'I' for Inactive)
REMARK    1  A    between atoms: C3_3  and  C4_5 
REMARK    2  A    between atoms: C9_10  and  C10_11 
REMARK    3  A    between atoms: C10_11  and  C11_12 
REMARK    4  A    between atoms: C10_11  and  N2_19 
REMARK    5  A    between atoms: C11_12  and  C12_13 
REMARK    6  A    between atoms: C12_13  and  C13_14 
REMARK    7  A    between atoms: N2_19  and  C17_20 
ROOT
HETATM    1  C10 UNL     1      -0.793  -0.018  -0.088  1.00  0.00     0.035 C 
ENDROOT
BRANCH   1   2
HETATM    2  C9  UNL     1       0.182  -0.081   0.974  1.00  0.00     0.007 C 
HETATM    3  C5  UNL     1       1.634   0.136   0.837  1.00  0.00    -0.038 C 
HETATM    4  C4  UNL     1       2.372   0.087  -0.251  1.00  0.00     0.050 C 
HETATM    5  C6  UNL     1       2.144   0.433   2.199  1.00  0.00     0.067 C 
HETATM    6  C7  UNL     1       0.885   0.369   3.007  1.00  0.00    -0.009 C 
HETATM    7  C8  UNL     1       0.056  -0.328   2.247  1.00  0.00    -0.016 C 
BRANCH   4   8
HETATM    8  C3  UNL     1       3.800   0.345  -0.110  1.00  0.00     0.112 C 
HETATM    9  C2  UNL     1       4.603   0.313  -1.161  1.00  0.00     0.011 C 
HETATM   10  C1  UNL     1       6.045   0.570  -1.033  1.00  0.00     0.039 C 
HETATM   11  F1  UNL     1       4.378   0.624   1.065  1.00  0.00    -0.206 F 
ENDBRANCH   4   8
ENDBRANCH   1   2
BRANCH   1  12
HETATM   12  C11 UNL     1      -2.089  -0.220   0.078  1.00  0.00     0.004 C 
BRANCH  12  13
HETATM   13  C12 UNL     1      -2.978  -0.542   1.203  1.00  0.00     0.043 C 
BRANCH  13  14
HETATM   14  C13 UNL     1      -3.724  -1.841   1.007  1.00  0.00     0.054 A 
HETATM   15  C14 UNL     1      -4.578  -1.817  -0.207  1.00  0.00     0.003 A 
HETATM   16  C15 UNL     1      -5.829  -1.900   0.214  1.00  0.00     0.112 A 
HETATM   17  N1  UNL     1      -5.882  -1.978   1.626  1.00  0.00    -0.277 NA
HETATM   18  C16 UNL     1      -4.699  -1.949   2.138  1.00  0.00     0.098 A 
ENDBRANCH  13  14
ENDBRANCH  12  13
ENDBRANCH   1  12
BRANCH   1  19
HETATM   19  N2  UNL     1      -0.374   0.279  -1.413  1.00  0.00    -0.390 N 
HETATM   20  H16 UNL     1      -0.281  -0.670  -1.830  1.00  0.00     0.159 HD
BRANCH  19  21
HETATM   21  C17 UNL     1      -0.224   1.687  -1.736  1.00  0.00     0.115 C 
HETATM   22  C18 UNL     1       0.228   1.790  -3.192  1.00  0.00     0.026 C 
ENDBRANCH  19  21
ENDBRANCH   1  19
TORSDOF 7
