REMARK  2 active torsions:
REMARK  status: ('A' for Active; 'I' for Inactive)
REMARK    1  A    between atoms: C11_16  and  C12_17 
REMARK    2  A    between atoms: C13_19  and  O3_20 
ROOT
HETATM    1  C1  UNL     1       2.832  -0.134  -1.917  1.00  0.00     0.161 C 
HETATM    2  N1  UNL     1       2.331  -0.169  -0.565  1.00  0.00    -0.301 N 
HETATM    3  C2  UNL     1       2.717  -1.248   0.123  1.00  0.00     0.255 A 
HETATM    4  O1  UNL     1       3.416  -2.255  -0.116  1.00  0.00    -0.267 OA
HETATM    5  C3  UNL     1       2.200  -1.193   1.380  1.00  0.00     0.015 A 
HETATM    6  C4  UNL     1       1.386  -0.226   2.000  1.00  0.00     0.029 A 
HETATM    7  C5  UNL     1       1.010   0.883   1.231  1.00  0.00     0.030 A 
HETATM    8  C6  UNL     1       0.142   1.827   1.721  1.00  0.00     0.151 C 
HETATM    9  N2  UNL     1      -0.251   2.796   0.846  1.00  0.00    -0.074 NA
HETATM   10  C7  UNL     1       0.313   2.637  -0.389  1.00  0.00     0.724 C 
HETATM   11  N3  UNL     1       1.184   1.701  -0.880  1.00  0.00    -0.044 NA
HETATM   12  C8  UNL     1       1.558   0.759  -0.014  1.00  0.00     0.163 A 
HETATM   13  N4  UNL     1      -0.262   3.621  -1.240  1.00  0.00    -0.219 N 
HETATM   14  C9  UNL     1      -0.989   2.668  -2.032  1.00  0.00     0.166 C 
HETATM   15  C10 UNL     1      -1.968   1.835  -1.338  1.00  0.00     0.005 C 
HETATM   16  C11 UNL     1      -2.365   0.594  -0.982  1.00  0.00    -0.003 C 
HETATM   17  C13 UNL     1      -1.974  -0.822  -1.129  1.00  0.00     0.197 C 
HETATM   18  C14 UNL     1      -2.101  -1.624   0.081  1.00  0.00     0.045 C 
HETATM   19 CL1  UNL     1      -3.802  -2.008   0.348  1.00  0.00    -0.086 Cl
HETATM   20  C15 UNL     1      -1.336  -2.113   1.042  1.00  0.00     0.022 C 
HETATM   21  C16 UNL     1      -0.063  -2.320   1.707  1.00  0.00    -0.002 C 
HETATM   22  C17 UNL     1       0.822  -2.757   2.610  1.00  0.00    -0.022 C 
HETATM   23  C18 UNL     1       2.269  -2.322   2.389  1.00  0.00     0.071 C 
HETATM   24  H6  UNL     1      -0.162   4.672  -1.250  1.00  0.00     0.178 HD
ENDROOT
BRANCH  16  25
HETATM   25  C12 UNL     1      -3.612   0.484  -0.186  1.00  0.00     0.387 C 
HETATM   26  O2  UNL     1      -4.657   0.702   0.456  1.00  0.00    -0.405 OA
ENDBRANCH  16  25
BRANCH  17  27
HETATM   27  O3  UNL     1      -0.665  -0.869  -1.649  1.00  0.00    -0.385 OA
HETATM   28  H12 UNL     1      -0.640  -0.449  -2.539  1.00  0.00     0.210 HD
ENDBRANCH  17  27
TORSDOF 2
