REMARK  5 active torsions:
REMARK  status: ('A' for Active; 'I' for Inactive)
REMARK    1  A    between atoms: O1_2  and  C2_3 
REMARK    2  A    between atoms: C6_7  and  N1_8 
REMARK    3  A    between atoms: N1_8  and  C7_9 
REMARK    4  A    between atoms: N4_15  and  O2_16 
REMARK    5  A    between atoms: C12_19  and  C13_20 
ROOT
HETATM    1  C7  UNL     1       1.172   0.334   0.938  1.00  0.00     0.728 A 
HETATM    2  N2  UNL     1       0.936  -0.998   0.832  1.00  0.00    -0.072 NA
HETATM    3  C8  UNL     1      -0.293  -1.500   0.531  1.00  0.00     0.172 A 
HETATM    4  C9  UNL     1      -1.270  -0.546   0.343  1.00  0.00     0.123 A 
HETATM    5  C10 UNL     1      -1.109   0.817   0.426  1.00  0.00     0.200 A 
HETATM    6  N3  UNL     1       0.132   1.184   0.727  1.00  0.00    -0.040 NA
HETATM    7  N4  UNL     1      -2.146   1.749   0.189  1.00  0.00    -0.215 N 
HETATM    8  C11 UNL     1      -3.517   1.291   0.163  1.00  0.00     0.264 C 
HETATM    9 CL1  UNL     1      -4.286   1.952   1.645  1.00  0.00    -0.093 Cl
HETATM   10  C12 UNL     1      -3.634  -0.176   0.073  1.00  0.00     0.085 C 
HETATM   11  N5  UNL     1      -2.608  -0.999   0.158  1.00  0.00    -0.244 NA
ENDROOT
BRANCH   1  12
HETATM   12  N1  UNL     1       2.435   0.879   1.271  1.00  0.00    -0.188 N 
HETATM   13  H7  UNL     1       2.233   1.567   2.081  1.00  0.00     0.184 HD
BRANCH  12  14
HETATM   14  C6  UNL     1       3.802   0.808   0.925  1.00  0.00     0.052 A 
HETATM   15  C5  UNL     1       4.674   1.793   1.403  1.00  0.00     0.030 A 
HETATM   16  C4  UNL     1       6.004   1.725   1.075  1.00  0.00     0.005 A 
HETATM   17  C3  UNL     1       6.469   0.710   0.291  1.00  0.00     0.037 A 
HETATM   18  C2  UNL     1       5.659  -0.283  -0.205  1.00  0.00     0.070 A 
HETATM   19  C19 UNL     1       4.333  -0.209   0.127  1.00  0.00     0.066 A 
BRANCH  18  20
HETATM   20  O1  UNL     1       6.255  -1.262  -0.992  1.00  0.00    -0.356 OA
HETATM   21  C1  UNL     1       7.652  -1.199  -1.253  1.00  0.00     0.210 C 
ENDBRANCH  18  20
ENDBRANCH  12  14
ENDBRANCH   1  12
BRANCH   7  22
HETATM   22  O2  UNL     1      -1.873   3.051  -0.029  1.00  0.00    -0.284 OA
HETATM   23  H9  UNL     1      -1.825   3.233  -1.023  1.00  0.00     0.245 HD
ENDBRANCH   7  22
BRANCH  10  24
HETATM   24  C13 UNL     1      -5.003  -0.682  -0.102  1.00  0.00    -0.008 A 
HETATM   25  C14 UNL     1      -6.105   0.109  -0.147  1.00  0.00     0.013 A 
HETATM   26  C15 UNL     1      -7.405  -0.386  -0.307  1.00  0.00     0.001 A 
HETATM   27  C16 UNL     1      -7.479  -1.757  -0.419  1.00  0.00     0.000 A 
HETATM   28  C17 UNL     1      -6.381  -2.590  -0.380  1.00  0.00     0.001 A 
HETATM   29  C18 UNL     1      -5.095  -2.064  -0.217  1.00  0.00     0.013 A 
ENDBRANCH  10  24
TORSDOF 5
