REMARK  4 active torsions:
REMARK  status: ('A' for Active; 'I' for Inactive)
REMARK    1  A    between atoms: C13_17  and  N3_18 
REMARK    2  A    between atoms: N3_18  and  C14_19 
REMARK    3  A    between atoms: C18_23  and  O2_24 
REMARK    4  A    between atoms: O2_24  and  N4_25 
ROOT
HETATM    1  C1  UNL     1       0.214   2.854  -2.251  1.00  0.00     0.161 C 
HETATM    2  N1  UNL     1      -0.642   2.179  -1.361  1.00  0.00    -0.306 N 
HETATM    3  C2  UNL     1      -2.031   1.750  -1.295  1.00  0.00     0.260 C 
HETATM    4  O1  UNL     1      -2.772   2.131  -2.210  1.00  0.00    -0.267 OA
HETATM    5  C3  UNL     1      -2.486   0.895  -0.160  1.00  0.00     0.048 C 
HETATM    6  C4  UNL     1      -3.693   0.264   0.123  1.00  0.00     0.002 A 
HETATM    7  C5  UNL     1      -4.360   0.193   1.315  1.00  0.00     0.014 A 
HETATM    8  C6  UNL     1      -5.535  -0.509   1.392  1.00  0.00     0.001 A 
HETATM    9  C7  UNL     1      -6.117  -1.169   0.333  1.00  0.00     0.002 A 
HETATM   10  C8  UNL     1      -5.440  -1.098  -0.885  1.00  0.00     0.024 A 
HETATM   11  C9  UNL     1      -4.253  -0.393  -0.978  1.00  0.00     0.045 A 
HETATM   12 CL1  UNL     1      -3.626  -0.498  -2.632  1.00  0.00    -0.083 Cl
HETATM   13  C10 UNL     1      -1.504   0.656   0.662  1.00  0.00    -0.034 C 
HETATM   14  C11 UNL     1      -0.650   1.874   1.122  1.00  0.00     0.115 C 
HETATM   15  C12 UNL     1       0.057   1.670  -0.251  1.00  0.00     0.109 C 
HETATM   16  N2  UNL     1       1.050   0.941   0.075  1.00  0.00    -0.249 NA
HETATM   17  C13 UNL     1       0.726  -0.315   0.840  1.00  0.00     0.230 C 
HETATM   18  C20 UNL     1      -0.756  -0.463   1.237  1.00  0.00     0.157 C 
HETATM   19 CL2  UNL     1      -0.899  -0.364   3.002  1.00  0.00    -0.116 Cl
ENDROOT
BRANCH  17  20
HETATM   20  N3  UNL     1       1.234  -1.456   0.188  1.00  0.00    -0.366 N 
HETATM   21  H11 UNL     1       0.564  -2.181  -0.085  1.00  0.00     0.162 HD
BRANCH  20  22
HETATM   22  C14 UNL     1       2.622  -1.602  -0.082  1.00  0.00     0.032 A 
HETATM   23  C15 UNL     1       3.075  -2.732  -0.721  1.00  0.00     0.029 A 
HETATM   24  C16 UNL     1       4.397  -3.028  -1.060  1.00  0.00     0.005 A 
HETATM   25  C17 UNL     1       5.309  -2.039  -0.688  1.00  0.00     0.039 A 
HETATM   26  C18 UNL     1       4.882  -0.899  -0.048  1.00  0.00     0.094 A 
HETATM   27  C19 UNL     1       3.555  -0.660   0.263  1.00  0.00     0.067 A 
BRANCH  26  28
HETATM   28  O2  UNL     1       5.878   0.025   0.279  1.00  0.00    -0.267 OA
BRANCH  28  29
HETATM   29  N4  UNL     1       5.666   1.175   0.988  1.00  0.00    -0.209 NA
HETATM   30  H15 UNL     1       6.469   1.462   1.565  1.00  0.00     0.150 HD
HETATM   31  H16 UNL     1       5.232   1.928   0.428  1.00  0.00     0.150 HD
ENDBRANCH  28  29
ENDBRANCH  26  28
ENDBRANCH  20  22
ENDBRANCH  17  20
TORSDOF 4
