REMARK  0 active torsions:
REMARK  status: ('A' for Active; 'I' for Inactive)
ROOT
HETATM    1  O1  UNL     1      -2.760   2.578  -1.080  1.00  0.00    -0.267 OA
HETATM    2  C1  UNL     1      -2.882   1.345  -0.813  1.00  0.00     0.263 C 
HETATM    3  C2  UNL     1      -3.574   0.310  -1.621  1.00  0.00     0.079 C 
HETATM    4 BR1  UNL     1      -4.424   0.789  -3.235  1.00  0.00    -0.045 Br
HETATM    5  C3  UNL     1      -3.503  -0.918  -1.058  1.00  0.00     0.035 C 
HETATM    6  C4  UNL     1      -2.539  -1.070   0.061  1.00  0.00    -0.021 C 
HETATM    7  C5  UNL     1      -1.757  -2.132   0.019  1.00  0.00     0.122 C 
HETATM    8  N1  UNL     1      -0.783  -2.435   0.986  1.00  0.00    -0.277 N 
HETATM    9  O2  UNL     1       0.464  -2.187   0.459  1.00  0.00    -0.279 OA
HETATM   10  C6  UNL     1       0.544  -0.816   0.293  1.00  0.00     0.225 C 
HETATM   11  C7  UNL     1       1.830  -0.272  -0.238  1.00  0.00     0.120 C 
HETATM   12  C8  UNL     1       2.950  -1.115   0.272  1.00  0.00    -0.007 C 
HETATM   13  C9  UNL     1       4.252  -0.847   0.291  1.00  0.00    -0.018 C 
HETATM   14  C10 UNL     1       4.712   0.470  -0.263  1.00  0.00     0.118 C 
HETATM   15  S1  UNL     1       3.514   1.766   0.147  1.00  0.00    -0.076 SA
HETATM   16  N2  UNL     1       1.907   1.081   0.271  1.00  0.00    -0.229 NA
HETATM   17  C11 UNL     1       0.909   1.972  -0.182  1.00  0.00     0.248 C 
HETATM   18  N3  UNL     1      -0.408   1.712   0.142  1.00  0.00    -0.285 NA
HETATM   19  C12 UNL     1      -1.278   2.241   0.898  1.00  0.00     0.251 C 
HETATM   20  N4  UNL     1      -2.187   1.190   0.449  1.00  0.00    -0.317 N 
HETATM   21  C13 UNL     1      -2.518  -0.044   1.134  1.00  0.00     0.168 C 
HETATM   22  H3  UNL     1      -1.438  -2.738   1.738  1.00  0.00     0.193 HD
ENDROOT
TORSDOF 0
