REMARK  4 active torsions:
REMARK  status: ('A' for Active; 'I' for Inactive)
REMARK    1  A    between atoms: C3_4  and  C4_6 
REMARK    2  A    between atoms: C7_10  and  N3_11 
REMARK    3  A    between atoms: N3_11  and  C8_12 
REMARK    4  A    between atoms: C20_27  and  P1_28 
ROOT
HETATM    1  C4  UNL     1      -1.942  -0.565   0.100  1.00  0.00    -0.028 C 
HETATM    2  C5  UNL     1      -0.650  -0.653  -0.147  1.00  0.00    -0.006 A 
HETATM    3  C6  UNL     1       0.035  -1.901  -0.340  1.00  0.00     0.146 A 
HETATM    4  N2  UNL     1       1.278  -1.985  -0.631  1.00  0.00    -0.075 NA
HETATM    5  C7  UNL     1       2.045  -0.803  -0.772  1.00  0.00     0.722 A 
HETATM    6  N4  UNL     1       1.504   0.350  -0.606  1.00  0.00    -0.095 NA
HETATM    7  C14 UNL     1       0.143   0.613  -0.274  1.00  0.00     0.167 A 
HETATM    8  C15 UNL     1      -0.508   1.529  -1.255  1.00  0.00     0.084 C 
HETATM    9  C16 UNL     1      -0.181   2.940  -1.169  1.00  0.00     0.014 C 
HETATM   10 CL1  UNL     1       1.193   3.668  -1.946  1.00  0.00    -0.089 Cl
HETATM   11  C17 UNL     1      -1.116   3.462  -0.417  1.00  0.00     0.019 C 
HETATM   12  C18 UNL     1      -2.275   2.936   0.274  1.00  0.00    -0.002 C 
HETATM   13  C19 UNL     1      -2.860   1.740   0.457  1.00  0.00    -0.013 C 
HETATM   14  C20 UNL     1      -3.099   0.315   0.367  1.00  0.00     0.065 C 
ENDROOT
BRANCH   5  15
HETATM   15  N3  UNL     1       3.425  -0.857  -1.100  1.00  0.00    -0.189 N 
HETATM   16  H6  UNL     1       3.734  -1.569  -1.804  1.00  0.00     0.184 HD
BRANCH  15  17
HETATM   17  C8  UNL     1       4.390  -0.002  -0.517  1.00  0.00     0.049 A 
HETATM   18  C9  UNL     1       4.183   0.932   0.467  1.00  0.00     0.033 A 
HETATM   19  C10 UNL     1       5.124   1.749   1.012  1.00  0.00     0.044 A 
HETATM   20  C11 UNL     1       6.420   1.659   0.558  1.00  0.00     0.116 A 
HETATM   21  F1  UNL     1       7.386   2.454   1.074  1.00  0.00    -0.206 F 
HETATM   22  C12 UNL     1       6.706   0.747  -0.427  1.00  0.00     0.044 A 
HETATM   23  C13 UNL     1       5.708  -0.066  -0.952  1.00  0.00     0.033 A 
ENDBRANCH  15  17
ENDBRANCH   5  15
BRANCH   1  24
HETATM   24  C3  UNL     1      -2.583  -1.905   0.148  1.00  0.00    -0.015 A 
HETATM   25  C2  UNL     1      -2.891  -3.306   0.130  1.00  0.00     0.164 A 
HETATM   26  N1  UNL     1      -4.122  -3.094   0.374  1.00  0.00    -0.322 N 
HETATM   27  O1  UNL     1      -3.803  -2.251   0.358  1.00  0.00     0.000 OA
HETATM   28  C1  UNL     1      -5.158  -4.077   0.516  1.00  0.00     0.171 C 
ENDBRANCH   1  24
BRANCH  14  29
HETATM   29  P1  UNL     1      -3.936  -0.255   1.973  1.00  0.00    -0.128 P 
HETATM   30  H18 UNL     1      -2.975   0.003   3.044  1.00  0.00     0.055 HD
HETATM   31  H19 UNL     1      -5.024   0.702   2.202  1.00  0.00     0.055 HD
ENDBRANCH  14  29
TORSDOF 4
