REMARK  5 active torsions:
REMARK  status: ('A' for Active; 'I' for Inactive)
REMARK    1  A    between atoms: C3_5  and  C4_6 
REMARK    2  A    between atoms: C13_18  and  N3_19 
REMARK    3  A    between atoms: N3_19  and  C14_20 
REMARK    4  A    between atoms: C14_20  and  C15_21 
REMARK    5  A    between atoms: C15_21  and  C16_22 
ROOT
HETATM    1  C1  UNL     1       0.578   1.710   0.711  1.00  0.00     0.161 C 
HETATM    2  N1  UNL     1      -0.419   0.663   0.436  1.00  0.00    -0.301 N 
HETATM    3  C2  UNL     1      -1.733   1.006   0.322  1.00  0.00     0.260 A 
HETATM    4  O1  UNL     1      -2.111   2.215   0.449  1.00  0.00    -0.267 OA
HETATM    5  C3  UNL     1      -2.650   0.002   0.064  1.00  0.00     0.047 A 
HETATM    6  C10 UNL     1      -2.245  -1.299  -0.074  1.00  0.00     0.034 A 
HETATM    7  C11 UNL     1      -0.925  -1.615   0.045  1.00  0.00     0.030 A 
HETATM    8  C12 UNL     1      -0.418  -2.893  -0.076  1.00  0.00     0.151 A 
HETATM    9  N2  UNL     1       0.898  -3.143   0.052  1.00  0.00    -0.074 NA
HETATM   10  C13 UNL     1       1.786  -2.148   0.306  1.00  0.00     0.724 A 
HETATM   11  N4  UNL     1       1.307  -0.897   0.426  1.00  0.00    -0.044 NA
HETATM   12  C19 UNL     1      -0.005  -0.622   0.303  1.00  0.00     0.163 A 
ENDROOT
BRANCH   5  13
HETATM   13  C4  UNL     1      -4.047   0.411  -0.052  1.00  0.00     0.023 A 
HETATM   14  C5  UNL     1      -4.911   0.458   1.027  1.00  0.00     0.046 A 
HETATM   15 CL1  UNL     1      -4.312   0.010   2.608  1.00  0.00    -0.083 Cl
HETATM   16  C6  UNL     1      -6.211   0.862   0.783  1.00  0.00     0.025 A 
HETATM   17  C7  UNL     1      -6.671   1.214  -0.472  1.00  0.00     0.003 A 
HETATM   18  C8  UNL     1      -5.805   1.166  -1.551  1.00  0.00     0.025 A 
HETATM   19  C9  UNL     1      -4.499   0.762  -1.321  1.00  0.00     0.046 A 
HETATM   20 CL2  UNL     1      -3.431   0.714  -2.709  1.00  0.00    -0.083 Cl
ENDBRANCH   5  13
BRANCH  10  21
HETATM   21  N3  UNL     1       3.164  -2.427   0.437  1.00  0.00    -0.222 N 
HETATM   22  H9  UNL     1       3.498  -3.410   0.337  1.00  0.00     0.177 HD
BRANCH  21  23
HETATM   23  C14 UNL     1       4.115  -1.367   0.708  1.00  0.00     0.142 C 
BRANCH  23  24
HETATM   24  C15 UNL     1       4.142  -0.301  -0.348  1.00  0.00     0.057 C 
BRANCH  24  25
HETATM   25  C16 UNL     1       5.164   0.731   0.050  1.00  0.00    -0.042 A 
HETATM   26  C17 UNL     1       5.530   2.007   0.380  1.00  0.00     0.020 A 
HETATM   27  C18 UNL     1       6.590   1.049   0.376  1.00  0.00     0.222 A 
HETATM   28  F1  UNL     1       7.032   0.402   1.520  1.00  0.00    -0.240 F 
ENDBRANCH  24  25
ENDBRANCH  23  24
ENDBRANCH  21  23
ENDBRANCH  10  21
TORSDOF 5
