REMARK  0 active torsions:
REMARK  status: ('A' for Active; 'I' for Inactive)
ROOT
HETATM    1  F1  UNL     1       2.090  -2.772  -2.346  1.00  0.00    -0.211 F 
HETATM    2  C1  UNL     1       1.873  -1.904  -1.304  1.00  0.00     0.094 C 
HETATM    3  C2  UNL     1       2.930  -1.750  -0.505  1.00  0.00     0.035 C 
HETATM    4  C3  UNL     1       2.905  -0.870   0.661  1.00  0.00    -0.007 C 
HETATM    5  C4  UNL     1       2.215   0.207   0.919  1.00  0.00     0.035 A 
HETATM    6  C5  UNL     1       1.195   0.502   0.163  1.00  0.00    -0.047 A 
HETATM    7  O1  UNL     1       2.137   1.464   0.465  1.00  0.00     0.000 OA
HETATM    8  C6  UNL     1       2.348   2.611  -0.306  1.00  0.00     0.137 C 
HETATM    9  N1  UNL     1       1.678   3.656   0.083  1.00  0.00    -0.250 NA
HETATM   10  C7  UNL     1       0.819   3.536   1.223  1.00  0.00     0.264 C 
HETATM   11  N2  UNL     1      -0.434   3.242   1.117  1.00  0.00    -0.101 NA
HETATM   12  O2  UNL     1      -0.974   3.036  -0.109  1.00  0.00    -0.135 OA
HETATM   13  N3  UNL     1      -0.921   1.770  -0.691  1.00  0.00    -0.269 N 
HETATM   14  C8  UNL     1      -1.076   0.334  -0.591  1.00  0.00     0.056 C 
HETATM   15  C9  UNL     1      -2.420   0.347  -0.902  1.00  0.00     0.094 C 
HETATM   16  C10 UNL     1      -3.218  -0.789  -0.984  1.00  0.00     0.049 C 
HETATM   17  C11 UNL     1      -4.202  -1.104  -0.137  1.00  0.00    -0.009 C 
HETATM   18  C12 UNL     1      -3.978  -0.390   0.918  1.00  0.00    -0.029 C 
HETATM   19  C13 UNL     1      -2.774  -0.500   1.401  1.00  0.00     0.091 C 
HETATM   20  N4  UNL     1      -1.741  -1.312   1.080  1.00  0.00    -0.397 N 
HETATM   21  C14 UNL     1      -0.296  -1.318   0.961  1.00  0.00     0.135 C 
HETATM   22  C15 UNL     1       0.176  -0.459  -0.189  1.00  0.00     0.029 C 
HETATM   23  C16 UNL     1       0.514  -1.362  -1.336  1.00  0.00     0.088 C 
HETATM   24  H5  UNL     1      -0.622   1.617  -1.705  1.00  0.00     0.190 HD
HETATM   25  H9  UNL     1      -2.203  -2.223   0.858  1.00  0.00     0.158 HD
ENDROOT
TORSDOF 0
