REMARK  4 active torsions:
REMARK  status: ('A' for Active; 'I' for Inactive)
REMARK    1  A    between atoms: C11_15  and  C12_16 
REMARK    2  A    between atoms: C12_16  and  C14_19 
REMARK    3  A    between atoms: C14_19  and  C15_20 
REMARK    4  A    between atoms: C16_21  and  C17_22 
ROOT
HETATM    1  C1  UNL     1      -0.269   3.502  -0.636  1.00  0.00     0.038 C 
HETATM    2  C2  UNL     1      -1.443   2.655  -0.815  1.00  0.00    -0.002 C 
HETATM    3  C3  UNL     1      -1.663   1.518  -0.206  1.00  0.00     0.020 C 
HETATM    4  C4  UNL     1      -2.972   0.984  -0.670  1.00  0.00     0.011 C 
HETATM    5  C5  UNL     1      -3.893   0.052  -0.626  1.00  0.00     0.063 C 
HETATM    6  C6  UNL     1      -4.495  -1.217  -0.154  1.00  0.00     0.249 C 
HETATM    7  F1  UNL     1      -5.450  -1.634  -1.107  1.00  0.00    -0.240 F 
HETATM    8  C7  UNL     1      -3.531  -2.358  -0.079  1.00  0.00     0.160 C 
HETATM    9  N1  UNL     1      -3.143  -3.560  -0.299  1.00  0.00    -0.246 NA
HETATM   10  C8  UNL     1      -2.637  -4.343   0.845  1.00  0.00     0.327 C 
HETATM   11  O1  UNL     1      -1.873  -3.379   1.593  1.00  0.00    -0.316 OA
HETATM   12  C9  UNL     1      -1.419  -2.223   0.925  1.00  0.00     0.145 C 
HETATM   13  N2  UNL     1      -2.506  -1.684   0.610  1.00  0.00    -0.211 NA
HETATM   14  C10 UNL     1      -0.139  -1.604   0.569  1.00  0.00     0.113 C 
HETATM   15  C11 UNL     1       0.044  -0.212   1.118  1.00  0.00     0.112 C 
HETATM   16  N3  UNL     1      -0.936   0.754   0.720  1.00  0.00    -0.383 N 
HETATM   17  H22 UNL     1      -1.498   1.256   1.478  1.00  0.00     0.160 HD
ENDROOT
BRANCH  15  18
HETATM   18  C12 UNL     1       1.463   0.271   0.833  1.00  0.00     0.057 C 
HETATM   19  C13 UNL     1       1.747   1.649   1.357  1.00  0.00     0.035 C 
HETATM   20 CL1  UNL     1       2.602  -0.835   1.696  1.00  0.00    -0.117 Cl
BRANCH  18  21
HETATM   21  C14 UNL     1       1.854   0.213  -0.603  1.00  0.00     0.054 C 
BRANCH  21  22
HETATM   22  C15 UNL     1       3.274   0.727  -0.694  1.00  0.00    -0.028 C 
HETATM   23  C16 UNL     1       4.329   0.033  -1.158  1.00  0.00    -0.016 C 
BRANCH  23  24
HETATM   24  C17 UNL     1       5.785   0.294  -1.351  1.00  0.00     0.141 C 
HETATM   25 CL2  UNL     1       6.217   1.946  -0.829  1.00  0.00    -0.126 Cl
ENDBRANCH  23  24
ENDBRANCH  21  22
ENDBRANCH  18  21
ENDBRANCH  15  18
TORSDOF 4
