REMARK  3 active torsions:
REMARK  status: ('A' for Active; 'I' for Inactive)
REMARK    1  A    between atoms: C3_5  and  C4_6 
REMARK    2  A    between atoms: C13_18  and  N3_19 
REMARK    3  A    between atoms: N3_19  and  C14_20 
ROOT
HETATM    1  C1  UNL     1      -0.761   0.644  -2.752  1.00  0.00     0.161 C 
HETATM    2  N1  UNL     1      -1.323   0.207  -1.481  1.00  0.00    -0.301 N 
HETATM    3  C2  UNL     1      -2.613   0.438  -1.218  1.00  0.00     0.260 A 
HETATM    4  O1  UNL     1      -3.389   1.028  -2.027  1.00  0.00    -0.267 OA
HETATM    5  C3  UNL     1      -3.219   0.056  -0.041  1.00  0.00     0.047 A 
HETATM    6  C10 UNL     1      -2.424  -0.599   0.895  1.00  0.00     0.034 A 
HETATM    7  C11 UNL     1      -1.090  -0.837   0.620  1.00  0.00     0.030 A 
HETATM    8  C12 UNL     1      -0.259  -1.481   1.513  1.00  0.00     0.151 A 
HETATM    9  N2  UNL     1       1.037  -1.696   1.210  1.00  0.00    -0.074 NA
HETATM   10  C13 UNL     1       1.583  -1.302   0.041  1.00  0.00     0.728 A 
HETATM   11  N4  UNL     1       0.783  -0.666  -0.852  1.00  0.00    -0.044 NA
HETATM   12  C21 UNL     1      -0.528  -0.426  -0.592  1.00  0.00     0.163 A 
ENDROOT
BRANCH  10  13
HETATM   13  N3  UNL     1       2.957  -1.558  -0.219  1.00  0.00    -0.188 N 
HETATM   14  H9  UNL     1       2.985  -2.490  -0.681  1.00  0.00     0.184 HD
BRANCH  13  15
HETATM   15  C14 UNL     1       4.094  -0.782   0.053  1.00  0.00     0.052 C 
HETATM   16  C15 UNL     1       3.934   0.212   0.911  1.00  0.00     0.072 C 
HETATM   17  C16 UNL     1       5.016   1.113   1.301  1.00  0.00     0.115 C 
HETATM   18  F1  UNL     1       4.789   1.804   2.456  1.00  0.00    -0.206 F 
HETATM   19  C17 UNL     1       6.174   1.352   0.699  1.00  0.00     0.019 C 
HETATM   20  C18 UNL     1       6.788   0.832  -0.530  1.00  0.00     0.057 C 
HETATM   21  C19 UNL     1       6.391  -0.524  -0.910  1.00  0.00    -0.021 C 
HETATM   22  C20 UNL     1       5.271  -1.231  -0.683  1.00  0.00     0.026 C 
ENDBRANCH  13  15
ENDBRANCH  10  13
BRANCH   5  23
HETATM   23  C4  UNL     1      -4.603   0.262   0.332  1.00  0.00     0.023 A 
HETATM   24  C5  UNL     1      -5.047   1.391   1.003  1.00  0.00     0.046 A 
HETATM   25 CL1  UNL     1      -3.847   2.599   1.399  1.00  0.00    -0.083 Cl
HETATM   26  C6  UNL     1      -6.397   1.542   1.341  1.00  0.00     0.025 A 
HETATM   27  C7  UNL     1      -7.318   0.562   1.010  1.00  0.00     0.003 A 
HETATM   28  C8  UNL     1      -6.867  -0.558   0.342  1.00  0.00     0.025 A 
HETATM   29  C9  UNL     1      -5.535  -0.713   0.005  1.00  0.00     0.046 A 
HETATM   30 CL2  UNL     1      -5.132  -2.177  -0.832  1.00  0.00    -0.083 Cl
ENDBRANCH   5  23
TORSDOF 3
