REMARK  3 active torsions:
REMARK  status: ('A' for Active; 'I' for Inactive)
REMARK    1  A    between atoms: C3_5  and  C4_6 
REMARK    2  A    between atoms: C13_18  and  N3_19 
REMARK    3  A    between atoms: N3_19  and  C14_20 
ROOT
HETATM    1  C1  UNL     1      -0.349  -2.702   0.822  1.00  0.00     0.161 C 
HETATM    2  N1  UNL     1      -0.910  -1.388   0.572  1.00  0.00    -0.301 N 
HETATM    3  C2  UNL     1      -2.237  -1.179   0.393  1.00  0.00     0.260 A 
HETATM    4  O1  UNL     1      -3.011  -2.165   0.447  1.00  0.00    -0.267 OA
HETATM    5  C3  UNL     1      -2.777   0.068   0.155  1.00  0.00     0.047 A 
HETATM    6  C10 UNL     1      -1.901   1.158   0.098  1.00  0.00     0.034 A 
HETATM    7  C11 UNL     1      -0.551   0.901   0.286  1.00  0.00     0.030 A 
HETATM    8  C12 UNL     1       0.321   1.968   0.232  1.00  0.00     0.151 A 
HETATM    9  N2  UNL     1       1.647   1.825   0.402  1.00  0.00    -0.074 NA
HETATM   10  C13 UNL     1       2.116   0.588   0.632  1.00  0.00     0.728 A 
HETATM   11  N4  UNL     1       1.296  -0.479   0.691  1.00  0.00    -0.044 NA
HETATM   12  C20 UNL     1      -0.039  -0.361   0.523  1.00  0.00     0.163 A 
ENDROOT
BRANCH  10  13
HETATM   13  N3  UNL     1       3.513   0.426   0.815  1.00  0.00    -0.188 N 
HETATM   14  H9  UNL     1       3.554   0.533   1.848  1.00  0.00     0.184 HD
BRANCH  13  15
HETATM   15  C14 UNL     1       4.659   0.189   0.004  1.00  0.00     0.049 A 
HETATM   16  C15 UNL     1       5.864   0.089   0.633  1.00  0.00     0.033 A 
HETATM   17  C16 UNL     1       6.942  -0.137  -0.187  1.00  0.00     0.044 A 
HETATM   18  C17 UNL     1       6.819  -0.256  -1.551  1.00  0.00     0.116 A 
HETATM   19  F1  UNL     1       7.967  -0.481  -2.268  1.00  0.00    -0.206 F 
HETATM   20  C18 UNL     1       5.588  -0.152  -2.176  1.00  0.00     0.044 A 
HETATM   21  C19 UNL     1       4.493   0.077  -1.355  1.00  0.00     0.033 A 
ENDBRANCH  13  15
ENDBRANCH  10  13
BRANCH   5  22
HETATM   22  C4  UNL     1      -4.215   0.282  -0.036  1.00  0.00     0.023 A 
HETATM   23  C5  UNL     1      -4.974   0.549   1.088  1.00  0.00     0.046 A 
HETATM   24 CL1  UNL     1      -4.312   0.645   2.716  1.00  0.00    -0.083 Cl
HETATM   25  C6  UNL     1      -6.317   0.743   0.861  1.00  0.00     0.025 A 
HETATM   26  C7  UNL     1      -6.967   0.700  -0.339  1.00  0.00     0.003 A 
HETATM   27  C8  UNL     1      -6.154   0.427  -1.431  1.00  0.00     0.025 A 
HETATM   28  C9  UNL     1      -4.790   0.220  -1.286  1.00  0.00     0.046 A 
HETATM   29 CL2  UNL     1      -3.800  -0.121  -2.688  1.00  0.00    -0.083 Cl
ENDBRANCH   5  22
TORSDOF 3
