REMARK  6 active torsions:
REMARK  status: ('A' for Active; 'I' for Inactive)
REMARK    1  A    between atoms: C4_4  and  N1_5 
REMARK    2  A    between atoms: N1_5  and  C5_6 
REMARK    3  A    between atoms: C9_11  and  C10_12 
REMARK    4  A    between atoms: C10_12  and  C11_13 
REMARK    5  A    between atoms: C11_13  and  C12_14 
REMARK    6  A    between atoms: C12_14  and  P1_15 
ROOT
HETATM    1  C5  UNL     1      -1.068   0.669  -1.283  1.00  0.00     0.728 A 
HETATM    2  N2  UNL     1      -0.370   1.366  -2.196  1.00  0.00    -0.074 NA
HETATM    3  C6  UNL     1       0.970   1.401  -2.177  1.00  0.00     0.151 A 
HETATM    4  C7  UNL     1       1.696   0.724  -1.223  1.00  0.00     0.030 A 
HETATM    5  C8  UNL     1       3.074   0.766  -1.211  1.00  0.00     0.029 A 
HETATM    6  C9  UNL     1       3.819   0.082  -0.244  1.00  0.00     0.012 A 
HETATM    7  C13 UNL     1       3.051  -0.609   0.659  1.00  0.00     0.255 A 
HETATM    8  O1  UNL     1       3.692  -1.247   1.557  1.00  0.00    -0.267 OA
HETATM    9  N3  UNL     1       1.706  -0.649   0.645  1.00  0.00    -0.302 N 
HETATM   10  C14 UNL     1       0.974  -1.412   1.645  1.00  0.00     0.161 C 
HETATM   11  C15 UNL     1       0.993   0.007  -0.282  1.00  0.00     0.163 A 
HETATM   12  N4  UNL     1      -0.338   0.021  -0.365  1.00  0.00    -0.044 NA
ENDROOT
BRANCH   1  13
HETATM   13  N1  UNL     1      -2.486   0.654  -1.324  1.00  0.00    -0.188 N 
HETATM   14  H5  UNL     1      -2.923   1.221  -2.113  1.00  0.00     0.184 HD
BRANCH  13  15
HETATM   15  C4  UNL     1      -3.407   0.001  -0.478  1.00  0.00     0.050 A 
HETATM   16  C3  UNL     1      -4.766   0.135  -0.666  1.00  0.00     0.039 A 
HETATM   17  C2  UNL     1      -5.697  -0.480   0.131  1.00  0.00    -0.021 A 
HETATM   18  C1  UNL     1      -7.147  -0.262  -0.166  1.00  0.00     0.051 C 
HETATM   19  C18 UNL     1      -5.305  -1.270   1.167  1.00  0.00     0.122 A 
HETATM   20  C17 UNL     1      -3.963  -1.446   1.408  1.00  0.00     0.045 A 
HETATM   21  F1  UNL     1      -6.283  -1.842   1.906  1.00  0.00    -0.206 F 
HETATM   22  C16 UNL     1      -3.075  -0.806   0.579  1.00  0.00     0.033 A 
ENDBRANCH  13  15
ENDBRANCH   1  13
BRANCH   6  23
HETATM   23  C10 UNL     1       5.296   0.142  -0.249  1.00  0.00     0.062 C 
BRANCH  23  24
HETATM   24  C11 UNL     1       5.691   1.071   0.842  1.00  0.00     0.078 C 
BRANCH  24  25
HETATM   25  C12 UNL     1       6.765   1.804   0.590  1.00  0.00    -0.123 C 
BRANCH  25  26
HETATM   26  P1  UNL     1       8.323   2.366   0.469  1.00  0.00     0.106 P 
HETATM   27 CL1  UNL     1       9.939   1.089   0.953  1.00  0.00    -0.075 Cl
ENDBRANCH  25  26
ENDBRANCH  24  25
ENDBRANCH  23  24
ENDBRANCH   6  23
TORSDOF 6
