REMARK  2 active torsions:
REMARK  status: ('A' for Active; 'I' for Inactive)
REMARK    1  A    between atoms: C4_4  and  N1_5 
REMARK    2  A    between atoms: N1_5  and  C5_6 
ROOT
HETATM    1  C5  UNL     1       2.053   1.776  -0.338  1.00  0.00     0.725 A 
HETATM    2  N2  UNL     1       1.207   2.752   0.035  1.00  0.00    -0.074 NA
HETATM    3  C6  UNL     1      -0.126   2.538   0.136  1.00  0.00     0.151 A 
HETATM    4  C7  UNL     1      -0.632   1.289  -0.151  1.00  0.00     0.032 A 
HETATM    5  C8  UNL     1       0.247   0.299  -0.532  1.00  0.00     0.175 A 
HETATM    6  N3  UNL     1       1.563   0.558  -0.619  1.00  0.00    -0.043 NA
HETATM    7  N4  UNL     1      -0.300  -0.999  -0.827  1.00  0.00    -0.278 N 
HETATM    8  C9  UNL     1       0.688  -1.979  -1.219  1.00  0.00     0.179 C 
HETATM    9  N5  UNL     1      -1.672  -1.187  -0.713  1.00  0.00    -0.296 N 
HETATM   10  C10 UNL     1      -2.628  -0.208  -0.326  1.00  0.00     0.061 A 
HETATM   11  C11 UNL     1      -4.020  -0.537  -0.145  1.00  0.00     0.020 A 
HETATM   12  C12 UNL     1      -4.924   0.113   0.662  1.00  0.00    -0.048 A 
HETATM   13  C13 UNL     1      -4.513   1.160   1.601  1.00  0.00     0.049 C 
HETATM   14  C14 UNL     1      -6.288  -0.197   0.699  1.00  0.00     0.007 A 
HETATM   15  C15 UNL     1      -6.787  -1.201  -0.100  1.00  0.00     0.002 A 
HETATM   16  C16 UNL     1      -5.898  -1.888  -0.935  1.00  0.00     0.025 A 
HETATM   17  C17 UNL     1      -4.543  -1.539  -0.936  1.00  0.00     0.047 A 
HETATM   18 CL1  UNL     1      -3.777  -2.561  -2.129  1.00  0.00    -0.083 Cl
HETATM   19  C18 UNL     1      -2.038   0.942  -0.079  1.00  0.00     0.048 A 
HETATM   20  H11 UNL     1      -1.849  -2.177  -0.937  1.00  0.00     0.187 HD
ENDROOT
BRANCH   1  21
HETATM   21  N1  UNL     1       3.447   2.041  -0.432  1.00  0.00    -0.211 N 
HETATM   22  H6  UNL     1       3.812   2.993  -0.211  1.00  0.00     0.178 HD
BRANCH  21  23
HETATM   23  C4  UNL     1       4.341   0.979  -0.836  1.00  0.00     0.149 A 
HETATM   24  C3  UNL     1       4.285  -0.177   0.096  1.00  0.00     0.012 A 
HETATM   25  C2  UNL     1       5.488  -0.398   0.650  1.00  0.00    -0.025 A 
HETATM   26  C1  UNL     1       6.040  -1.387   1.634  1.00  0.00     0.051 C 
HETATM   27  C20 UNL     1       6.433   0.600   0.123  1.00  0.00     0.120 A 
HETATM   28  C19 UNL     1       5.763   1.372  -0.719  1.00  0.00     0.045 A 
HETATM   29  F1  UNL     1       7.750   0.820   0.350  1.00  0.00    -0.206 F 
ENDBRANCH  21  23
ENDBRANCH   1  21
TORSDOF 2
