REMARK  6 active torsions:
REMARK  status: ('A' for Active; 'I' for Inactive)
REMARK    1  A    between atoms: C4_4  and  N1_5 
REMARK    2  A    between atoms: N1_5  and  C5_6 
REMARK    3  A    between atoms: C9_11  and  C10_12 
REMARK    4  A    between atoms: C10_12  and  C11_13 
REMARK    5  A    between atoms: C10_12  and  C12_15 
REMARK    6  A    between atoms: C12_15  and  C13_16 
ROOT
HETATM    1  C5  UNL     1       1.525  -1.296  -0.399  1.00  0.00     0.728 A 
HETATM    2  N2  UNL     1       1.021  -0.992  -1.610  1.00  0.00    -0.074 NA
HETATM    3  C6  UNL     1      -0.269  -0.619  -1.773  1.00  0.00     0.151 A 
HETATM    4  C7  UNL     1      -1.104  -0.543  -0.671  1.00  0.00     0.030 A 
HETATM    5  C8  UNL     1      -2.445  -0.166  -0.782  1.00  0.00     0.030 A 
HETATM    6  C9  UNL     1      -3.300  -0.085   0.305  1.00  0.00     0.016 A 
HETATM    7  C14 UNL     1      -2.680  -0.419   1.506  1.00  0.00     0.255 A 
HETATM    8  O1  UNL     1      -3.420  -0.363   2.542  1.00  0.00    -0.267 OA
HETATM    9  N3  UNL     1      -1.396  -0.785   1.645  1.00  0.00    -0.301 N 
HETATM   10  C15 UNL     1      -0.905  -1.106   2.971  1.00  0.00     0.161 C 
HETATM   11  C16 UNL     1      -0.596  -0.851   0.565  1.00  0.00     0.163 A 
HETATM   12  N4  UNL     1       0.712  -1.223   0.681  1.00  0.00    -0.044 NA
ENDROOT
BRANCH   1  13
HETATM   13  N1  UNL     1       2.885  -1.687  -0.301  1.00  0.00    -0.188 N 
HETATM   14  H5  UNL     1       2.707  -2.715  -0.312  1.00  0.00     0.184 HD
BRANCH  13  15
HETATM   15  C4  UNL     1       4.130  -1.052  -0.214  1.00  0.00     0.050 A 
HETATM   16  C3  UNL     1       4.228   0.310  -0.309  1.00  0.00     0.039 A 
HETATM   17  C2  UNL     1       5.497   0.864  -0.211  1.00  0.00    -0.021 A 
HETATM   18  C1  UNL     1       5.638   2.356  -0.315  1.00  0.00     0.051 C 
HETATM   19  C19 UNL     1       6.608   0.067  -0.027  1.00  0.00     0.122 A 
HETATM   20  C18 UNL     1       6.456  -1.319   0.064  1.00  0.00     0.045 A 
HETATM   21  F1  UNL     1       7.825   0.650   0.063  1.00  0.00    -0.206 F 
HETATM   22  C17 UNL     1       5.201  -1.881  -0.032  1.00  0.00     0.033 A 
ENDBRANCH  13  15
ENDBRANCH   1  13
BRANCH   6  23
HETATM   23  C10 UNL     1      -4.698   0.285   0.146  1.00  0.00     0.039 C 
BRANCH  23  24
HETATM   24  C11 UNL     1      -5.539  -0.643  -0.694  1.00  0.00     0.124 C 
HETATM   25 CL1  UNL     1      -5.562  -2.263   0.004  1.00  0.00    -0.130 Cl
ENDBRANCH  23  24
BRANCH  23  26
HETATM   26  C12 UNL     1      -5.005   1.734  -0.075  1.00  0.00     0.025 C 
BRANCH  26  27
HETATM   27  C13 UNL     1      -4.329   2.242  -1.297  1.00  0.00     0.115 C 
HETATM   28 CL2  UNL     1      -4.756   3.980  -1.550  1.00  0.00    -0.130 Cl
ENDBRANCH  26  27
ENDBRANCH  23  26
ENDBRANCH   6  23
TORSDOF 6
