REMARK  2 active torsions:
REMARK  status: ('A' for Active; 'I' for Inactive)
REMARK    1  A    between atoms: C3_4  and  N2_5 
REMARK    2  A    between atoms: C7_9  and  C8_10 
ROOT
HETATM    1  C1  UNL     1       4.882  -0.134  -0.674  1.00  0.00     0.177 C 
HETATM    2  N1  UNL     1       3.517  -0.456  -0.939  1.00  0.00    -0.298 NA
HETATM    3  C2  UNL     1       2.647  -0.631  -0.017  1.00  0.00     0.070 C 
HETATM    4  C3  UNL     1       2.868  -0.541   1.447  1.00  0.00     0.290 C 
HETATM    5  C4  UNL     1       1.549  -0.089   1.931  1.00  0.00     0.023 C 
HETATM    6  C5  UNL     1       0.588  -0.316   1.054  1.00  0.00    -0.030 C 
HETATM    7  C6  UNL     1      -0.849  -0.088   0.998  1.00  0.00     0.027 C 
HETATM    8  C7  UNL     1      -1.621  -0.017  -0.068  1.00  0.00     0.046 C 
HETATM    9  C14 UNL     1      -0.796  -0.126  -1.259  1.00  0.00     0.255 C 
HETATM   10  O1  UNL     1      -1.231  -0.080  -2.431  1.00  0.00    -0.267 OA
HETATM   11  N3  UNL     1       0.611  -0.290  -1.297  1.00  0.00    -0.338 N 
HETATM   12  C15 UNL     1       1.473   0.171  -2.390  1.00  0.00     0.154 C 
HETATM   13  C16 UNL     1       1.206  -0.968  -0.157  1.00  0.00     0.170 C 
ENDROOT
BRANCH   8  14
HETATM   14  C8  UNL     1      -3.038   0.215  -0.037  1.00  0.00     0.023 A 
HETATM   15  C9  UNL     1      -3.688   0.847   0.983  1.00  0.00     0.046 A 
HETATM   16 CL1  UNL     1      -2.848   1.644   2.327  1.00  0.00    -0.083 Cl
HETATM   17  C10 UNL     1      -5.043   1.016   1.126  1.00  0.00     0.025 A 
HETATM   18  C11 UNL     1      -5.891   0.514   0.162  1.00  0.00     0.003 A 
HETATM   19  C12 UNL     1      -5.289  -0.146  -0.913  1.00  0.00     0.025 A 
HETATM   20  C13 UNL     1      -3.922  -0.269  -0.970  1.00  0.00     0.046 A 
HETATM   21 CL2  UNL     1      -3.497  -1.210  -2.376  1.00  0.00    -0.083 Cl
ENDBRANCH   8  14
BRANCH   4  22
HETATM   22  N2  UNL     1       3.930   0.378   1.788  1.00  0.00     0.092 N 
HETATM   23  H5  UNL     1       3.601   1.343   2.008  1.00  0.00     0.314 HD
HETATM   24  H6  UNL     1       4.502  -0.067   2.533  1.00  0.00     0.314 HD
ENDBRANCH   4  22
TORSDOF 2
