REMARK  2 active torsions:
REMARK  status: ('A' for Active; 'I' for Inactive)
REMARK    1  A    between atoms: C4_4  and  N1_5 
REMARK    2  A    between atoms: N1_5  and  C5_6 
ROOT
HETATM    1  C5  UNL     1       0.829   0.164   0.482  1.00  0.00     0.728 A 
HETATM    2  N2  UNL     1       0.461  -1.084   0.140  1.00  0.00    -0.074 NA
HETATM    3  C6  UNL     1      -0.858  -1.382  -0.068  1.00  0.00     0.152 A 
HETATM    4  C7  UNL     1      -1.715  -0.337   0.103  1.00  0.00     0.041 A 
HETATM    5  C8  UNL     1      -3.048  -0.583  -0.059  1.00  0.00    -0.009 A 
HETATM    6  C9  UNL     1      -3.999   0.390   0.110  1.00  0.00     0.028 A 
HETATM    7  C10 UNL     1      -3.559   1.666   0.458  1.00  0.00     0.271 A 
HETATM    8  O1  UNL     1      -4.286   2.679   0.649  1.00  0.00    -0.266 OA
HETATM    9  N3  UNL     1      -2.250   1.935   0.627  1.00  0.00    -0.200 N 
HETATM   10 CL1  UNL     1      -1.630   3.515   1.065  1.00  0.00     0.023 Cl
HETATM   11  C11 UNL     1      -1.374   0.937   0.448  1.00  0.00     0.179 A 
HETATM   12  N4  UNL     1      -0.056   1.190   0.642  1.00  0.00    -0.043 NA
HETATM   13  C12 UNL     1      -5.488   0.542   0.055  1.00  0.00     0.096 C 
HETATM   14  C13 UNL     1      -6.052  -0.509  -0.789  1.00  0.00     0.016 C 
HETATM   15 CL2  UNL     1      -7.618   0.041  -1.415  1.00  0.00    -0.089 Cl
HETATM   16  C14 UNL     1      -5.727  -1.725  -1.197  1.00  0.00     0.020 C 
HETATM   17  C15 UNL     1      -4.507  -2.494  -0.863  1.00  0.00     0.002 C 
HETATM   18  C16 UNL     1      -3.399  -1.952  -0.382  1.00  0.00     0.013 C 
ENDROOT
BRANCH   1  19
HETATM   19  N1  UNL     1       2.175   0.458   0.739  1.00  0.00    -0.188 N 
HETATM   20  H5  UNL     1       2.210   0.529   1.803  1.00  0.00     0.184 HD
BRANCH  19  21
HETATM   21  C4  UNL     1       3.514   0.713   0.524  1.00  0.00     0.050 A 
HETATM   22  C3  UNL     1       4.318  -0.383   0.289  1.00  0.00     0.039 A 
HETATM   23  C2  UNL     1       5.680  -0.211   0.061  1.00  0.00    -0.021 A 
HETATM   24  C1  UNL     1       6.549  -1.381  -0.191  1.00  0.00     0.051 C 
HETATM   25  C19 UNL     1       6.108   1.083   0.091  1.00  0.00     0.122 A 
HETATM   26  C18 UNL     1       5.366   2.222   0.320  1.00  0.00     0.045 A 
HETATM   27  F1  UNL     1       7.445   1.281  -0.126  1.00  0.00    -0.206 F 
HETATM   28  C17 UNL     1       4.017   1.988   0.541  1.00  0.00     0.033 A 
ENDBRANCH  19  21
ENDBRANCH   1  19
TORSDOF 2
