REMARK  3 active torsions:
REMARK  status: ('A' for Active; 'I' for Inactive)
REMARK    1  A    between atoms: N1_1  and  C1_2 
REMARK    2  A    between atoms: C3_4  and  C4_5 
REMARK    3  A    between atoms: C4_5  and  C5_6 
ROOT
HETATM    1  C1  UNL     1      -1.090   1.973  -0.963  1.00  0.00     0.084 A 
HETATM    2  C2  UNL     1      -0.457   0.672  -0.932  1.00  0.00    -0.007 C 
HETATM    3  C3  UNL     1       0.708  -0.091  -0.682  1.00  0.00     0.046 C 
HETATM    4  N2  UNL     1       1.176  -1.473  -0.677  1.00  0.00    -0.267 NA
HETATM    5  C11 UNL     1       0.296  -2.497  -0.676  1.00  0.00     0.116 C 
HETATM    6  C12 UNL     1      -0.965  -3.240  -0.676  1.00  0.00     0.222 C 
HETATM    7  O1  UNL     1      -2.178  -2.479  -0.798  1.00  0.00    -0.346 OA
HETATM    8  C13 UNL     1      -2.513  -1.246  -1.296  1.00  0.00     0.073 A 
HETATM    9  C14 UNL     1      -3.601  -0.677  -1.936  1.00  0.00     0.016 A 
HETATM   10  C15 UNL     1      -3.109   0.697  -2.130  1.00  0.00     0.028 A 
HETATM   11  C16 UNL     1      -2.185   2.004  -2.121  1.00  0.00    -0.013 A 
HETATM   12  C17 UNL     1      -1.915   1.058  -1.717  1.00  0.00     0.083 A 
HETATM   13  C18 UNL     1      -1.621  -0.172  -1.217  1.00  0.00    -0.008 A 
ENDROOT
BRANCH   3  14
HETATM   14  C4  UNL     1       1.598   0.986  -0.298  1.00  0.00     0.101 C 
BRANCH  14  15
HETATM   15  C5  UNL     1       2.083   0.654   1.088  1.00  0.00    -0.014 A 
HETATM   16  C6  UNL     1       3.277  -0.015   1.012  1.00  0.00     0.010 A 
HETATM   17  C7  UNL     1       3.942  -0.492   2.136  1.00  0.00     0.001 A 
HETATM   18  C8  UNL     1       3.359  -0.270   3.356  1.00  0.00     0.003 A 
HETATM   19  C9  UNL     1       2.146   0.408   3.458  1.00  0.00     0.043 A 
HETATM   20  C10 UNL     1       1.527   0.859   2.325  1.00  0.00     0.123 A 
HETATM   21  F1  UNL     1       0.355   1.532   2.268  1.00  0.00    -0.206 F 
ENDBRANCH  14  15
ENDBRANCH   3  14
BRANCH   1  22
HETATM   22  N1  UNL     1      -1.884   2.196   0.301  1.00  0.00    -0.326 N 
HETATM   23  H1  UNL     1      -2.708   1.532   0.270  1.00  0.00     0.118 HD
HETATM   24  H2  UNL     1      -2.182   3.178   0.245  1.00  0.00     0.118 HD
ENDBRANCH   1  22
TORSDOF 3
