REMARK  3 active torsions:
REMARK  status: ('A' for Active; 'I' for Inactive)
REMARK       I    between atoms: C1_2  and  N1_3 
REMARK       I    between atoms: C1_2  and  N3_10 
REMARK    1  A    between atoms: N1_3  and  C2_4 
REMARK    2  A    between atoms: N3_10  and  C7_11 
REMARK    3  A    between atoms: N4_21  and  O2_22 
ROOT
HETATM    1  C7  UNL     1      -0.853   0.393  -0.626  1.00  0.00     0.045 A 
HETATM    2  C8  UNL     1      -0.943   0.776  -1.930  1.00  0.00     0.030 A 
HETATM    3  C9  UNL     1      -2.110   1.048  -2.597  1.00  0.00     0.005 A 
HETATM    4  C10 UNL     1      -3.312   0.939  -1.930  1.00  0.00     0.032 A 
HETATM    5  C11 UNL     1      -3.257   0.553  -0.607  1.00  0.00     0.066 A 
HETATM    6  C12 UNL     1      -2.061   0.288   0.025  1.00  0.00     0.004 A 
HETATM    7  C13 UNL     1      -2.382  -0.099   1.442  1.00  0.00     0.049 C 
HETATM    8  C14 UNL     1      -2.764  -1.531   1.644  1.00  0.00     0.013 C 
HETATM    9  C15 UNL     1      -4.014  -1.033   2.355  1.00  0.00     0.029 C 
HETATM   10  C16 UNL     1      -3.800   0.314   1.671  1.00  0.00     0.123 C 
HETATM   11  N4  UNL     1      -4.315   0.359   0.316  1.00  0.00    -0.255 N 
ENDROOT
BRANCH   1  12
HETATM   12  N3  UNL     1       0.334   0.104   0.091  1.00  0.00    -0.308 N 
HETATM   13  C1  UNL     1       1.662   0.136  -0.336  1.00  0.00     0.326 C 
HETATM   14  O1  UNL     1       1.918   0.455  -1.503  1.00  0.00    -0.247 OA
HETATM   15  N1  UNL     1       2.782  -0.172   0.462  1.00  0.00    -0.293 N 
HETATM   16  H1  UNL     1       2.600  -0.451   1.472  1.00  0.00     0.172 HD
HETATM   17  H6  UNL     1       0.263  -0.182   1.101  1.00  0.00     0.170 HD
BRANCH  15  18
HETATM   18  C2  UNL     1       4.110  -0.117  -0.044  1.00  0.00     0.131 A 
HETATM   19  C3  UNL     1       5.158  -0.430   0.792  1.00  0.00     0.050 A 
HETATM   20  C4  UNL     1       6.431  -0.368   0.270  1.00  0.00     0.005 A 
HETATM   21  C5  UNL     1       6.608   0.005  -1.063  1.00  0.00     0.019 A 
HETATM   22  C6  UNL     1       5.537   0.309  -1.863  1.00  0.00     0.119 A 
HETATM   23  N2  UNL     1       4.288   0.239  -1.322  1.00  0.00    -0.243 NA
ENDBRANCH  15  18
ENDBRANCH   1  12
BRANCH  11  24
HETATM   24  O2  UNL     1      -5.634   0.225   0.091  1.00  0.00    -0.287 OA
HETATM   25  H16 UNL     1      -5.898   0.347  -0.848  1.00  0.00     0.244 HD
ENDBRANCH  11  24
TORSDOF 3
