REMARK  4 active torsions:
REMARK  status: ('A' for Active; 'I' for Inactive)
REMARK    1  A    between atoms: N1_1  and  C1_2 
REMARK    2  A    between atoms: C1_2  and  N2_3 
REMARK    3  A    between atoms: C1_2  and  C6_9 
REMARK    4  A    between atoms: N2_3  and  C2_4 
ROOT
HETATM    1  C6  UNL     1      -0.211   0.603   1.094  1.00  0.00     0.003 A 
HETATM    2  C7  UNL     1      -0.628   1.355   2.178  1.00  0.00     0.012 A 
HETATM    3  C8  UNL     1       0.183   2.295   2.782  1.00  0.00     0.002 A 
HETATM    4  C9  UNL     1       1.468   2.505   2.295  1.00  0.00     0.018 A 
HETATM    5  C10 UNL     1       1.849   1.735   1.209  1.00  0.00     0.041 A 
HETATM    6  C11 UNL     1       1.076   0.783   0.570  1.00  0.00    -0.009 A 
HETATM    7  C12 UNL     1       1.777   0.151  -0.525  1.00  0.00     0.122 A 
HETATM    8  C13 UNL     1       1.330   0.404  -1.916  1.00  0.00     0.032 C 
HETATM    9  C14 UNL     1       2.634   0.299  -2.726  1.00  0.00     0.022 C 
HETATM   10  C15 UNL     1       3.683   0.190  -1.639  1.00  0.00     0.127 C 
HETATM   11  N4  UNL     1       3.072   0.850  -0.508  1.00  0.00    -0.339 N 
HETATM   12  C16 UNL     1       3.159   1.806   0.533  1.00  0.00     0.255 A 
HETATM   13  O1  UNL     1       4.197   2.492   0.716  1.00  0.00    -0.267 OA
ENDROOT
BRANCH   1  14
HETATM   14  C1  UNL     1      -1.166  -0.380   0.523  1.00  0.00     0.350 C 
BRANCH  14  15
HETATM   15  N1  UNL     1      -2.506   0.185   0.373  1.00  0.00    -0.399 N 
HETATM   16  H1  UNL     1      -2.894   0.590   1.230  1.00  0.00     0.152 HD
HETATM   17  H2  UNL     1      -2.664   0.679  -0.507  1.00  0.00     0.152 HD
ENDBRANCH  14  15
BRANCH  14  18
HETATM   18  N2  UNL     1      -1.364  -1.518   1.402  1.00  0.00     0.138 N 
HETATM   19  H4  UNL     1      -1.808  -1.196   2.290  1.00  0.00     0.322 HD
BRANCH  18  20
HETATM   20  C2  UNL     1      -2.281  -2.431   0.764  1.00  0.00     0.367 A 
HETATM   21  C3  UNL     1      -3.609  -1.845   0.476  1.00  0.00     0.033 A 
HETATM   22  C4  UNL     1      -3.873  -1.943  -0.837  1.00  0.00     0.019 A 
HETATM   23  C5  UNL     1      -2.724  -2.594  -1.436  1.00  0.00     0.113 A 
HETATM   24  N3  UNL     1      -1.840  -2.863  -0.533  1.00  0.00    -0.262 NA
ENDBRANCH  18  20
ENDBRANCH  14  18
ENDBRANCH   1  14
TORSDOF 4
