REMARK  2 active torsions:
REMARK  status: ('A' for Active; 'I' for Inactive)
REMARK    1  A    between atoms: C4_4  and  N1_5 
REMARK       I    between atoms: N1_5  and  C5_6 
REMARK       I    between atoms: C5_6  and  N2_8 
REMARK    2  A    between atoms: N2_8  and  C6_9 
ROOT
HETATM    1  C1  UNL     1      -2.446   0.704  -2.647  1.00  0.00     0.040 C 
HETATM    2  C2  UNL     1      -1.226   0.124  -2.093  1.00  0.00    -0.086 C 
HETATM    3  C3  UNL     1      -0.922   0.689  -0.756  1.00  0.00     0.100 A 
HETATM    4  C4  UNL     1       0.113   0.754   0.358  1.00  0.00     0.094 A 
HETATM    5  C9  UNL     1       0.141   0.101  -0.722  1.00  0.00     0.077 A 
HETATM    6  C10 UNL     1       0.052  -0.762  -2.024  1.00  0.00     0.049 C 
HETATM    7  C11 UNL     1      -1.353  -0.747  -0.235  1.00  0.00     0.319 A 
HETATM    8  O2  UNL     1      -2.298  -1.767  -0.527  1.00  0.00    -0.192 OA
HETATM    9  N4  UNL     1      -2.005  -0.325   1.036  1.00  0.00     0.135 N 
HETATM   10  C12 UNL     1      -2.646   0.299   2.159  1.00  0.00     0.277 C 
HETATM   11  C13 UNL     1      -3.868   1.025   1.531  1.00  0.00     0.033 C 
HETATM   12  C14 UNL     1      -3.382   1.238   0.048  1.00  0.00     0.039 C 
HETATM   13  C15 UNL     1      -1.973   1.106   0.305  1.00  0.00     0.246 C 
ENDROOT
BRANCH   4  14
HETATM   14  N1  UNL     1       1.553   0.456   0.735  1.00  0.00    -0.329 N 
HETATM   15  C5  UNL     1       2.800  -0.148   0.490  1.00  0.00     0.322 C 
HETATM   16  O1  UNL     1       2.817  -0.821  -0.601  1.00  0.00    -0.247 OA
HETATM   17  N2  UNL     1       3.881  -0.021   1.341  1.00  0.00    -0.293 N 
HETATM   18  H5  UNL     1       3.697   0.553   2.164  1.00  0.00     0.172 HD
HETATM   19  H4  UNL     1       1.587   1.044   1.633  1.00  0.00     0.165 HD
BRANCH  17  20
HETATM   20  C6  UNL     1       4.980  -0.742   0.821  1.00  0.00     0.132 A 
HETATM   21  C7  UNL     1       5.405  -1.492  -0.150  1.00  0.00     0.070 A 
HETATM   22  C8  UNL     1       6.675  -1.541   0.526  1.00  0.00     0.122 A 
HETATM   23  N3  UNL     1       6.229  -0.786   1.492  1.00  0.00    -0.243 NA
ENDBRANCH  17  20
ENDBRANCH   4  14
TORSDOF 2
