REMARK  3 active torsions:
REMARK  status: ('A' for Active; 'I' for Inactive)
REMARK    1  A    between atoms: C3_3  and  C4_4 
REMARK    2  A    between atoms: C5_5  and  N1_7 
REMARK       I    between atoms: N2_11  and  C9_12 
REMARK       I    between atoms: C9_12  and  N3_14 
REMARK    3  A    between atoms: N3_14  and  C10_15 
ROOT
HETATM    1  N1  UNL     1      -1.011   1.228  -0.768  1.00  0.00    -0.259 N 
HETATM    2  C6  UNL     1      -1.881   2.362  -1.122  1.00  0.00     0.180 A 
HETATM    3  C7  UNL     1      -0.946   3.484  -1.210  1.00  0.00     0.014 A 
HETATM    4  C8  UNL     1       0.269   3.038  -0.944  1.00  0.00     0.119 A 
HETATM    5  N2  UNL     1       0.285   1.648  -0.664  1.00  0.00    -0.213 N 
HETATM    6  C9  UNL     1       1.543   1.083  -0.368  1.00  0.00     0.347 C 
HETATM    7  O2  UNL     1       2.599   1.771  -0.352  1.00  0.00    -0.245 OA
HETATM    8  N3  UNL     1       1.847  -0.252  -0.057  1.00  0.00    -0.291 N 
HETATM    9  H12 UNL     1       1.076  -0.949  -0.029  1.00  0.00     0.172 HD
ENDROOT
BRANCH   1  10
HETATM   10  C5  UNL     1      -1.424  -0.090  -0.564  1.00  0.00     0.162 A 
HETATM   11  C4  UNL     1      -2.861  -0.403  -0.711  1.00  0.00     0.256 A 
HETATM   12  O1  UNL     1      -1.554  -1.279  -0.345  1.00  0.00    -0.327 OA
BRANCH  11  13
HETATM   13  C3  UNL     1      -3.208  -1.809  -0.455  1.00  0.00     0.000 C 
HETATM   14  C2  UNL     1      -4.045  -2.215   0.487  1.00  0.00    -0.033 C 
HETATM   15  C1  UNL     1      -4.831  -1.475   1.494  1.00  0.00     0.036 C 
ENDBRANCH  11  13
ENDBRANCH   1  10
BRANCH   8  16
HETATM   16  C10 UNL     1       3.219  -0.584   0.209  1.00  0.00     0.131 A 
HETATM   17  C11 UNL     1       3.698  -0.505   1.518  1.00  0.00     0.050 A 
HETATM   18  C12 UNL     1       5.022  -0.826   1.773  1.00  0.00     0.005 A 
HETATM   19  C13 UNL     1       5.866  -1.221   0.734  1.00  0.00     0.019 A 
HETATM   20  C14 UNL     1       5.317  -1.277  -0.550  1.00  0.00     0.119 A 
HETATM   21  N4  UNL     1       4.027  -0.968  -0.822  1.00  0.00    -0.243 NA
ENDBRANCH   8  16
TORSDOF 3
