REMARK  2 active torsions:
REMARK  status: ('A' for Active; 'I' for Inactive)
REMARK       I    between atoms: C1_2  and  N1_3 
REMARK       I    between atoms: C1_2  and  N3_16 
REMARK    1  A    between atoms: N1_3  and  C2_4 
REMARK    2  A    between atoms: N3_16  and  C12_17 
ROOT
HETATM    1  C2  UNL     1      -0.540   0.328   1.159  1.00  0.00     0.026 C 
HETATM    2  C3  UNL     1      -0.288  -0.709   1.908  1.00  0.00    -0.005 C 
HETATM    3  C4  UNL     1      -0.876  -1.840   1.555  1.00  0.00    -0.003 C 
HETATM    4  C5  UNL     1      -1.826  -2.560   0.659  1.00  0.00     0.131 C 
HETATM    5  C6  UNL     1      -3.000  -1.725   0.282  1.00  0.00     0.223 C 
HETATM    6  O2  UNL     1      -4.050  -2.449   0.256  1.00  0.00    -0.273 OA
HETATM    7  N2  UNL     1      -3.333  -0.390  -0.057  1.00  0.00    -0.347 N 
HETATM    8  C7  UNL     1      -4.723   0.020  -0.187  1.00  0.00     0.126 C 
HETATM    9  C8  UNL     1      -4.632   1.067  -1.279  1.00  0.00     0.022 C 
HETATM   10  C9  UNL     1      -3.388   1.841  -0.822  1.00  0.00     0.027 C 
HETATM   11  C10 UNL     1      -2.473   0.772  -0.328  1.00  0.00     0.092 C 
HETATM   12  C11 UNL     1      -1.752   1.169   0.951  1.00  0.00     0.083 C 
ENDROOT
BRANCH   1  13
HETATM   13  N1  UNL     1       0.578   0.741   0.380  1.00  0.00    -0.312 N 
HETATM   14  C1  UNL     1       1.789   0.035   0.478  1.00  0.00     0.323 C 
HETATM   15  O1  UNL     1       1.926  -0.952   1.231  1.00  0.00    -0.247 OA
HETATM   16  N3  UNL     1       2.887   0.469  -0.312  1.00  0.00    -0.298 N 
HETATM   17  H14 UNL     1       2.811   1.300  -0.961  1.00  0.00     0.168 HD
HETATM   18  H1  UNL     1       0.469   1.565  -0.251  1.00  0.00     0.170 HD
BRANCH  16  19
HETATM   19  C12 UNL     1       4.168  -0.231  -0.246  1.00  0.00     0.360 A 
HETATM   20  N4  UNL     1       4.535  -0.828  -1.468  1.00  0.00    -0.250 NA
HETATM   21  C13 UNL     1       5.661  -0.627  -2.025  1.00  0.00     0.117 A 
HETATM   22  C14 UNL     1       6.713   0.213  -1.523  1.00  0.00     0.043 A 
HETATM   23  C15 UNL     1       6.364   0.767  -0.382  1.00  0.00     0.141 A 
HETATM   24  O3  UNL     1       5.172   0.591   0.266  1.00  0.00    -0.318 OA
ENDBRANCH  16  19
ENDBRANCH   1  13
TORSDOF 2
