REMARK  4 active torsions:
REMARK  status: ('A' for Active; 'I' for Inactive)
REMARK       I    between atoms: C1_2  and  N1_3 
REMARK       I    between atoms: C1_2  and  N3_10 
REMARK    1  A    between atoms: N1_3  and  C2_4 
REMARK    2  A    between atoms: N3_10  and  C7_11 
REMARK    3  A    between atoms: C10_15  and  C11_16 
REMARK    4  A    between atoms: C11_16  and  P1_17 
ROOT
HETATM    1  C7  UNL     1      -0.198  -1.153   0.622  1.00  0.00     0.116 C 
HETATM    2  C8  UNL     1      -0.414  -2.607   0.879  1.00  0.00     0.047 C 
HETATM    3  C9  UNL     1      -1.838  -2.823   0.346  1.00  0.00     0.127 C 
HETATM    4  N4  UNL     1      -2.390  -1.506   0.207  1.00  0.00    -0.362 N 
HETATM    5  C10 UNL     1      -3.573  -1.114  -0.475  1.00  0.00     0.078 C 
HETATM    6  C12 UNL     1      -4.096   0.218  -0.894  1.00  0.00     0.046 C 
HETATM    7  C13 UNL     1      -3.276   1.294  -0.684  1.00  0.00    -0.043 C 
HETATM    8  C14 UNL     1      -1.776   1.418  -0.792  1.00  0.00     0.035 C 
HETATM    9  C15 UNL     1      -1.743   0.866   0.459  1.00  0.00     0.041 C 
HETATM   10  N5  UNL     1      -2.003   1.753   1.599  1.00  0.00    -0.332 N 
HETATM   11  S1  UNL     1      -3.224   3.035   1.262  1.00  0.00    -0.051 SA
HETATM   12  C16 UNL     1      -4.125   2.488  -0.255  1.00  0.00     0.136 C 
HETATM   13  C17 UNL     1      -1.514  -0.555   0.903  1.00  0.00     0.158 C 
HETATM   14  H15 UNL     1      -1.464   1.549   2.485  1.00  0.00     0.174 HD
ENDROOT
BRANCH   1  15
HETATM   15  N3  UNL     1       0.912  -0.586   1.352  1.00  0.00    -0.336 N 
HETATM   16  C1  UNL     1       1.984  -0.036   0.570  1.00  0.00     0.322 C 
HETATM   17  O1  UNL     1       1.965  -0.044  -0.667  1.00  0.00    -0.247 OA
HETATM   18  N1  UNL     1       3.097   0.532   1.254  1.00  0.00    -0.293 N 
HETATM   19  H1  UNL     1       3.081   0.522   2.311  1.00  0.00     0.172 HD
HETATM   20  H6  UNL     1       0.887  -0.601   2.399  1.00  0.00     0.164 HD
BRANCH  18  21
HETATM   21  C2  UNL     1       4.199   1.097   0.532  1.00  0.00     0.131 A 
HETATM   22  C3  UNL     1       5.182   0.138   0.275  1.00  0.00     0.050 A 
HETATM   23  C4  UNL     1       6.331   0.473  -0.411  1.00  0.00     0.005 A 
HETATM   24  C5  UNL     1       6.536   1.766  -0.859  1.00  0.00     0.019 A 
HETATM   25  C6  UNL     1       5.514   2.650  -0.562  1.00  0.00     0.119 A 
HETATM   26  N2  UNL     1       4.391   2.356   0.100  1.00  0.00    -0.243 NA
ENDBRANCH  18  21
ENDBRANCH   1  15
BRANCH   5  27
HETATM   27  C11 UNL     1      -4.367  -2.095  -0.801  1.00  0.00    -0.093 C 
BRANCH  27  28
HETATM   28  P1  UNL     1      -5.507  -3.306  -0.784  1.00  0.00    -0.015 P 
HETATM   29  H12 UNL     1      -6.404  -3.342   0.385  1.00  0.00     0.076 HD
ENDBRANCH  27  28
ENDBRANCH   5  27
TORSDOF 4
