REMARK  0 active torsions:
REMARK  status: ('A' for Active; 'I' for Inactive)
ROOT
HETATM    1  O1  UNL     1       1.803   1.813   0.195  1.00  0.00    -0.101 OA
HETATM    2  C1  UNL     1       2.559   2.479   0.936  1.00  0.00     0.405 A 
HETATM    3  N1  UNL     1       3.530   1.662   1.543  1.00  0.00    -0.215 NA
HETATM    4  C2  UNL     1       3.512   0.354   1.495  1.00  0.00     0.100 C 
HETATM    5  C3  UNL     1       3.271  -1.093   1.300  1.00  0.00     0.040 C 
HETATM    6  C4  UNL     1       2.540  -2.114   0.797  1.00  0.00     0.000 C 
HETATM    7  C5  UNL     1       1.302  -2.487  -0.020  1.00  0.00     0.008 C 
HETATM    8  C6  UNL     1       0.704  -1.150  -0.373  1.00  0.00     0.030 C 
HETATM    9  C7  UNL     1      -0.515  -1.110  -1.183  1.00  0.00     0.121 A 
HETATM   10  N2  UNL     1      -1.067  -2.401  -1.401  1.00  0.00    -0.348 N 
HETATM   11  C8  UNL     1      -2.464  -2.330  -1.113  1.00  0.00     0.252 A 
HETATM   12  O2  UNL     1      -3.322  -3.253  -1.273  1.00  0.00    -0.268 OA
HETATM   13  C9  UNL     1      -2.808  -0.997  -0.585  1.00  0.00     0.042 A 
HETATM   14  C10 UNL     1      -3.992  -0.467  -0.121  1.00  0.00     0.018 A 
HETATM   15  C11 UNL     1      -4.008   0.815   0.387  1.00  0.00     0.003 A 
HETATM   16  C12 UNL     1      -2.768   1.471   0.377  1.00  0.00     0.030 A 
HETATM   17  C13 UNL     1      -1.543   0.965  -0.088  1.00  0.00     0.038 A 
HETATM   18  C14 UNL     1      -1.616  -0.319  -0.579  1.00  0.00     0.007 A 
HETATM   19  N3  UNL     1      -0.391   1.831   0.014  1.00  0.00    -0.364 N 
HETATM   20  C15 UNL     1       0.455   2.753  -0.680  1.00  0.00     0.406 C 
HETATM   21  N4  UNL     1       1.525   3.159   0.252  1.00  0.00     0.140 N 
HETATM   22  H9  UNL     1      -0.607  -3.281  -1.710  1.00  0.00     0.163 HD
HETATM   23  H13 UNL     1      -0.286   1.561   1.040  1.00  0.00     0.161 HD
HETATM   24  H16 UNL     1       1.591   4.200   0.514  1.00  0.00     0.332 HD
ENDROOT
TORSDOF 0
