REMARK  2 active torsions:
REMARK  status: ('A' for Active; 'I' for Inactive)
REMARK       I    between atoms: C1_2  and  N1_3 
REMARK       I    between atoms: C1_2  and  N3_10 
REMARK    1  A    between atoms: N1_3  and  C2_4 
REMARK    2  A    between atoms: N3_10  and  C7_11 
ROOT
HETATM    1  C7  UNL     1      -1.000  -1.486  -0.984  1.00  0.00     0.045 A 
HETATM    2  C8  UNL     1      -1.354  -2.791  -0.619  1.00  0.00     0.030 A 
HETATM    3  C9  UNL     1      -2.688  -3.131  -0.374  1.00  0.00     0.003 A 
HETATM    4  C10 UNL     1      -3.706  -2.193  -0.487  1.00  0.00     0.018 A 
HETATM    5  C11 UNL     1      -3.318  -0.907  -0.854  1.00  0.00     0.042 A 
HETATM    6  C12 UNL     1      -2.001  -0.575  -1.090  1.00  0.00     0.007 A 
HETATM    7  C13 UNL     1      -2.002   0.849  -1.331  1.00  0.00     0.125 C 
HETATM    8  C14 UNL     1      -1.723   1.420  -2.692  1.00  0.00     0.050 C 
HETATM    9  C15 UNL     1      -2.763   2.455  -2.157  1.00  0.00     0.129 C 
HETATM   10  N4  UNL     1      -3.407   1.237  -1.599  1.00  0.00    -0.339 N 
HETATM   11  C16 UNL     1      -4.263   0.194  -1.145  1.00  0.00     0.255 C 
HETATM   12  O2  UNL     1      -5.490   0.289  -1.054  1.00  0.00    -0.267 OA
ENDROOT
BRANCH   1  13
HETATM   13  N3  UNL     1       0.346  -1.116  -1.238  1.00  0.00    -0.308 N 
HETATM   14  C1  UNL     1       1.151  -0.639  -0.172  1.00  0.00     0.326 C 
HETATM   15  O1  UNL     1       0.600  -0.576   0.953  1.00  0.00    -0.247 OA
HETATM   16  N1  UNL     1       2.488  -0.228  -0.220  1.00  0.00    -0.293 N 
HETATM   17  H1  UNL     1       2.822  -0.328  -1.199  1.00  0.00     0.172 HD
HETATM   18  H6  UNL     1       0.819  -1.164  -2.178  1.00  0.00     0.170 HD
BRANCH  16  19
HETATM   19  C2  UNL     1       3.354   0.254   0.781  1.00  0.00     0.131 A 
HETATM   20  C3  UNL     1       3.079   0.446   2.110  1.00  0.00     0.050 A 
HETATM   21  C4  UNL     1       3.961   0.921   3.053  1.00  0.00     0.005 A 
HETATM   22  C5  UNL     1       5.231   1.230   2.624  1.00  0.00     0.019 A 
HETATM   23  C6  UNL     1       5.508   1.040   1.300  1.00  0.00     0.119 A 
HETATM   24  N2  UNL     1       4.603   0.573   0.432  1.00  0.00    -0.243 NA
ENDBRANCH  16  19
ENDBRANCH   1  13
TORSDOF 2
