REMARK  3 active torsions:
REMARK  status: ('A' for Active; 'I' for Inactive)
REMARK    1  A    between atoms: C5_6  and  C6_7 
REMARK    2  A    between atoms: C6_7  and  C7_8 
REMARK    3  A    between atoms: C7_8  and  O2_10 
ROOT
HETATM    1  C1  UNL     1      -0.927   3.198  -0.421  1.00  0.00     0.155 C 
HETATM    2  N1  UNL     1      -0.096   2.248   0.288  1.00  0.00    -0.361 N 
HETATM    3  C2  UNL     1       0.767   2.807   1.304  1.00  0.00     0.087 C 
HETATM    4  C3  UNL     1       1.945   2.264   1.666  1.00  0.00    -0.005 C 
HETATM    5  C4  UNL     1       2.732   1.114   1.290  1.00  0.00     0.063 C 
HETATM    6  C5  UNL     1       2.222   0.186   0.291  1.00  0.00    -0.065 C 
HETATM    7  C8  UNL     1       1.013   0.081  -0.291  1.00  0.00     0.034 C 
HETATM    8  C9  UNL     1      -0.195   0.887  -0.099  1.00  0.00     0.050 C 
HETATM    9  C10 UNL     1      -1.372   0.326  -0.204  1.00  0.00     0.067 C 
HETATM   10  C11 UNL     1      -2.774   0.684  -0.022  1.00  0.00     0.255 C 
HETATM   11  O3  UNL     1      -3.137   1.833   0.441  1.00  0.00    -0.268 OA
HETATM   12  N2  UNL     1      -3.723  -0.362  -0.404  1.00  0.00    -0.345 N 
HETATM   13  C12 UNL     1      -2.822  -1.425  -0.018  1.00  0.00     0.142 A 
HETATM   14  C13 UNL     1      -3.116  -2.767  -0.474  1.00  0.00     0.003 A 
HETATM   15  C14 UNL     1      -2.152  -3.100  -1.308  1.00  0.00    -0.001 A 
HETATM   16  C15 UNL     1      -1.149  -2.067  -1.507  1.00  0.00     0.010 A 
HETATM   17  C16 UNL     1      -1.546  -1.041  -0.737  1.00  0.00    -0.014 A 
HETATM   18  H12 UNL     1      -4.677  -0.111  -0.801  1.00  0.00     0.163 HD
ENDROOT
BRANCH   6  19
HETATM   19  C6  UNL     1       3.236  -0.806  -0.150  1.00  0.00     0.144 C 
BRANCH  19  20
HETATM   20  C7  UNL     1       2.713  -1.734  -1.170  1.00  0.00     0.143 C 
HETATM   21  O1  UNL     1       2.669  -1.395  -2.404  1.00  0.00    -0.650 OA
BRANCH  20  22
HETATM   22  O2  UNL     1       2.239  -3.012  -0.898  1.00  0.00    -0.776 OA
HETATM   23  H10 UNL     1       1.955  -3.676  -1.624  1.00  0.00     0.167 HD
ENDBRANCH  20  22
ENDBRANCH  19  20
ENDBRANCH   6  19
TORSDOF 3
