REMARK  4 active torsions:
REMARK  status: ('A' for Active; 'I' for Inactive)
REMARK    1  A    between atoms: C2_2  and  C3_3 
REMARK    2  A    between atoms: C3_3  and  N1_4 
REMARK    3  A    between atoms: C6_7  and  C7_8 
REMARK       I    between atoms: C7_8  and  N2_10 
REMARK    4  A    between atoms: N2_10  and  C8_11 
ROOT
HETATM    1  N1  UNL     1      -2.704  -0.017   0.924  1.00  0.00    -0.344 N 
HETATM    2  C4  UNL     1      -1.309   0.304   0.621  1.00  0.00     0.166 A 
HETATM    3  C5  UNL     1      -0.622  -1.014   0.597  1.00  0.00    -0.009 A 
HETATM    4  C6  UNL     1       0.702  -1.324   0.360  1.00  0.00     0.041 A 
HETATM    5  C13 UNL     1       1.095  -2.665   0.401  1.00  0.00     0.018 A 
HETATM    6  C14 UNL     1       0.220  -3.678   0.665  1.00  0.00     0.002 A 
HETATM    7  C15 UNL     1      -1.099  -3.343   0.899  1.00  0.00     0.018 A 
HETATM    8  C16 UNL     1      -1.526  -2.031   0.867  1.00  0.00     0.041 A 
HETATM    9  C17 UNL     1      -2.840  -1.434   1.076  1.00  0.00     0.254 A 
HETATM   10  O2  UNL     1      -3.872  -2.088   1.338  1.00  0.00    -0.267 OA
ENDROOT
BRANCH   4  11
HETATM   11  C7  UNL     1       1.749  -0.335   0.057  1.00  0.00     0.257 C 
HETATM   12  O1  UNL     1       2.522  -0.695  -0.901  1.00  0.00    -0.267 OA
HETATM   13  N2  UNL     1       2.064   0.929   0.617  1.00  0.00    -0.307 N 
HETATM   14  H10 UNL     1       1.415   1.179   1.386  1.00  0.00     0.170 HD
BRANCH  13  15
HETATM   15  C8  UNL     1       3.210   1.381  -0.135  1.00  0.00     0.129 A 
HETATM   16  C9  UNL     1       3.204   2.112  -1.306  1.00  0.00     0.050 A 
HETATM   17  C10 UNL     1       4.451   2.410  -1.821  1.00  0.00     0.005 A 
HETATM   18  C11 UNL     1       5.602   1.990  -1.183  1.00  0.00     0.019 A 
HETATM   19  C12 UNL     1       5.562   1.258  -0.009  1.00  0.00     0.119 A 
HETATM   20  N3  UNL     1       4.334   0.959   0.508  1.00  0.00    -0.243 NA
ENDBRANCH  13  15
ENDBRANCH   4  11
BRANCH   1  21
HETATM   21  C3  UNL     1      -3.833   0.864   1.071  1.00  0.00     0.126 C 
BRANCH  21  22
HETATM   22  C2  UNL     1      -4.540   1.081  -0.243  1.00  0.00     0.015 C 
HETATM   23  C1  UNL     1      -3.606   1.703  -1.262  1.00  0.00     0.006 C 
ENDBRANCH  21  22
ENDBRANCH   1  21
TORSDOF 4
