REMARK  2 active torsions:
REMARK  status: ('A' for Active; 'I' for Inactive)
REMARK       I    between atoms: C1_2  and  N1_3 
REMARK       I    between atoms: C1_2  and  N5_17 
REMARK    1  A    between atoms: N1_3  and  C2_4 
REMARK    2  A    between atoms: N5_17  and  C11_18 
ROOT
HETATM    1  C2  UNL     1      -0.348   0.341   0.078  1.00  0.00     0.107 C 
HETATM    2  C3  UNL     1      -0.411   1.578  -0.467  1.00  0.00     0.048 C 
HETATM    3  C4  UNL     1      -1.452   2.555  -0.856  1.00  0.00     0.000 C 
HETATM    4  C5  UNL     1      -2.768   2.840  -0.903  1.00  0.00    -0.017 C 
HETATM    5  C6  UNL     1      -4.200   2.402  -0.597  1.00  0.00     0.130 C 
HETATM    6  C7  UNL     1      -4.026   1.079   0.036  1.00  0.00     0.226 C 
HETATM    7  O2  UNL     1      -2.926   1.115  -0.428  1.00  0.00    -0.273 OA
HETATM    8  N2  UNL     1      -3.887  -0.161   0.640  1.00  0.00    -0.304 N 
HETATM    9  C8  UNL     1      -4.712  -1.106   1.310  1.00  0.00     0.160 C 
HETATM   10  C9  UNL     1      -4.442  -2.443   0.586  1.00  0.00     0.294 C 
HETATM   11  N3  UNL     1      -3.125  -2.215   0.052  1.00  0.00     0.127 N 
HETATM   12  C10 UNL     1      -2.700  -1.066   0.753  1.00  0.00     0.430 C 
HETATM   13  N4  UNL     1      -1.529  -0.392   0.347  1.00  0.00    -0.331 N 
HETATM   14  H11 UNL     1      -2.498  -3.011   0.100  1.00  0.00     0.321 HD
HETATM   15  H13 UNL     1      -1.460  -0.713  -0.646  1.00  0.00     0.165 HD
ENDROOT
BRANCH   1  16
HETATM   16  N1  UNL     1       0.850  -0.353   0.350  1.00  0.00    -0.295 N 
HETATM   17  C1  UNL     1       2.222  -0.115   0.145  1.00  0.00     0.327 C 
HETATM   18  O1  UNL     1       2.383   0.940  -0.465  1.00  0.00    -0.247 OA
HETATM   19  N5  UNL     1       3.280  -0.948   0.575  1.00  0.00    -0.293 N 
HETATM   20  H14 UNL     1       2.945  -1.792   1.070  1.00  0.00     0.172 HD
HETATM   21  H1  UNL     1       0.708  -1.300   0.831  1.00  0.00     0.172 HD
BRANCH  19  22
HETATM   22  C11 UNL     1       4.637  -0.658   0.352  1.00  0.00     0.131 A 
HETATM   23  C12 UNL     1       5.174   0.310  -0.437  1.00  0.00     0.050 A 
HETATM   24  C13 UNL     1       6.545   0.532  -0.523  1.00  0.00     0.005 A 
HETATM   25  C14 UNL     1       7.326  -0.292   0.241  1.00  0.00     0.019 A 
HETATM   26  C15 UNL     1       6.820  -1.303   1.071  1.00  0.00     0.119 A 
HETATM   27  N6  UNL     1       5.479  -1.412   1.062  1.00  0.00    -0.243 NA
ENDBRANCH  19  22
ENDBRANCH   1  16
TORSDOF 2
