REMARK  8 active torsions:
REMARK  status: ('A' for Active; 'I' for Inactive)
REMARK    1  A    between atoms: C4_4  and  C5_5 
REMARK    2  A    between atoms: C5_5  and  C6_6 
REMARK    3  A    between atoms: C6_6  and  O2_8 
REMARK    4  A    between atoms: C7_9  and  C8_10 
REMARK    5  A    between atoms: C9_11  and  C10_12 
REMARK    6  A    between atoms: C10_12  and  N1_13 
REMARK    7  A    between atoms: C10_12  and  N2_14 
REMARK    8  A    between atoms: N2_14  and  C11_15 
ROOT
HETATM    1  C10 UNL     1      -1.010   0.316   0.190  1.00  0.00     0.318 C 
ENDROOT
BRANCH   1   2
HETATM    2  C9  UNL     1       0.044   0.195  -0.817  1.00  0.00     0.024 C 
HETATM    3  C8  UNL     1       1.260   0.542  -1.079  1.00  0.00     0.012 C 
BRANCH   3   4
HETATM    4  C7  UNL     1       2.284   1.344  -0.360  1.00  0.00    -0.024 A 
HETATM    5  C2  UNL     1       2.320   2.066   0.894  1.00  0.00    -0.051 A 
HETATM    6  C1  UNL     1       1.558   2.433   2.079  1.00  0.00     0.049 C 
HETATM    7  C3  UNL     1       3.590   2.398   0.583  1.00  0.00     0.016 A 
HETATM    8  C4  UNL     1       3.532   1.668  -0.672  1.00  0.00    -0.037 A 
BRANCH   8   9
HETATM    9  C5  UNL     1       4.494   1.452  -1.757  1.00  0.00     0.149 C 
BRANCH   9  10
HETATM   10  C6  UNL     1       5.713   0.757  -1.230  1.00  0.00     0.143 C 
HETATM   11  O1  UNL     1       6.631   0.465  -2.031  1.00  0.00    -0.650 OA
BRANCH  10  12
HETATM   12  O2  UNL     1       5.761   0.465   0.153  1.00  0.00    -0.776 OA
HETATM   13  H7  UNL     1       6.252  -0.409   0.388  1.00  0.00     0.167 HD
ENDBRANCH  10  12
ENDBRANCH   9  10
ENDBRANCH   8   9
ENDBRANCH   3   4
ENDBRANCH   1   2
BRANCH   1  14
HETATM   14  N1  UNL     1      -0.337  -0.082   1.520  1.00  0.00     0.100 N 
HETATM   15  H11 UNL     1      -0.095  -1.077   1.310  1.00  0.00     0.315 HD
HETATM   16  H12 UNL     1      -1.146  -0.106   2.173  1.00  0.00     0.315 HD
ENDBRANCH   1  14
BRANCH   1  17
HETATM   17  N2  UNL     1      -2.118  -0.561   0.191  1.00  0.00    -0.260 NA
HETATM   18  H13 UNL     1      -2.012  -0.177  -0.759  1.00  0.00     0.130 HD
BRANCH  17  19
HETATM   19  C11 UNL     1      -3.207  -1.203  -0.520  1.00  0.00     0.017 A 
HETATM   20  C12 UNL     1      -3.834  -1.371  -1.721  1.00  0.00     0.024 A 
HETATM   21  C13 UNL     1      -4.917  -2.136  -2.015  1.00  0.00     0.002 A 
HETATM   22  C14 UNL     1      -5.367  -2.785  -0.893  1.00  0.00     0.008 A 
HETATM   23  C15 UNL     1      -4.929  -2.786   0.389  1.00  0.00    -0.045 A 
HETATM   24  C16 UNL     1      -3.809  -1.957   0.553  1.00  0.00    -0.026 A 
HETATM   25  C17 UNL     1      -4.391  -2.726   1.741  1.00  0.00     0.080 A 
ENDBRANCH  17  19
ENDBRANCH   1  17
TORSDOF 8
