REMARK  3 active torsions:
REMARK  status: ('A' for Active; 'I' for Inactive)
REMARK    1  A    between atoms: C7_11  and  N4_12 
REMARK    2  A    between atoms: N4_12  and  C8_13 
REMARK    3  A    between atoms: C8_13  and  C9_14 
ROOT
HETATM    1  C1  UNL     1       7.986   0.892  -0.488  1.00  0.00     0.017 C 
HETATM    2  C2  UNL     1       6.855   0.983  -0.069  1.00  0.00    -0.087 C 
HETATM    3  C3  UNL     1       5.510   1.111   0.448  1.00  0.00     0.096 C 
HETATM    4  C4  UNL     1       4.599   0.280  -0.051  1.00  0.00     0.067 C 
HETATM    5  O1  UNL     1       4.535  -0.740  -0.980  1.00  0.00    -0.325 OA
HETATM    6  C5  UNL     1       3.162  -0.420  -1.190  1.00  0.00     0.284 C 
HETATM    7  N1  UNL     1       2.936   0.583  -2.204  1.00  0.00    -0.158 NA
HETATM    8  N2  UNL     1       1.756   1.113  -2.177  1.00  0.00    -0.146 NA
HETATM    9  C6  UNL     1       0.855   0.630  -1.154  1.00  0.00     0.259 C 
HETATM   10  N3  UNL     1       0.506  -0.470  -0.566  1.00  0.00    -0.222 NA
HETATM   11  C7  UNL     1      -0.461  -0.535   0.441  1.00  0.00     0.140 C 
HETATM   12  C15 UNL     1       0.231  -0.671   1.559  1.00  0.00     0.133 C 
HETATM   13  N5  UNL     1       1.609  -0.751   1.863  1.00  0.00    -0.395 N 
HETATM   14  C16 UNL     1       2.832  -1.041   1.156  1.00  0.00     0.135 C 
HETATM   15  C17 UNL     1       3.138   0.085   0.202  1.00  0.00     0.113 C 
HETATM   16  H14 UNL     1       1.795  -0.531   2.892  1.00  0.00     0.159 HD
ENDROOT
BRANCH  11  17
HETATM   17  N4  UNL     1      -1.851  -0.470   0.314  1.00  0.00    -0.369 N 
HETATM   18  H5  UNL     1      -1.942   0.485  -0.150  1.00  0.00     0.161 HD
BRANCH  17  19
HETATM   19  C8  UNL     1      -3.010  -1.274   0.624  1.00  0.00     0.160 C 
BRANCH  19  20
HETATM   20  C9  UNL     1      -4.226  -0.511   0.165  1.00  0.00    -0.041 A 
HETATM   21  C10 UNL     1      -4.816  -0.578  -1.073  1.00  0.00     0.009 A 
HETATM   22  C11 UNL     1      -5.928   0.193  -1.341  1.00  0.00     0.001 A 
HETATM   23  C12 UNL     1      -6.486   1.044  -0.411  1.00  0.00     0.000 A 
HETATM   24  C13 UNL     1      -5.926   1.139   0.835  1.00  0.00     0.001 A 
HETATM   25  C14 UNL     1      -4.806   0.356   1.090  1.00  0.00     0.009 A 
ENDBRANCH  19  20
ENDBRANCH  17  19
ENDBRANCH  11  17
TORSDOF 3
