REMARK  6 active torsions:
REMARK  status: ('A' for Active; 'I' for Inactive)
REMARK    1  A    between atoms: C2_2  and  C3_3 
REMARK    2  A    between atoms: C3_3  and  C4_4 
REMARK    3  A    between atoms: C4_4  and  C5_5 
REMARK    4  A    between atoms: C11_13  and  C12_14 
REMARK    5  A    between atoms: C12_14  and  C13_15 
REMARK    6  A    between atoms: N2_19  and  C15_20 
ROOT
HETATM    1  C5  UNL     1       2.409   1.396  -1.227  1.00  0.00     0.030 C 
HETATM    2  C6  UNL     1       1.258   1.997  -1.318  1.00  0.00     0.053 A 
HETATM    3  N1  UNL     1       0.991   3.146  -2.107  1.00  0.00    -0.322 N 
HETATM    4  C7  UNL     1      -0.318   3.024  -1.594  1.00  0.00     0.260 A 
HETATM    5  O1  UNL     1      -1.165   3.873  -1.970  1.00  0.00    -0.267 OA
HETATM    6  C8  UNL     1      -0.074   1.856  -0.784  1.00  0.00     0.085 A 
HETATM    7  C9  UNL     1      -0.811   1.104  -0.027  1.00  0.00     0.049 A 
HETATM    8  C10 UNL     1      -0.389  -0.102   0.649  1.00  0.00     0.035 A 
HETATM    9  C11 UNL     1      -1.316  -0.689   1.348  1.00  0.00    -0.054 A 
HETATM   10  C14 UNL     1      -2.587   0.040   1.155  1.00  0.00     0.157 A 
HETATM   11  N2  UNL     1      -2.168   1.208   0.360  1.00  0.00    -0.376 N 
HETATM   12  H9  UNL     1       1.547   3.774  -2.764  1.00  0.00     0.169 HD
ENDROOT
BRANCH  11  13
HETATM   13  C15 UNL     1      -3.132   2.222   0.116  1.00  0.00     0.119 C 
HETATM   14  C16 UNL     1      -4.248   1.796  -0.839  1.00  0.00     0.026 C 
ENDBRANCH  11  13
BRANCH   9  15
HETATM   15  C12 UNL     1      -1.445  -1.886   2.205  1.00  0.00     0.106 C 
BRANCH  15  16
HETATM   16  C13 UNL     1      -2.473  -2.779   1.628  1.00  0.00     0.121 A 
HETATM   17  O2  UNL     1      -3.696  -2.522   1.584  1.00  0.00    -0.194 OA
HETATM   18  O3  UNL     1      -3.160  -3.813   1.030  1.00  0.00     0.000 OA
HETATM   19  H13 UNL     1      -2.784  -4.403   0.276  1.00  0.00     0.000 HD
ENDBRANCH  15  16
ENDBRANCH   9  15
BRANCH   1  20
HETATM   20  C4  UNL     1       3.226   0.380  -0.713  1.00  0.00    -0.002 C 
BRANCH  20  21
HETATM   21  C3  UNL     1       4.286  -0.349  -0.495  1.00  0.00    -0.027 C 
BRANCH  21  22
HETATM   22  C2  UNL     1       4.430  -1.527   0.357  1.00  0.00     0.022 C 
HETATM   23  C1  UNL     1       4.866  -2.729  -0.460  1.00  0.00     0.009 C 
ENDBRANCH  21  22
ENDBRANCH  20  21
ENDBRANCH   1  20
TORSDOF 6
