REMARK  3 active torsions:
REMARK  status: ('A' for Active; 'I' for Inactive)
REMARK    1  A    between atoms: C2_2  and  N1_3 
REMARK    2  A    between atoms: C5_6  and  N2_7 
REMARK    3  A    between atoms: N2_7  and  C6_8 
ROOT
HETATM    1  C6  UNL     1       0.581   0.873   0.535  1.00  0.00     0.314 C 
HETATM    2  C7  UNL     1       0.877   1.765   1.759  1.00  0.00     0.153 C 
HETATM    3  N3  UNL     1       1.992   2.361   1.497  1.00  0.00    -0.187 NA
HETATM    4  N4  UNL     1       2.996   1.798   0.713  1.00  0.00    -0.276 N 
HETATM    5  C8  UNL     1       3.045   0.546   0.072  1.00  0.00     0.140 C 
HETATM    6  C9  UNL     1       1.885   0.133   0.482  1.00  0.00     0.065 C 
HETATM    7  N5  UNL     1       2.222  -1.171   0.943  1.00  0.00    -0.366 N 
HETATM    8  C10 UNL     1       3.527  -1.646   1.289  1.00  0.00     0.088 C 
HETATM    9  C11 UNL     1       4.723  -1.038   1.392  1.00  0.00     0.017 C 
HETATM   10  C12 UNL     1       5.444   0.221   1.277  1.00  0.00    -0.001 C 
HETATM   11  C13 UNL     1       5.287   1.521   0.999  1.00  0.00    -0.005 C 
HETATM   12  C14 UNL     1       4.249   2.569   0.625  1.00  0.00     0.177 C 
HETATM   13  H15 UNL     1       1.369  -1.752   1.003  1.00  0.00     0.165 HD
ENDROOT
BRANCH   1  14
HETATM   14  N2  UNL     1      -0.521   0.020   0.775  1.00  0.00     0.103 N 
HETATM   15  H11 UNL     1      -1.344   0.545   1.122  1.00  0.00     0.317 HD
BRANCH  14  16
HETATM   16  C5  UNL     1      -0.902  -0.679  -0.423  1.00  0.00     0.225 C 
HETATM   17  C4  UNL     1      -2.004  -1.700  -0.133  1.00  0.00     0.066 C 
HETATM   18  C3  UNL     1      -2.722  -1.968  -1.432  1.00  0.00     0.274 C 
HETATM   19  N1  UNL     1      -3.581  -0.863  -1.817  1.00  0.00     0.088 N 
HETATM   20  C16 UNL     1      -3.000   0.366  -1.306  1.00  0.00     0.274 C 
HETATM   21  C15 UNL     1      -1.482   0.251  -1.467  1.00  0.00     0.066 C 
BRANCH  19  22
HETATM   22  C2  UNL     1      -4.903  -0.992  -1.216  1.00  0.00     0.268 C 
HETATM   23  C1  UNL     1      -5.740   0.183  -1.658  1.00  0.00     0.037 C 
ENDBRANCH  19  22
ENDBRANCH  14  16
ENDBRANCH   1  14
TORSDOF 3
