REMARK  4 active torsions:
REMARK  status: ('A' for Active; 'I' for Inactive)
REMARK    1  A    between atoms: C6_7  and  C7_8 
REMARK    2  A    between atoms: N3_11  and  C9_12 
REMARK    3  A    between atoms: C9_12  and  C10_13 
REMARK    4  A    between atoms: C10_13  and  N4_14 
ROOT
HETATM    1  C7  UNL     1      -1.516  -0.876  -0.446  1.00  0.00     0.030 A 
HETATM    2  C8  UNL     1      -1.156  -2.250  -0.207  1.00  0.00     0.154 A 
HETATM    3  N2  UNL     1       0.108  -2.418   0.336  1.00  0.00    -0.184 NA
HETATM    4  N3  UNL     1       0.609  -1.202   0.467  1.00  0.00    -0.279 N 
HETATM    5  C15 UNL     1      -0.322  -0.364   0.022  1.00  0.00     0.127 A 
ENDROOT
BRANCH   1   6
HETATM    6  C6  UNL     1      -2.909  -0.792  -1.024  1.00  0.00     0.089 C 
HETATM    7  N1  UNL     1      -2.435   0.399  -1.545  1.00  0.00    -0.243 NA
HETATM    8  C5  UNL     1      -3.091   1.449  -1.352  1.00  0.00     0.098 C 
HETATM    9  C4  UNL     1      -2.948   1.835  -0.109  1.00  0.00     0.004 C 
HETATM   10  C3  UNL     1      -3.283   0.894   0.730  1.00  0.00    -0.007 C 
HETATM   11  C2  UNL     1      -4.588   0.398   0.357  1.00  0.00     0.021 C 
HETATM   12  C1  UNL     1      -5.452   1.278  -0.545  1.00  0.00     0.015 C 
HETATM   13  C17 UNL     1      -5.008  -0.991   0.411  1.00  0.00     0.145 C 
HETATM   14  N6  UNL     1      -4.175  -1.885   1.191  1.00  0.00    -0.117 NA
HETATM   15  N5  UNL     1      -3.271  -2.496   0.383  1.00  0.00    -0.192 NA
HETATM   16  C16 UNL     1      -3.587  -1.921  -0.922  1.00  0.00     0.166 C 
ENDBRANCH   1   6
BRANCH   4  17
HETATM   17  C9  UNL     1       1.843  -0.673   0.975  1.00  0.00     0.180 C 
BRANCH  17  18
HETATM   18  C10 UNL     1       2.925  -0.576  -0.074  1.00  0.00     0.294 C 
BRANCH  18  19
HETATM   19  N4  UNL     1       4.167  -0.065   0.415  1.00  0.00     0.094 N 
HETATM   20  C11 UNL     1       4.067   1.323   0.771  1.00  0.00     0.298 C 
HETATM   21  C12 UNL     1       5.443   1.999   0.661  1.00  0.00     0.198 C 
HETATM   22  O1  UNL     1       5.772   2.058  -0.671  1.00  0.00    -0.388 OA
HETATM   23  C13 UNL     1       5.457   0.941  -1.401  1.00  0.00     0.198 C 
HETATM   24  C14 UNL     1       5.201  -0.291  -0.566  1.00  0.00     0.298 C 
ENDBRANCH  18  19
ENDBRANCH  17  18
ENDBRANCH   4  17
TORSDOF 4
