REMARK  6 active torsions:
REMARK  status: ('A' for Active; 'I' for Inactive)
REMARK    1  A    between atoms: N1_1  and  C1_2 
REMARK    2  A    between atoms: C2_3  and  C3_4 
REMARK    3  A    between atoms: C4_6  and  C5_7 
REMARK    4  A    between atoms: N4_10  and  C7_11 
REMARK    5  A    between atoms: C7_11  and  C8_12 
REMARK    6  A    between atoms: C8_12  and  N5_13 
ROOT
HETATM    1  C5  UNL     1       1.256   0.113   0.441  1.00  0.00     0.030 A 
HETATM    2  C6  UNL     1       0.821   1.423   0.331  1.00  0.00     0.154 A 
HETATM    3  N3  UNL     1      -0.498   1.433   0.629  1.00  0.00    -0.184 NA
HETATM    4  N4  UNL     1      -0.905   0.209   0.916  1.00  0.00    -0.279 N 
HETATM    5  C13 UNL     1       0.150  -0.614   0.808  1.00  0.00     0.127 A 
ENDROOT
BRANCH   1   6
HETATM    6  C4  UNL     1       2.613  -0.365   0.209  1.00  0.00     0.085 A 
HETATM    7  N2  UNL     1       3.628   0.550  -0.167  1.00  0.00    -0.249 NA
HETATM    8  C3  UNL     1       4.863   0.199  -0.390  1.00  0.00     0.054 A 
HETATM    9  C15 UNL     1       5.336  -1.203  -0.266  1.00  0.00     0.178 A 
HETATM   10  N6  UNL     1       4.202  -2.021   0.112  1.00  0.00    -0.391 N 
HETATM   11  C14 UNL     1       2.853  -1.655   0.361  1.00  0.00     0.116 A 
HETATM   12  H20 UNL     1       4.532  -3.011   0.187  1.00  0.00     0.159 HD
BRANCH   8  13
HETATM   13  C2  UNL     1       5.772   1.255  -0.766  1.00  0.00     0.045 C 
HETATM   14  C1  UNL     1       7.046   1.060  -1.026  1.00  0.00     0.082 C 
BRANCH  14  15
HETATM   15  N1  UNL     1       7.650  -0.213  -0.962  1.00  0.00    -0.408 N 
HETATM   16  H1  UNL     1       8.592  -0.448  -0.561  1.00  0.00     0.155 HD
HETATM   17  H2  UNL     1       8.065  -1.162  -0.931  1.00  0.00     0.155 HD
ENDBRANCH  14  15
ENDBRANCH   8  13
ENDBRANCH   1   6
BRANCH   4  18
HETATM   18  C7  UNL     1      -2.286  -0.068   1.274  1.00  0.00     0.180 C 
BRANCH  18  19
HETATM   19  C8  UNL     1      -3.125  -0.389   0.073  1.00  0.00     0.294 C 
BRANCH  19  20
HETATM   20  N5  UNL     1      -4.515  -0.672   0.391  1.00  0.00     0.094 N 
HETATM   21  C9  UNL     1      -5.234  -0.968  -0.833  1.00  0.00     0.298 C 
HETATM   22  C10 UNL     1      -5.671   0.344  -1.429  1.00  0.00     0.198 C 
HETATM   23  O1  UNL     1      -6.615   1.009  -0.670  1.00  0.00    -0.388 OA
HETATM   24  C11 UNL     1      -6.482   0.767   0.691  1.00  0.00     0.198 C 
HETATM   25  C12 UNL     1      -5.059   0.463   1.087  1.00  0.00     0.298 C 
ENDBRANCH  19  20
ENDBRANCH  18  19
ENDBRANCH   4  18
TORSDOF 6
