REMARK  6 active torsions:
REMARK  status: ('A' for Active; 'I' for Inactive)
REMARK    1  A    between atoms: C2_2  and  N1_3 
REMARK    2  A    between atoms: C5_6  and  N2_7 
REMARK    3  A    between atoms: C7_9  and  C8_10 
REMARK    4  A    between atoms: C10_13  and  N4_14 
REMARK    5  A    between atoms: C11_15  and  C12_16 
REMARK    6  A    between atoms: C13_17  and  N5_18 
ROOT
HETATM    1  C8  UNL     1       1.494  -0.213   0.616  1.00  0.00     0.088 A 
HETATM    2  C9  UNL     1       1.294   0.366   1.855  1.00  0.00     0.151 A 
HETATM    3  N3  UNL     1       2.385   0.752   2.540  1.00  0.00    -0.245 NA
HETATM    4  C10 UNL     1       3.602   0.563   2.003  1.00  0.00     0.128 A 
HETATM    5  C11 UNL     1       3.823  -0.011   0.770  1.00  0.00     0.114 A 
HETATM    6  N7  UNL     1       2.716  -0.393   0.095  1.00  0.00    -0.245 NA
ENDROOT
BRANCH   1   7
HETATM    7  C7  UNL     1       0.285  -0.625  -0.111  1.00  0.00     0.030 A 
HETATM    8  C6  UNL     1      -1.038  -0.518   0.265  1.00  0.00     0.128 A 
HETATM    9  N2  UNL     1      -1.857  -1.008  -0.670  1.00  0.00    -0.275 N 
HETATM   10  N8  UNL     1      -1.109  -1.440  -1.664  1.00  0.00    -0.184 NA
HETATM   11  C17 UNL     1       0.206  -1.227  -1.367  1.00  0.00     0.154 A 
BRANCH   9  12
HETATM   12  C5  UNL     1      -3.320  -1.059  -0.610  1.00  0.00     0.112 C 
HETATM   13  C4  UNL     1      -3.907  -0.231  -1.732  1.00  0.00     0.047 C 
HETATM   14  C3  UNL     1      -5.385  -0.342  -1.692  1.00  0.00     0.119 C 
HETATM   15  N1  UNL     1      -6.026  -0.368  -0.442  1.00  0.00    -0.413 N 
HETATM   16  C19 UNL     1      -5.287  -0.575   0.734  1.00  0.00     0.119 C 
HETATM   17  C18 UNL     1      -3.804  -0.395   0.662  1.00  0.00     0.047 C 
BRANCH  15  18
HETATM   18  C2  UNL     1      -7.266   0.316  -0.349  1.00  0.00     0.112 C 
HETATM   19  C1  UNL     1      -7.821   0.168   1.049  1.00  0.00     0.026 C 
ENDBRANCH  15  18
ENDBRANCH   9  12
ENDBRANCH   1   7
BRANCH   5  20
HETATM   20  C12 UNL     1       5.170  -0.218   0.181  1.00  0.00     0.326 C 
HETATM   21  C13 UNL     1       6.057   0.946   0.307  1.00  0.00     0.040 C 
HETATM   22  C14 UNL     1       5.927   1.615  -0.848  1.00  0.00     0.030 C 
HETATM   23  C15 UNL     1       4.966   0.910  -1.738  1.00  0.00     0.302 C 
HETATM   24  N6  UNL     1       5.008  -0.441  -1.236  1.00  0.00     0.104 N 
HETATM   25  C16 UNL     1       6.144  -1.190  -1.710  1.00  0.00     0.311 C 
BRANCH  21  26
HETATM   26  N5  UNL     1       6.948   1.497   1.268  1.00  0.00    -0.400 N 
HETATM   27  H16 UNL     1       6.893   2.453   1.660  1.00  0.00     0.156 HD
HETATM   28  H17 UNL     1       7.774   0.984   1.694  1.00  0.00     0.156 HD
ENDBRANCH  21  26
ENDBRANCH   5  20
BRANCH   4  29
HETATM   29  N4  UNL     1       4.730   0.984   2.757  1.00  0.00    -0.285 NA
HETATM   30  H13 UNL     1       4.983   1.832   3.309  1.00  0.00     0.125 HD
HETATM   31  H14 UNL     1       5.076   1.784   3.329  1.00  0.00     0.125 HD
ENDBRANCH   4  29
TORSDOF 6
