REMARK  4 active torsions:
REMARK  status: ('A' for Active; 'I' for Inactive)
REMARK    1  A    between atoms: C2_2  and  C3_3 
REMARK       I    between atoms: C3_3  and  N1_5 
REMARK    2  A    between atoms: N1_5  and  C4_6 
REMARK    3  A    between atoms: C8_10  and  N2_11 
REMARK    4  A    between atoms: C9_12  and  C10_13 
ROOT
HETATM    1  C4  UNL     1       1.950   0.286  -0.394  1.00  0.00     0.037 A 
HETATM    2  C5  UNL     1       2.088   1.166  -1.438  1.00  0.00     0.029 A 
HETATM    3  C6  UNL     1       1.041   1.681  -2.170  1.00  0.00     0.004 A 
HETATM    4  C7  UNL     1      -0.246   1.301  -1.852  1.00  0.00     0.030 A 
HETATM    5  C8  UNL     1      -0.409   0.421  -0.810  1.00  0.00     0.043 A 
HETATM    6  C18 UNL     1       0.656  -0.071  -0.104  1.00  0.00     0.059 A 
ENDROOT
BRANCH   5   7
HETATM    7  N2  UNL     1      -1.715  -0.004  -0.440  1.00  0.00    -0.297 N 
HETATM    8  C9  UNL     1      -2.267  -1.230  -0.526  1.00  0.00     0.112 A 
HETATM    9  N3  UNL     1      -3.538  -1.203  -0.063  1.00  0.00    -0.233 NA
HETATM   10  C12 UNL     1      -3.848   0.056   0.340  1.00  0.00     0.086 A 
HETATM   11  C13 UNL     1      -4.959   0.666   0.880  1.00  0.00     0.034 A 
HETATM   12  C17 UNL     1      -2.687   0.788   0.093  1.00  0.00     0.070 A 
HETATM   13  C14 UNL     1      -4.944   2.028   1.191  1.00  0.00     0.002 A 
HETATM   14  C15 UNL     1      -3.810   2.776   0.957  1.00  0.00     0.002 A 
HETATM   15  C16 UNL     1      -2.717   2.131   0.415  1.00  0.00     0.032 A 
BRANCH   8  16
HETATM   16  C10 UNL     1      -1.590  -2.451  -1.053  1.00  0.00     0.074 C 
HETATM   17  C11 UNL     1      -0.864  -3.239  -0.014  1.00  0.00     0.013 C 
ENDBRANCH   8  16
ENDBRANCH   5   7
BRANCH   1  18
HETATM   18  N1  UNL     1       2.984  -0.273   0.390  1.00  0.00    -0.324 N 
HETATM   19  C3  UNL     1       4.382  -0.069   0.296  1.00  0.00     0.244 C 
HETATM   20  O1  UNL     1       4.840   0.691  -0.569  1.00  0.00    -0.268 OA
HETATM   21  H4  UNL     1       2.757  -0.936   1.162  1.00  0.00     0.169 HD
BRANCH  19  22
HETATM   22  C2  UNL     1       5.370  -0.699   1.160  1.00  0.00     0.064 C 
HETATM   23  C1  UNL     1       6.603  -0.347   0.870  1.00  0.00     0.017 C 
ENDBRANCH  19  22
ENDBRANCH   1  18
TORSDOF 4
