REMARK  4 active torsions:
REMARK  status: ('A' for Active; 'I' for Inactive)
REMARK    1  A    between atoms: C2_2  and  C3_3 
REMARK    2  A    between atoms: C8_9  and  N2_10 
REMARK       I    between atoms: N6_20  and  C15_21 
REMARK    3  A    between atoms: C15_21  and  C16_23 
REMARK    4  A    between atoms: C16_23  and  N7_24 
ROOT
HETATM    1  C3  UNL     1      -1.214   1.445   1.154  1.00  0.00    -0.010 C 
HETATM    2  C4  UNL     1      -2.271   0.686   0.862  1.00  0.00    -0.012 C 
HETATM    3  C5  UNL     1      -3.567   0.897   1.500  1.00  0.00     0.188 C 
HETATM    4  N1  UNL     1      -4.637   0.161   0.904  1.00  0.00    -0.301 NA
HETATM    5  C6  UNL     1      -4.930  -0.105  -0.309  1.00  0.00     0.091 C 
HETATM    6  C7  UNL     1      -4.604   0.021  -1.734  1.00  0.00     0.124 C 
HETATM    7  C8  UNL     1      -3.259  -0.521  -2.105  1.00  0.00     0.103 C 
HETATM    8  N3  UNL     1      -2.125  -0.647  -1.449  1.00  0.00    -0.235 NA
HETATM    9  C9  UNL     1      -1.754  -0.299  -0.086  1.00  0.00     0.074 C 
HETATM   10  C10 UNL     1      -0.788  -1.095   0.375  1.00  0.00    -0.002 C 
HETATM   11  C11 UNL     1      -0.198  -1.113   1.694  1.00  0.00     0.148 C 
HETATM   12  N4  UNL     1       0.221  -2.213   2.226  1.00  0.00    -0.191 NA
HETATM   13  N5  UNL     1       0.047  -3.352   1.411  1.00  0.00    -0.309 N 
HETATM   14  C12 UNL     1       0.473  -3.217   0.010  1.00  0.00     0.113 C 
HETATM   15  C13 UNL     1       1.963  -3.172   0.068  1.00  0.00     0.047 C 
HETATM   16  C14 UNL     1       2.629  -1.875  -0.151  1.00  0.00     0.128 C 
HETATM   17  N6  UNL     1       1.909  -0.862  -0.837  1.00  0.00    -0.350 N 
HETATM   18  C15 UNL     1       2.293   0.506  -0.817  1.00  0.00     0.248 C 
HETATM   19  O1  UNL     1       1.607   1.364  -1.447  1.00  0.00    -0.271 OA
HETATM   20  C19 UNL     1       0.754  -1.388  -1.543  1.00  0.00     0.137 C 
HETATM   21  C20 UNL     1      -0.215  -2.049  -0.575  1.00  0.00     0.065 C 
HETATM   22  H13 UNL     1      -0.354  -4.279   1.708  1.00  0.00     0.182 HD
ENDROOT
BRANCH   1  23
HETATM   23  C2  UNL     1      -1.996   2.192   2.096  1.00  0.00     0.034 C 
HETATM   24  C1  UNL     1      -2.411   3.031   2.988  1.00  0.00    -0.008 C 
ENDBRANCH   1  23
BRANCH   7  25
HETATM   25  N2  UNL     1      -3.086  -1.018  -3.405  1.00  0.00    -0.387 N 
HETATM   26  H10 UNL     1      -2.672  -0.248  -4.003  1.00  0.00     0.157 HD
HETATM   27  H11 UNL     1      -3.439  -2.009  -3.326  1.00  0.00     0.157 HD
ENDBRANCH   7  25
BRANCH  18  28
HETATM   28  C16 UNL     1       3.495   0.870  -0.048  1.00  0.00     0.373 C 
BRANCH  28  29
HETATM   29  N7  UNL     1       3.801   2.264  -0.078  1.00  0.00     0.088 N 
HETATM   30  C17 UNL     1       4.226   2.783  -1.340  1.00  0.00     0.310 C 
HETATM   31  C18 UNL     1       4.625   2.698   1.028  1.00  0.00     0.310 C 
ENDBRANCH  28  29
ENDBRANCH  18  28
TORSDOF 4
