REMARK  13 active torsions:
REMARK  status: ('A' for Active; 'I' for Inactive)
REMARK    1  A    between atoms: C2_2  and  C3_3 
REMARK    2  A    between atoms: C3_3  and  N1_5 
REMARK    3  A    between atoms: N1_5  and  C5_6 
REMARK    4  A    between atoms: C6_7  and  N2_8 
REMARK    5  A    between atoms: N2_8  and  C7_9 
REMARK    6  A    between atoms: C7_9  and  C8_10 
REMARK    7  A    between atoms: C8_10  and  C9_11 
REMARK    8  A    between atoms: N3_12  and  C10_13 
REMARK    9  A    between atoms: C10_13  and  C11_14 
REMARK   10  A    between atoms: C11_14  and  N4_15 
REMARK   11  A    between atoms: N5_16  and  C12_17 
REMARK   12  A    between atoms: C13_18  and  C14_19 
REMARK   13  A    between atoms: C16_21  and  C17_22 
ROOT
HETATM    1  C7  UNL     1       1.733   0.919  -0.084  1.00  0.00     0.105 C 
HETATM    2  N5  UNL     1       2.008   1.385   1.092  1.00  0.00    -0.257 NA
ENDROOT
BRANCH   1   3
HETATM    3  N2  UNL     1       0.769  -0.075  -0.311  1.00  0.00    -0.343 N 
HETATM    4  H11 UNL     1       0.696  -0.677  -1.180  1.00  0.00     0.167 HD
BRANCH   3   5
HETATM    5  C6  UNL     1      -0.219  -0.336   0.682  1.00  0.00     0.056 A 
HETATM    6  C5  UNL     1      -1.518  -0.567   0.420  1.00  0.00     0.035 A 
HETATM    7  C20 UNL     1      -2.174  -0.786   1.710  1.00  0.00     0.086 A 
HETATM    8  C19 UNL     1      -1.043  -0.639   2.694  1.00  0.00    -0.018 A 
HETATM    9  C18 UNL     1       0.093  -0.376   2.081  1.00  0.00     0.028 A 
BRANCH   6  10
HETATM   10  N1  UNL     1      -1.967  -0.556  -0.929  1.00  0.00    -0.387 N 
HETATM   11  H10 UNL     1      -1.525   0.104  -1.640  1.00  0.00     0.159 HD
BRANCH  10  12
HETATM   12  C3  UNL     1      -3.021  -1.413  -1.404  1.00  0.00     0.077 C 
HETATM   13  C4  UNL     1      -2.573  -2.845  -1.204  1.00  0.00     0.032 C 
BRANCH  12  14
HETATM   14  C2  UNL     1      -4.307  -1.114  -0.692  1.00  0.00     0.020 C 
HETATM   15  C1  UNL     1      -5.447  -1.972  -1.150  1.00  0.00     0.007 C 
ENDBRANCH  12  14
ENDBRANCH  10  12
ENDBRANCH   6  10
ENDBRANCH   3   5
ENDBRANCH   1   3
BRANCH   1  16
HETATM   16  C8  UNL     1       2.459   1.443  -1.282  1.00  0.00     0.124 C 
BRANCH  16  17
HETATM   17  C9  UNL     1       3.194   0.354  -1.977  1.00  0.00     0.097 C 
HETATM   18  N3  UNL     1       3.530  -0.731  -1.367  1.00  0.00    -0.267 NA
BRANCH  18  19
HETATM   19  C10 UNL     1       4.227  -1.731  -2.081  1.00  0.00     0.191 C 
BRANCH  19  20
HETATM   20  C11 UNL     1       4.612  -2.794  -1.395  1.00  0.00    -0.006 C 
BRANCH  20  21
HETATM   21  N4  UNL     1       4.721  -3.902  -0.753  1.00  0.00    -0.257 NA
HETATM   22  H16 UNL     1       3.912  -4.561  -0.724  1.00  0.00     0.197 HD
ENDBRANCH  20  21
ENDBRANCH  19  20
ENDBRANCH  18  19
ENDBRANCH  16  17
ENDBRANCH   1  16
BRANCH   2  23
HETATM   23  C12 UNL     1       2.958   2.373   1.364  1.00  0.00     0.120 A 
HETATM   24  C13 UNL     1       3.029   3.525   1.441  1.00  0.00    -0.035 A 
HETATM   25  C17 UNL     1       1.726   3.390   1.133  1.00  0.00     0.064 A 
BRANCH  24  26
HETATM   26  C14 UNL     1       3.074   4.632   1.510  1.00  0.00    -0.063 A 
HETATM   27  C15 UNL     1       3.099   5.844   1.580  1.00  0.00     0.033 A 
HETATM   28  C16 UNL     1       1.874   4.973   1.251  1.00  0.00     0.035 A 
ENDBRANCH  24  26
ENDBRANCH   2  23
TORSDOF 13
