REMARK  2 active torsions:
REMARK  status: ('A' for Active; 'I' for Inactive)
REMARK    1  A    between atoms: C2_2  and  C3_3 
REMARK    2  A    between atoms: C12_17  and  N4_18 
ROOT
HETATM    1  C3  UNL     1      -1.770   0.777  -0.045  1.00  0.00     0.078 C 
HETATM    2  C4  UNL     1      -2.582   0.655  -1.301  1.00  0.00     0.044 C 
HETATM    3  C5  UNL     1      -3.943  -0.080  -0.964  1.00  0.00     0.124 C 
HETATM    4  N1  UNL     1      -3.518  -1.418  -0.648  1.00  0.00    -0.359 N 
HETATM    5  C6  UNL     1      -3.099  -2.736  -0.336  1.00  0.00     0.243 C 
HETATM    6  O1  UNL     1      -4.013  -3.477   0.008  1.00  0.00    -0.271 OA
HETATM    7  C7  UNL     1      -1.775  -3.412  -0.341  1.00  0.00     0.306 C 
HETATM    8  O2  UNL     1      -0.794  -2.482  -0.754  1.00  0.00    -0.247 OA
HETATM    9  N2  UNL     1       0.537  -2.673  -0.566  1.00  0.00    -0.145 NA
HETATM   10  C8  UNL     1       1.404  -1.798  -0.326  1.00  0.00     0.158 C 
HETATM   11  C9  UNL     1       1.729  -0.388  -0.114  1.00  0.00     0.016 C 
HETATM   12  C10 UNL     1       3.116  -0.070   0.152  1.00  0.00     0.084 A 
HETATM   13  C11 UNL     1       3.429   1.254   0.302  1.00  0.00     0.151 A 
HETATM   14  N3  UNL     1       4.734   1.560   0.562  1.00  0.00    -0.240 NA
HETATM   15  C12 UNL     1       5.603   0.508   0.646  1.00  0.00     0.138 A 
HETATM   16  C13 UNL     1       5.305  -0.822   0.498  1.00  0.00     0.167 A 
HETATM   17  N5  UNL     1       4.001  -1.064   0.243  1.00  0.00    -0.255 NA
HETATM   18  C14 UNL     1       0.536   0.092  -0.273  1.00  0.00     0.141 C 
HETATM   19  N6  UNL     1      -0.419   1.172  -0.322  1.00  0.00    -0.407 N 
HETATM   20  H11 UNL     1      -4.575  -1.550  -0.462  1.00  0.00     0.162 HD
HETATM   21  H20 UNL     1      -0.581   2.213  -0.503  1.00  0.00     0.154 HD
ENDROOT
BRANCH   1  22
HETATM   22  C2  UNL     1      -2.450   1.691   0.963  1.00  0.00     0.020 C 
HETATM   23  C1  UNL     1      -2.682   3.075   0.472  1.00  0.00     0.007 C 
ENDBRANCH   1  22
BRANCH  15  24
HETATM   24  N4  UNL     1       6.911   0.935   0.924  1.00  0.00    -0.383 N 
HETATM   25  H16 UNL     1       7.328   0.942  -0.055  1.00  0.00     0.157 HD
HETATM   26  H17 UNL     1       7.766   1.248   1.394  1.00  0.00     0.157 HD
ENDBRANCH  15  24
TORSDOF 2
