REMARK  6 active torsions:
REMARK  status: ('A' for Active; 'I' for Inactive)
REMARK    1  A    between atoms: C2_3  and  C3_5 
REMARK    2  A    between atoms: N1_6  and  C4_7 
REMARK    3  A    between atoms: C5_8  and  C6_9 
REMARK    4  A    between atoms: N2_11  and  N3_12 
REMARK    5  A    between atoms: N3_12  and  C8_13 
REMARK    6  A    between atoms: N4_16  and  C11_17 
ROOT
HETATM    1  B1  UNL     1       9.341   0.253  -1.089  1.00  0.00     0.201 B 
HETATM    2  C1  UNL     1       7.945   1.434  -0.942  1.00  0.00    -0.183 C 
HETATM    3  C2  UNL     1       6.869   2.369  -0.811  1.00  0.00     0.215 C 
HETATM    4  O1  UNL     1       7.149   3.576  -0.912  1.00  0.00    -0.279 OA
ENDROOT
BRANCH   3   5
HETATM    5  C3  UNL     1       5.519   1.866  -0.571  1.00  0.00     0.178 C 
HETATM    6  N1  UNL     1       5.295   0.601  -0.475  1.00  0.00    -0.268 NA
BRANCH   6   7
HETATM    7  C4  UNL     1       3.991   0.044  -0.240  1.00  0.00     0.117 C 
HETATM    8  C5  UNL     1       3.870  -1.184   0.222  1.00  0.00     0.033 C 
BRANCH   8   9
HETATM    9  C6  UNL     1       2.595  -1.833   0.491  1.00  0.00     0.004 A 
HETATM   10  C7  UNL     1       1.305  -1.372   0.347  1.00  0.00     0.151 A 
HETATM   11  N2  UNL     1       0.393  -2.294   0.707  1.00  0.00    -0.189 N 
HETATM   12  N5  UNL     1       1.111  -3.364   1.088  1.00  0.00    -0.164 NA
HETATM   13  C15 UNL     1       2.421  -3.112   0.969  1.00  0.00     0.153 A 
BRANCH  11  14
HETATM   14  N3  UNL     1      -0.999  -2.239   0.716  1.00  0.00    -0.309 N 
HETATM   15  H5  UNL     1      -1.498  -3.124   1.044  1.00  0.00     0.182 HD
BRANCH  14  16
HETATM   16  C8  UNL     1      -1.810  -1.140   0.335  1.00  0.00     0.104 C 
HETATM   17  C9  UNL     1      -1.622   0.128   1.102  1.00  0.00     0.057 C 
HETATM   18  C10 UNL     1      -2.937   0.918   0.993  1.00  0.00     0.274 C 
HETATM   19  N4  UNL     1      -3.585   0.547  -0.249  1.00  0.00     0.088 N 
HETATM   20  C13 UNL     1      -2.651   0.442  -1.353  1.00  0.00     0.274 C 
HETATM   21  C14 UNL     1      -1.753  -0.774  -1.134  1.00  0.00     0.057 C 
BRANCH  19  22
HETATM   22  C11 UNL     1      -4.698   1.416  -0.556  1.00  0.00     0.268 C 
HETATM   23  C12 UNL     1      -5.783   1.164   0.458  1.00  0.00     0.037 C 
ENDBRANCH  19  22
ENDBRANCH  14  16
ENDBRANCH  11  14
ENDBRANCH   8   9
ENDBRANCH   6   7
ENDBRANCH   3   5
TORSDOF 6
