REMARK  6 active torsions:
REMARK  status: ('A' for Active; 'I' for Inactive)
REMARK    1  A    between atoms: C2_2  and  C3_3 
REMARK       I    between atoms: C3_3  and  N1_5 
REMARK    2  A    between atoms: N1_5  and  C4_6 
REMARK    3  A    between atoms: C5_7  and  C6_8 
REMARK    4  A    between atoms: C6_8  and  C7_9 
REMARK    5  A    between atoms: C8_10  and  N2_11 
REMARK    6  A    between atoms: C9_12  and  C10_13 
ROOT
HETATM    1  C10 UNL     1      -3.467  -1.198  -2.198  1.00  0.00     0.202 C 
HETATM    2  C11 UNL     1      -4.081  -2.470  -1.821  1.00  0.00     0.066 C 
HETATM    3  N3  UNL     1      -4.558  -3.487  -1.506  1.00  0.00    -0.197 NA
ENDROOT
BRANCH   1   4
HETATM    4  C9  UNL     1      -3.438  -0.312  -1.003  1.00  0.00     0.124 A 
HETATM    5  N2  UNL     1      -2.453  -0.221  -0.090  1.00  0.00    -0.307 N 
HETATM    6  C17 UNL     1      -2.746   0.678   0.863  1.00  0.00     0.069 A 
HETATM    7  C12 UNL     1      -3.985   1.174   0.522  1.00  0.00     0.086 A 
HETATM    8  C16 UNL     1      -2.217   1.224   2.011  1.00  0.00     0.032 A 
HETATM    9  N4  UNL     1      -4.347   0.554  -0.588  1.00  0.00    -0.232 NA
HETATM   10  C13 UNL     1      -4.674   2.130   1.232  1.00  0.00     0.034 A 
HETATM   11  C14 UNL     1      -4.105   2.647   2.373  1.00  0.00     0.002 A 
HETATM   12  C15 UNL     1      -2.864   2.184   2.760  1.00  0.00     0.002 A 
BRANCH   5  13
HETATM   13  C8  UNL     1      -1.243  -0.963  -0.097  1.00  0.00     0.095 C 
HETATM   14  C7  UNL     1      -0.112  -1.155   0.558  1.00  0.00    -0.005 C 
BRANCH  14  15
HETATM   15  C6  UNL     1       1.036  -2.078   0.261  1.00  0.00     0.057 C 
BRANCH  15  16
HETATM   16  C5  UNL     1       2.306  -1.368   0.089  1.00  0.00    -0.006 C 
HETATM   17  C4  UNL     1       3.292  -1.143  -0.792  1.00  0.00     0.087 C 
BRANCH  17  18
HETATM   18  N1  UNL     1       4.458  -0.325  -0.567  1.00  0.00    -0.334 N 
HETATM   19  C3  UNL     1       4.749   0.808  -1.362  1.00  0.00     0.241 C 
HETATM   20  O1  UNL     1       3.892   1.002  -2.258  1.00  0.00    -0.269 OA
HETATM   21  H4  UNL     1       4.908  -0.801   0.246  1.00  0.00     0.168 HD
BRANCH  19  22
HETATM   22  C2  UNL     1       5.998   1.433  -0.890  1.00  0.00     0.048 C 
HETATM   23  C1  UNL     1       6.907   1.251   0.038  1.00  0.00     0.037 C 
ENDBRANCH  19  22
ENDBRANCH  17  18
ENDBRANCH  15  16
ENDBRANCH  14  15
ENDBRANCH   5  13
ENDBRANCH   1   4
TORSDOF 6
