REMARK  4 active torsions:
REMARK  status: ('A' for Active; 'I' for Inactive)
REMARK    1  A    between atoms: C2_2  and  C3_3 
REMARK    2  A    between atoms: C3_3  and  C4_4 
REMARK    3  A    between atoms: C13_19  and  C14_20 
REMARK    4  A    between atoms: C14_20  and  N5_21 
ROOT
HETATM    1  C4  UNL     1      -0.115   1.032   0.397  1.00  0.00     0.073 C 
HETATM    2  C5  UNL     1      -0.679   1.192   1.818  1.00  0.00     0.057 C 
HETATM    3  C6  UNL     1      -1.003  -0.164   2.406  1.00  0.00     0.125 C 
HETATM    4  N1  UNL     1      -1.992  -0.861   1.606  1.00  0.00    -0.359 N 
HETATM    5  C7  UNL     1      -3.342  -0.784   1.163  1.00  0.00     0.243 C 
HETATM    6  O1  UNL     1      -3.257   0.241   1.876  1.00  0.00    -0.271 OA
HETATM    7  C8  UNL     1      -3.999  -1.797   0.246  1.00  0.00     0.306 C 
HETATM    8  O2  UNL     1      -2.966  -2.736  -0.004  1.00  0.00    -0.247 OA
HETATM    9  N2  UNL     1      -2.687  -3.275  -1.232  1.00  0.00    -0.145 NA
HETATM   10  C9  UNL     1      -1.766  -2.703  -1.994  1.00  0.00     0.156 C 
HETATM   11  C10 UNL     1      -0.971  -1.500  -1.661  1.00  0.00    -0.004 C 
HETATM   12  C11 UNL     1      -1.365  -0.222  -1.524  1.00  0.00     0.094 C 
HETATM   13  N3  UNL     1      -1.241   0.761  -0.472  1.00  0.00    -0.384 N 
HETATM   14  C12 UNL     1       0.474  -1.603  -1.428  1.00  0.00     0.190 C 
HETATM   15  N4  UNL     1       0.952  -1.095  -0.207  1.00  0.00    -0.289 NA
HETATM   16  C13 UNL     1       0.934   0.015   0.392  1.00  0.00     0.056 C 
HETATM   17  H12 UNL     1      -1.579  -1.753   1.193  1.00  0.00     0.162 HD
HETATM   18  H17 UNL     1      -2.075   1.365  -0.314  1.00  0.00     0.160 HD
ENDROOT
BRANCH  16  19
HETATM   19  C14 UNL     1       2.092   0.412   1.223  1.00  0.00     0.230 C 
BRANCH  19  20
HETATM   20  N5  UNL     1       3.101  -0.625   1.197  1.00  0.00    -0.193 NA
HETATM   21  N6  UNL     1       3.121  -1.474   0.307  1.00  0.00    -0.203 NA
HETATM   22  C15 UNL     1       4.079  -2.526   0.210  1.00  0.00     0.203 C 
ENDBRANCH  19  20
ENDBRANCH  16  19
BRANCH   1  23
HETATM   23  C3  UNL     1       0.397   2.417   0.053  1.00  0.00     0.037 C 
BRANCH  23  24
HETATM   24  C2  UNL     1       1.003   2.554  -1.294  1.00  0.00    -0.002 C 
HETATM   25  C1  UNL     1       1.473   4.002  -1.498  1.00  0.00     0.005 C 
ENDBRANCH  23  24
ENDBRANCH   1  23
TORSDOF 4
