REMARK  5 active torsions:
REMARK  status: ('A' for Active; 'I' for Inactive)
REMARK    1  A    between atoms: C5_6  and  C6_7 
REMARK    2  A    between atoms: C6_7  and  O1_8 
REMARK    3  A    between atoms: O1_8  and  C7_9 
REMARK    4  A    between atoms: C10_12  and  N1_13 
REMARK    5  A    between atoms: N1_13  and  C11_14 
ROOT
HETATM    1  C7  UNL     1      -1.494  -0.263  -0.161  1.00  0.00     0.069 A 
HETATM    2  C8  UNL     1      -0.481   0.399   0.470  1.00  0.00     0.039 A 
HETATM    3  C9  UNL     1       0.834   0.006   0.248  1.00  0.00     0.032 A 
HETATM    4  C10 UNL     1       1.194  -1.024  -0.581  1.00  0.00     0.028 A 
HETATM    5  C17 UNL     1       0.126  -1.651  -1.188  1.00  0.00     0.032 A 
HETATM    6  C18 UNL     1      -1.186  -1.301  -1.000  1.00  0.00     0.039 A 
ENDROOT
BRANCH   4   7
HETATM    7  N1  UNL     1       2.531  -1.428  -0.813  1.00  0.00    -0.379 N 
HETATM    8  H8  UNL     1       2.672  -2.246  -1.476  1.00  0.00     0.160 HD
BRANCH   7   9
HETATM    9  C11 UNL     1       3.687  -0.828  -0.232  1.00  0.00     0.146 C 
HETATM   10  C12 UNL     1       3.844   0.639  -0.602  1.00  0.00     0.034 C 
HETATM   11  C13 UNL     1       5.166   0.888  -1.293  1.00  0.00     0.024 C 
HETATM   12  C14 UNL     1       6.339   0.488  -0.462  1.00  0.00     0.150 C 
HETATM   13  N2  UNL     1       6.291   0.951   0.908  1.00  0.00    -0.283 NA
HETATM   14  C15 UNL     1       5.572   0.645   1.936  1.00  0.00     0.228 C 
HETATM   15  N3  UNL     1       4.505  -0.314   2.097  1.00  0.00    -0.233 NA
HETATM   16  C16 UNL     1       3.715  -0.939   1.272  1.00  0.00     0.127 C 
HETATM   17 CL1  UNL     1       2.661  -1.963   2.259  1.00  0.00    -0.065 Cl
ENDBRANCH   7   9
ENDBRANCH   4   7
BRANCH   1  18
HETATM   18  O1  UNL     1      -2.801   0.150   0.079  1.00  0.00    -0.347 OA
BRANCH  18  19
HETATM   19  C6  UNL     1      -3.871  -0.507  -0.553  1.00  0.00     0.214 C 
BRANCH  19  20
HETATM   20  C5  UNL     1      -5.150   0.128  -0.126  1.00  0.00    -0.031 A 
HETATM   21  C4  UNL     1      -5.772  -0.395   1.011  1.00  0.00     0.009 A 
HETATM   22  C3  UNL     1      -6.958   0.104   1.507  1.00  0.00     0.004 A 
HETATM   23  C2  UNL     1      -7.574   1.165   0.868  1.00  0.00     0.042 A 
HETATM   24  C1  UNL     1      -6.960   1.692  -0.266  1.00  0.00     0.117 A 
HETATM   25  F1  UNL     1      -7.573   2.730  -0.882  1.00  0.00    -0.206 F 
HETATM   26  C19 UNL     1      -5.780   1.189  -0.752  1.00  0.00     0.051 A 
ENDBRANCH  19  20
ENDBRANCH  18  19
ENDBRANCH   1  18
TORSDOF 5
