REMARK  4 active torsions:
REMARK  status: ('A' for Active; 'I' for Inactive)
REMARK    1  A    between atoms: C9_11  and  N2_12 
REMARK    2  A    between atoms: N2_12  and  C10_13 
REMARK    3  A    between atoms: C10_13  and  C11_14 
REMARK    4  A    between atoms: C11_14  and  C12_15 
ROOT
HETATM    1  C1  UNL     1      -5.700   1.964   0.459  1.00  0.00     0.071 C 
HETATM    2  C2  UNL     1      -4.868   0.942   0.564  1.00  0.00     0.059 C 
HETATM    3  C3  UNL     1      -5.087  -0.268  -0.237  1.00  0.00     0.075 C 
HETATM    4  C4  UNL     1      -4.352  -1.361  -0.200  1.00  0.00     0.118 C 
HETATM    5  F1  UNL     1      -4.925  -2.216  -1.137  1.00  0.00    -0.206 F 
HETATM    6  C5  UNL     1      -3.318  -2.072   0.531  1.00  0.00     0.040 C 
HETATM    7  C6  UNL     1      -2.599  -1.903   1.662  1.00  0.00    -0.004 C 
HETATM    8  C7  UNL     1      -2.505  -0.910   2.756  1.00  0.00     0.147 C 
HETATM    9  N1  UNL     1      -1.260  -0.189   2.785  1.00  0.00    -0.380 N 
HETATM   10  C8  UNL     1      -1.388   0.557   1.556  1.00  0.00     0.128 A 
HETATM   11  C9  UNL     1      -0.247   0.703   0.802  1.00  0.00     0.155 A 
HETATM   12  N3  UNL     1      -0.192   1.381  -0.356  1.00  0.00    -0.222 NA
HETATM   13  C17 UNL     1      -1.285   1.971  -0.853  1.00  0.00     0.238 A 
HETATM   14  N4  UNL     1      -2.386   1.837  -0.139  1.00  0.00    -0.215 NA
HETATM   15  C18 UNL     1      -2.526   1.181   1.020  1.00  0.00     0.201 A 
HETATM   16  O1  UNL     1      -3.847   1.248   1.493  1.00  0.00    -0.294 OA
HETATM   17  H8  UNL     1      -0.416  -0.078   3.380  1.00  0.00     0.160 HD
ENDROOT
BRANCH  11  18
HETATM   18  N2  UNL     1       0.966   0.109   1.245  1.00  0.00    -0.373 N 
HETATM   19  H9  UNL     1       1.055  -0.447   2.124  1.00  0.00     0.161 HD
BRANCH  18  20
HETATM   20  C10 UNL     1       2.205   0.223   0.498  1.00  0.00     0.124 C 
BRANCH  20  21
HETATM   21  C11 UNL     1       2.129  -0.439  -0.860  1.00  0.00     0.041 C 
BRANCH  21  22
HETATM   22  C12 UNL     1       3.458  -0.268  -1.545  1.00  0.00    -0.121 A 
HETATM   23  C13 UNL     1       3.556   0.375  -2.707  1.00  0.00    -0.010 A 
HETATM   24  C14 UNL     1       4.850   0.518  -3.333  1.00  0.00    -0.006 A 
HETATM   25  C15 UNL     1       5.942   0.037  -2.800  1.00  0.00    -0.036 A 
HETATM   26  C16 UNL     1       6.156  -0.711  -1.543  1.00  0.00    -0.022 A 
HETATM   27  B1  UNL     1       4.732  -0.873  -0.846  1.00  0.00     0.192 B 
HETATM   28  H19 UNL     1       4.510  -1.804  -0.122  1.00  0.00    -0.021 HD
ENDBRANCH  21  22
ENDBRANCH  20  21
ENDBRANCH  18  20
ENDBRANCH  11  18
TORSDOF 4
