REMARK  1 active torsions:
REMARK  status: ('A' for Active; 'I' for Inactive)
REMARK    1  A    between atoms: C3_3  and  C4_4 
ROOT
HETATM    1  C4  UNL     1       3.659   1.356   0.020  1.00  0.00    -0.051 C 
HETATM    2  C5  UNL     1       2.477   0.902  -0.163  1.00  0.00    -0.036 C 
HETATM    3  C6  UNL     1       1.505   1.937  -0.759  1.00  0.00     0.007 C 
HETATM    4  C7  UNL     1       0.466   1.956   0.126  1.00  0.00     0.000 C 
HETATM    5  C8  UNL     1      -0.792   2.486   0.474  1.00  0.00     0.204 C 
HETATM    6  O1  UNL     1      -1.933   3.029   0.904  1.00  0.00    -0.336 OA
HETATM    7  C9  UNL     1      -3.189   2.458   0.407  1.00  0.00     0.137 C 
HETATM    8 CL1  UNL     1      -3.184   3.900  -0.500  1.00  0.00    -0.057 Cl
HETATM    9  C10 UNL     1      -3.896   1.329   0.615  1.00  0.00     0.044 C 
HETATM   10  C11 UNL     1      -5.027   0.382   0.430  1.00  0.00     0.175 C 
HETATM   11  N1  UNL     1      -4.479  -0.860  -0.136  1.00  0.00    -0.303 N 
HETATM   12  C12 UNL     1      -4.084  -0.169  -1.350  1.00  0.00     0.222 C 
HETATM   13  N2  UNL     1      -2.951  -0.575  -0.999  1.00  0.00    -0.236 NA
HETATM   14  C13 UNL     1      -1.729  -0.382  -1.611  1.00  0.00     0.233 C 
HETATM   15  N3  UNL     1      -0.502  -0.332  -1.675  1.00  0.00    -0.257 NA
HETATM   16  C14 UNL     1       0.629  -0.489  -0.964  1.00  0.00     0.107 C 
HETATM   17  C15 UNL     1       1.844  -0.498  -0.238  1.00  0.00     0.042 A 
HETATM   18  C16 UNL     1       2.531  -2.042  -0.069  1.00  0.00     0.033 A 
HETATM   19  C17 UNL     1       2.749  -0.874  -0.037  1.00  0.00     0.081 A 
HETATM   20  C18 UNL     1       4.057  -0.139   0.274  1.00  0.00     0.047 C 
HETATM   21  C19 UNL     1       1.247  -2.583  -0.193  1.00  0.00    -0.099 C 
HETATM   22  C20 UNL     1       0.171  -3.020  -0.285  1.00  0.00    -0.106 C 
HETATM   23  C21 UNL     1      -1.146  -3.531  -0.417  1.00  0.00     0.095 C 
HETATM   24  C22 UNL     1      -2.170  -2.840   0.474  1.00  0.00     0.028 C 
HETATM   25  C23 UNL     1      -3.525  -3.042  -0.133  1.00  0.00     0.111 C 
HETATM   26  N4  UNL     1      -4.488  -2.140   0.481  1.00  0.00    -0.237 NA
HETATM   27  H25 UNL     1      -4.191  -1.933   1.489  1.00  0.00     0.146 HD
ENDROOT
BRANCH   1  28
HETATM   28  C3  UNL     1       4.333   2.568  -0.257  1.00  0.00     0.003 C 
HETATM   29  C2  UNL     1       5.429   2.561   0.330  1.00  0.00    -0.030 C 
HETATM   30  C1  UNL     1       6.246   1.737   1.225  1.00  0.00     0.036 C 
ENDBRANCH   1  28
TORSDOF 1
