REMARK  2 active torsions:
REMARK  status: ('A' for Active; 'I' for Inactive)
REMARK    1  A    between atoms: C8_11  and  C9_12 
REMARK    2  A    between atoms: C10_13  and  C11_14 
ROOT
HETATM    1  C1  UNL     1      -0.856  -3.424   0.849  1.00  0.00     0.077 C 
HETATM    2  S1  UNL     1      -0.710  -1.685   1.218  1.00  0.00    -0.180 SA
HETATM    3  C2  UNL     1      -1.525  -0.626   0.089  1.00  0.00    -0.028 A 
HETATM    4  C3  UNL     1      -0.874   0.337   0.777  1.00  0.00     0.085 A 
HETATM    5  C4  UNL     1       0.004  -0.006   1.904  1.00  0.00     0.142 A 
HETATM    6  N1  UNL     1      -0.213  -0.717   3.053  1.00  0.00    -0.255 NA
HETATM    7  C5  UNL     1       0.737  -0.948   3.954  1.00  0.00     0.229 A 
HETATM    8  N2  UNL     1       2.011  -0.499   3.817  1.00  0.00    -0.245 NA
HETATM    9  C6  UNL     1       2.367   0.201   2.757  1.00  0.00     0.063 A 
HETATM   10  C7  UNL     1       1.307   0.477   1.720  1.00  0.00     0.009 A 
HETATM   11  C8  UNL     1       2.691   0.982   1.539  1.00  0.00     0.151 A 
HETATM   12  C15 UNL     1      -0.903   1.818   0.633  1.00  0.00     0.006 C 
HETATM   13  C16 UNL     1      -1.416   2.868  -0.045  1.00  0.00    -0.062 C 
HETATM   14  C17 UNL     1      -1.297   4.336  -0.010  1.00  0.00     0.045 C 
HETATM   15  C18 UNL     1      -2.255   2.260  -1.052  1.00  0.00     0.201 C 
HETATM   16  O1  UNL     1      -3.574   2.621  -0.955  1.00  0.00    -0.383 OA
HETATM   17  C19 UNL     1      -4.306   1.712  -1.741  1.00  0.00     0.207 C 
HETATM   18  C20 UNL     1      -4.491   0.388  -1.100  1.00  0.00    -0.025 A 
HETATM   19  C21 UNL     1      -5.843   0.313  -0.674  1.00  0.00     0.010 A 
HETATM   20  C22 UNL     1      -6.569  -0.694  -0.018  1.00  0.00     0.004 A 
HETATM   21  C23 UNL     1      -5.824  -1.839   0.272  1.00  0.00     0.043 A 
HETATM   22  C24 UNL     1      -4.504  -1.809  -0.124  1.00  0.00     0.123 A 
HETATM   23  F1  UNL     1      -3.912  -2.992   0.215  1.00  0.00    -0.206 F 
HETATM   24  C25 UNL     1      -3.822  -0.802  -0.767  1.00  0.00    -0.007 A 
HETATM   25  C26 UNL     1      -2.383  -1.204  -0.980  1.00  0.00     0.084 C 
ENDROOT
BRANCH  11  26
HETATM   26  C9  UNL     1       3.466   0.200   0.538  1.00  0.00    -0.088 C 
HETATM   27  C10 UNL     1       4.093  -0.458  -0.275  1.00  0.00    -0.070 C 
BRANCH  27  28
HETATM   28  C11 UNL     1       4.848  -1.266  -1.231  1.00  0.00     0.298 C 
HETATM   29  C12 UNL     1       5.442  -0.339  -2.268  1.00  0.00     0.050 C 
HETATM   30  C13 UNL     1       6.632   0.238  -1.528  1.00  0.00     0.033 C 
HETATM   31  C14 UNL     1       7.066  -0.912  -0.663  1.00  0.00     0.271 C 
HETATM   32  N3  UNL     1       6.009  -1.882  -0.618  1.00  0.00     0.099 N 
HETATM   33  H13 UNL     1       5.822  -2.113   0.401  1.00  0.00     0.317 HD
ENDBRANCH  27  28
ENDBRANCH  11  26
TORSDOF 2
