REMARK  9 active torsions:
REMARK  status: ('A' for Active; 'I' for Inactive)
REMARK    1  A    between atoms: O1_2  and  C2_3 
REMARK    2  A    between atoms: C2_3  and  C3_4 
REMARK    3  A    between atoms: C3_4  and  N1_5 
REMARK    4  A    between atoms: C7_9  and  C8_10 
REMARK    5  A    between atoms: C9_11  and  C10_12 
REMARK    6  A    between atoms: C14_16  and  N2_17 
REMARK    7  A    between atoms: C17_21  and  O2_22 
REMARK    8  A    between atoms: O2_22  and  C18_23 
REMARK    9  A    between atoms: C18_23  and  C19_24 
ROOT
HETATM    1  C10 UNL     1       0.111   2.839   0.220  1.00  0.00     0.068 C 
HETATM    2  C11 UNL     1      -1.007   2.898   0.970  1.00  0.00     0.006 C 
HETATM    3  C12 UNL     1      -0.685   4.052   1.954  1.00  0.00     0.093 C 
HETATM    4  C13 UNL     1      -1.039   5.048   0.813  1.00  0.00     0.034 C 
HETATM    5  C14 UNL     1      -2.188   5.715   0.555  1.00  0.00     0.134 C 
HETATM    6  N3  UNL     1      -3.475   5.185   1.016  1.00  0.00    -0.243 NA
HETATM    7  C15 UNL     1      -4.054   4.012   0.719  1.00  0.00     0.122 C 
HETATM    8  C16 UNL     1      -3.524   2.588   0.764  1.00  0.00     0.056 C 
HETATM    9  C17 UNL     1      -2.225   2.122   0.712  1.00  0.00     0.079 C 
HETATM   10  S1  UNL     1       0.638   4.638   0.117  1.00  0.00    -0.081 SA
ENDROOT
BRANCH   1  11
HETATM   11  C9  UNL     1       0.507   1.571  -0.271  1.00  0.00    -0.057 C 
HETATM   12  C8  UNL     1       0.853   0.517  -0.696  1.00  0.00    -0.064 C 
BRANCH  12  13
HETATM   13  C7  UNL     1       1.292  -0.740  -1.212  1.00  0.00     0.301 C 
HETATM   14  N1  UNL     1       2.124  -1.420  -0.252  1.00  0.00     0.106 N 
HETATM   15  C4  UNL     1       2.557  -2.572  -0.972  1.00  0.00     0.274 C 
HETATM   16  C5  UNL     1       2.874  -1.993  -2.359  1.00  0.00     0.033 C 
HETATM   17  C6  UNL     1       2.246  -0.608  -2.382  1.00  0.00     0.050 C 
BRANCH  14  18
HETATM   18  C3  UNL     1       3.081  -0.540   0.291  1.00  0.00     0.300 C 
BRANCH  18  19
HETATM   19  C2  UNL     1       3.913  -1.010   1.424  1.00  0.00     0.197 C 
BRANCH  19  20
HETATM   20  O1  UNL     1       4.738  -2.073   1.224  1.00  0.00    -0.394 OA
HETATM   21  C1  UNL     1       5.748  -1.878   0.289  1.00  0.00     0.201 C 
ENDBRANCH  19  20
ENDBRANCH  18  19
ENDBRANCH  14  18
ENDBRANCH  12  13
ENDBRANCH   1  11
BRANCH   9  22
HETATM   22  O2  UNL     1      -1.809   0.866   0.411  1.00  0.00    -0.346 OA
BRANCH  22  23
HETATM   23  C18 UNL     1      -2.172  -0.172   1.341  1.00  0.00     0.214 C 
BRANCH  23  24
HETATM   24  C19 UNL     1      -2.007  -1.528   0.776  1.00  0.00    -0.034 A 
HETATM   25  C20 UNL     1      -0.939  -2.395   0.800  1.00  0.00     0.009 A 
HETATM   26  C21 UNL     1      -1.017  -3.626   0.187  1.00  0.00     0.001 A 
HETATM   27  C22 UNL     1      -2.174  -4.049  -0.481  1.00  0.00     0.007 A 
HETATM   28  C23 UNL     1      -3.251  -3.170  -0.502  1.00  0.00    -0.061 A 
HETATM   29  C24 UNL     1      -4.454  -3.648  -1.214  1.00  0.00     0.048 C 
HETATM   30  C25 UNL     1      -3.170  -1.938   0.112  1.00  0.00     0.016 A 
ENDBRANCH  23  24
ENDBRANCH  22  23
ENDBRANCH   9  22
BRANCH   5  31
HETATM   31  N2  UNL     1      -1.556   6.752  -0.179  1.00  0.00    -0.383 N 
HETATM   32  H17 UNL     1      -1.603   6.456  -1.200  1.00  0.00     0.157 HD
HETATM   33  H18 UNL     1      -1.200   7.539   0.411  1.00  0.00     0.157 HD
ENDBRANCH   5  31
TORSDOF 9
