REMARK  3 active torsions:
REMARK  status: ('A' for Active; 'I' for Inactive)
REMARK    1  A    between atoms: C6_8  and  O1_9 
REMARK    2  A    between atoms: O1_9  and  C7_10 
REMARK    3  A    between atoms: N1_12  and  C9_13 
ROOT
HETATM    1  C9  UNL     1       3.180   0.392  -0.246  1.00  0.00     0.147 A 
HETATM    2  N2  UNL     1       3.802   1.210  -1.147  1.00  0.00    -0.223 NA
HETATM    3  C10 UNL     1       4.959   1.815  -0.756  1.00  0.00     0.235 A 
HETATM    4  N3  UNL     1       5.579   1.702   0.442  1.00  0.00    -0.253 NA
HETATM    5  C11 UNL     1       4.996   0.903   1.360  1.00  0.00     0.142 A 
HETATM    6  C12 UNL     1       3.829   0.292   0.967  1.00  0.00     0.088 A 
HETATM    7  S1  UNL     1       3.141  -0.635   2.014  1.00  0.00     0.040 SA
HETATM    8  N4  UNL     1       2.601  -1.391   2.878  1.00  0.00    -0.103 N 
ENDROOT
BRANCH   1   9
HETATM    9  N1  UNL     1       1.982  -0.281  -0.544  1.00  0.00    -0.358 N 
HETATM   10  C8  UNL     1       0.743  -0.106   0.181  1.00  0.00     0.163 C 
HETATM   11  C7  UNL     1      -0.463  -0.263  -0.734  1.00  0.00     0.191 C 
HETATM   12  C15 UNL     1      -0.274  -1.604  -1.402  1.00  0.00     0.040 C 
HETATM   13  C14 UNL     1       0.932  -1.977  -1.813  1.00  0.00     0.015 C 
HETATM   14 CL1  UNL     1      -1.624  -2.702  -1.655  1.00  0.00    -0.086 Cl
HETATM   15  C13 UNL     1       2.180  -1.163  -1.674  1.00  0.00     0.153 C 
BRANCH  11  16
HETATM   16  O1  UNL     1      -1.605  -0.362   0.039  1.00  0.00    -0.338 OA
BRANCH  16  17
HETATM   17  C6  UNL     1      -2.737   0.432   0.001  1.00  0.00     0.080 A 
HETATM   18  C2  UNL     1      -3.726   0.069   0.921  1.00  0.00     0.010 A 
HETATM   19  C1  UNL     1      -3.503  -1.104   1.845  1.00  0.00     0.054 C 
HETATM   20  C3  UNL     1      -4.930   0.686   1.087  1.00  0.00     0.126 A 
HETATM   21  F1  UNL     1      -5.844   0.255   2.024  1.00  0.00    -0.205 F 
HETATM   22  C4  UNL     1      -5.426   1.790   0.390  1.00  0.00     0.058 A 
HETATM   23  P1  UNL     1      -4.335   2.419  -0.831  1.00  0.00    -0.029 P 
HETATM   24  C5  UNL     1      -2.849   1.486  -0.882  1.00  0.00     0.053 A 
ENDBRANCH  16  17
ENDBRANCH  11  16
ENDBRANCH   1   9
TORSDOF 3
