REMARK  7 active torsions:
REMARK  status: ('A' for Active; 'I' for Inactive)
REMARK    1  A    between atoms: S1_2  and  N1_4 
REMARK    2  A    between atoms: C5_8  and  C6_9 
REMARK    3  A    between atoms: C7_10  and  N2_11 
REMARK    4  A    between atoms: N2_11  and  C8_12 
REMARK    5  A    between atoms: C11_15  and  O2_16 
REMARK    6  A    between atoms: O2_16  and  C12_17 
REMARK    7  A    between atoms: C12_17  and  C13_18 
ROOT
HETATM    1  C8  UNL     1      -0.050   1.956   0.469  1.00  0.00     0.041 A 
HETATM    2  C9  UNL     1       0.562   1.261   1.496  1.00  0.00     0.033 A 
HETATM    3  C10 UNL     1       1.822   0.719   1.359  1.00  0.00     0.041 A 
HETATM    4  C11 UNL     1       2.534   0.848   0.181  1.00  0.00     0.091 A 
HETATM    5  C19 UNL     1       1.932   1.541  -0.854  1.00  0.00     0.069 A 
HETATM    6 CL1  UNL     1       2.654   1.826  -2.441  1.00  0.00    -0.081 Cl
HETATM    7  C20 UNL     1       0.666   2.085  -0.717  1.00  0.00     0.056 A 
ENDROOT
BRANCH   1   8
HETATM    8  N2  UNL     1      -1.335   2.454   0.747  1.00  0.00    -0.315 N 
HETATM    9  H11 UNL     1      -1.249   3.400   1.141  1.00  0.00     0.176 HD
BRANCH   8  10
HETATM   10  C7  UNL     1      -2.526   1.763   0.518  1.00  0.00     0.012 C 
HETATM   11  C6  UNL     1      -3.558   1.165   0.342  1.00  0.00    -0.063 C 
BRANCH  11  12
HETATM   12  C5  UNL     1      -4.824   0.457   0.138  1.00  0.00     0.152 C 
HETATM   13  N1  UNL     1      -4.531  -0.875  -0.293  1.00  0.00    -0.217 NA
HETATM   14  C2  UNL     1      -4.915  -0.999  -1.675  1.00  0.00     0.106 C 
HETATM   15  C3  UNL     1      -5.837   0.140  -2.002  1.00  0.00     0.018 C 
HETATM   16  C4  UNL     1      -5.599   1.156  -0.925  1.00  0.00     0.034 C 
BRANCH  13  17
HETATM   17  S1  UNL     1      -5.354  -2.099   0.633  1.00  0.00     0.088 S 
HETATM   18  C1  UNL     1      -6.692  -1.462   1.624  1.00  0.00     0.146 C 
HETATM   19  O1  UNL     1      -4.434  -2.997   1.410  1.00  0.00    -0.242 OA
ENDBRANCH  13  17
ENDBRANCH  11  12
ENDBRANCH   8  10
ENDBRANCH   1   8
BRANCH   4  20
HETATM   20  O2  UNL     1       3.784   0.381  -0.135  1.00  0.00    -0.345 OA
BRANCH  20  21
HETATM   21  C12 UNL     1       4.531  -0.339   0.797  1.00  0.00     0.214 C 
BRANCH  21  22
HETATM   22  C13 UNL     1       5.848  -0.761   0.286  1.00  0.00    -0.031 A 
HETATM   23  C14 UNL     1       6.942   0.076   0.458  1.00  0.00     0.009 A 
HETATM   24  C15 UNL     1       8.224  -0.216   0.021  1.00  0.00     0.004 A 
HETATM   25  C16 UNL     1       8.459  -1.396  -0.624  1.00  0.00     0.042 A 
HETATM   26  C17 UNL     1       7.402  -2.241  -0.808  1.00  0.00     0.117 A 
HETATM   27  F1  UNL     1       7.634  -3.412  -1.448  1.00  0.00    -0.206 F 
HETATM   28  C18 UNL     1       6.130  -1.957  -0.377  1.00  0.00     0.051 A 
ENDBRANCH  21  22
ENDBRANCH  20  21
ENDBRANCH   4  20
TORSDOF 7
