REMARK  7 active torsions:
REMARK  status: ('A' for Active; 'I' for Inactive)
REMARK    1  A    between atoms: N1_2  and  C2_3 
REMARK    2  A    between atoms: N2_4  and  C3_5 
REMARK    3  A    between atoms: C3_5  and  N3_6 
REMARK    4  A    between atoms: N3_6  and  C4_7 
REMARK    5  A    between atoms: C7_10  and  O1_11 
REMARK    6  A    between atoms: O1_11  and  C8_12 
REMARK    7  A    between atoms: C8_12  and  C9_13 
ROOT
HETATM    1  C4  UNL     1       2.111   0.952  -0.033  1.00  0.00     0.031 A 
HETATM    2  C5  UNL     1       1.346   0.490  -1.090  1.00  0.00     0.032 A 
HETATM    3  C6  UNL     1       0.008   0.202  -0.892  1.00  0.00     0.041 A 
HETATM    4  C7  UNL     1      -0.581   0.367   0.344  1.00  0.00     0.091 A 
HETATM    5  C15 UNL     1       0.197   0.833   1.406  1.00  0.00     0.069 A 
HETATM    6 CL1  UNL     1      -0.522   1.052   2.989  1.00  0.00    -0.081 Cl
HETATM    7  C16 UNL     1       1.552   1.130   1.224  1.00  0.00     0.056 A 
ENDROOT
BRANCH   4   8
HETATM    8  O1  UNL     1      -1.926   0.079   0.552  1.00  0.00    -0.345 OA
BRANCH   8   9
HETATM    9  C8  UNL     1      -2.692  -0.390  -0.534  1.00  0.00     0.214 C 
BRANCH   9  10
HETATM   10  C9  UNL     1      -4.107  -0.656  -0.169  1.00  0.00    -0.031 A 
HETATM   11  C10 UNL     1      -4.433  -1.938   0.287  1.00  0.00     0.009 A 
HETATM   12  C11 UNL     1      -5.693  -2.355   0.666  1.00  0.00     0.004 A 
HETATM   13  C12 UNL     1      -6.715  -1.430   0.590  1.00  0.00     0.042 A 
HETATM   14  C13 UNL     1      -6.433  -0.154   0.145  1.00  0.00     0.117 A 
HETATM   15  F1  UNL     1      -7.450   0.741   0.076  1.00  0.00    -0.206 F 
HETATM   16  C14 UNL     1      -5.162   0.232  -0.228  1.00  0.00     0.051 A 
ENDBRANCH   9  10
ENDBRANCH   8   9
ENDBRANCH   4   8
BRANCH   1  17
HETATM   17  N3  UNL     1       3.509   1.277  -0.146  1.00  0.00    -0.372 N 
HETATM   18  H6  UNL     1       3.918   1.135  -1.114  1.00  0.00     0.161 HD
BRANCH  17  19
HETATM   19  C3  UNL     1       4.339   1.764   0.943  1.00  0.00     0.272 C 
BRANCH  19  20
HETATM   20  N2  UNL     1       5.701   1.980   0.439  1.00  0.00    -0.264 NA
HETATM   21  C2  UNL     1       6.388   0.892   0.276  1.00  0.00     0.227 C 
BRANCH  21  22
HETATM   22  N1  UNL     1       5.856  -0.409   0.566  1.00  0.00    -0.265 NA
HETATM   23  C1  UNL     1       6.152  -1.448  -0.132  1.00  0.00     0.150 C 
ENDBRANCH  21  22
ENDBRANCH  19  20
ENDBRANCH  17  19
ENDBRANCH   1  17
TORSDOF 7
