REMARK  4 active torsions:
REMARK  status: ('A' for Active; 'I' for Inactive)
REMARK    1  A    between atoms: S1_2  and  N1_5 
REMARK    2  A    between atoms: C5_9  and  C6_10 
REMARK    3  A    between atoms: C7_11  and  C8_12 
REMARK    4  A    between atoms: C12_18  and  N4_19 
ROOT
HETATM    1  C8  UNL     1       1.814  -0.083  -0.484  1.00  0.00     0.061 A 
HETATM    2  C9  UNL     1       2.528  -1.093  -0.956  1.00  0.00     0.061 A 
HETATM    3  C10 UNL     1       3.888  -1.085  -0.842  1.00  0.00     0.081 A 
HETATM    4  N2  UNL     1       4.832  -1.965  -1.226  1.00  0.00    -0.241 NA
HETATM    5  C11 UNL     1       6.117  -1.744  -1.007  1.00  0.00     0.236 A 
HETATM    6  N3  UNL     1       6.673  -0.673  -0.401  1.00  0.00    -0.224 NA
HETATM    7  C12 UNL     1       5.808   0.263   0.020  1.00  0.00     0.142 A 
HETATM    8  C13 UNL     1       4.441   0.026  -0.215  1.00  0.00     0.080 A 
HETATM    9  S2  UNL     1       2.942   1.047   0.199  1.00  0.00    -0.075 SA
ENDROOT
BRANCH   1  10
HETATM   10  C7  UNL     1       0.342   0.087  -0.514  1.00  0.00    -0.058 C 
HETATM   11  C6  UNL     1      -0.854   0.216  -0.558  1.00  0.00    -0.080 C 
BRANCH  11  12
HETATM   12  C5  UNL     1      -2.307   0.375  -0.634  1.00  0.00     0.153 C 
HETATM   13  N1  UNL     1      -2.805   0.297   0.711  1.00  0.00    -0.195 NA
HETATM   14  C2  UNL     1      -3.985   1.142   0.651  1.00  0.00     0.109 C 
HETATM   15  C3  UNL     1      -3.369   2.402   0.033  1.00  0.00     0.018 C 
HETATM   16  C4  UNL     1      -2.679   1.754  -1.173  1.00  0.00     0.034 C 
BRANCH  13  17
HETATM   17  S1  UNL     1      -3.246  -1.308   1.153  1.00  0.00     0.209 S 
HETATM   18  C1  UNL     1      -4.327  -2.055  -0.010  1.00  0.00     0.180 C 
HETATM   19  O1  UNL     1      -3.920  -1.266   2.490  1.00  0.00    -0.212 OA
HETATM   20  O2  UNL     1      -2.030  -2.157   1.276  1.00  0.00    -0.212 OA
ENDBRANCH  13  17
ENDBRANCH  11  12
ENDBRANCH   1  10
BRANCH   7  21
HETATM   21  N4  UNL     1       6.146   1.473   0.680  1.00  0.00    -0.383 N 
HETATM   22  H13 UNL     1       6.766   1.608   1.522  1.00  0.00     0.157 HD
HETATM   23  H14 UNL     1       5.804   2.441   0.401  1.00  0.00     0.157 HD
ENDBRANCH   7  21
TORSDOF 4
