REMARK  0 active torsions:
REMARK  status: ('A' for Active; 'I' for Inactive)
ROOT
HETATM    1  F1  UNL     1      -2.744   2.385  -1.030  1.00  0.00    -0.205 F 
HETATM    2  C1  UNL     1      -2.443   1.144  -0.596  1.00  0.00     0.135 A 
HETATM    3  C2  UNL     1      -2.877  -0.100  -0.985  1.00  0.00     0.053 A 
HETATM    4  C3  UNL     1      -2.331  -1.113  -0.249  1.00  0.00    -0.031 A 
HETATM    5  C4  UNL     1      -1.438  -1.103   0.804  1.00  0.00     0.011 A 
HETATM    6  C5  UNL     1      -0.965   0.116   1.242  1.00  0.00     0.024 A 
HETATM    7  C6  UNL     1      -1.572   1.039   0.432  1.00  0.00     0.056 A 
HETATM    8  C7  UNL     1      -0.812   2.086   0.902  1.00  0.00    -0.063 C 
HETATM    9  C8  UNL     1      -0.163   2.946   1.284  1.00  0.00    -0.090 C 
HETATM   10  C9  UNL     1       0.672   4.013   1.756  1.00  0.00     0.172 C 
HETATM   11  S1  UNL     1       2.050   4.227   0.544  1.00  0.00    -0.128 SA
HETATM   12  C10 UNL     1       2.968   2.660   0.470  1.00  0.00     0.062 C 
HETATM   13  C11 UNL     1       2.349   1.786  -0.355  1.00  0.00     0.094 C 
HETATM   14  N1  UNL     1       2.579   0.455  -0.799  1.00  0.00    -0.375 N 
HETATM   15  C12 UNL     1       2.588  -0.925  -0.494  1.00  0.00     0.087 C 
HETATM   16  C13 UNL     1       1.544  -1.715  -0.668  1.00  0.00     0.019 C 
HETATM   17  C14 UNL     1       0.817  -2.972  -0.635  1.00  0.00     0.025 C 
HETATM   18  C15 UNL     1      -0.332  -3.630  -0.867  1.00  0.00     0.135 C 
HETATM   19  O1  UNL     1      -1.360  -2.886  -1.359  1.00  0.00    -0.359 OA
HETATM   20  C16 UNL     1      -2.564  -2.563  -0.641  1.00  0.00     0.213 C 
HETATM   21  H8  UNL     1       2.900   0.215  -1.787  1.00  0.00     0.164 HD
ENDROOT
TORSDOF 0
