REMARK  5 active torsions:
REMARK  status: ('A' for Active; 'I' for Inactive)
REMARK       I    between atoms: C2_2  and  N1_4 
REMARK    1  A    between atoms: C6_8  and  C7_9 
REMARK    2  A    between atoms: C8_10  and  C9_11 
REMARK    3  A    between atoms: C16_19  and  O2_20 
REMARK    4  A    between atoms: O2_20  and  C17_21 
REMARK    5  A    between atoms: C17_21  and  C18_22 
ROOT
HETATM    1  C9  UNL     1      -2.263  -1.611  -0.932  1.00  0.00     0.056 C 
HETATM    2  C10 UNL     1      -1.069  -1.435  -0.448  1.00  0.00     0.016 C 
HETATM    3  C11 UNL     1      -0.080  -2.465  -0.749  1.00  0.00     0.084 C 
HETATM    4  C12 UNL     1      -0.348  -2.982  -2.139  1.00  0.00     0.011 C 
HETATM    5  C13 UNL     1       0.473  -3.175  -3.124  1.00  0.00     0.099 C 
HETATM    6  N2  UNL     1       1.843  -2.866  -2.907  1.00  0.00    -0.386 N 
HETATM    7  C14 UNL     1       2.300  -2.812  -1.549  1.00  0.00     0.139 A 
HETATM    8  C15 UNL     1       3.602  -2.118  -1.427  1.00  0.00     0.041 A 
HETATM    9  C16 UNL     1       3.449  -1.025  -0.697  1.00  0.00     0.089 A 
HETATM   10  C24 UNL     1       2.042  -0.972  -0.320  1.00  0.00     0.072 A 
HETATM   11 CL1  UNL     1       1.387   0.319   0.661  1.00  0.00    -0.081 Cl
HETATM   12  C25 UNL     1       1.318  -1.968  -0.775  1.00  0.00    -0.017 A 
HETATM   13  S1  UNL     1      -2.119  -3.179  -1.829  1.00  0.00    -0.084 SA
HETATM   14  H14 UNL     1       2.458  -2.692  -3.728  1.00  0.00     0.160 HD
ENDROOT
BRANCH   1  15
HETATM   15  C8  UNL     1      -3.478  -0.852  -0.863  1.00  0.00    -0.058 C 
HETATM   16  C7  UNL     1      -4.494  -0.211  -0.785  1.00  0.00    -0.075 C 
BRANCH  16  17
HETATM   17  C6  UNL     1      -5.750   0.553  -0.687  1.00  0.00     0.167 C 
HETATM   18  N1  UNL     1      -5.785   1.212   0.579  1.00  0.00    -0.337 N 
HETATM   19  C2  UNL     1      -4.861   2.032   1.291  1.00  0.00     0.216 C 
HETATM   20  C3  UNL     1      -7.014   1.027   1.330  1.00  0.00     0.127 C 
HETATM   21  C1  UNL     1      -3.497   2.486   0.923  1.00  0.00     0.117 C 
HETATM   22  O1  UNL     1      -5.459   2.309   2.344  1.00  0.00    -0.274 OA
HETATM   23  C4  UNL     1      -7.857   0.258   0.357  1.00  0.00     0.023 C 
HETATM   24  C5  UNL     1      -6.954  -0.326  -0.696  1.00  0.00     0.040 C 
ENDBRANCH  16  17
ENDBRANCH   1  15
BRANCH   9  25
HETATM   25  O2  UNL     1       4.444  -0.118  -0.365  1.00  0.00    -0.345 OA
BRANCH  25  26
HETATM   26  C17 UNL     1       4.763   0.245   0.950  1.00  0.00     0.214 C 
BRANCH  26  27
HETATM   27  C18 UNL     1       5.872   1.242   1.035  1.00  0.00    -0.031 A 
HETATM   28  C19 UNL     1       7.129   0.661   1.122  1.00  0.00     0.009 A 
HETATM   29  C20 UNL     1       8.280   1.427   1.209  1.00  0.00     0.004 A 
HETATM   30  C21 UNL     1       8.161   2.809   1.207  1.00  0.00     0.042 A 
HETATM   31  C22 UNL     1       6.919   3.369   1.121  1.00  0.00     0.117 A 
HETATM   32  F1  UNL     1       6.767   4.728   1.116  1.00  0.00    -0.206 F 
HETATM   33  C23 UNL     1       5.764   2.619   1.034  1.00  0.00     0.051 A 
ENDBRANCH  26  27
ENDBRANCH  25  26
ENDBRANCH   9  25
TORSDOF 5
