REMARK  4 active torsions:
REMARK  status: ('A' for Active; 'I' for Inactive)
REMARK    1  A    between atoms: O1_2  and  C2_3 
REMARK       I    between atoms: C2_3  and  N1_5 
REMARK    2  A    between atoms: C6_9  and  C7_10 
REMARK    3  A    between atoms: C8_11  and  C9_12 
REMARK    4  A    between atoms: C13_18  and  N4_19 
ROOT
HETATM    1  C9  UNL     1      -0.282   0.259   0.552  1.00  0.00     0.061 A 
HETATM    2  C10 UNL     1       0.110   1.387   1.292  1.00  0.00     0.061 A 
HETATM    3  C11 UNL     1       1.403   1.755   1.306  1.00  0.00     0.081 A 
HETATM    4  N2  UNL     1       1.933   2.796   1.968  1.00  0.00    -0.241 NA
HETATM    5  C12 UNL     1       3.224   3.074   1.927  1.00  0.00     0.236 A 
HETATM    6  N3  UNL     1       4.169   2.403   1.257  1.00  0.00    -0.222 NA
HETATM    7  C13 UNL     1       3.791   1.340   0.549  1.00  0.00     0.154 A 
HETATM    8  C21 UNL     1       2.396   1.019   0.578  1.00  0.00     0.081 A 
HETATM    9  S1  UNL     1       1.356  -0.339  -0.203  1.00  0.00    -0.075 SA
ENDROOT
BRANCH   1  10
HETATM   10  C8  UNL     1      -1.525  -0.413   0.321  1.00  0.00    -0.057 C 
HETATM   11  C7  UNL     1      -2.553  -0.975   0.150  1.00  0.00    -0.075 C 
BRANCH  11  12
HETATM   12  C6  UNL     1      -3.792  -1.679  -0.049  1.00  0.00     0.169 C 
HETATM   13  N1  UNL     1      -4.824  -0.750  -0.450  1.00  0.00    -0.313 N 
HETATM   14  C2  UNL     1      -4.891   0.667  -0.729  1.00  0.00     0.363 C 
HETATM   15  C3  UNL     1      -5.912  -1.754  -0.511  1.00  0.00     0.129 C 
HETATM   16  O2  UNL     1      -4.218   1.720  -0.776  1.00  0.00    -0.238 OA
HETATM   17  C4  UNL     1      -5.893  -2.251   0.936  1.00  0.00     0.023 C 
HETATM   18  C5  UNL     1      -4.383  -2.256   1.245  1.00  0.00     0.040 C 
BRANCH  14  19
HETATM   19  O1  UNL     1      -6.182   1.067  -1.093  1.00  0.00    -0.309 OA
HETATM   20  C1  UNL     1      -6.521   2.379  -1.414  1.00  0.00     0.215 C 
ENDBRANCH  14  19
ENDBRANCH  11  12
ENDBRANCH   1  10
BRANCH   7  21
HETATM   21  N4  UNL     1       4.555   0.439  -0.233  1.00  0.00    -0.316 N 
HETATM   22  C14 UNL     1       5.045   1.011  -1.470  1.00  0.00     0.110 C 
HETATM   23  C15 UNL     1       6.055   0.712  -2.259  1.00  0.00    -0.007 C 
HETATM   24  C16 UNL     1       7.262   0.438  -1.785  1.00  0.00     0.037 C 
HETATM   25  C17 UNL     1       7.627  -0.843  -1.145  1.00  0.00     0.035 C 
HETATM   26 CL1  UNL     1       9.257  -1.386  -1.523  1.00  0.00    -0.084 Cl
HETATM   27  C18 UNL     1       7.057  -1.738  -0.332  1.00  0.00     0.025 C 
HETATM   28  C19 UNL     1       5.714  -1.786   0.295  1.00  0.00     0.019 C 
HETATM   29  C20 UNL     1       4.714  -0.885   0.321  1.00  0.00     0.098 C 
ENDBRANCH   7  21
TORSDOF 4
