REMARK  5 active torsions:
REMARK  status: ('A' for Active; 'I' for Inactive)
REMARK       I    between atoms: C2_2  and  N1_4 
REMARK    1  A    between atoms: C6_8  and  C7_9 
REMARK    2  A    between atoms: C8_10  and  C9_11 
REMARK    3  A    between atoms: C13_17  and  N4_18 
REMARK    4  A    between atoms: N4_18  and  C14_19 
REMARK    5  A    between atoms: C14_19  and  C15_20 
ROOT
HETATM    1  C9  UNL     1      -0.460   1.301  -0.135  1.00  0.00     0.061 A 
HETATM    2  C10 UNL     1       0.199   2.414   0.271  1.00  0.00     0.061 A 
HETATM    3  C11 UNL     1       1.559   2.489   0.213  1.00  0.00     0.081 A 
HETATM    4  N2  UNL     1       2.401   3.478   0.556  1.00  0.00    -0.241 NA
HETATM    5  C12 UNL     1       3.709   3.336   0.414  1.00  0.00     0.236 A 
HETATM    6  N3  UNL     1       4.377   2.250  -0.067  1.00  0.00    -0.223 NA
HETATM    7  C13 UNL     1       3.595   1.224  -0.430  1.00  0.00     0.144 A 
HETATM    8  C17 UNL     1       2.194   1.354  -0.287  1.00  0.00     0.080 A 
HETATM    9  S1  UNL     1       0.868   0.184  -0.672  1.00  0.00    -0.075 SA
ENDROOT
BRANCH   1  10
HETATM   10  C8  UNL     1      -1.841   0.993  -0.170  1.00  0.00    -0.057 C 
HETATM   11  C7  UNL     1      -3.009   0.746  -0.215  1.00  0.00    -0.075 C 
BRANCH  11  12
HETATM   12  C6  UNL     1      -4.442   0.458  -0.289  1.00  0.00     0.167 C 
HETATM   13  N1  UNL     1      -4.705  -0.948  -0.453  1.00  0.00    -0.337 N 
HETATM   14  C2  UNL     1      -3.728  -1.955  -0.645  1.00  0.00     0.216 C 
HETATM   15  C3  UNL     1      -6.172  -0.935  -0.357  1.00  0.00     0.127 C 
HETATM   16  C1  UNL     1      -4.338  -3.304  -0.779  1.00  0.00     0.117 C 
HETATM   17  O1  UNL     1      -2.460  -1.836  -0.711  1.00  0.00    -0.274 OA
HETATM   18  C4  UNL     1      -6.418  -0.045   0.848  1.00  0.00     0.023 C 
HETATM   19  C5  UNL     1      -5.125   0.756   1.020  1.00  0.00     0.040 C 
ENDBRANCH  11  12
ENDBRANCH   1  10
BRANCH   7  20
HETATM   20  N4  UNL     1       4.080  -0.000  -0.958  1.00  0.00    -0.370 N 
HETATM   21  H13 UNL     1       3.440  -0.770  -1.229  1.00  0.00     0.161 HD
BRANCH  20  22
HETATM   22  C14 UNL     1       5.510  -0.152  -1.111  1.00  0.00     0.150 C 
BRANCH  22  23
HETATM   23  C15 UNL     1       6.133  -0.035   0.230  1.00  0.00     0.017 C 
HETATM   24  C16 UNL     1       6.868  -0.880   0.927  1.00  0.00     0.028 A 
HETATM   25  P1  UNL     1       7.896  -1.968   1.988  1.00  0.00    -0.040 P 
HETATM   26 CL1  UNL     1       7.091  -2.385   0.016  1.00  0.00    -0.158 Cl
HETATM   27  H17 UNL     1       9.217  -1.402   2.193  1.00  0.00     0.071 HD
HETATM   28  H18 UNL     1       7.300  -2.137   3.302  1.00  0.00     0.071 HD
ENDBRANCH  22  23
ENDBRANCH  20  22
ENDBRANCH   7  20
TORSDOF 5
