REMARK  6 active torsions:
REMARK  status: ('A' for Active; 'I' for Inactive)
REMARK    1  A    between atoms: S1_2  and  N1_5 
REMARK    2  A    between atoms: C5_9  and  C6_10 
REMARK    3  A    between atoms: C7_11  and  C8_12 
REMARK    4  A    between atoms: C12_18  and  N4_19 
REMARK    5  A    between atoms: N4_19  and  C13_20 
REMARK    6  A    between atoms: C13_20  and  C14_21 
ROOT
HETATM    1  C14 UNL     1       6.505   2.099   0.238  1.00  0.00    -0.070 C 
HETATM    2  C15 UNL     1       7.179   1.657   1.136  1.00  0.00     0.006 C 
HETATM    3 CL1  UNL     1       8.127   1.011   2.440  1.00  0.00    -0.023 Cl
ENDROOT
BRANCH   1   4
HETATM    4  C13 UNL     1       5.661   2.631  -0.843  1.00  0.00     0.217 C 
BRANCH   4   5
HETATM    5  N4  UNL     1       4.347   2.040  -0.686  1.00  0.00    -0.363 N 
HETATM    6  H13 UNL     1       3.483   2.574  -0.532  1.00  0.00     0.162 HD
BRANCH   5   7
HETATM    7  C12 UNL     1       4.353   0.637  -0.764  1.00  0.00     0.145 A 
HETATM    8  N3  UNL     1       5.404  -0.166  -0.960  1.00  0.00    -0.223 NA
HETATM    9  C11 UNL     1       5.167  -1.490  -0.999  1.00  0.00     0.236 A 
HETATM   10  N2  UNL     1       3.997  -2.084  -0.863  1.00  0.00    -0.241 NA
HETATM   11  C10 UNL     1       2.849  -1.420  -0.661  1.00  0.00     0.081 A 
HETATM   12  C9  UNL     1       1.549  -1.770  -0.493  1.00  0.00     0.061 A 
HETATM   13  C16 UNL     1       3.091  -0.029  -0.619  1.00  0.00     0.080 A 
HETATM   14  C8  UNL     1       0.594  -0.871  -0.306  1.00  0.00     0.061 A 
HETATM   15  S2  UNL     1       1.379   0.721  -0.331  1.00  0.00    -0.075 SA
BRANCH  14  16
HETATM   16  C7  UNL     1      -0.834  -1.091  -0.112  1.00  0.00    -0.058 C 
HETATM   17  C6  UNL     1      -2.011  -1.277   0.028  1.00  0.00    -0.080 C 
BRANCH  17  18
HETATM   18  C5  UNL     1      -3.454  -1.527   0.183  1.00  0.00     0.153 C 
HETATM   19  N1  UNL     1      -4.143  -0.638  -0.688  1.00  0.00    -0.195 NA
HETATM   20  C2  UNL     1      -5.478  -0.569  -0.130  1.00  0.00     0.109 C 
HETATM   21  C3  UNL     1      -5.372  -0.823   1.343  1.00  0.00     0.018 C 
HETATM   22  C4  UNL     1      -3.936  -1.225   1.568  1.00  0.00     0.034 C 
BRANCH  19  23
HETATM   23  S1  UNL     1      -3.437   0.918  -0.847  1.00  0.00     0.209 S 
HETATM   24  C1  UNL     1      -3.242   1.766   0.681  1.00  0.00     0.180 C 
HETATM   25  O1  UNL     1      -4.417   1.739  -1.673  1.00  0.00    -0.212 OA
HETATM   26  O2  UNL     1      -2.151   0.901  -1.581  1.00  0.00    -0.212 OA
ENDBRANCH  19  23
ENDBRANCH  17  18
ENDBRANCH  14  16
ENDBRANCH   5   7
ENDBRANCH   4   5
ENDBRANCH   1   4
TORSDOF 6
