REMARK  7 active torsions:
REMARK  status: ('A' for Active; 'I' for Inactive)
REMARK    1  A    between atoms: C2_2  and  C3_4 
REMARK    2  A    between atoms: C4_5  and  C5_6 
REMARK    3  A    between atoms: C6_7  and  C7_8 
REMARK    4  A    between atoms: C7_8  and  O1_9 
REMARK    5  A    between atoms: O1_9  and  C8_10 
REMARK    6  A    between atoms: C8_10  and  C14_18 
REMARK    7  A    between atoms: C9_11  and  C10_12 
ROOT
HETATM    1  C8  UNL     1      -1.757  -2.351  -0.604  1.00  0.00     0.076 C 
HETATM    2  C9  UNL     1      -2.188  -1.120  -0.547  1.00  0.00     0.083 C 
ENDROOT
BRANCH   1   3
HETATM    3  O1  UNL     1      -0.489  -1.783  -0.707  1.00  0.00    -0.349 OA
BRANCH   3   4
HETATM    4  C7  UNL     1       0.320  -1.874   0.454  1.00  0.00     0.202 C 
BRANCH   4   5
HETATM    5  C6  UNL     1       1.614  -1.223   0.154  1.00  0.00    -0.000 C 
HETATM    6  C5  UNL     1       2.170  -0.194   0.747  1.00  0.00    -0.002 C 
BRANCH   6   7
HETATM    7  C4  UNL     1       3.461   0.333   0.328  1.00  0.00     0.003 C 
HETATM    8  C3  UNL     1       4.051   1.366   0.901  1.00  0.00     0.041 C 
BRANCH   8   9
HETATM    9  C2  UNL     1       3.519   2.128   2.018  1.00  0.00     0.107 C 
HETATM   10  C1  UNL     1       4.166   3.138   2.527  1.00  0.00     0.056 C 
HETATM   11  F1  UNL     1       2.353   1.946   2.678  1.00  0.00    -0.207 F 
ENDBRANCH   8   9
ENDBRANCH   6   7
ENDBRANCH   4   5
ENDBRANCH   3   4
ENDBRANCH   1   3
BRANCH   1  12
HETATM   12  C14 UNL     1      -1.869  -3.800  -0.617  1.00  0.00     0.054 C 
HETATM   13  C15 UNL     1      -0.765  -4.499  -0.725  1.00  0.00     0.039 C 
HETATM   14 CL1  UNL     1      -3.463  -4.512  -0.487  1.00  0.00    -0.083 Cl
ENDBRANCH   1  12
BRANCH   2  15
HETATM   15  C10 UNL     1      -3.314  -0.218  -0.434  1.00  0.00     0.016 C 
HETATM   16  C11 UNL     1      -2.784   1.018  -0.461  1.00  0.00     0.043 A 
HETATM   17  C12 UNL     1      -1.395   1.503  -0.576  1.00  0.00     0.141 A 
HETATM   18  N2  UNL     1      -3.480   2.278  -0.380  1.00  0.00    -0.371 N 
HETATM   19  N1  UNL     1      -1.237   2.782  -0.570  1.00  0.00    -0.280 NA
HETATM   20  C13 UNL     1      -2.545   3.384  -0.446  1.00  0.00     0.270 A 
HETATM   21  H14 UNL     1      -4.504   2.325  -0.289  1.00  0.00     0.161 HD
ENDBRANCH   2  15
TORSDOF 7
