REMARK  8 active torsions:
REMARK  status: ('A' for Active; 'I' for Inactive)
REMARK    1  A    between atoms: C3_3  and  C4_4 
REMARK    2  A    between atoms: C4_4  and  S1_6 
REMARK    3  A    between atoms: S1_6  and  C5_7 
REMARK    4  A    between atoms: C8_12  and  N3_13 
REMARK    5  A    between atoms: N3_13  and  C9_14 
REMARK    6  A    between atoms: C12_17  and  O2_18 
REMARK    7  A    between atoms: O2_18  and  C13_19 
REMARK    8  A    between atoms: C13_19  and  C14_20 
ROOT
HETATM    1  C1  UNL     1       7.870  -0.786  -0.002  1.00  0.00     0.112 C 
HETATM    2  C2  UNL     1       6.844  -0.063  -0.764  1.00  0.00    -0.102 C 
HETATM    3  C3  UNL     1       6.000   0.558  -1.407  1.00  0.00    -0.017 C 
ENDROOT
BRANCH   3   4
HETATM    4  C4  UNL     1       5.013   1.288  -2.190  1.00  0.00     0.267 C 
HETATM    5  O1  UNL     1       5.108   1.402  -3.432  1.00  0.00    -0.270 OA
BRANCH   4   6
HETATM    6  S1  UNL     1       3.687   1.974  -1.155  1.00  0.00    -0.034 SA
BRANCH   6   7
HETATM    7  C5  UNL     1       3.913   1.184   0.455  1.00  0.00     0.072 A 
HETATM    8  C6  UNL     1       4.708   1.413   1.553  1.00  0.00     0.140 A 
HETATM    9  N1  UNL     1       4.572   0.577   2.592  1.00  0.00    -0.253 NA
HETATM   10  C7  UNL     1       3.726  -0.440   2.620  1.00  0.00     0.235 A 
HETATM   11  N2  UNL     1       2.923  -0.709   1.573  1.00  0.00    -0.223 NA
HETATM   12  C8  UNL     1       3.017   0.105   0.489  1.00  0.00     0.148 A 
BRANCH  12  13
HETATM   13  N3  UNL     1       2.032  -0.382  -0.455  1.00  0.00    -0.340 N 
HETATM   14  H6  UNL     1       2.409  -0.890  -1.278  1.00  0.00     0.167 HD
BRANCH  13  15
HETATM   15  C9  UNL     1       0.613  -0.186  -0.283  1.00  0.00     0.035 A 
HETATM   16  C10 UNL     1      -0.225  -0.692  -1.281  1.00  0.00     0.032 A 
HETATM   17  C11 UNL     1      -1.609  -0.542  -1.113  1.00  0.00     0.041 A 
HETATM   18  C12 UNL     1      -2.084   0.081  -0.004  1.00  0.00     0.090 A 
HETATM   19  C19 UNL     1      -1.272   0.600   1.013  1.00  0.00     0.069 A 
HETATM   20 CL1  UNL     1      -1.901   1.398   2.426  1.00  0.00    -0.081 Cl
HETATM   21  C20 UNL     1       0.106   0.444   0.834  1.00  0.00     0.056 A 
BRANCH  18  22
HETATM   22  O2  UNL     1      -3.456   0.208   0.130  1.00  0.00    -0.345 OA
BRANCH  22  23
HETATM   23  C13 UNL     1      -4.381  -0.261  -0.811  1.00  0.00     0.213 C 
BRANCH  23  24
HETATM   24  C14 UNL     1      -5.781   0.021  -0.329  1.00  0.00    -0.019 A 
HETATM   25  C15 UNL     1      -6.034   0.618   0.814  1.00  0.00     0.008 A 
HETATM   26  C16 UNL     1      -7.488   0.729   0.964  1.00  0.00    -0.001 A 
HETATM   27  C17 UNL     1      -8.075   0.194  -0.100  1.00  0.00     0.014 A 
HETATM   28  C18 UNL     1      -7.022  -0.317  -1.043  1.00  0.00     0.224 A 
HETATM   29  F1  UNL     1      -7.202  -1.684  -1.160  1.00  0.00    -0.240 F 
ENDBRANCH  23  24
ENDBRANCH  22  23
ENDBRANCH  18  22
ENDBRANCH  13  15
ENDBRANCH  12  13
ENDBRANCH   6   7
ENDBRANCH   4   6
ENDBRANCH   3   4
TORSDOF 8
