REMARK  5 active torsions:
REMARK  status: ('A' for Active; 'I' for Inactive)
REMARK    1  A    between atoms: C2_2  and  O1_3 
REMARK    2  A    between atoms: O1_3  and  C3_4 
REMARK    3  A    between atoms: C13_15  and  C14_16 
REMARK    4  A    between atoms: C15_17  and  C16_19 
REMARK    5  A    between atoms: C16_19  and  O2_20 
ROOT
HETATM    1  C3  UNL     1      -3.594   0.948  -0.614  1.00  0.00     0.262 C 
HETATM    2  C4  UNL     1      -4.646  -0.157  -0.877  1.00  0.00     0.073 C 
HETATM    3  C5  UNL     1      -5.039  -0.768   0.470  1.00  0.00     0.099 C 
HETATM    4  C6  UNL     1      -3.932  -1.370   1.116  1.00  0.00    -0.102 C 
HETATM    5  C7  UNL     1      -3.041  -1.859   1.615  1.00  0.00    -0.079 C 
HETATM    6  C8  UNL     1      -1.932  -2.476   2.211  1.00  0.00     0.060 C 
HETATM    7  C9  UNL     1      -0.984  -3.130   1.617  1.00  0.00    -0.017 C 
HETATM    8  C10 UNL     1       0.246  -3.906   1.512  1.00  0.00     0.035 C 
HETATM    9  C11 UNL     1       1.335  -3.305   0.716  1.00  0.00     0.021 C 
HETATM   10  C12 UNL     1       1.468  -2.104   0.188  1.00  0.00     0.124 C 
HETATM   11  N1  UNL     1       1.818  -0.895  -0.458  1.00  0.00    -0.301 N 
HETATM   12  C13 UNL     1       3.007  -0.139  -0.072  1.00  0.00     0.242 A 
HETATM   13  N2  UNL     1       3.234   1.004  -0.858  1.00  0.00    -0.252 NA
HETATM   14  C18 UNL     1       2.552   1.493  -1.825  1.00  0.00     0.240 A 
HETATM   15  N3  UNL     1       1.335   1.031  -2.424  1.00  0.00    -0.186 NA
HETATM   16  S1  UNL     1       0.730  -0.325  -1.788  1.00  0.00     0.076 SA
HETATM   17  N4  UNL     1      -1.074  -0.334  -1.472  1.00  0.00    -0.219 NA
HETATM   18  C19 UNL     1      -1.340   0.391  -0.249  1.00  0.00     0.274 C 
HETATM   19  O3  UNL     1      -2.617   0.408   0.163  1.00  0.00    -0.347 OA
HETATM   20  H25 UNL     1      -1.588   0.166  -2.221  1.00  0.00     0.139 HD
ENDROOT
BRANCH  12  21
HETATM   21  C14 UNL     1       4.234  -1.011  -0.218  1.00  0.00     0.043 C 
HETATM   22  C15 UNL     1       5.375  -0.776   0.444  1.00  0.00     0.035 C 
HETATM   23 CL1  UNL     1       6.821  -1.781   0.291  1.00  0.00    -0.087 Cl
BRANCH  22  24
HETATM   24  C16 UNL     1       5.750   0.279   1.409  1.00  0.00     0.218 C 
BRANCH  24  25
HETATM   25  O2  UNL     1       6.839   0.992   0.883  1.00  0.00    -0.391 OA
HETATM   26  C17 UNL     1       6.514   1.591  -0.329  1.00  0.00     0.201 C 
ENDBRANCH  24  25
ENDBRANCH  22  24
ENDBRANCH  12  21
BRANCH   1  27
HETATM   27  O1  UNL     1      -4.239   1.971   0.142  1.00  0.00    -0.362 OA
BRANCH  27  28
HETATM   28  C2  UNL     1      -4.301   3.131  -0.630  1.00  0.00     0.166 C 
HETATM   29  C1  UNL     1      -5.003   4.204   0.197  1.00  0.00     0.033 C 
ENDBRANCH  27  28
ENDBRANCH   1  27
TORSDOF 5
