REMARK  9 active torsions:
REMARK  status: ('A' for Active; 'I' for Inactive)
REMARK    1  A    between atoms: C1_2  and  O1_3 
REMARK    2  A    between atoms: C1_2  and  C9_11 
REMARK    3  A    between atoms: O1_3  and  C2_4 
REMARK    4  A    between atoms: C2_4  and  C3_5 
REMARK    5  A    between atoms: C9_11  and  B1_13 
REMARK    6  A    between atoms: B1_13  and  C10_14 
REMARK    7  A    between atoms: C10_14  and  C11_15 
REMARK    8  A    between atoms: C11_15  and  N1_16 
REMARK    9  A    between atoms: N1_16  and  C12_17 
ROOT
HETATM    1  C9  UNL     1       0.365   1.509  -1.216  1.00  0.00     0.095 C 
HETATM    2 CL1  UNL     1       1.641   2.698  -1.551  1.00  0.00    -0.131 Cl
ENDROOT
BRANCH   1   3
HETATM    3  C1  UNL     1      -0.627   2.134  -0.292  1.00  0.00     0.315 C 
HETATM    4  F1  UNL     1       0.009   2.499   0.891  1.00  0.00    -0.219 F 
BRANCH   3   5
HETATM    5  O1  UNL     1      -1.570   1.166   0.031  1.00  0.00    -0.352 OA
BRANCH   5   6
HETATM    6  C2  UNL     1      -2.833   1.670  -0.284  1.00  0.00     0.210 C 
BRANCH   6   7
HETATM    7  C3  UNL     1      -3.883   0.670   0.043  1.00  0.00    -0.035 A 
HETATM    8  C4  UNL     1      -4.270  -0.247  -0.911  1.00  0.00     0.009 A 
HETATM    9  C5  UNL     1      -5.236  -1.215  -0.704  1.00  0.00     0.001 A 
HETATM   10  C6  UNL     1      -5.825  -1.234   0.541  1.00  0.00     0.000 A 
HETATM   11  C7  UNL     1      -5.492  -0.351   1.550  1.00  0.00     0.001 A 
HETATM   12  C8  UNL     1      -4.513   0.603   1.284  1.00  0.00     0.009 A 
ENDBRANCH   6   7
ENDBRANCH   5   6
ENDBRANCH   3   5
ENDBRANCH   1   3
BRANCH   1  13
HETATM   13  B1  UNL     1       1.034   0.113  -0.438  1.00  0.00     0.196 B 
BRANCH  13  14
HETATM   14  C10 UNL     1       1.930  -1.233   0.374  1.00  0.00    -0.092 C 
BRANCH  14  15
HETATM   15  C11 UNL     1       3.397  -1.086   0.668  1.00  0.00     0.132 C 
BRANCH  15  16
HETATM   16  N1  UNL     1       4.213  -1.620  -0.412  1.00  0.00    -0.370 N 
HETATM   17  H13 UNL     1       4.030  -2.076  -1.336  1.00  0.00     0.161 HD
BRANCH  16  18
HETATM   18  C12 UNL     1       5.640  -1.560  -0.293  1.00  0.00     0.156 C 
HETATM   19  C13 UNL     1       6.656  -2.328   0.016  1.00  0.00     0.136 C 
HETATM   20  N2  UNL     1       7.680  -1.670   0.444  1.00  0.00    -0.236 NA
HETATM   21  C14 UNL     1       7.518  -0.373  -0.135  1.00  0.00     0.236 C 
HETATM   22  N3  UNL     1       6.290  -0.304  -0.579  1.00  0.00    -0.222 NA
ENDBRANCH  16  18
ENDBRANCH  15  16
ENDBRANCH  14  15
ENDBRANCH  13  14
ENDBRANCH   1  13
TORSDOF 9
