REMARK  1 active torsions:
REMARK  status: ('A' for Active; 'I' for Inactive)
REMARK    1  A    between atoms: C6_8  and  C7_9 
ROOT
HETATM    1  C1  UNL     1       4.968   0.068  -0.446  1.00  0.00     0.066 A 
HETATM    2  C2  UNL     1       3.818  -0.452  -0.840  1.00  0.00     0.101 A 
HETATM    3  N1  UNL     1       2.739  -0.172  -0.035  1.00  0.00    -0.323 N 
HETATM    4  C3  UNL     1       1.433  -0.608  -0.425  1.00  0.00     0.066 A 
HETATM    5  C4  UNL     1       1.476  -1.638  -1.254  1.00  0.00     0.032 A 
HETATM    6  C5  UNL     1       0.285  -2.309  -1.831  1.00  0.00     0.205 A 
HETATM    7  O1  UNL     1      -0.925  -1.729  -1.406  1.00  0.00    -0.344 OA
HETATM    8  C6  UNL     1      -1.029  -0.653  -0.534  1.00  0.00     0.110 A 
HETATM    9  C13 UNL     1       0.094  -0.095  -0.049  1.00  0.00     0.118 A 
HETATM   10  N2  UNL     1      -0.144   1.000   0.814  1.00  0.00    -0.239 NA
HETATM   11  C14 UNL     1       0.721   1.773   1.374  1.00  0.00     0.205 C 
HETATM   12  N3  UNL     1       2.147   1.764   1.300  1.00  0.00    -0.354 N 
HETATM   13  C15 UNL     1       2.948   0.559   1.186  1.00  0.00     0.258 A 
HETATM   14  S1  UNL     1       4.701   0.993   1.063  1.00  0.00    -0.093 SA
HETATM   15  H12 UNL     1       2.537   2.750   1.337  1.00  0.00     0.163 HD
ENDROOT
BRANCH   8  16
HETATM   16  C7  UNL     1      -2.335  -0.132  -0.146  1.00  0.00    -0.000 A 
HETATM   17  C8  UNL     1      -3.374   0.086  -1.034  1.00  0.00     0.014 A 
HETATM   18  C9  UNL     1      -4.586   0.573  -0.588  1.00  0.00     0.001 A 
HETATM   19  C10 UNL     1      -4.833   0.865   0.743  1.00  0.00     0.000 A 
HETATM   20  C11 UNL     1      -3.804   0.649   1.627  1.00  0.00     0.001 A 
HETATM   21  C12 UNL     1      -2.597   0.163   1.177  1.00  0.00     0.014 A 
ENDBRANCH   8  16
TORSDOF 1
