REMARK  5 active torsions:
REMARK  status: ('A' for Active; 'I' for Inactive)
REMARK    1  A    between atoms: N1_1  and  C1_2 
REMARK    2  A    between atoms: C1_2  and  C3_5 
REMARK    3  A    between atoms: C6_8  and  O1_9 
REMARK    4  A    between atoms: O1_9  and  C7_10 
REMARK    5  A    between atoms: C7_10  and  C8_11 
ROOT
HETATM    1  C3  UNL     1      -3.179  -0.352  -0.012  1.00  0.00    -0.007 A 
HETATM    2  C4  UNL     1      -2.501   0.834   0.154  1.00  0.00     0.016 A 
HETATM    3  C5  UNL     1      -1.120   0.767   0.236  1.00  0.00     0.039 A 
HETATM    4  C6  UNL     1      -0.428  -0.435   0.156  1.00  0.00     0.090 A 
HETATM    5  C14 UNL     1      -1.185  -1.591  -0.012  1.00  0.00     0.068 A 
HETATM    6 CL2  UNL     1      -0.370  -3.142  -0.120  1.00  0.00    -0.081 Cl
HETATM    7  C15 UNL     1      -2.569  -1.578  -0.099  1.00  0.00     0.040 A 
ENDROOT
BRANCH   4   8
HETATM    8  O1  UNL     1       0.956  -0.520   0.235  1.00  0.00    -0.345 OA
BRANCH   8   9
HETATM    9  C7  UNL     1       1.662   0.684   0.405  1.00  0.00     0.214 C 
BRANCH   9  10
HETATM   10  C8  UNL     1       3.127   0.478   0.478  1.00  0.00    -0.031 A 
HETATM   11  C9  UNL     1       3.823   0.253   1.642  1.00  0.00     0.009 A 
HETATM   12  C10 UNL     1       5.202   0.071   1.603  1.00  0.00     0.004 A 
HETATM   13  C11 UNL     1       5.859   0.119   0.385  1.00  0.00     0.042 A 
HETATM   14  C12 UNL     1       5.212   0.341  -0.812  1.00  0.00     0.117 A 
HETATM   15  F1  UNL     1       5.858   0.386  -1.994  1.00  0.00    -0.206 F 
HETATM   16  C13 UNL     1       3.846   0.514  -0.710  1.00  0.00     0.051 A 
ENDBRANCH   9  10
ENDBRANCH   8   9
ENDBRANCH   4   8
BRANCH   1  17
HETATM   17  C1  UNL     1      -4.625  -0.246  -0.093  1.00  0.00     0.047 C 
HETATM   18  C2  UNL     1      -5.229   0.929  -0.010  1.00  0.00     0.114 C 
HETATM   19 CL1  UNL     1      -6.978   1.004  -0.115  1.00  0.00    -0.095 Cl
BRANCH  17  20
HETATM   20  N1  UNL     1      -5.540  -1.322  -0.263  1.00  0.00    -0.398 N 
HETATM   21  H1  UNL     1      -6.356  -1.576   0.353  1.00  0.00     0.156 HD
HETATM   22  H2  UNL     1      -5.487  -2.007  -1.067  1.00  0.00     0.156 HD
ENDBRANCH  17  20
ENDBRANCH   1  17
TORSDOF 5
