REMARK  7 active torsions:
REMARK  status: ('A' for Active; 'I' for Inactive)
REMARK    1  A    between atoms: C2_2  and  N1_3 
REMARK       I    between atoms: N1_3  and  C4_5 
REMARK    2  A    between atoms: C4_5  and  O2_7 
REMARK    3  A    between atoms: O2_7  and  C5_8 
REMARK    4  A    between atoms: C7_11  and  C8_12 
REMARK    5  A    between atoms: C8_12  and  C9_13 
REMARK    6  A    between atoms: C13_19  and  N5_20 
REMARK    7  A    between atoms: N5_20  and  C14_21 
ROOT
HETATM    1  C9  UNL     1       0.167   0.388   0.246  1.00  0.00    -0.012 A 
HETATM    2  C10 UNL     1       0.577  -0.825  -0.215  1.00  0.00     0.047 A 
HETATM    3  C11 UNL     1       1.893  -1.155  -0.327  1.00  0.00     0.080 A 
HETATM    4  N3  UNL     1       2.476  -2.285  -0.754  1.00  0.00    -0.241 NA
HETATM    5  C12 UNL     1       3.813  -2.416  -0.788  1.00  0.00     0.236 A 
HETATM    6  N4  UNL     1       4.703  -1.459  -0.409  1.00  0.00    -0.223 NA
HETATM    7  C13 UNL     1       4.226  -0.289   0.035  1.00  0.00     0.148 A 
HETATM    8  C20 UNL     1       2.838  -0.191   0.056  1.00  0.00     0.080 A 
HETATM    9  S1  UNL     1       1.733   1.249   0.597  1.00  0.00    -0.088 SA
ENDROOT
BRANCH   1  10
HETATM   10  C8  UNL     1      -0.993   1.127   0.521  1.00  0.00     0.081 C 
BRANCH  10  11
HETATM   11  C7  UNL     1      -2.249   0.391   0.212  1.00  0.00     0.227 C 
HETATM   12  N2  UNL     1      -2.417  -0.005  -1.152  1.00  0.00     0.090 N 
HETATM   13  C6  UNL     1      -3.396   0.877  -1.712  1.00  0.00     0.302 C 
HETATM   14  H10 UNL     1      -1.546   0.023  -1.732  1.00  0.00     0.316 HD
HETATM   15  C5  UNL     1      -4.414   0.987  -0.566  1.00  0.00     0.163 C 
HETATM   16  C21 UNL     1      -3.427   1.306   0.571  1.00  0.00     0.070 C 
BRANCH  15  17
HETATM   17  O2  UNL     1      -4.965  -0.253  -0.259  1.00  0.00    -0.296 OA
BRANCH  17  18
HETATM   18  C4  UNL     1      -6.295  -0.580  -0.159  1.00  0.00     0.366 C 
HETATM   19  N1  UNL     1      -7.654  -0.955  -0.046  1.00  0.00    -0.309 N 
HETATM   20  C3  UNL     1      -7.960  -2.316   0.284  1.00  0.00     0.161 C 
HETATM   21  O1  UNL     1      -6.800   0.540  -0.419  1.00  0.00    -0.238 OA
BRANCH  19  22
HETATM   22  C2  UNL     1      -8.645   0.024  -0.263  1.00  0.00     0.085 C 
HETATM   23  C1  UNL     1      -9.899  -0.367  -0.149  1.00  0.00     0.030 C 
ENDBRANCH  19  22
ENDBRANCH  17  18
ENDBRANCH  15  17
ENDBRANCH  10  11
ENDBRANCH   1  10
BRANCH   7  24
HETATM   24  N5  UNL     1       4.994   0.803   0.465  1.00  0.00    -0.343 N 
HETATM   25  H16 UNL     1       4.541   1.680   0.797  1.00  0.00     0.167 HD
BRANCH  24  26
HETATM   26  C14 UNL     1       6.388   0.517   0.372  1.00  0.00     0.013 C 
HETATM   27  C15 UNL     1       6.881  -0.560   0.982  1.00  0.00     0.027 C 
HETATM   28  C16 UNL     1       8.216  -1.136   1.092  1.00  0.00     0.026 C 
HETATM   29  C17 UNL     1       9.354  -0.502   0.790  1.00  0.00     0.134 C 
HETATM   30  O3  UNL     1       9.517   0.808   0.318  1.00  0.00    -0.363 OA
HETATM   31  C18 UNL     1       8.512   1.804   0.377  1.00  0.00     0.180 C 
HETATM   32  C19 UNL     1       7.272   1.420  -0.399  1.00  0.00     0.083 C 
ENDBRANCH  24  26
ENDBRANCH   7  24
TORSDOF 7
