REMARK  4 active torsions:
REMARK  status: ('A' for Active; 'I' for Inactive)
REMARK    1  A    between atoms: C3_5  and  C4_6 
REMARK    2  A    between atoms: C4_6  and  O2_7 
REMARK    3  A    between atoms: O2_7  and  C5_8 
REMARK    4  A    between atoms: C5_8  and  C6_9 
ROOT
HETATM    1  O1  UNL     1      -2.214  -1.260  -0.849  1.00  0.00    -0.114 OA
HETATM    2  C1  UNL     1      -3.228  -1.980  -0.922  1.00  0.00     0.493 A 
HETATM    3  N1  UNL     1      -1.950  -2.506  -0.602  1.00  0.00     0.139 N 
HETATM    4  C2  UNL     1      -0.601  -2.006  -0.428  1.00  0.00     0.247 C 
HETATM    5  C3  UNL     1       0.293  -1.030  -0.410  1.00  0.00    -0.027 C 
HETATM    6  C12 UNL     1       0.217   0.422  -0.620  1.00  0.00     0.065 C 
HETATM    7  C13 UNL     1       0.716   1.220   0.559  1.00  0.00    -0.014 C 
HETATM    8  C14 UNL     1      -0.216   1.982   1.171  1.00  0.00     0.060 C 
HETATM    9  C15 UNL     1      -1.495   1.884   0.594  1.00  0.00    -0.077 C 
HETATM   10  C16 UNL     1      -2.546   1.786   0.131  1.00  0.00    -0.066 C 
HETATM   11  C17 UNL     1      -3.841   1.641  -0.433  1.00  0.00     0.301 C 
HETATM   12  C18 UNL     1      -3.868   0.868  -1.707  1.00  0.00     0.082 C 
HETATM   13  C19 UNL     1      -4.868  -0.218  -1.514  1.00  0.00     0.158 C 
HETATM   14  C20 UNL     1      -5.676   0.263  -0.303  1.00  0.00     0.303 C 
HETATM   15  N2  UNL     1      -4.686   0.917   0.510  1.00  0.00     0.102 N 
HETATM   16  O3  UNL     1      -4.432  -1.486  -1.223  1.00  0.00    -0.316 OA
HETATM   17  H1  UNL     1      -2.207  -3.543  -0.491  1.00  0.00     0.331 HD
HETATM   18  H21 UNL     1      -5.133   1.542   1.214  1.00  0.00     0.317 HD
ENDROOT
BRANCH   5  19
HETATM   19  C4  UNL     1       1.735  -1.332  -0.098  1.00  0.00     0.204 C 
BRANCH  19  20
HETATM   20  O2  UNL     1       2.501  -0.942  -1.195  1.00  0.00    -0.382 OA
BRANCH  20  21
HETATM   21  C5  UNL     1       3.842  -1.219  -0.947  1.00  0.00     0.206 C 
BRANCH  21  22
HETATM   22  C6  UNL     1       4.352  -0.509   0.249  1.00  0.00    -0.032 A 
HETATM   23  C7  UNL     1       4.306  -1.059   1.520  1.00  0.00     0.009 A 
HETATM   24  C8  UNL     1       4.799  -0.351   2.594  1.00  0.00     0.004 A 
HETATM   25  C9  UNL     1       5.348   0.891   2.506  1.00  0.00     0.042 A 
HETATM   26  C10 UNL     1       5.390   1.432   1.235  1.00  0.00     0.117 A 
HETATM   27  F1  UNL     1       5.901   2.659   0.953  1.00  0.00    -0.206 F 
HETATM   28  C11 UNL     1       4.911   0.768   0.125  1.00  0.00     0.051 A 
ENDBRANCH  21  22
ENDBRANCH  20  21
ENDBRANCH  19  20
ENDBRANCH   5  19
TORSDOF 4
