REMARK  6 active torsions:
REMARK  status: ('A' for Active; 'I' for Inactive)
REMARK       I    between atoms: N1_2  and  C3_4 
REMARK    1  A    between atoms: C3_4  and  O2_6 
REMARK    2  A    between atoms: O2_6  and  C4_7 
REMARK    3  A    between atoms: C6_10  and  C7_11 
REMARK    4  A    between atoms: C8_12  and  C9_13 
REMARK    5  A    between atoms: C13_19  and  N5_20 
REMARK    6  A    between atoms: N5_20  and  C14_21 
ROOT
HETATM    1  C9  UNL     1       1.177  -0.754   0.069  1.00  0.00     0.061 A 
HETATM    2  C10 UNL     1       1.784  -1.184   1.262  1.00  0.00     0.061 A 
HETATM    3  C11 UNL     1       3.117  -0.923   1.385  1.00  0.00     0.081 A 
HETATM    4  N3  UNL     1       3.845  -1.271   2.469  1.00  0.00    -0.241 NA
HETATM    5  C12 UNL     1       5.142  -1.005   2.563  1.00  0.00     0.236 A 
HETATM    6  N4  UNL     1       5.865  -0.364   1.595  1.00  0.00    -0.223 NA
HETATM    7  C13 UNL     1       5.175  -0.003   0.502  1.00  0.00     0.149 A 
HETATM    8  C19 UNL     1       3.825  -0.284   0.412  1.00  0.00     0.081 A 
HETATM    9  S1  UNL     1       2.625   0.045  -0.867  1.00  0.00    -0.075 SA
ENDROOT
BRANCH   1  10
HETATM   10  C8  UNL     1      -0.146  -0.831  -0.429  1.00  0.00    -0.057 C 
HETATM   11  C7  UNL     1      -1.246  -0.886  -0.863  1.00  0.00    -0.065 C 
BRANCH  11  12
HETATM   12  C6  UNL     1      -2.616  -0.946  -1.377  1.00  0.00     0.301 C 
HETATM   13  N2  UNL     1      -3.135   0.380  -1.529  1.00  0.00     0.102 N 
HETATM   14  C5  UNL     1      -3.344   0.758  -0.128  1.00  0.00     0.303 C 
HETATM   15  H10 UNL     1      -2.521   1.029  -2.030  1.00  0.00     0.317 HD
HETATM   16  C4  UNL     1      -4.240  -0.374   0.328  1.00  0.00     0.164 C 
HETATM   17  C20 UNL     1      -3.523  -1.567  -0.312  1.00  0.00     0.083 C 
BRANCH  16  18
HETATM   18  O2  UNL     1      -5.513  -0.184  -0.256  1.00  0.00    -0.297 OA
BRANCH  18  19
HETATM   19  C3  UNL     1      -6.633  -0.153   0.554  1.00  0.00     0.362 C 
HETATM   20  N1  UNL     1      -7.932   0.037   0.003  1.00  0.00    -0.337 N 
HETATM   21  C1  UNL     1      -9.064   0.058   0.925  1.00  0.00     0.154 C 
HETATM   22  C2  UNL     1      -8.072   0.198  -1.430  1.00  0.00     0.154 C 
HETATM   23  O1  UNL     1      -6.533  -0.291   1.804  1.00  0.00    -0.238 OA
ENDBRANCH  18  19
ENDBRANCH  16  18
ENDBRANCH  11  12
ENDBRANCH   1  10
BRANCH   7  24
HETATM   24  N5  UNL     1       5.763   0.665  -0.589  1.00  0.00    -0.340 N 
HETATM   25  H14 UNL     1       5.237   0.950  -1.441  1.00  0.00     0.167 HD
BRANCH  24  26
HETATM   26  C14 UNL     1       7.151   0.912  -0.410  1.00  0.00     0.034 A 
HETATM   27  C15 UNL     1       8.115   0.078  -0.085  1.00  0.00     0.045 A 
HETATM   28  C16 UNL     1       9.407   0.787  -0.014  1.00  0.00     0.240 A 
HETATM   29  F1  UNL     1      10.334   0.277  -0.906  1.00  0.00    -0.239 F 
HETATM   30  C17 UNL     1       9.026   2.176  -0.353  1.00  0.00     0.051 A 
HETATM   31 CL1  UNL     1      10.177   3.514  -0.431  1.00  0.00    -0.086 Cl
HETATM   32  C18 UNL     1       7.721   2.246  -0.582  1.00  0.00     0.052 A 
ENDBRANCH  24  26
ENDBRANCH   7  24
TORSDOF 6
