REMARK  8 active torsions:
REMARK  status: ('A' for Active; 'I' for Inactive)
REMARK    1  A    between atoms: N1_2  and  C2_3 
REMARK    2  A    between atoms: N2_4  and  N3_5 
REMARK    3  A    between atoms: C4_7  and  C14_19 
REMARK    4  A    between atoms: C6_9  and  O1_10 
REMARK    5  A    between atoms: C6_9  and  C14_19 
REMARK    6  A    between atoms: O1_10  and  C7_11 
REMARK    7  A    between atoms: C7_11  and  C8_12 
REMARK    8  A    between atoms: C14_19  and  C15_20 
ROOT
HETATM    1  N3  UNL     1      -1.580  -1.721   2.115  1.00  0.00     0.074 N 
HETATM    2  C3  UNL     1      -0.903  -0.445   2.695  1.00  0.00     0.235 A 
HETATM    3  C4  UNL     1      -0.184   0.821   2.906  1.00  0.00     0.123 A 
HETATM    4  C5  UNL     1       0.289   1.466   1.784  1.00  0.00    -0.000 A 
HETATM    5  C6  UNL     1      -0.351   0.341   1.301  1.00  0.00     0.132 A 
HETATM    6  C14 UNL     1      -0.887  -0.460   2.336  1.00  0.00     0.235 A 
HETATM    7  C15 UNL     1      -1.441  -1.268   3.498  1.00  0.00     0.306 A 
ENDROOT
BRANCH   5   8
HETATM    8  O1  UNL     1      -0.334   0.256  -0.070  1.00  0.00    -0.369 OA
BRANCH   8   9
HETATM    9  C7  UNL     1       0.091   0.802  -1.146  1.00  0.00     0.208 C 
BRANCH   9  10
HETATM   10  C8  UNL     1       1.513   0.886  -1.458  1.00  0.00    -0.032 A 
HETATM   11  C9  UNL     1       2.547   1.820  -1.154  1.00  0.00     0.009 A 
HETATM   12  C10 UNL     1       3.768   1.583  -1.753  1.00  0.00     0.004 A 
HETATM   13  C11 UNL     1       4.152   0.582  -2.605  1.00  0.00     0.042 A 
HETATM   14  C12 UNL     1       3.127  -0.337  -2.887  1.00  0.00     0.117 A 
HETATM   15  F1  UNL     1       3.460  -1.359  -3.715  1.00  0.00    -0.206 F 
HETATM   16  C13 UNL     1       1.886  -0.149  -2.323  1.00  0.00     0.051 A 
ENDBRANCH   9  10
ENDBRANCH   8   9
ENDBRANCH   5   8
BRANCH   1  17
HETATM   17  N2  UNL     1      -2.125  -2.765   1.177  1.00  0.00    -0.072 NA
HETATM   18  C2  UNL     1      -3.232  -2.384   0.521  1.00  0.00     0.311 C 
BRANCH  18  19
HETATM   19  N1  UNL     1      -4.329  -1.511   0.120  1.00  0.00    -0.121 NA
HETATM   20  C1  UNL     1      -4.031  -0.597  -0.812  1.00  0.00     0.954 C 
ENDBRANCH  18  19
ENDBRANCH   1  17
TORSDOF 8
