REMARK  3 active torsions:
REMARK  status: ('A' for Active; 'I' for Inactive)
REMARK    1  A    between atoms: C5_6  and  C6_7 
REMARK    2  A    between atoms: C6_7  and  O1_8 
REMARK    3  A    between atoms: O1_8  and  C7_9 
ROOT
HETATM    1  C7  UNL     1       0.075   0.512   0.653  1.00  0.00     0.091 A 
HETATM    2  C8  UNL     1      -0.612   0.682  -0.571  1.00  0.00     0.054 A 
HETATM    3  C9  UNL     1      -1.346   1.812  -0.322  1.00  0.00     0.019 A 
HETATM    4  C10 UNL     1      -1.601   2.757   0.668  1.00  0.00     0.044 A 
HETATM    5  C11 UNL     1      -0.895   2.488   1.772  1.00  0.00     0.057 A 
HETATM    6  C12 UNL     1      -0.105   1.400   1.713  1.00  0.00     0.069 A 
HETATM    7 CL1  UNL     1       0.792   1.131   3.218  1.00  0.00    -0.081 Cl
HETATM    8  N1  UNL     1      -2.575   3.785   0.234  1.00  0.00    -0.362 N 
HETATM    9  C13 UNL     1      -3.435   4.167  -0.991  1.00  0.00     0.157 A 
HETATM   10  C14 UNL     1      -2.824   3.142  -1.387  1.00  0.00     0.167 A 
HETATM   11  C15 UNL     1      -2.045   2.006  -1.609  1.00  0.00     0.070 A 
HETATM   12  N2  UNL     1      -2.358   1.797  -2.913  1.00  0.00    -0.251 NA
HETATM   13  C16 UNL     1      -3.292   2.937  -3.211  1.00  0.00     0.182 A 
HETATM   14  N3  UNL     1      -3.707   3.936  -2.290  1.00  0.00    -0.231 NA
HETATM   15  H8  UNL     1      -2.680   4.583   0.886  1.00  0.00     0.162 HD
ENDROOT
BRANCH   1  16
HETATM   16  O1  UNL     1       0.907  -0.592   0.679  1.00  0.00    -0.345 OA
BRANCH  16  17
HETATM   17  C6  UNL     1       1.057  -1.449  -0.444  1.00  0.00     0.214 C 
BRANCH  17  18
HETATM   18  C5  UNL     1       1.977  -2.537  -0.066  1.00  0.00    -0.031 A 
HETATM   19  C4  UNL     1       3.342  -2.371  -0.166  1.00  0.00     0.009 A 
HETATM   20  C3  UNL     1       4.132  -3.439   0.198  1.00  0.00     0.004 A 
HETATM   21  C2  UNL     1       3.702  -4.685   0.660  1.00  0.00     0.042 A 
HETATM   22  C1  UNL     1       2.322  -4.786   0.735  1.00  0.00     0.117 A 
HETATM   23  F1  UNL     1       1.815  -5.968   1.165  1.00  0.00    -0.206 F 
HETATM   24  C17 UNL     1       1.491  -3.729   0.378  1.00  0.00     0.051 A 
ENDBRANCH  17  18
ENDBRANCH  16  17
ENDBRANCH   1  16
TORSDOF 3
