REMARK  5 active torsions:
REMARK  status: ('A' for Active; 'I' for Inactive)
REMARK    1  A    between atoms: C2_2  and  C3_4 
REMARK    2  A    between atoms: C3_4  and  C4_5 
REMARK    3  A    between atoms: C4_5  and  C5_6 
REMARK    4  A    between atoms: C5_6  and  N1_7 
REMARK    5  A    between atoms: N1_7  and  C6_8 
ROOT
HETATM    1  C6  UNL     1       0.083   0.074   1.569  1.00  0.00     0.213 C 
HETATM    2  C7  UNL     1      -0.579  -1.019   1.772  1.00  0.00     0.038 C 
HETATM    3  C8  UNL     1      -0.327  -1.973   0.720  1.00  0.00     0.062 C 
HETATM    4  O1  UNL     1      -1.830  -2.286   0.662  1.00  0.00     0.000 OA
HETATM    5  C9  UNL     1      -2.858  -1.339   0.245  1.00  0.00     0.023 A 
HETATM    6  C10 UNL     1      -3.455  -0.313   1.277  1.00  0.00     0.061 A 
HETATM    7  C11 UNL     1      -4.178   0.659   0.651  1.00  0.00    -0.007 A 
HETATM    8  C12 UNL     1      -3.639  -0.218  -0.237  1.00  0.00     0.081 A 
HETATM    9  C13 UNL     1      -2.884  -1.281   0.360  1.00  0.00     0.023 A 
HETATM   10  C14 UNL     1      -2.623  -1.894  -0.940  1.00  0.00     0.020 A 
HETATM   11  C15 UNL     1      -2.735  -1.847   1.940  1.00  0.00     0.129 C 
HETATM   12  N2  UNL     1      -1.587  -1.455   2.715  1.00  0.00    -0.392 N 
HETATM   13  O2  UNL     1      -4.037   0.326  -1.562  1.00  0.00    -0.330 OA
HETATM   14  C16 UNL     1      -2.832   1.056  -2.221  1.00  0.00     0.425 C 
HETATM   15  N3  UNL     1      -1.577   1.089  -1.887  1.00  0.00    -0.362 NA
HETATM   16  C17 UNL     1      -0.699   0.547  -0.865  1.00  0.00     0.195 C 
HETATM   17  N4  UNL     1       0.144   0.024   0.025  1.00  0.00    -0.243 NA
HETATM   18  H17 UNL     1      -1.990  -1.653   3.599  1.00  0.00     0.159 HD
ENDROOT
BRANCH   1  19
HETATM   19  N1  UNL     1       0.842   1.098   1.166  1.00  0.00    -0.384 N 
HETATM   20  H9  UNL     1       0.089   1.822   1.141  1.00  0.00     0.156 HD
BRANCH  19  21
HETATM   21  C5  UNL     1       2.269   0.686   1.020  1.00  0.00     0.144 C 
BRANCH  21  22
HETATM   22  C4  UNL     1       3.066   1.794   0.505  1.00  0.00    -0.009 C 
BRANCH  22  23
HETATM   23  C3  UNL     1       3.696   1.568  -0.677  1.00  0.00     0.007 C 
BRANCH  23  24
HETATM   24  C2  UNL     1       4.260   1.125  -1.906  1.00  0.00     0.188 C 
HETATM   25  C1  UNL     1       5.782   1.091  -1.889  1.00  0.00     0.049 C 
HETATM   26  F1  UNL     1       3.886  -0.192  -2.217  1.00  0.00    -0.246 F 
ENDBRANCH  23  24
ENDBRANCH  22  23
ENDBRANCH  21  22
ENDBRANCH  19  21
ENDBRANCH   1  19
TORSDOF 5
