REMARK  5 active torsions:
REMARK  status: ('A' for Active; 'I' for Inactive)
REMARK       I    between atoms: N1_2  and  C2_3 
REMARK    1  A    between atoms: C2_3  and  O2_5 
REMARK    2  A    between atoms: O2_5  and  C3_6 
REMARK    3  A    between atoms: C5_9  and  C6_10 
REMARK    4  A    between atoms: C7_11  and  C8_12 
REMARK    5  A    between atoms: C12_18  and  N5_19 
ROOT
HETATM    1  C6  UNL     1       0.442  -0.105   0.351  1.00  0.00    -0.065 C 
HETATM    2  C7  UNL     1       1.579   0.045   0.035  1.00  0.00    -0.057 C 
ENDROOT
BRANCH   1   3
HETATM    3  C5  UNL     1      -0.913  -0.268   0.734  1.00  0.00     0.301 C 
HETATM    4  N2  UNL     1      -1.249  -1.656   1.041  1.00  0.00     0.102 N 
HETATM    5  C4  UNL     1      -2.696  -1.726   0.993  1.00  0.00     0.303 C 
HETATM    6  H8  UNL     1      -0.779  -2.327   0.400  1.00  0.00     0.317 HD
HETATM    7  C3  UNL     1      -3.163  -0.382   0.424  1.00  0.00     0.164 C 
HETATM    8  C14 UNL     1      -1.905   0.019  -0.359  1.00  0.00     0.083 C 
BRANCH   7   9
HETATM    9  O2  UNL     1      -4.324  -0.479  -0.303  1.00  0.00    -0.297 OA
BRANCH   9  10
HETATM   10  C2  UNL     1      -5.415   0.312   0.132  1.00  0.00     0.360 C 
HETATM   11  N1  UNL     1      -6.696   0.285  -0.543  1.00  0.00    -0.341 N 
HETATM   12  C1  UNL     1      -7.715   1.161   0.039  1.00  0.00     0.151 C 
HETATM   13  H4  UNL     1      -6.755  -0.365  -1.381  1.00  0.00     0.164 HD
HETATM   14  O1  UNL     1      -5.487   1.133   1.116  1.00  0.00    -0.239 OA
ENDBRANCH   9  10
ENDBRANCH   7   9
ENDBRANCH   1   3
BRANCH   2  15
HETATM   15  C8  UNL     1       2.955   0.235  -0.340  1.00  0.00     0.061 A 
HETATM   16  C9  UNL     1       3.683   1.049  -1.220  1.00  0.00     0.061 A 
HETATM   17  C10 UNL     1       5.006   0.881  -1.193  1.00  0.00     0.081 A 
HETATM   18  N3  UNL     1       5.913   1.546  -1.915  1.00  0.00    -0.241 NA
HETATM   19  C13 UNL     1       5.754   0.007  -0.413  1.00  0.00     0.081 A 
HETATM   20  C11 UNL     1       7.242   1.350  -1.840  1.00  0.00     0.236 A 
HETATM   21  N4  UNL     1       7.848   0.465  -1.031  1.00  0.00    -0.223 NA
HETATM   22  C12 UNL     1       7.065  -0.293  -0.231  1.00  0.00     0.154 A 
HETATM   23  S1  UNL     1       4.306  -0.786   0.519  1.00  0.00    -0.075 SA
BRANCH  22  24
HETATM   24  N5  UNL     1       7.413  -1.265   0.695  1.00  0.00    -0.306 N 
HETATM   25 BR1  UNL     1       7.354  -1.348   2.599  1.00  0.00     0.048 Br
HETATM   26  H12 UNL     1       7.795  -2.160   0.270  1.00  0.00     0.175 HD
ENDBRANCH  22  24
ENDBRANCH   2  15
TORSDOF 5
