REMARK  10 active torsions:
REMARK  status: ('A' for Active; 'I' for Inactive)
REMARK    1  A    between atoms: B1_1  and  C1_2 
REMARK    2  A    between atoms: C1_2  and  C2_3 
REMARK    3  A    between atoms: C3_4  and  N1_5 
REMARK    4  A    between atoms: N1_5  and  C4_6 
REMARK    5  A    between atoms: C7_9  and  C8_10 
REMARK    6  A    between atoms: C8_10  and  C13_16 
REMARK    7  A    between atoms: C9_11  and  C10_12 
REMARK    8  A    between atoms: C10_12  and  C11_13 
REMARK    9  A    between atoms: C11_13  and  C12_14 
REMARK   10  A    between atoms: C13_16  and  O1_17 
ROOT
HETATM    1  C4  UNL     1       2.240  -0.096   0.057  1.00  0.00     0.033 A 
HETATM    2  C5  UNL     1       1.694   1.143  -0.174  1.00  0.00     0.030 A 
HETATM    3  C6  UNL     1       0.332   1.305  -0.132  1.00  0.00     0.016 A 
HETATM    4  C7  UNL     1      -0.557   0.285   0.132  1.00  0.00    -0.006 A 
HETATM    5  C14 UNL     1       0.064  -0.911   0.349  1.00  0.00     0.047 A 
HETATM    6 CL1  UNL     1      -0.927  -2.302   0.679  1.00  0.00    -0.083 Cl
HETATM    7  C15 UNL     1       1.411  -1.156   0.326  1.00  0.00     0.054 A 
ENDROOT
BRANCH   4   8
HETATM    8  C8  UNL     1      -1.931   0.674   0.106  1.00  0.00    -0.023 C 
HETATM    9  C9  UNL     1      -2.830  -0.212   0.427  1.00  0.00     0.010 C 
BRANCH   9  10
HETATM   10  C10 UNL     1      -4.238  -0.372   0.565  1.00  0.00    -0.001 C 
BRANCH  10  11
HETATM   11  C11 UNL     1      -5.472  -0.636   0.723  1.00  0.00     0.004 C 
BRANCH  11  12
HETATM   12  C12 UNL     1      -5.747  -2.038   1.172  1.00  0.00     0.249 C 
HETATM   13  F1  UNL     1      -4.576  -2.750   1.328  1.00  0.00    -0.251 F 
ENDBRANCH  11  12
ENDBRANCH  10  11
ENDBRANCH   9  10
BRANCH   8  14
HETATM   14  C13 UNL     1      -2.343   2.034  -0.274  1.00  0.00     0.203 C 
BRANCH  14  15
HETATM   15  O1  UNL     1      -1.936   2.370  -1.580  1.00  0.00    -0.396 OA
HETATM   16  H15 UNL     1      -1.577   1.617  -2.088  1.00  0.00     0.209 HD
ENDBRANCH  14  15
ENDBRANCH   8  14
ENDBRANCH   4   8
BRANCH   1  17
HETATM   17  N1  UNL     1       3.655  -0.246   0.019  1.00  0.00    -0.366 N 
HETATM   18  H5  UNL     1       4.306  -0.234   0.830  1.00  0.00     0.165 HD
BRANCH  17  19
HETATM   19  C3  UNL     1       4.126  -0.423  -1.316  1.00  0.00     0.087 C 
HETATM   20  C2  UNL     1       5.321   0.114  -1.554  1.00  0.00     0.000 C 
BRANCH  20  21
HETATM   21  C1  UNL     1       5.999   0.811  -0.447  1.00  0.00    -0.093 C 
BRANCH  21  22
HETATM   22  B1  UNL     1       7.049  -0.396   0.259  1.00  0.00     0.144 B 
HETATM   23  H1  UNL     1       8.136  -0.949   1.297  1.00  0.00    -0.031 HD
ENDBRANCH  21  22
ENDBRANCH  20  21
ENDBRANCH  17  19
ENDBRANCH   1  17
TORSDOF 10
