REMARK  6 active torsions:
REMARK  status: ('A' for Active; 'I' for Inactive)
REMARK    1  A    between atoms: N1_7  and  C7_8 
REMARK    2  A    between atoms: C7_8  and  N2_9 
REMARK    3  A    between atoms: N2_9  and  C8_10 
REMARK    4  A    between atoms: C8_10  and  N3_12 
REMARK    5  A    between atoms: N3_12  and  C9_13 
REMARK    6  A    between atoms: N6_21  and  C15_22 
ROOT
HETATM    1  C9  UNL     1       0.867  -1.226  -0.680  1.00  0.00     0.029 C 
HETATM    2  C10 UNL     1       1.928  -1.925  -1.002  1.00  0.00     0.026 C 
HETATM    3  C11 UNL     1       2.485  -2.978  -0.100  1.00  0.00     0.029 C 
HETATM    4  C12 UNL     1       3.415  -3.035  -1.001  1.00  0.00     0.370 A 
HETATM    5  N4  UNL     1       4.651  -3.738  -1.290  1.00  0.00     0.352 N 
HETATM    6  C13 UNL     1       5.718  -2.990  -0.824  1.00  0.00     0.398 A 
HETATM    7  N5  UNL     1       4.569  -2.245  -0.507  1.00  0.00    -0.206 N 
HETATM    8  C14 UNL     1       4.319  -1.751   0.652  1.00  0.00     0.158 C 
HETATM    9  N6  UNL     1       3.000  -1.026   0.621  1.00  0.00    -0.342 N 
HETATM   10  C21 UNL     1       1.543  -0.777   0.614  1.00  0.00     0.186 C 
ENDROOT
BRANCH   1  11
HETATM   11  N3  UNL     1      -0.296  -0.379  -0.468  1.00  0.00    -0.335 N 
HETATM   12  H16 UNL     1      -0.900  -0.353   0.374  1.00  0.00     0.168 HD
BRANCH  11  13
HETATM   13  C8  UNL     1      -0.647   0.488  -1.547  1.00  0.00     0.173 C 
HETATM   14  S1  UNL     1       0.149   0.560  -2.973  1.00  0.00    -0.041 SA
BRANCH  13  15
HETATM   15  N2  UNL     1      -1.761   1.361  -1.448  1.00  0.00    -0.342 N 
HETATM   16  H15 UNL     1      -2.072   2.013  -2.177  1.00  0.00     0.163 HD
BRANCH  15  17
HETATM   17  C7  UNL     1      -2.589   1.402  -0.248  1.00  0.00     0.397 C 
BRANCH  17  18
HETATM   18  N1  UNL     1      -3.167   0.079  -0.104  1.00  0.00     0.110 N 
HETATM   19  C2  UNL     1      -3.923  -0.048   1.125  1.00  0.00     0.221 C 
HETATM   20  C1  UNL     1      -3.610   1.029   2.133  1.00  0.00     0.043 C 
HETATM   21  C3  UNL     1      -5.402  -0.218   0.872  1.00  0.00     0.035 C 
HETATM   22  C4  UNL     1      -5.914   0.783  -0.123  1.00  0.00     0.004 C 
HETATM   23  C5  UNL     1      -5.166   0.606  -1.424  1.00  0.00     0.030 C 
HETATM   24  C6  UNL     1      -3.957  -0.286  -1.263  1.00  0.00     0.275 C 
ENDBRANCH  17  18
ENDBRANCH  15  17
ENDBRANCH  13  15
ENDBRANCH  11  13
ENDBRANCH   1  11
BRANCH   9  25
HETATM   25  C15 UNL     1       3.663   0.264   0.526  1.00  0.00     0.036 A 
HETATM   26  C16 UNL     1       3.164   1.212  -0.395  1.00  0.00     0.033 A 
HETATM   27  C17 UNL     1       3.606   2.494  -0.640  1.00  0.00     0.046 A 
HETATM   28  C18 UNL     1       4.671   2.904   0.107  1.00  0.00     0.138 A 
HETATM   29  F1  UNL     1       5.199   4.138  -0.039  1.00  0.00    -0.204 F 
HETATM   30  C19 UNL     1       5.269   2.105   1.042  1.00  0.00     0.074 A 
HETATM   31 CL1  UNL     1       6.624   2.494   2.058  1.00  0.00    -0.081 Cl
HETATM   32  C20 UNL     1       4.738   0.854   1.192  1.00  0.00     0.056 A 
ENDBRANCH   9  25
TORSDOF 6
