REMARK  3 active torsions:
REMARK  status: ('A' for Active; 'I' for Inactive)
REMARK    1  A    between atoms: C5_7  and  N3_8 
REMARK    2  A    between atoms: N3_8  and  C6_9 
REMARK    3  A    between atoms: C12_16  and  C13_17 
ROOT
HETATM    1  N1  UNL     1      -2.269  -2.115   0.312  1.00  0.00    -0.281 NA
HETATM    2  C1  UNL     1      -2.445  -1.601  -0.788  1.00  0.00     0.160 C 
HETATM    3  C2  UNL     1      -2.219  -1.125  -2.212  1.00  0.00     0.167 C 
HETATM    4  N2  UNL     1      -1.017  -1.137  -2.845  1.00  0.00    -0.273 NA
HETATM    5  C3  UNL     1       0.009  -1.663  -1.880  1.00  0.00     0.097 C 
HETATM    6  C4  UNL     1      -0.088  -1.020  -0.708  1.00  0.00     0.065 C 
HETATM    7  C5  UNL     1      -0.720  -0.022   0.120  1.00  0.00     0.124 C 
HETATM    8  C12 UNL     1      -1.929   0.705  -0.258  1.00  0.00    -0.012 C 
HETATM    9  C14 UNL     1      -2.986   0.284   0.384  1.00  0.00     0.094 C 
HETATM   10  N4  UNL     1      -3.482  -0.802  -0.115  1.00  0.00    -0.226 NA
HETATM   11  H1  UNL     1      -2.641  -2.310   1.185  1.00  0.00     0.188 HD
ENDROOT
BRANCH   7  12
HETATM   12  N3  UNL     1       0.347   1.009   0.200  1.00  0.00    -0.381 N 
HETATM   13  H6  UNL     1       0.246   1.968  -0.184  1.00  0.00     0.160 HD
BRANCH  12  14
HETATM   14  C6  UNL     1       1.550   0.608   0.840  1.00  0.00     0.028 A 
HETATM   15  C7  UNL     1       2.553   1.527   0.904  1.00  0.00     0.032 A 
HETATM   16  C8  UNL     1       3.757   1.235   1.514  1.00  0.00     0.044 A 
HETATM   17  C9  UNL     1       4.018  -0.004   2.097  1.00  0.00     0.116 A 
HETATM   18  F1  UNL     1       5.217  -0.229   2.679  1.00  0.00    -0.206 F 
HETATM   19  C10 UNL     1       2.981  -0.916   2.017  1.00  0.00     0.044 A 
HETATM   20  C11 UNL     1       1.788  -0.604   1.404  1.00  0.00     0.032 A 
ENDBRANCH  12  14
ENDBRANCH   7  12
BRANCH   8  21
HETATM   21  C13 UNL     1      -2.283   1.787  -1.209  1.00  0.00     0.153 C 
HETATM   22 CL1  UNL     1      -1.791   3.354  -0.489  1.00  0.00    -0.126 Cl
ENDBRANCH   8  21
TORSDOF 3
