REMARK  7 active torsions:
REMARK  status: ('A' for Active; 'I' for Inactive)
REMARK    1  A    between atoms: C4_5  and  N1_6 
REMARK    2  A    between atoms: N1_6  and  C5_7 
REMARK    3  A    between atoms: C10_14  and  N4_15 
REMARK    4  A    between atoms: N4_15  and  C11_16 
REMARK    5  A    between atoms: C11_16  and  C12_18 
REMARK    6  A    between atoms: C12_18  and  C13_19 
REMARK    7  A    between atoms: C13_19  and  N5_20 
ROOT
HETATM    1  C5  UNL     1       3.236   0.902   0.732  1.00  0.00     0.142 A 
HETATM    2  N2  UNL     1       3.834   1.778   1.557  1.00  0.00    -0.224 NA
HETATM    3  C6  UNL     1       3.173   2.851   1.999  1.00  0.00     0.236 A 
HETATM    4  N3  UNL     1       1.899   3.099   1.643  1.00  0.00    -0.241 NA
HETATM    5  C7  UNL     1       1.258   2.261   0.826  1.00  0.00     0.072 A 
HETATM    6  C8  UNL     1      -0.039   2.600   0.539  1.00  0.00     0.035 A 
HETATM    7  C9  UNL     1      -0.781   1.787  -0.282  1.00  0.00     0.032 A 
HETATM    8  C10 UNL     1      -0.163   0.644  -0.786  1.00  0.00     0.034 A 
HETATM    9  C18 UNL     1       1.167   0.391  -0.430  1.00  0.00     0.047 A 
HETATM   10  C19 UNL     1       1.935   1.164   0.376  1.00  0.00     0.041 A 
ENDROOT
BRANCH   8  11
HETATM   11  N4  UNL     1      -0.949  -0.250  -1.525  1.00  0.00    -0.351 N 
HETATM   12  H7  UNL     1      -0.243  -0.659  -2.153  1.00  0.00     0.166 HD
BRANCH  11  13
HETATM   13  C11 UNL     1      -1.718  -1.135  -2.256  1.00  0.00     0.079 C 
HETATM   14  S1  UNL     1      -1.424  -2.282  -3.423  1.00  0.00    -0.065 SA
BRANCH  13  15
HETATM   15  C12 UNL     1      -3.190  -1.163  -2.054  1.00  0.00     0.100 C 
BRANCH  15  16
HETATM   16  C13 UNL     1      -3.451  -0.810  -0.595  1.00  0.00     0.279 C 
BRANCH  16  17
HETATM   17  N5  UNL     1      -4.883  -0.864  -0.306  1.00  0.00     0.088 N 
HETATM   18  C14 UNL     1      -5.518   0.230  -1.065  1.00  0.00     0.272 C 
HETATM   19  C15 UNL     1      -6.812   0.445  -0.267  1.00  0.00     0.032 C 
HETATM   20  C16 UNL     1      -6.448   0.064   1.155  1.00  0.00     0.032 C 
HETATM   21  C17 UNL     1      -4.995  -0.282   1.040  1.00  0.00     0.272 C 
ENDBRANCH  16  17
ENDBRANCH  15  16
ENDBRANCH  13  15
ENDBRANCH  11  13
ENDBRANCH   8  11
BRANCH   1  22
HETATM   22  N1  UNL     1       3.840  -0.248   0.203  1.00  0.00    -0.340 N 
HETATM   23  H3  UNL     1       3.341  -0.905  -0.389  1.00  0.00     0.167 HD
BRANCH  22  24
HETATM   24  C4  UNL     1       5.166  -0.729   0.357  1.00  0.00     0.035 A 
HETATM   25  C3  UNL     1       5.668  -1.914  -0.207  1.00  0.00     0.032 A 
HETATM   26  C2  UNL     1       6.952  -2.346  -0.055  1.00  0.00     0.046 A 
HETATM   27  C1  UNL     1       7.853  -1.632   0.678  1.00  0.00     0.138 A 
HETATM   28  F1  UNL     1       9.128  -2.071   0.820  1.00  0.00    -0.204 F 
HETATM   29  C21 UNL     1       7.443  -0.457   1.267  1.00  0.00     0.074 A 
HETATM   30  C20 UNL     1       6.129  -0.052   1.087  1.00  0.00     0.056 A 
HETATM   31 CL1  UNL     1       8.606   0.426   2.197  1.00  0.00    -0.081 Cl
ENDBRANCH  22  24
ENDBRANCH   1  22
TORSDOF 7
