REMARK  7 active torsions:
REMARK  status: ('A' for Active; 'I' for Inactive)
REMARK    1  A    between atoms: C3_3  and  C4_4 
REMARK    2  A    between atoms: C5_5  and  N1_6 
REMARK    3  A    between atoms: N1_6  and  C6_7 
REMARK    4  A    between atoms: C11_14  and  C12_15 
REMARK    5  A    between atoms: C12_15  and  C13_16 
REMARK    6  A    between atoms: C13_16  and  B1_17 
REMARK    7  A    between atoms: B1_17  and  N4_18 
ROOT
HETATM    1  C6  UNL     1       3.180  -2.239   0.191  1.00  0.00     0.141 A 
HETATM    2  N2  UNL     1       4.287  -2.801  -0.362  1.00  0.00    -0.224 NA
HETATM    3  C7  UNL     1       4.135  -3.710  -1.345  1.00  0.00     0.236 A 
HETATM    4  N3  UNL     1       2.896  -4.069  -1.787  1.00  0.00    -0.241 NA
HETATM    5  C8  UNL     1       1.813  -3.522  -1.248  1.00  0.00     0.072 A 
HETATM    6  C9  UNL     1       0.518  -3.808  -1.618  1.00  0.00     0.033 A 
HETATM    7  C10 UNL     1      -0.628  -3.273  -1.098  1.00  0.00     0.010 A 
HETATM    8  C11 UNL     1      -0.431  -2.333  -0.079  1.00  0.00    -0.055 A 
HETATM    9  C18 UNL     1       0.827  -1.986   0.354  1.00  0.00     0.025 A 
HETATM   10  C19 UNL     1       1.930  -2.586  -0.238  1.00  0.00     0.039 A 
ENDROOT
BRANCH   8  11
HETATM   11  C12 UNL     1      -1.579  -1.649   0.597  1.00  0.00     0.051 C 
BRANCH  11  12
HETATM   12  C13 UNL     1      -1.830  -0.405  -0.183  1.00  0.00    -0.082 C 
BRANCH  12  13
HETATM   13  B1  UNL     1      -3.378   0.499   0.038  1.00  0.00     0.298 B 
BRANCH  13  14
HETATM   14  N4  UNL     1      -4.785   1.460   0.136  1.00  0.00    -0.460 N 
HETATM   15  C14 UNL     1      -5.796   1.107   1.108  1.00  0.00     0.125 C 
HETATM   16  C15 UNL     1      -7.129   1.746   0.791  1.00  0.00     0.185 C 
HETATM   17  O1  UNL     1      -7.059   3.075   0.488  1.00  0.00    -0.388 OA
HETATM   18  C16 UNL     1      -5.845   3.570   0.100  1.00  0.00     0.185 C 
HETATM   19  C17 UNL     1      -5.002   2.619  -0.717  1.00  0.00     0.125 C 
ENDBRANCH  13  14
ENDBRANCH  12  13
ENDBRANCH  11  12
ENDBRANCH   8  11
BRANCH   1  20
HETATM   20  N1  UNL     1       3.372  -1.282   1.225  1.00  0.00    -0.350 N 
HETATM   21  H8  UNL     1       3.387  -1.809   2.144  1.00  0.00     0.166 HD
BRANCH  20  22
HETATM   22  C5  UNL     1       3.536   0.121   1.312  1.00  0.00     0.090 C 
HETATM   23  C4  UNL     1       4.419   0.881   0.738  1.00  0.00     0.017 C 
BRANCH  23  24
HETATM   24  C3  UNL     1       5.551   0.889  -0.148  1.00  0.00    -0.003 C 
HETATM   25  C2  UNL     1       6.437   1.675  -0.721  1.00  0.00    -0.031 C 
HETATM   26  C1  UNL     1       6.289   3.113  -0.381  1.00  0.00     0.036 C 
ENDBRANCH  23  24
ENDBRANCH  20  22
ENDBRANCH   1  20
TORSDOF 7
