REMARK  2 active torsions:
REMARK  status: ('A' for Active; 'I' for Inactive)
REMARK    1  A    between atoms: C2_2  and  C3_3 
REMARK    2  A    between atoms: C13_17  and  C14_18 
ROOT
HETATM    1  C3  UNL     1       3.047  -0.670   0.554  1.00  0.00     0.003 C 
HETATM    2  C4  UNL     1       2.722  -1.912   0.827  1.00  0.00     0.092 C 
HETATM    3  C5  UNL     1       2.757  -3.309   1.197  1.00  0.00     0.193 C 
HETATM    4  F1  UNL     1       3.529  -4.340   1.584  1.00  0.00    -0.189 F 
HETATM    5  N1  UNL     1       1.617  -3.893   1.174  1.00  0.00    -0.217 NA
HETATM    6  C6  UNL     1       0.471  -3.147   0.803  1.00  0.00     0.236 C 
HETATM    7  N2  UNL     1      -0.383  -2.969  -0.175  1.00  0.00    -0.245 NA
HETATM    8  C7  UNL     1      -1.451  -2.009  -0.029  1.00  0.00     0.054 C 
HETATM    9  C8  UNL     1      -1.997  -1.911   1.192  1.00  0.00     0.031 C 
HETATM   10  C9  UNL     1      -2.682  -0.634   1.458  1.00  0.00     0.027 C 
HETATM   11  C10 UNL     1      -2.721   0.322   0.505  1.00  0.00     0.008 C 
HETATM   12  C11 UNL     1      -3.278   1.660   0.882  1.00  0.00     0.068 C 
HETATM   13  N3  UNL     1      -2.244   0.068  -0.844  1.00  0.00    -0.348 N 
HETATM   14  C12 UNL     1      -1.820  -1.247  -1.217  1.00  0.00     0.188 C 
HETATM   15  C13 UNL     1      -2.302   1.299  -1.608  1.00  0.00     0.022 C 
HETATM   16  C15 UNL     1      -1.339   2.068  -2.078  1.00  0.00     0.007 C 
HETATM   17  C16 UNL     1      -0.209   1.255  -1.566  1.00  0.00     0.111 C 
HETATM   18  C17 UNL     1       1.109   1.500  -1.710  1.00  0.00     0.108 C 
HETATM   19  O1  UNL     1       2.068   0.663  -1.185  1.00  0.00    -0.389 OA
HETATM   20  C18 UNL     1       1.865   0.153   0.136  1.00  0.00     0.178 C 
ENDROOT
BRANCH   1  21
HETATM   21  C2  UNL     1       4.168   0.339   0.466  1.00  0.00     0.009 C 
HETATM   22  C1  UNL     1       3.842   1.447   1.429  1.00  0.00     0.006 C 
ENDBRANCH   1  21
BRANCH  15  23
HETATM   23  C14 UNL     1      -3.724   1.579  -1.782  1.00  0.00     0.171 C 
HETATM   24 CL1  UNL     1      -4.109   3.058  -2.667  1.00  0.00    -0.124 Cl
ENDBRANCH  15  23
TORSDOF 2
