REMARK  4 active torsions:
REMARK  status: ('A' for Active; 'I' for Inactive)
REMARK    1  A    between atoms: C1_2  and  N1_3 
REMARK    2  A    between atoms: C1_2  and  C7_11 
REMARK    3  A    between atoms: N1_3  and  C2_4 
REMARK    4  A    between atoms: C2_4  and  C3_5 
ROOT
HETATM    1  C7  UNL     1       0.126   0.244   0.543  1.00  0.00     0.003 A 
HETATM    2  C8  UNL     1      -0.354  -0.026   1.806  1.00  0.00     0.017 A 
HETATM    3  C9  UNL     1      -1.709   0.027   2.041  1.00  0.00     0.033 A 
HETATM    4  C10 UNL     1      -2.611   0.342   1.054  1.00  0.00     0.069 A 
HETATM    5  C11 UNL     1      -2.070   0.623  -0.266  1.00  0.00     0.005 A 
HETATM    6  C12 UNL     1      -0.712   0.566  -0.491  1.00  0.00     0.029 A 
HETATM    7  C13 UNL     1      -3.257   0.954  -1.124  1.00  0.00    -0.006 A 
HETATM    8  C14 UNL     1      -3.078   2.284  -0.939  1.00  0.00     0.016 A 
HETATM    9  C15 UNL     1      -4.424   2.426  -1.174  1.00  0.00     0.030 A 
HETATM   10  C16 UNL     1      -5.222   1.352  -1.441  1.00  0.00     0.034 A 
HETATM   11  C17 UNL     1      -4.944   0.006  -1.547  1.00  0.00     0.049 A 
HETATM   12  C18 UNL     1      -3.626  -0.327  -1.340  1.00  0.00     0.024 A 
HETATM   13 BR1  UNL     1      -2.772  -2.015  -1.387  1.00  0.00    -0.050 Br
HETATM   14  N3  UNL     1      -6.635   1.662  -1.490  1.00  0.00    -0.351 N 
HETATM   15  C19 UNL     1      -6.734   1.367  -0.047  1.00  0.00     0.208 C 
HETATM   16  N4  UNL     1      -6.227   1.199   1.185  1.00  0.00    -0.237 NA
HETATM   17  C20 UNL     1      -4.788   1.377   1.314  1.00  0.00     0.234 C 
HETATM   18  N5  UNL     1      -4.007   0.438   1.031  1.00  0.00    -0.241 NA
HETATM   19  H18 UNL     1      -7.618   1.921  -1.716  1.00  0.00     0.166 HD
ENDROOT
BRANCH   1  20
HETATM   20  C1  UNL     1       1.529   0.217   0.197  1.00  0.00     0.106 C 
HETATM   21  S1  UNL     1       1.995   1.803   0.184  1.00  0.00    -0.060 SA
BRANCH  20  22
HETATM   22  N1  UNL     1       2.377  -0.905  -0.082  1.00  0.00    -0.378 N 
HETATM   23  H1  UNL     1       1.839  -1.795  -0.008  1.00  0.00     0.160 HD
BRANCH  22  24
HETATM   24  C2  UNL     1       3.744  -0.509  -0.389  1.00  0.00     0.156 C 
BRANCH  24  25
HETATM   25  C3  UNL     1       4.541  -1.743  -0.660  1.00  0.00     0.242 C 
HETATM   26  C4  UNL     1       5.988  -1.455  -0.991  1.00  0.00     0.063 C 
HETATM   27  C5  UNL     1       6.491  -0.513   0.090  1.00  0.00     0.172 C 
HETATM   28  O1  UNL     1       6.029  -0.923   1.339  1.00  0.00    -0.363 OA
HETATM   29  C6  UNL     1       5.661  -2.253   1.371  1.00  0.00     0.438 C 
HETATM   30  N2  UNL     1       4.521  -2.571   0.533  1.00  0.00     0.112 N 
HETATM   31  H11 UNL     1       3.627  -2.367   1.033  1.00  0.00     0.319 HD
ENDBRANCH  24  25
ENDBRANCH  22  24
ENDBRANCH  20  22
ENDBRANCH   1  20
TORSDOF 4
