REMARK  7 active torsions:
REMARK  status: ('A' for Active; 'I' for Inactive)
REMARK    1  A    between atoms: O1_2  and  C2_3 
REMARK    2  A    between atoms: C10_12  and  C11_13 
REMARK    3  A    between atoms: C11_13  and  N2_14 
REMARK    4  A    between atoms: N2_14  and  C12_15 
REMARK    5  A    between atoms: N3_16  and  C13_17 
REMARK    6  A    between atoms: C13_17  and  N4_18 
REMARK    7  A    between atoms: N4_18  and  C14_19 
ROOT
HETATM    1  C11 UNL     1       0.003  -0.434  -0.758  1.00  0.00     0.002 C 
ENDROOT
BRANCH   1   2
HETATM    2  C10 UNL     1       1.286  -0.125  -0.631  1.00  0.00     0.212 C 
HETATM    3  C9  UNL     1       1.691   0.842  -1.639  1.00  0.00     0.327 C 
HETATM    4  N1  UNL     1       3.048   1.256  -1.625  1.00  0.00     0.091 N 
HETATM    5  C8  UNL     1       4.066   0.299  -1.432  1.00  0.00     0.311 C 
HETATM    6  H9  UNL     1       3.282   1.819  -2.471  1.00  0.00     0.316 HD
HETATM    7  C6  UNL     1       4.261  -0.118   0.002  1.00  0.00     0.006 A 
HETATM    8  C5  UNL     1       3.205  -0.618   0.780  1.00  0.00     0.079 A 
HETATM    9  C7  UNL     1       5.529   0.012   0.522  1.00  0.00     0.048 A 
HETATM   10  C4  UNL     1       3.442  -0.990   2.102  1.00  0.00     0.040 A 
HETATM   11  O2  UNL     1       1.848  -0.826   0.433  1.00  0.00    -0.320 OA
HETATM   12  C3  UNL     1       4.708  -0.862   2.630  1.00  0.00     0.039 A 
HETATM   13  C2  UNL     1       5.723  -0.366   1.833  1.00  0.00     0.069 A 
BRANCH  13  14
HETATM   14  O1  UNL     1       7.012  -0.232   2.358  1.00  0.00    -0.356 OA
HETATM   15  C1  UNL     1       8.088   0.266   1.601  1.00  0.00     0.210 C 
ENDBRANCH  13  14
ENDBRANCH   1   2
BRANCH   1  16
HETATM   16  N2  UNL     1      -1.281  -0.551  -0.703  1.00  0.00    -0.201 NA
BRANCH  16  17
HETATM   17  C12 UNL     1      -1.938   0.443   0.111  1.00  0.00     0.238 C 
HETATM   18  N3  UNL     1      -3.099  -0.029   0.452  1.00  0.00    -0.263 NA
BRANCH  18  19
HETATM   19  C13 UNL     1      -3.546  -1.357   0.018  1.00  0.00     0.272 C 
BRANCH  19  20
HETATM   20  N4  UNL     1      -4.561  -1.195  -0.994  1.00  0.00    -0.372 N 
HETATM   21  H15 UNL     1      -4.442  -1.579  -1.957  1.00  0.00     0.161 HD
BRANCH  20  22
HETATM   22  C14 UNL     1      -5.744  -0.506  -0.685  1.00  0.00     0.031 A 
HETATM   23  C15 UNL     1      -6.021   0.041   0.529  1.00  0.00     0.032 A 
HETATM   24  C16 UNL     1      -7.176   0.721   0.851  1.00  0.00     0.046 A 
HETATM   25  C17 UNL     1      -8.157   0.881  -0.116  1.00  0.00     0.138 A 
HETATM   26  F1  UNL     1      -9.292   1.538   0.165  1.00  0.00    -0.204 F 
HETATM   27  C18 UNL     1      -7.933   0.345  -1.379  1.00  0.00     0.074 A 
HETATM   28 CL1  UNL     1      -9.147   0.524  -2.632  1.00  0.00    -0.081 Cl
HETATM   29  C19 UNL     1      -6.752  -0.323  -1.626  1.00  0.00     0.056 A 
ENDBRANCH  20  22
ENDBRANCH  19  20
ENDBRANCH  18  19
ENDBRANCH  16  17
ENDBRANCH   1  16
TORSDOF 7
