REMARK  8 active torsions:
REMARK  status: ('A' for Active; 'I' for Inactive)
REMARK    1  A    between atoms: N1_1  and  C1_2 
REMARK    2  A    between atoms: C1_2  and  C2_3 
REMARK    3  A    between atoms: C2_3  and  C3_4 
REMARK    4  A    between atoms: C3_4  and  C4_5 
REMARK    5  A    between atoms: C4_5  and  C5_6 
REMARK    6  A    between atoms: C7_10  and  N4_11 
REMARK    7  A    between atoms: N4_11  and  C8_12 
REMARK    8  A    between atoms: C14_19  and  C15_20 
ROOT
HETATM    1  C5  UNL     1      -1.379  -0.457  -0.532  1.00  0.00     0.073 A 
HETATM    2  N2  UNL     1      -1.490   0.877  -0.540  1.00  0.00    -0.241 NA
HETATM    3  C6  UNL     1      -0.408   1.610  -0.275  1.00  0.00     0.236 A 
HETATM    4  N3  UNL     1       0.780   1.053  -0.004  1.00  0.00    -0.223 NA
HETATM    5  C7  UNL     1       0.989  -0.274   0.026  1.00  0.00     0.142 A 
HETATM    6  C14 UNL     1      -0.151  -0.987  -0.251  1.00  0.00     0.050 A 
ENDROOT
BRANCH   5   7
HETATM    7  N4  UNL     1       2.208  -0.936   0.302  1.00  0.00    -0.340 N 
HETATM    8  H9  UNL     1       2.193  -1.977   0.289  1.00  0.00     0.167 HD
BRANCH   7   9
HETATM    9  C8  UNL     1       3.456  -0.343   0.597  1.00  0.00     0.033 A 
HETATM   10  C9  UNL     1       4.573  -1.142   0.845  1.00  0.00     0.031 A 
HETATM   11  C10 UNL     1       5.811  -0.621   1.137  1.00  0.00     0.021 A 
HETATM   12  C11 UNL     1       6.009   0.741   1.198  1.00  0.00     0.011 A 
HETATM   13 BR1  UNL     1       7.759   1.371   1.610  1.00  0.00    -0.051 Br
HETATM   14  C12 UNL     1       4.947   1.579   0.964  1.00  0.00     0.021 A 
HETATM   15  C13 UNL     1       3.732   1.002   0.677  1.00  0.00     0.031 A 
ENDBRANCH   7   9
ENDBRANCH   5   7
BRANCH   6  16
HETATM   16  C15 UNL     1      -0.123  -2.281  -0.264  1.00  0.00     0.235 C 
HETATM   17 CL1  UNL     1       0.572  -3.858  -0.123  1.00  0.00    -0.229 Cl
ENDBRANCH   6  16
BRANCH   1  18
HETATM   18  C4  UNL     1      -2.436  -1.195  -0.790  1.00  0.00     0.032 C 
BRANCH  18  19
HETATM   19  C3  UNL     1      -3.746  -0.664  -1.090  1.00  0.00     0.000 C 
BRANCH  19  20
HETATM   20  C2  UNL     1      -4.257   0.549  -1.193  1.00  0.00     0.003 C 
BRANCH  20  21
HETATM   21  C1  UNL     1      -5.654   1.012  -1.514  1.00  0.00     0.294 C 
BRANCH  21  22
HETATM   22  N1  UNL     1      -6.113   1.780  -0.374  1.00  0.00     0.081 N 
HETATM   23  H1  UNL     1      -7.042   2.204  -0.519  1.00  0.00     0.313 HD
HETATM   24  H2  UNL     1      -6.136   1.205   0.495  1.00  0.00     0.313 HD
ENDBRANCH  21  22
ENDBRANCH  20  21
ENDBRANCH  19  20
ENDBRANCH  18  19
ENDBRANCH   1  18
TORSDOF 8
