REMARK  3 active torsions:
REMARK  status: ('A' for Active; 'I' for Inactive)
REMARK    1  A    between atoms: O1_2  and  C2_3 
REMARK    2  A    between atoms: C10_12  and  C11_13 
REMARK    3  A    between atoms: N2_14  and  C12_15 
ROOT
HETATM    1  C2  UNL     1      -2.952   0.570  -0.648  1.00  0.00     0.069 A 
HETATM    2  C3  UNL     1      -3.170  -0.725  -1.051  1.00  0.00     0.039 A 
HETATM    3  C4  UNL     1      -2.281  -1.698  -0.639  1.00  0.00     0.040 A 
HETATM    4  C5  UNL     1      -1.192  -1.411   0.156  1.00  0.00     0.085 A 
HETATM    5  C6  UNL     1      -0.950  -0.092   0.581  1.00  0.00     0.000 A 
HETATM    6  C7  UNL     1      -1.862   0.825   0.142  1.00  0.00     0.048 A 
HETATM    7  C8  UNL     1       0.223   0.200   1.450  1.00  0.00     0.111 C 
HETATM    8  C9  UNL     1       0.598   1.622   1.301  1.00  0.00     0.037 C 
HETATM    9  N1  UNL     1       1.184  -0.791   1.207  1.00  0.00    -0.388 N 
HETATM   10  C10 UNL     1       1.953  -0.788   0.031  1.00  0.00     0.237 C 
HETATM   11  N3  UNL     1       2.541  -2.108  -0.122  1.00  0.00    -0.285 N 
HETATM   12  N4  UNL     1       1.202  -2.312   0.145  1.00  0.00    -0.165 NA
HETATM   13  C13 UNL     1       0.458  -3.111  -0.491  1.00  0.00     0.280 C 
HETATM   14  O2  UNL     1      -0.421  -2.565   0.451  1.00  0.00    -0.302 OA
HETATM   15  H11 UNL     1       1.371  -1.501   1.912  1.00  0.00     0.156 HD
HETATM   16  H16 UNL     1       3.520  -2.410  -0.328  1.00  0.00     0.185 HD
ENDROOT
BRANCH  10  17
HETATM   17  C11 UNL     1       3.025   0.274   0.213  1.00  0.00     0.133 C 
HETATM   18  N2  UNL     1       3.553   0.851  -0.792  1.00  0.00    -0.271 NA
BRANCH  18  19
HETATM   19  C12 UNL     1       4.558   1.845  -0.560  1.00  0.00     0.370 C 
HETATM   20  F1  UNL     1       5.107   1.659   0.677  1.00  0.00    -0.232 F 
ENDBRANCH  18  19
ENDBRANCH  10  17
BRANCH   1  21
HETATM   21  O1  UNL     1      -3.804   1.580  -1.028  1.00  0.00    -0.356 OA
HETATM   22  C1  UNL     1      -4.909   1.240  -1.844  1.00  0.00     0.210 C 
ENDBRANCH   1  21
TORSDOF 3
