REMARK  4 active torsions:
REMARK  status: ('A' for Active; 'I' for Inactive)
REMARK    1  A    between atoms: N1_2  and  N2_3 
REMARK    2  A    between atoms: N2_3  and  C1_4 
REMARK    3  A    between atoms: C6_11  and  N5_12 
REMARK    4  A    between atoms: N5_12  and  C7_13 
ROOT
HETATM    1  C1  UNL     1      -2.394   1.421  -0.139  1.00  0.00     0.053 A 
HETATM    2  C2  UNL     1      -3.527   0.887  -0.701  1.00  0.00     0.033 A 
HETATM    3  C3  UNL     1      -3.576  -0.473  -0.929  1.00  0.00     0.035 A 
HETATM    4  C4  UNL     1      -2.523  -1.310  -0.612  1.00  0.00     0.072 A 
HETATM    5  N3  UNL     1      -2.549  -2.643  -0.819  1.00  0.00    -0.241 NA
HETATM    6  C5  UNL     1      -1.478  -3.388  -0.472  1.00  0.00     0.236 A 
HETATM    7  N4  UNL     1      -0.347  -2.896   0.082  1.00  0.00    -0.224 NA
HETATM    8  C6  UNL     1      -0.244  -1.566   0.320  1.00  0.00     0.142 A 
HETATM    9  C13 UNL     1      -1.361  -0.804  -0.043  1.00  0.00     0.041 A 
HETATM   10  C14 UNL     1      -1.370   0.552   0.161  1.00  0.00     0.048 A 
ENDROOT
BRANCH   8  11
HETATM   11  N5  UNL     1       0.836  -0.848   0.906  1.00  0.00    -0.340 N 
HETATM   12  H5  UNL     1       0.462  -0.642   1.861  1.00  0.00     0.167 HD
BRANCH  11  13
HETATM   13  C7  UNL     1       2.116  -0.454   0.475  1.00  0.00     0.033 A 
HETATM   14  C8  UNL     1       2.800  -0.981  -0.576  1.00  0.00     0.031 A 
HETATM   15  C9  UNL     1       4.050  -0.488  -0.908  1.00  0.00     0.021 A 
HETATM   16  C10 UNL     1       4.613   0.547  -0.172  1.00  0.00     0.011 A 
HETATM   17 BR1  UNL     1       6.318   1.322  -0.523  1.00  0.00    -0.051 Br
HETATM   18  C11 UNL     1       3.924   1.089   0.899  1.00  0.00     0.021 A 
HETATM   19  C12 UNL     1       2.683   0.587   1.215  1.00  0.00     0.031 A 
ENDBRANCH  11  13
ENDBRANCH   8  11
BRANCH   1  20
HETATM   20  N2  UNL     1      -2.377   2.820   0.076  1.00  0.00    -0.254 N 
HETATM   21  H1  UNL     1      -2.022   3.291  -0.770  1.00  0.00     0.191 HD
BRANCH  20  22
HETATM   22  N1  UNL     1      -2.782   3.397   1.261  1.00  0.00    -0.014 NA
HETATM   23  O1  UNL     1      -3.875   3.051   1.795  1.00  0.00    -0.042 OA
ENDBRANCH  20  22
ENDBRANCH   1  20
TORSDOF 4
