REMARK  8 active torsions:
REMARK  status: ('A' for Active; 'I' for Inactive)
REMARK    1  A    between atoms: C3_3  and  N1_4 
REMARK    2  A    between atoms: C3_3  and  C11_16 
REMARK    3  A    between atoms: N1_4  and  C4_5 
REMARK    4  A    between atoms: C4_5  and  N2_7 
REMARK    5  A    between atoms: N2_7  and  C5_8 
REMARK    6  A    between atoms: C5_8  and  C6_9 
REMARK    7  A    between atoms: C6_9  and  N3_10 
REMARK    8  A    between atoms: C14_21  and  C15_22 
ROOT
HETATM    1  C1  UNL     1      -0.863  -1.496  -2.810  1.00  0.00     0.038 C 
HETATM    2  C2  UNL     1      -1.683  -2.178  -1.798  1.00  0.00    -0.005 C 
HETATM    3  C3  UNL     1      -2.011  -1.832  -0.535  1.00  0.00     0.019 C 
ENDROOT
BRANCH   3   4
HETATM    4  N1  UNL     1      -1.268  -0.626  -0.635  1.00  0.00    -0.337 N 
HETATM    5  H5  UNL     1      -1.577   0.287  -0.998  1.00  0.00     0.168 HD
BRANCH   4   6
HETATM    6  C4  UNL     1       0.078  -0.744  -0.138  1.00  0.00     0.172 C 
HETATM    7  S1  UNL     1       0.731  -2.092   0.484  1.00  0.00    -0.041 SA
BRANCH   6   8
HETATM    8  N2  UNL     1       0.957   0.375  -0.165  1.00  0.00    -0.365 N 
HETATM    9  H6  UNL     1       0.590   1.289  -0.560  1.00  0.00     0.161 HD
BRANCH   8  10
HETATM   10  C5  UNL     1       2.332   0.393   0.302  1.00  0.00     0.152 C 
BRANCH  10  11
HETATM   11  C6  UNL     1       2.980   1.725   0.136  1.00  0.00     0.292 C 
BRANCH  11  12
HETATM   12  N3  UNL     1       4.330   1.752   0.596  1.00  0.00     0.094 N 
HETATM   13  C7  UNL     1       4.907   3.072   0.417  1.00  0.00     0.298 C 
HETATM   14  C8  UNL     1       6.215   3.024  -0.336  1.00  0.00     0.198 C 
HETATM   15  O1  UNL     1       6.155   2.340  -1.526  1.00  0.00    -0.388 OA
HETATM   16  C9  UNL     1       5.463   1.156  -1.446  1.00  0.00     0.198 C 
HETATM   17  C10 UNL     1       5.213   0.791   0.014  1.00  0.00     0.298 C 
ENDBRANCH  11  12
ENDBRANCH  10  11
ENDBRANCH   8  10
ENDBRANCH   6   8
ENDBRANCH   4   6
ENDBRANCH   3   4
BRANCH   3  18
HETATM   18  C11 UNL     1      -2.866  -2.582   0.470  1.00  0.00     0.108 A 
HETATM   19  C12 UNL     1      -3.242  -3.909  -0.083  1.00  0.00     0.167 A 
HETATM   20  N4  UNL     1      -4.624  -4.096  -0.271  1.00  0.00    -0.282 NA
HETATM   21  C13 UNL     1      -5.592  -3.363   0.013  1.00  0.00     0.226 A 
HETATM   22  N5  UNL     1      -5.250  -2.137   0.612  1.00  0.00    -0.245 NA
HETATM   23  C14 UNL     1      -4.037  -1.766   0.838  1.00  0.00     0.057 A 
BRANCH  23  24
HETATM   24  C15 UNL     1      -3.991  -0.478   1.517  1.00  0.00    -0.011 A 
HETATM   25  C16 UNL     1      -2.845   0.134   1.979  1.00  0.00     0.015 A 
HETATM   26  C17 UNL     1      -2.770   1.365   2.589  1.00  0.00     0.024 A 
HETATM   27  C18 UNL     1      -3.934   2.076   2.770  1.00  0.00     0.034 A 
HETATM   28 CL1  UNL     1      -3.940   3.647   3.534  1.00  0.00    -0.084 Cl
HETATM   29  C19 UNL     1      -5.127   1.547   2.344  1.00  0.00     0.024 A 
HETATM   30  C20 UNL     1      -5.101   0.317   1.748  1.00  0.00     0.015 A 
ENDBRANCH  23  24
ENDBRANCH   3  18
TORSDOF 8
