REMARK  2 active torsions:
REMARK  status: ('A' for Active; 'I' for Inactive)
REMARK    1  A    between atoms: C10_12  and  N1_13 
REMARK    2  A    between atoms: N1_13  and  C11_14 
ROOT
HETATM    1  F1  UNL     1       0.081   0.478  -1.830  1.00  0.00    -0.246 F 
HETATM    2  C1  UNL     1      -0.647  -0.521  -1.321  1.00  0.00     0.204 A 
HETATM    3  C2  UNL     1      -1.060   0.021   0.254  1.00  0.00     0.017 A 
HETATM    4  C3  UNL     1      -1.904   0.973   0.051  1.00  0.00    -0.011 C 
HETATM    5  C4  UNL     1      -3.248   1.609   0.105  1.00  0.00     0.038 C 
HETATM    6  C5  UNL     1      -4.256   0.486   0.045  1.00  0.00     0.168 C 
HETATM    7  O1  UNL     1      -3.772  -0.624  -0.584  1.00  0.00    -0.391 OA
HETATM    8  C6  UNL     1      -2.838  -1.333   0.189  1.00  0.00     0.173 C 
HETATM    9  C7  UNL     1      -1.936  -0.357   0.812  1.00  0.00     0.030 A 
HETATM   10  C8  UNL     1      -0.387  -0.673   0.760  1.00  0.00     0.006 A 
HETATM   11  C9  UNL     1      -0.568  -0.086   1.777  1.00  0.00     0.018 A 
HETATM   12  C10 UNL     1       0.245  -1.502  -0.511  1.00  0.00     0.127 A 
ENDROOT
BRANCH  12  13
HETATM   13  N1  UNL     1       1.594  -1.313  -0.564  1.00  0.00    -0.382 N 
HETATM   14  H11 UNL     1       1.985  -2.232  -0.950  1.00  0.00     0.160 HD
BRANCH  13  15
HETATM   15  C11 UNL     1       2.673  -0.443  -0.340  1.00  0.00     0.029 A 
HETATM   16  C12 UNL     1       4.023  -0.752  -0.548  1.00  0.00     0.029 A 
HETATM   17  C13 UNL     1       5.025   0.152  -0.315  1.00  0.00     0.004 A 
HETATM   18  C14 UNL     1       4.725   1.413   0.138  1.00  0.00     0.024 A 
HETATM   19  C15 UNL     1       3.427   1.786   0.365  1.00  0.00     0.036 A 
HETATM   20 CL1  UNL     1       3.179   3.404   0.937  1.00  0.00    -0.084 Cl
HETATM   21  C16 UNL     1       2.454   0.841   0.115  1.00  0.00     0.052 A 
ENDBRANCH  13  15
ENDBRANCH  12  13
TORSDOF 2
