REMARK  7 active torsions:
REMARK  status: ('A' for Active; 'I' for Inactive)
REMARK    1  A    between atoms: C2_2  and  C3_3 
REMARK    2  A    between atoms: C3_3  and  C4_5 
REMARK    3  A    between atoms: C4_5  and  C5_6 
REMARK    4  A    between atoms: C5_6  and  C6_7 
REMARK    5  A    between atoms: C6_7  and  N1_8 
REMARK    6  A    between atoms: N1_8  and  C7_9 
REMARK    7  A    between atoms: C12_16  and  N4_17 
REMARK       I    between atoms: N4_17  and  C13_18 
REMARK       I    between atoms: C13_18  and  N5_19 
ROOT
HETATM    1  C7  UNL     1       0.502  -0.444   0.617  1.00  0.00     0.133 C 
HETATM    2  N2  UNL     1       1.454  -1.070   0.053  1.00  0.00    -0.225 NA
HETATM    3  C8  UNL     1       1.270  -2.204  -0.760  1.00  0.00     0.229 C 
HETATM    4  N3  UNL     1       0.088  -2.728  -0.981  1.00  0.00    -0.272 NA
HETATM    5  C9  UNL     1      -1.094  -2.167  -0.376  1.00  0.00     0.149 C 
HETATM    6  C10 UNL     1      -2.355  -2.385  -1.083  1.00  0.00     0.061 C 
HETATM    7  C11 UNL     1      -3.406  -1.452  -0.653  1.00  0.00     0.005 C 
HETATM    8  C12 UNL     1      -3.213  -0.321  -0.017  1.00  0.00     0.033 C 
HETATM    9  C14 UNL     1      -1.864   0.016   0.417  1.00  0.00     0.042 C 
HETATM   10  C15 UNL     1      -0.852  -0.830   0.186  1.00  0.00     0.015 C 
ENDROOT
BRANCH   1  11
HETATM   11  N1  UNL     1       0.657   0.682   1.454  1.00  0.00    -0.371 N 
HETATM   12  H7  UNL     1      -0.032   1.436   1.613  1.00  0.00     0.161 HD
BRANCH  11  13
HETATM   13  C6  UNL     1       1.921   0.811   2.174  1.00  0.00     0.148 C 
BRANCH  13  14
HETATM   14  C5  UNL     1       3.002   1.083   1.225  1.00  0.00    -0.005 C 
BRANCH  14  15
HETATM   15  C4  UNL     1       3.402   1.275  -0.020  1.00  0.00     0.025 C 
BRANCH  15  16
HETATM   16  C3  UNL     1       4.644   1.542  -0.671  1.00  0.00     0.051 C 
HETATM   17 BR1  UNL     1       5.270   3.121  -1.442  1.00  0.00    -0.042 Br
BRANCH  16  18
HETATM   18  C2  UNL     1       5.383   0.440  -0.670  1.00  0.00    -0.136 C 
HETATM   19  C1  UNL     1       6.363  -0.454  -0.681  1.00  0.00     0.098 C 
ENDBRANCH  16  18
ENDBRANCH  15  16
ENDBRANCH  14  15
ENDBRANCH  13  14
ENDBRANCH  11  13
ENDBRANCH   1  11
BRANCH   8  20
HETATM   20  N4  UNL     1      -4.347   0.492   0.327  1.00  0.00    -0.309 N 
HETATM   21  C13 UNL     1      -4.386   1.817  -0.212  1.00  0.00     0.318 C 
HETATM   22  N5  UNL     1      -5.504   2.658   0.108  1.00  0.00    -0.352 N 
HETATM   23  O1  UNL     1      -3.484   2.298  -0.962  1.00  0.00    -0.247 OA
HETATM   24  H14 UNL     1      -5.971   3.366  -0.503  1.00  0.00     0.160 HD
HETATM   25  H15 UNL     1      -5.933   2.581   1.060  1.00  0.00     0.160 HD
HETATM   26  H13 UNL     1      -5.142   0.178   0.943  1.00  0.00     0.170 HD
ENDBRANCH   8  20
TORSDOF 7
