REMARK  5 active torsions:
REMARK  status: ('A' for Active; 'I' for Inactive)
REMARK    1  A    between atoms: C3_3  and  C4_4 
REMARK    2  A    between atoms: C5_6  and  B1_7 
REMARK    3  A    between atoms: B1_7  and  N1_8 
REMARK    4  A    between atoms: N1_8  and  C6_9 
REMARK    5  A    between atoms: C11_16  and  C12_17 
REMARK       I    between atoms: C12_17  and  N4_18 
ROOT
HETATM    1  C6  UNL     1      -0.301  -0.802  -0.897  1.00  0.00     0.142 A 
HETATM    2  N2  UNL     1       0.341  -1.658  -1.745  1.00  0.00    -0.223 NA
HETATM    3  C7  UNL     1      -0.273  -2.809  -2.099  1.00  0.00     0.236 A 
HETATM    4  N3  UNL     1      -1.496  -3.161  -1.656  1.00  0.00    -0.241 NA
HETATM    5  C8  UNL     1      -2.172  -2.341  -0.810  1.00  0.00     0.072 A 
HETATM    6  C9  UNL     1      -3.437  -2.618  -0.301  1.00  0.00     0.034 A 
HETATM    7  C10 UNL     1      -4.050  -1.716   0.560  1.00  0.00     0.019 A 
HETATM    8  C11 UNL     1      -3.403  -0.570   0.894  1.00  0.00     0.032 A 
HETATM    9  C13 UNL     1      -2.155  -0.227   0.431  1.00  0.00     0.034 A 
HETATM   10  C14 UNL     1      -1.568  -1.141  -0.422  1.00  0.00     0.040 A 
ENDROOT
BRANCH   1  11
HETATM   11  N1  UNL     1       0.424   0.356  -0.597  1.00  0.00    -0.340 NA
BRANCH  11  12
HETATM   12  B1  UNL     1       1.676   0.102   0.720  1.00  0.00     0.338 B 
BRANCH  12  13
HETATM   13  C5  UNL     1       2.908   0.851   1.662  1.00  0.00    -0.043 C 
HETATM   14  C4  UNL     1       4.022   1.589   1.445  1.00  0.00    -0.019 C 
HETATM   15 BR1  UNL     1       4.925   2.086   3.081  1.00  0.00    -0.057 Br
BRANCH  14  16
HETATM   16  C3  UNL     1       3.990   1.650  -0.007  1.00  0.00     0.038 C 
HETATM   17  C2  UNL     1       4.472   2.031  -1.188  1.00  0.00    -0.005 C 
HETATM   18  C1  UNL     1       3.608   1.526  -2.274  1.00  0.00     0.011 C 
ENDBRANCH  14  16
ENDBRANCH  12  13
ENDBRANCH  11  12
ENDBRANCH   1  11
BRANCH   8  19
HETATM   19  C12 UNL     1      -4.115   0.310   1.794  1.00  0.00     0.249 C 
HETATM   20  N4  UNL     1      -3.679   1.578   2.311  1.00  0.00    -0.366 N 
HETATM   21  H10 UNL     1      -4.184   2.442   1.967  1.00  0.00     0.159 HD
HETATM   22  H11 UNL     1      -2.883   1.402   2.983  1.00  0.00     0.159 HD
HETATM   23  O1  UNL     1      -5.259   0.015   2.228  1.00  0.00    -0.268 OA
ENDBRANCH   8  19
TORSDOF 5
