REMARK  6 active torsions:
REMARK  status: ('A' for Active; 'I' for Inactive)
REMARK    1  A    between atoms: C2_3  and  C3_4 
REMARK    2  A    between atoms: C5_8  and  N3_9 
REMARK    3  A    between atoms: N3_9  and  C6_10 
REMARK    4  A    between atoms: C12_17  and  C13_18 
REMARK    5  A    between atoms: C13_18  and  C14_19 
REMARK    6  A    between atoms: C14_19  and  N4_20 
REMARK       I    between atoms: N4_20  and  C15_21 
ROOT
HETATM    1  B1  UNL     1       1.220   6.465  -1.349  1.00  0.00     0.196 B 
HETATM    2  C1  UNL     1       1.415   4.682  -1.182  1.00  0.00    -0.234 C 
HETATM    3  C2  UNL     1       1.549   3.234  -1.041  1.00  0.00     0.066 C 
ENDROOT
BRANCH   3   4
HETATM    4  C3  UNL     1       0.438   2.569  -0.814  1.00  0.00     0.077 A 
HETATM    5  N1  UNL     1      -0.652   3.386  -0.753  1.00  0.00    -0.241 NA
HETATM    6  C4  UNL     1      -1.883   2.838  -0.532  1.00  0.00     0.236 A 
HETATM    7  N2  UNL     1      -2.031   1.526  -0.377  1.00  0.00    -0.224 NA
HETATM    8  C5  UNL     1      -0.996   0.690  -0.427  1.00  0.00     0.141 A 
HETATM    9  C12 UNL     1       0.251   1.217  -0.648  1.00  0.00     0.037 A 
BRANCH   8  10
HETATM   10  N3  UNL     1      -1.228  -0.693  -0.256  1.00  0.00    -0.340 N 
HETATM   11  H3  UNL     1      -0.601  -1.518  -0.302  1.00  0.00     0.167 HD
BRANCH  10  12
HETATM   12  C6  UNL     1      -2.491  -1.242   0.044  1.00  0.00     0.035 A 
HETATM   13  C7  UNL     1      -2.967  -2.501  -0.346  1.00  0.00     0.029 A 
HETATM   14  C8  UNL     1      -4.199  -3.015  -0.020  1.00  0.00     0.004 A 
HETATM   15  C9  UNL     1      -5.046  -2.253   0.747  1.00  0.00     0.019 A 
HETATM   16  C10 UNL     1      -4.622  -1.008   1.154  1.00  0.00     0.013 A 
HETATM   17 BR1  UNL     1      -5.913  -0.060   2.219  1.00  0.00    -0.051 Br
HETATM   18  C11 UNL     1      -3.382  -0.523   0.811  1.00  0.00     0.048 A 
ENDBRANCH  10  12
ENDBRANCH   8  10
BRANCH   9  19
HETATM   19  C13 UNL     1       1.331   0.473  -0.695  1.00  0.00     0.010 C 
BRANCH  19  20
HETATM   20  C14 UNL     1       2.733   0.153  -0.825  1.00  0.00     0.150 C 
BRANCH  20  21
HETATM   21  N4  UNL     1       3.207  -0.658   0.318  1.00  0.00    -0.358 N 
HETATM   22  C15 UNL     1       4.547  -1.098   0.411  1.00  0.00     0.213 C 
HETATM   23  C16 UNL     1       4.989  -1.911   1.575  1.00  0.00     0.117 C 
HETATM   24  O1  UNL     1       5.212  -0.706  -0.575  1.00  0.00    -0.274 OA
HETATM   25  H11 UNL     1       2.489  -0.894   1.067  1.00  0.00     0.162 HD
ENDBRANCH  20  21
ENDBRANCH  19  20
ENDBRANCH   9  19
ENDBRANCH   3   4
TORSDOF 6
