REMARK  3 active torsions:
REMARK  status: ('A' for Active; 'I' for Inactive)
REMARK    1  A    between atoms: C3_3  and  C4_4 
REMARK    2  A    between atoms: C8_9  and  N2_10 
REMARK    3  A    between atoms: N2_10  and  C9_11 
ROOT
HETATM    1  C4  UNL     1       3.709  -0.338   0.259  1.00  0.00     0.006 C 
HETATM    2  C5  UNL     1       2.553   0.288   0.136  1.00  0.00    -0.038 C 
HETATM    3  C6  UNL     1       1.447  -0.032   1.108  1.00  0.00     0.156 C 
HETATM    4  N1  UNL     1       0.199  -0.221   0.384  1.00  0.00    -0.379 N 
HETATM    5  C7  UNL     1      -0.422   0.807  -0.409  1.00  0.00     0.128 A 
HETATM    6  C8  UNL     1      -1.799   0.796  -0.443  1.00  0.00     0.160 A 
HETATM    7  N3  UNL     1      -2.362   1.738  -1.199  1.00  0.00    -0.222 NA
HETATM    8  C15 UNL     1      -1.739   2.678  -1.914  1.00  0.00     0.238 A 
HETATM    9  N4  UNL     1      -0.396   2.680  -1.874  1.00  0.00    -0.216 NA
HETATM   10  C16 UNL     1       0.277   1.774  -1.143  1.00  0.00     0.197 A 
HETATM   11  O1  UNL     1       1.630   2.021  -1.292  1.00  0.00    -0.328 OA
HETATM   12  C17 UNL     1       2.706   1.181  -1.019  1.00  0.00     0.213 C 
HETATM   13  H9  UNL     1      -0.414  -1.084   0.314  1.00  0.00     0.160 HD
ENDROOT
BRANCH   6  14
HETATM   14  N2  UNL     1      -2.495  -0.156   0.311  1.00  0.00    -0.339 N 
HETATM   15  H10 UNL     1      -2.090  -0.838   0.980  1.00  0.00     0.167 HD
BRANCH  14  16
HETATM   16  C9  UNL     1      -3.890  -0.419   0.390  1.00  0.00     0.035 A 
HETATM   17  C10 UNL     1      -4.524  -1.549   0.873  1.00  0.00     0.032 A 
HETATM   18  C11 UNL     1      -5.884  -1.722   0.923  1.00  0.00     0.046 A 
HETATM   19  C12 UNL     1      -6.710  -0.721   0.468  1.00  0.00     0.138 A 
HETATM   20  F1  UNL     1      -8.049  -0.908   0.524  1.00  0.00    -0.204 F 
HETATM   21  C13 UNL     1      -6.101   0.410  -0.016  1.00  0.00     0.074 A 
HETATM   22 CL1  UNL     1      -7.247   1.636  -0.576  1.00  0.00    -0.081 Cl
HETATM   23  C14 UNL     1      -4.715   0.604  -0.074  1.00  0.00     0.056 A 
ENDBRANCH  14  16
ENDBRANCH   6  14
BRANCH   1  24
HETATM   24  C3  UNL     1       5.023  -0.452  -0.305  1.00  0.00    -0.004 C 
HETATM   25  C2  UNL     1       6.093  -1.156  -0.053  1.00  0.00    -0.031 C 
HETATM   26  C1  UNL     1       6.615  -2.172   0.855  1.00  0.00     0.036 C 
ENDBRANCH   1  24
TORSDOF 3
