REMARK  5 active torsions:
REMARK  status: ('A' for Active; 'I' for Inactive)
REMARK    1  A    between atoms: C5_5  and  N1_6 
REMARK    2  A    between atoms: N1_6  and  C6_7 
REMARK    3  A    between atoms: C10_13  and  O1_14 
REMARK    4  A    between atoms: N4_15  and  C11_16 
REMARK    5  A    between atoms: C11_16  and  N5_17 
ROOT
HETATM    1  C6  UNL     1       0.200  -1.258   0.916  1.00  0.00     0.146 A 
HETATM    2  N2  UNL     1       0.577  -1.815   2.095  1.00  0.00    -0.223 NA
HETATM    3  C7  UNL     1      -0.351  -1.928   3.059  1.00  0.00     0.236 A 
HETATM    4  N3  UNL     1      -1.620  -1.486   2.828  1.00  0.00    -0.240 NA
HETATM    5  C8  UNL     1      -1.979  -0.940   1.669  1.00  0.00     0.089 A 
HETATM    6  C9  UNL     1      -1.064  -0.801   0.643  1.00  0.00     0.091 A 
HETATM    7  C10 UNL     1      -1.488  -0.230  -0.464  1.00  0.00     0.160 A 
HETATM    8  N4  UNL     1      -2.843   0.173  -0.560  1.00  0.00    -0.320 N 
HETATM    9  C12 UNL     1      -3.740  -0.047   0.550  1.00  0.00     0.109 A 
HETATM   10  C13 UNL     1      -3.220  -0.583   1.635  1.00  0.00     0.023 A 
ENDROOT
BRANCH   1  11
HETATM   11  N1  UNL     1       1.176  -1.164  -0.115  1.00  0.00    -0.339 N 
HETATM   12  H5  UNL     1       1.083  -1.800  -0.930  1.00  0.00     0.167 HD
BRANCH  11  13
HETATM   13  C5  UNL     1       2.297  -0.249  -0.116  1.00  0.00     0.051 A 
HETATM   14  C4  UNL     1       2.578   0.930  -0.922  1.00  0.00     0.031 A 
HETATM   15  C3  UNL     1       3.759   1.444  -0.556  1.00  0.00     0.011 A 
HETATM   16  C2  UNL     1       4.214   0.559   0.504  1.00  0.00    -0.038 A 
HETATM   17  C1  UNL     1       5.349   0.720   1.139  1.00  0.00     0.044 C 
HETATM   18  C14 UNL     1       3.264  -0.502   0.758  1.00  0.00     0.044 A 
HETATM   19 BR1  UNL     1       3.550  -1.851   2.099  1.00  0.00    -0.048 Br
ENDBRANCH  11  13
ENDBRANCH   1  11
BRANCH   7  20
HETATM   20  O1  UNL     1      -0.544  -0.067  -1.481  1.00  0.00    -0.345 OA
HETATM   21  H7  UNL     1      -0.583   0.811  -2.004  1.00  0.00     0.219 HD
ENDBRANCH   7  20
BRANCH   8  22
HETATM   22  C11 UNL     1      -3.316   0.820  -1.761  1.00  0.00     0.245 C 
BRANCH  22  23
HETATM   23  N5  UNL     1      -4.739   1.037  -1.801  1.00  0.00    -0.415 N 
HETATM   24  H10 UNL     1      -5.305   0.209  -1.632  1.00  0.00     0.151 HD
HETATM   25  H11 UNL     1      -5.071   1.945  -1.476  1.00  0.00     0.151 HD
ENDBRANCH  22  23
ENDBRANCH   8  22
TORSDOF 5
