REMARK  3 active torsions:
REMARK  status: ('A' for Active; 'I' for Inactive)
REMARK    1  A    between atoms: N1_2  and  C2_3 
REMARK    2  A    between atoms: C11_15  and  C12_16 
REMARK    3  A    between atoms: C12_16  and  C13_17 
ROOT
HETATM    1  C2  UNL     1      -1.369  -0.030   0.071  1.00  0.00     0.187 C 
HETATM    2  C3  UNL     1      -1.730   1.097   1.036  1.00  0.00     0.055 C 
HETATM    3  C4  UNL     1      -2.205  -1.195   0.340  1.00  0.00     0.074 C 
HETATM    4  C5  UNL     1      -1.903  -2.093   1.453  1.00  0.00    -0.007 C 
HETATM    5  C6  UNL     1      -0.740  -2.739   1.672  1.00  0.00     0.086 C 
HETATM    6  N2  UNL     1       0.427  -2.653   0.831  1.00  0.00    -0.351 N 
HETATM    7  C7  UNL     1       0.676  -1.556  -0.079  1.00  0.00     0.136 C 
HETATM    8  N3  UNL     1       1.461  -1.590  -1.066  1.00  0.00    -0.243 NA
HETATM    9  C8  UNL     1       2.279  -2.578  -1.576  1.00  0.00     0.113 C 
HETATM   10  C9  UNL     1       3.595  -2.382  -1.542  1.00  0.00    -0.093 C 
HETATM   11  B1  UNL     1       4.062  -1.325  -0.018  1.00  0.00     0.193 B 
HETATM   12  C10 UNL     1       3.329   0.401  -0.200  1.00  0.00    -0.028 C 
HETATM   13  C11 UNL     1       2.194   1.121  -0.162  1.00  0.00    -0.078 C 
HETATM   14  C14 UNL     1       0.724   0.977  -0.073  1.00  0.00     0.016 C 
HETATM   15  C15 UNL     1       0.084  -0.187  -0.020  1.00  0.00     0.026 C 
HETATM   16  H12 UNL     1       1.221  -3.294   0.733  1.00  0.00     0.166 HD
ENDROOT
BRANCH   1  17
HETATM   17  N1  UNL     1      -1.740   0.502  -1.256  1.00  0.00     0.093 N 
HETATM   18  C1  UNL     1      -3.119   0.833  -1.374  1.00  0.00     0.308 C 
HETATM   19  H4  UNL     1      -1.098   1.227  -1.580  1.00  0.00     0.316 HD
ENDBRANCH   1  17
BRANCH  13  20
HETATM   20  C12 UNL     1       2.517   2.516  -0.418  1.00  0.00     0.103 C 
BRANCH  20  21
HETATM   21  C13 UNL     1       2.140   3.423   0.703  1.00  0.00     0.235 C 
HETATM   22  O1  UNL     1       1.619   2.879   1.669  1.00  0.00    -0.307 OA
ENDBRANCH  20  21
ENDBRANCH  13  20
TORSDOF 3
