REMARK  3 active torsions:
REMARK  status: ('A' for Active; 'I' for Inactive)
REMARK    1  A    between atoms: C7_7  and  N1_8 
REMARK    2  A    between atoms: N1_8  and  C8_9 
REMARK    3  A    between atoms: C13_16  and  N4_17 
REMARK       I    between atoms: N4_17  and  C14_18 
REMARK       I    between atoms: C14_18  and  N5_19 
ROOT
HETATM    1  C1  UNL     1       6.307  -0.194   2.464  1.00  0.00     0.018 C 
HETATM    2  C2  UNL     1       5.595  -0.122   1.486  1.00  0.00    -0.078 C 
HETATM    3  C3  UNL     1       4.742  -0.020   0.338  1.00  0.00     0.019 A 
HETATM    4  C4  UNL     1       5.268   0.095  -0.929  1.00  0.00     0.021 A 
HETATM    5  C5  UNL     1       4.411   0.185  -1.983  1.00  0.00     0.004 A 
HETATM    6  C6  UNL     1       3.065   0.160  -1.761  1.00  0.00     0.029 A 
HETATM    7  C7  UNL     1       2.451   0.049  -0.533  1.00  0.00     0.035 A 
HETATM    8  C17 UNL     1       3.374  -0.039   0.490  1.00  0.00     0.050 A 
ENDROOT
BRANCH   7   9
HETATM    9  N1  UNL     1       1.045   0.005  -0.333  1.00  0.00    -0.340 N 
HETATM   10  H5  UNL     1       0.843   0.227   0.639  1.00  0.00     0.167 HD
BRANCH   9  11
HETATM   11  C8  UNL     1       0.049  -0.291  -1.297  1.00  0.00     0.142 A 
HETATM   12  N2  UNL     1       0.379  -0.608  -2.532  1.00  0.00    -0.224 NA
HETATM   13  C9  UNL     1      -0.513  -0.900  -3.484  1.00  0.00     0.236 A 
HETATM   14  N3  UNL     1      -1.822  -0.867  -3.158  1.00  0.00    -0.241 NA
HETATM   15  C10 UNL     1      -2.209  -0.546  -1.899  1.00  0.00     0.072 A 
HETATM   16  C11 UNL     1      -3.565  -0.530  -1.628  1.00  0.00     0.035 A 
HETATM   17  C16 UNL     1      -1.275  -0.247  -0.927  1.00  0.00     0.041 A 
HETATM   18  C12 UNL     1      -3.928  -0.202  -0.345  1.00  0.00     0.032 A 
HETATM   19  C13 UNL     1      -3.058   0.106   0.669  1.00  0.00     0.036 A 
HETATM   20  C15 UNL     1      -1.725   0.072   0.333  1.00  0.00     0.047 A 
BRANCH  19  21
HETATM   21  N4  UNL     1      -3.390   0.446   1.999  1.00  0.00    -0.314 N 
HETATM   22  C14 UNL     1      -4.660   0.548   2.606  1.00  0.00     0.296 C 
HETATM   23  N5  UNL     1      -4.915   0.898   3.959  1.00  0.00    -0.254 NA
HETATM   24  O1  UNL     1      -5.671   0.311   1.902  1.00  0.00    -0.254 OA
HETATM   25  H10 UNL     1      -5.709   0.420   4.482  1.00  0.00     0.128 HD
HETATM   26  H11 UNL     1      -5.690   0.435   4.476  1.00  0.00     0.128 HD
HETATM   27  H9  UNL     1      -2.650   0.670   2.699  1.00  0.00     0.170 HD
ENDBRANCH  19  21
ENDBRANCH   9  11
ENDBRANCH   7   9
TORSDOF 3
