REMARK  4 active torsions:
REMARK  status: ('A' for Active; 'I' for Inactive)
REMARK    1  A    between atoms: C2_2  and  N1_4 
REMARK    2  A    between atoms: N1_4  and  C4_5 
REMARK    3  A    between atoms: C9_12  and  N4_13 
REMARK    4  A    between atoms: N4_13  and  C10_14 
ROOT
HETATM    1  C4  UNL     1      -1.323  -1.058   0.379  1.00  0.00     0.012 C 
HETATM    2  C5  UNL     1      -1.822  -1.999  -0.391  1.00  0.00     0.026 C 
HETATM    3  C6  UNL     1      -1.160  -2.928  -1.226  1.00  0.00     0.021 C 
HETATM    4  C7  UNL     1      -0.259  -3.593  -1.854  1.00  0.00     0.118 C 
HETATM    5  N2  UNL     1       1.152  -3.284  -1.697  1.00  0.00    -0.254 NA
HETATM    6  C8  UNL     1       1.544  -2.039  -1.511  1.00  0.00     0.234 C 
HETATM    7  N3  UNL     1       1.638  -0.638  -1.331  1.00  0.00    -0.228 NA
HETATM    8  C9  UNL     1       0.915  -0.162  -0.324  1.00  0.00     0.111 C 
HETATM    9  C16 UNL     1       0.149  -1.161   0.430  1.00  0.00     0.135 C 
ENDROOT
BRANCH   8  10
HETATM   10  N4  UNL     1       0.977   1.228  -0.108  1.00  0.00    -0.344 N 
HETATM   11  H13 UNL     1       0.089   1.652   0.201  1.00  0.00     0.167 HD
BRANCH  10  12
HETATM   12  C10 UNL     1       2.282   1.788  -0.360  1.00  0.00     0.034 A 
HETATM   13  C11 UNL     1       2.725   2.455  -1.485  1.00  0.00     0.029 A 
HETATM   14  C12 UNL     1       4.028   2.927  -1.533  1.00  0.00     0.004 A 
HETATM   15  C13 UNL     1       4.919   2.761  -0.498  1.00  0.00     0.019 A 
HETATM   16  C14 UNL     1       4.542   2.101   0.659  1.00  0.00     0.013 A 
HETATM   17 BR1  UNL     1       5.674   1.795   2.175  1.00  0.00    -0.051 Br
HETATM   18  C15 UNL     1       3.240   1.654   0.653  1.00  0.00     0.048 A 
ENDBRANCH  10  12
ENDBRANCH   8  10
BRANCH   1  19
HETATM   19  N1  UNL     1      -2.066  -0.172   1.163  1.00  0.00    -0.389 N 
HETATM   20  H8  UNL     1      -1.505   0.607   1.604  1.00  0.00     0.159 HD
BRANCH  19  21
HETATM   21  C2  UNL     1      -3.464  -0.224   1.416  1.00  0.00     0.073 C 
HETATM   22  C1  UNL     1      -3.856   0.927   2.348  1.00  0.00     0.031 C 
HETATM   23  C3  UNL     1      -4.229  -0.006   0.135  1.00  0.00     0.031 C 
ENDBRANCH  19  21
ENDBRANCH   1  19
TORSDOF 4
