REMARK  3 active torsions:
REMARK  status: ('A' for Active; 'I' for Inactive)
REMARK       I    between atoms: C2_2  and  N1_4 
REMARK    1  A    between atoms: N1_4  and  C3_5 
REMARK    2  A    between atoms: N2_11  and  N3_12 
REMARK    3  A    between atoms: N3_12  and  C9_13 
ROOT
HETATM    1  C3  UNL     1      -2.218  -0.427   0.311  1.00  0.00     0.073 A 
HETATM    2  C4  UNL     1      -3.560  -0.015   0.181  1.00  0.00     0.028 A 
HETATM    3  C5  UNL     1      -3.724  -0.459  -1.186  1.00  0.00     0.011 A 
HETATM    4  C6  UNL     1      -3.144  -1.121  -2.424  1.00  0.00     0.171 A 
HETATM    5  C7  UNL     1      -2.105  -1.346  -2.031  1.00  0.00     0.395 A 
HETATM    6  C8  UNL     1      -1.518  -1.089  -0.816  1.00  0.00     0.299 A 
HETATM    7  N2  UNL     1      -0.153  -1.484  -0.931  1.00  0.00    -0.249 N 
HETATM    8  C15 UNL     1      -0.642  -1.820  -2.251  1.00  0.00     0.351 A 
HETATM    9  N4  UNL     1      -1.791  -1.388  -1.783  1.00  0.00     0.017 N 
ENDROOT
BRANCH   7  10
HETATM   10  N3  UNL     1       0.694  -1.321   0.132  1.00  0.00    -0.298 N 
HETATM   11  H8  UNL     1       0.624  -1.918   1.014  1.00  0.00     0.187 HD
BRANCH  10  12
HETATM   12  C9  UNL     1       1.739  -0.329  -0.076  1.00  0.00     0.049 A 
HETATM   13  C10 UNL     1       1.797   0.323  -1.282  1.00  0.00     0.031 A 
HETATM   14  C11 UNL     1       2.836   1.222  -1.443  1.00  0.00     0.004 A 
HETATM   15  C12 UNL     1       3.789   1.482  -0.454  1.00  0.00     0.019 A 
HETATM   16  C13 UNL     1       3.623   0.755   0.751  1.00  0.00     0.013 A 
HETATM   17 BR1  UNL     1       4.837   0.948   2.225  1.00  0.00    -0.051 Br
HETATM   18  C14 UNL     1       2.605  -0.181   1.020  1.00  0.00     0.050 A 
ENDBRANCH  10  12
ENDBRANCH   7  10
BRANCH   1  19
HETATM   19  N1  UNL     1      -1.406  -0.300   1.449  1.00  0.00    -0.327 N 
HETATM   20  C2  UNL     1      -0.801   1.040   1.610  1.00  0.00     0.218 C 
HETATM   21  C1  UNL     1       0.064   1.623   2.619  1.00  0.00     0.117 C 
HETATM   22  O1  UNL     1      -1.354   1.441   0.512  1.00  0.00    -0.274 OA
HETATM   23  H4  UNL     1      -1.122  -0.954   2.221  1.00  0.00     0.168 HD
ENDBRANCH   1  19
TORSDOF 3
