REMARK  4 active torsions:
REMARK  status: ('A' for Active; 'I' for Inactive)
REMARK    1  A    between atoms: C1_2  and  N1_3 
REMARK    2  A    between atoms: N1_3  and  C2_4 
REMARK    3  A    between atoms: C7_11  and  N4_12 
REMARK    4  A    between atoms: N4_12  and  C8_13 
ROOT
HETATM    1  C2  UNL     1      -2.386   0.523  -0.081  1.00  0.00     0.029 A 
HETATM    2  C3  UNL     1      -3.107  -0.219   0.852  1.00  0.00     0.031 A 
HETATM    3  C4  UNL     1      -2.590  -1.404   1.283  1.00  0.00     0.035 A 
HETATM    4  C5  UNL     1      -1.393  -1.942   0.869  1.00  0.00     0.072 A 
HETATM    5  N2  UNL     1      -0.899  -3.118   1.306  1.00  0.00    -0.241 NA
HETATM    6  C6  UNL     1       0.285  -3.599   0.859  1.00  0.00     0.236 A 
HETATM    7  N3  UNL     1       0.985  -2.884  -0.043  1.00  0.00    -0.224 NA
HETATM    8  C7  UNL     1       0.516  -1.695  -0.504  1.00  0.00     0.142 A 
HETATM    9  C14 UNL     1      -0.697  -1.180  -0.061  1.00  0.00     0.041 A 
HETATM   10  C15 UNL     1      -1.180   0.041  -0.537  1.00  0.00     0.046 A 
ENDROOT
BRANCH   8  11
HETATM   11  N4  UNL     1       1.306  -0.968  -1.466  1.00  0.00    -0.340 N 
HETATM   12  H7  UNL     1       1.254  -0.971  -2.504  1.00  0.00     0.167 HD
BRANCH  11  13
HETATM   13  C8  UNL     1       2.314  -0.113  -0.916  1.00  0.00     0.035 A 
HETATM   14  C9  UNL     1       3.125   0.709  -1.669  1.00  0.00     0.029 A 
HETATM   15  C10 UNL     1       4.087   1.509  -1.092  1.00  0.00     0.004 A 
HETATM   16  C11 UNL     1       4.281   1.523   0.279  1.00  0.00     0.019 A 
HETATM   17  C12 UNL     1       3.503   0.725   1.091  1.00  0.00     0.013 A 
HETATM   18 BR1  UNL     1       3.676   0.655   2.991  1.00  0.00    -0.051 Br
HETATM   19  C13 UNL     1       2.563  -0.050   0.460  1.00  0.00     0.048 A 
ENDBRANCH  11  13
ENDBRANCH   8  11
BRANCH   1  20
HETATM   20  N1  UNL     1      -2.915   1.760  -0.541  1.00  0.00    -0.377 N 
HETATM   21  H3  UNL     1      -2.379   2.321  -1.237  1.00  0.00     0.160 HD
BRANCH  20  22
HETATM   22  C1  UNL     1      -4.189   2.231  -0.042  1.00  0.00     0.235 C 
HETATM   23 CL1  UNL     1      -4.635   3.801  -0.740  1.00  0.00    -0.109 Cl
ENDBRANCH  20  22
ENDBRANCH   1  20
TORSDOF 4
