REMARK  3 active torsions:
REMARK  status: ('A' for Active; 'I' for Inactive)
REMARK    1  A    between atoms: C7_7  and  N1_8 
REMARK    2  A    between atoms: N1_8  and  C8_9 
REMARK    3  A    between atoms: C13_16  and  N4_17 
REMARK       I    between atoms: N4_17  and  C14_18 
REMARK       I    between atoms: C14_18  and  N5_19 
ROOT
HETATM    1  C1  UNL     1       6.119   2.522   0.449  1.00  0.00     0.018 C 
HETATM    2  C2  UNL     1       5.389   1.558   0.443  1.00  0.00    -0.078 C 
HETATM    3  C3  UNL     1       4.532   0.413   0.457  1.00  0.00     0.019 A 
HETATM    4  C4  UNL     1       5.078  -0.791   0.847  1.00  0.00     0.021 A 
HETATM    5  C5  UNL     1       4.275  -1.895   0.867  1.00  0.00     0.004 A 
HETATM    6  C6  UNL     1       2.957  -1.812   0.508  1.00  0.00     0.029 A 
HETATM    7  C7  UNL     1       2.337  -0.625   0.102  1.00  0.00     0.035 A 
HETATM    8  C16 UNL     1       3.212   0.441   0.110  1.00  0.00     0.050 A 
ENDROOT
BRANCH   7   9
HETATM    9  N1  UNL     1       0.974  -0.557  -0.265  1.00  0.00    -0.340 N 
HETATM   10  H5  UNL     1       0.494  -1.494  -0.196  1.00  0.00     0.167 HD
BRANCH   9  11
HETATM   11  C8  UNL     1       0.230   0.571  -0.690  1.00  0.00     0.141 A 
HETATM   12  N2  UNL     1       0.686   1.808  -0.826  1.00  0.00    -0.224 NA
HETATM   13  C9  UNL     1      -0.034   2.854  -1.228  1.00  0.00     0.235 A 
HETATM   14  N3  UNL     1      -1.332   2.663  -1.525  1.00  0.00    -0.241 NA
HETATM   15  C10 UNL     1      -1.892   1.429  -1.417  1.00  0.00     0.070 A 
HETATM   16  C11 UNL     1      -1.101   0.384  -0.996  1.00  0.00     0.037 A 
HETATM   17  C15 UNL     1      -3.133   1.043  -1.659  1.00  0.00     0.035 A 
HETATM   18  C12 UNL     1      -1.870  -0.719  -0.968  1.00  0.00     0.020 A 
HETATM   19  C13 UNL     1      -3.270  -0.428  -1.391  1.00  0.00     0.135 A 
BRANCH  19  20
HETATM   20  N4  UNL     1      -4.214  -0.689  -0.345  1.00  0.00    -0.332 N 
HETATM   21  C14 UNL     1      -5.354  -1.522  -0.271  1.00  0.00     0.314 C 
HETATM   22  N5  UNL     1      -6.028  -1.487   0.981  1.00  0.00    -0.352 N 
HETATM   23  O1  UNL     1      -5.558  -2.147  -1.350  1.00  0.00    -0.248 OA
HETATM   24  H10 UNL     1      -6.434  -0.549   1.258  1.00  0.00     0.160 HD
HETATM   25  H11 UNL     1      -6.314  -2.050   1.811  1.00  0.00     0.160 HD
HETATM   26  H9  UNL     1      -3.883  -0.084   0.464  1.00  0.00     0.165 HD
ENDBRANCH  19  20
ENDBRANCH   9  11
ENDBRANCH   7   9
TORSDOF 3
