REMARK  4 active torsions:
REMARK  status: ('A' for Active; 'I' for Inactive)
REMARK    1  A    between atoms: O1_1  and  C1_2 
REMARK    2  A    between atoms: C1_2  and  C2_3 
REMARK    3  A    between atoms: C10_12  and  N2_13 
REMARK    4  A    between atoms: N2_13  and  C11_14 
ROOT
HETATM    1  C2  UNL     1      -3.929   0.384  -0.961  1.00  0.00    -0.033 C 
HETATM    2  C3  UNL     1      -4.189  -0.592  -0.015  1.00  0.00     0.010 C 
HETATM    3  C4  UNL     1      -3.254  -1.001   1.132  1.00  0.00     0.010 C 
HETATM    4  C5  UNL     1      -2.330  -0.122   1.458  1.00  0.00    -0.021 C 
HETATM    5  C6  UNL     1      -2.392   1.456   1.532  1.00  0.00     0.098 C 
HETATM    6  C7  UNL     1      -1.884   1.349   0.045  1.00  0.00     0.014 C 
HETATM    7  C8  UNL     1      -2.655   1.233  -1.026  1.00  0.00     0.034 C 
HETATM    8  N1  UNL     1      -0.452   1.115  -0.076  1.00  0.00    -0.354 N 
HETATM    9  C9  UNL     1       0.104   0.011   0.772  1.00  0.00     0.108 A 
HETATM   10  C10 UNL     1       1.370  -0.432   0.715  1.00  0.00     0.158 A 
HETATM   11  N3  UNL     1       1.456  -1.507   1.482  1.00  0.00    -0.222 NA
HETATM   12  C17 UNL     1       0.545  -2.128   2.217  1.00  0.00     0.236 A 
HETATM   13  N4  UNL     1      -0.773  -1.684   2.295  1.00  0.00    -0.239 NA
HETATM   14  C18 UNL     1      -0.952  -0.595   1.548  1.00  0.00     0.095 A 
HETATM   15  H9  UNL     1      -0.069   1.709  -0.789  1.00  0.00     0.166 HD
ENDROOT
BRANCH  10  16
HETATM   16  N2  UNL     1       2.102   0.388  -0.126  1.00  0.00    -0.339 N 
HETATM   17  H10 UNL     1       1.827   1.218  -0.634  1.00  0.00     0.167 HD
BRANCH  16  18
HETATM   18  C11 UNL     1       3.466   0.119  -0.385  1.00  0.00     0.035 A 
HETATM   19  C12 UNL     1       4.255   0.772  -1.299  1.00  0.00     0.032 A 
HETATM   20  C13 UNL     1       5.583   0.506  -1.543  1.00  0.00     0.046 A 
HETATM   21  C14 UNL     1       6.209  -0.490  -0.832  1.00  0.00     0.138 A 
HETATM   22  F1  UNL     1       7.509  -0.771  -1.051  1.00  0.00    -0.204 F 
HETATM   23  C15 UNL     1       5.455  -1.174   0.098  1.00  0.00     0.074 A 
HETATM   24 CL1  UNL     1       6.290  -2.430   0.977  1.00  0.00    -0.081 Cl
HETATM   25  C16 UNL     1       4.127  -0.866   0.303  1.00  0.00     0.056 A 
ENDBRANCH  16  18
ENDBRANCH  10  16
BRANCH   1  26
HETATM   26  C1  UNL     1      -4.785   0.705  -2.065  1.00  0.00     0.202 C 
BRANCH  26  27
HETATM   27  O1  UNL     1      -5.894  -0.099  -2.044  1.00  0.00    -0.396 OA
HETATM   28  H1  UNL     1      -6.457   0.044  -1.248  1.00  0.00     0.209 HD
ENDBRANCH  26  27
ENDBRANCH   1  26
TORSDOF 4
