REMARK  3 active torsions:
REMARK  status: ('A' for Active; 'I' for Inactive)
REMARK    1  A    between atoms: C4_5  and  N1_6 
REMARK    2  A    between atoms: C9_13  and  N4_14 
REMARK    3  A    between atoms: N4_14  and  C10_15 
ROOT
HETATM    1  N1  UNL     1       1.183  -0.606  -1.020  1.00  0.00    -0.277 N 
HETATM    2  N2  UNL     1       1.600  -0.783  -2.366  1.00  0.00    -0.291 N 
HETATM    3  C5  UNL     1       0.692  -0.710  -3.455  1.00  0.00     0.223 C 
HETATM    4  N3  UNL     1      -0.572  -0.471  -3.213  1.00  0.00    -0.245 NA
HETATM    5  C6  UNL     1      -1.054  -0.284  -1.892  1.00  0.00     0.064 A 
HETATM    6  C7  UNL     1      -2.133   0.457  -1.946  1.00  0.00     0.032 A 
HETATM    7  C8  UNL     1      -2.888   0.843  -0.764  1.00  0.00     0.031 A 
HETATM    8  C9  UNL     1      -2.718   0.595   0.522  1.00  0.00     0.028 A 
HETATM    9  C11 UNL     1      -1.663  -0.181   1.158  1.00  0.00     0.027 A 
HETATM   10  C12 UNL     1      -0.665  -0.793   0.495  1.00  0.00     0.009 A 
HETATM   11  C13 UNL     1      -0.196  -0.979  -0.890  1.00  0.00     0.183 A 
HETATM   12  H3  UNL     1       2.568  -0.976  -2.748  1.00  0.00     0.188 HD
ENDROOT
BRANCH   1  13
HETATM   13  C4  UNL     1       2.200  -0.132  -0.152  1.00  0.00     0.052 A 
HETATM   14  C3  UNL     1       3.521  -0.365  -0.443  1.00  0.00     0.033 A 
HETATM   15  C2  UNL     1       4.527   0.078   0.352  1.00  0.00     0.026 A 
HETATM   16  C1  UNL     1       4.275   0.792   1.504  1.00  0.00     0.034 A 
HETATM   17 CL1  UNL     1       5.561   1.380   2.556  1.00  0.00    -0.084 Cl
HETATM   18  C15 UNL     1       2.969   1.056   1.846  1.00  0.00     0.026 A 
HETATM   19  C14 UNL     1       1.987   0.584   1.005  1.00  0.00     0.033 A 
ENDBRANCH   1  13
BRANCH   8  20
HETATM   20  N4  UNL     1      -3.619   1.103   1.487  1.00  0.00    -0.381 N 
HETATM   21  H7  UNL     1      -3.852   2.104   1.591  1.00  0.00     0.160 HD
BRANCH  20  22
HETATM   22  C10 UNL     1      -4.229   0.122   2.362  1.00  0.00     0.205 C 
HETATM   23 BR1  UNL     1      -5.244  -1.164   1.300  1.00  0.00    -0.075 Br
ENDBRANCH  20  22
ENDBRANCH   8  20
TORSDOF 3
