REMARK  3 active torsions:
REMARK  status: ('A' for Active; 'I' for Inactive)
REMARK    1  A    between atoms: O1_1  and  C1_2 
REMARK    2  A    between atoms: C12_16  and  N4_17 
REMARK    3  A    between atoms: N4_17  and  C13_18 
ROOT
HETATM    1  C1  UNL     1      -2.299  -0.640  -0.407  1.00  0.00     0.069 C 
HETATM    2  C2  UNL     1      -2.392  -1.339   0.740  1.00  0.00     0.034 C 
HETATM    3  C3  UNL     1      -2.307  -0.873   2.143  1.00  0.00    -0.001 C 
HETATM    4  C4  UNL     1      -2.126   0.240   2.877  1.00  0.00    -0.013 C 
HETATM    5  C5  UNL     1      -1.685   1.564   2.335  1.00  0.00     0.098 C 
HETATM    6  C6  UNL     1      -2.906   1.905   1.397  1.00  0.00    -0.015 C 
HETATM    7  C7  UNL     1      -2.696   1.676   0.040  1.00  0.00     0.001 C 
HETATM    8  C8  UNL     1      -2.140   0.718  -0.958  1.00  0.00     0.157 C 
HETATM    9  N1  UNL     1      -0.754   0.966  -1.376  1.00  0.00    -0.388 N 
HETATM   10  C9  UNL     1      -0.088   1.267  -0.118  1.00  0.00     0.184 A 
HETATM   11  C10 UNL     1      -0.395   2.620  -0.456  1.00  0.00     0.344 A 
HETATM   12  N2  UNL     1      -0.761   2.651   0.877  1.00  0.00     0.353 N 
HETATM   13  C11 UNL     1      -0.541   1.387   1.408  1.00  0.00     0.334 A 
HETATM   14  N3  UNL     1      -0.115   0.077   1.264  1.00  0.00    -0.226 NA
HETATM   15  C12 UNL     1       0.296  -0.109  -0.066  1.00  0.00     0.137 A 
HETATM   16  H9  UNL     1      -0.494   0.891  -2.408  1.00  0.00     0.155 HD
ENDROOT
BRANCH  15  17
HETATM   17  N4  UNL     1       0.832  -1.082  -0.932  1.00  0.00    -0.342 N 
HETATM   18  H11 UNL     1       0.327  -1.738  -1.531  1.00  0.00     0.167 HD
BRANCH  17  19
HETATM   19  C13 UNL     1       2.262  -1.139  -0.959  1.00  0.00     0.035 A 
HETATM   20  C14 UNL     1       2.938  -2.068  -1.759  1.00  0.00     0.032 A 
HETATM   21  C15 UNL     1       4.311  -2.174  -1.829  1.00  0.00     0.046 A 
HETATM   22  C16 UNL     1       5.076  -1.318  -1.070  1.00  0.00     0.138 A 
HETATM   23  F1  UNL     1       6.424  -1.370  -1.095  1.00  0.00    -0.204 F 
HETATM   24  C17 UNL     1       4.466  -0.381  -0.262  1.00  0.00     0.074 A 
HETATM   25 CL1  UNL     1       5.413   0.720   0.713  1.00  0.00    -0.081 Cl
HETATM   26  C18 UNL     1       3.093  -0.316  -0.227  1.00  0.00     0.056 A 
ENDBRANCH  17  19
ENDBRANCH  15  17
BRANCH   1  27
HETATM   27  O1  UNL     1      -2.387  -1.535  -1.489  1.00  0.00    -0.363 OA
HETATM   28  H1  UNL     1      -1.958  -2.435  -1.360  1.00  0.00     0.217 HD
ENDBRANCH   1  27
TORSDOF 3
