REMARK  5 active torsions:
REMARK  status: ('A' for Active; 'I' for Inactive)
REMARK       I    between atoms: N1_1  and  C1_2 
REMARK       I    between atoms: C1_2  and  N2_4 
REMARK    1  A    between atoms: N2_4  and  C2_5 
REMARK    2  A    between atoms: C7_12  and  N5_13 
REMARK    3  A    between atoms: N5_13  and  C8_14 
REMARK    4  A    between atoms: C8_14  and  C9_15 
REMARK    5  A    between atoms: C8_14  and  C11_18 
ROOT
HETATM    1  C2  UNL     1       2.772   0.366   0.024  1.00  0.00     0.037 A 
HETATM    2  C3  UNL     1       3.322   0.881   1.185  1.00  0.00     0.032 A 
HETATM    3  C4  UNL     1       2.470   1.071   2.249  1.00  0.00     0.035 A 
HETATM    4  C5  UNL     1       1.119   0.764   2.174  1.00  0.00     0.072 A 
HETATM    5  N3  UNL     1       0.304   0.962   3.237  1.00  0.00    -0.241 NA
HETATM    6  C6  UNL     1      -1.012   0.646   3.113  1.00  0.00     0.235 A 
HETATM    7  N4  UNL     1      -1.508   0.148   1.967  1.00  0.00    -0.224 NA
HETATM    8  C7  UNL     1      -0.759  -0.073   0.875  1.00  0.00     0.138 A 
HETATM    9  C13 UNL     1       0.570   0.255   1.026  1.00  0.00     0.041 A 
HETATM   10  C14 UNL     1       1.429   0.067  -0.035  1.00  0.00     0.047 A 
ENDROOT
BRANCH   8  11
HETATM   11  N5  UNL     1      -1.326  -0.601  -0.315  1.00  0.00    -0.363 N 
HETATM   12  H7  UNL     1      -0.847  -0.805  -1.195  1.00  0.00     0.162 HD
BRANCH  11  13
HETATM   13  C8  UNL     1      -2.754  -0.899  -0.320  1.00  0.00     0.132 C 
BRANCH  13  14
HETATM   14  C9  UNL     1      -3.229  -1.443  -1.610  1.00  0.00     0.031 C 
HETATM   15  C10 UNL     1      -4.424  -1.218  -2.107  1.00  0.00     0.186 C 
HETATM   16  F1  UNL     1      -4.904  -1.703  -3.303  1.00  0.00    -0.220 F 
ENDBRANCH  13  14
BRANCH  13  17
HETATM   17  C11 UNL     1      -3.545   0.318   0.079  1.00  0.00     0.014 C 
HETATM   18  C12 UNL     1      -3.653   1.596   0.424  1.00  0.00     0.083 C 
HETATM   19 CL1  UNL     1      -4.940   2.737   0.854  1.00  0.00    -0.097 Cl
ENDBRANCH  13  17
ENDBRANCH  11  13
ENDBRANCH   8  11
BRANCH   1  20
HETATM   20  N2  UNL     1       3.686   0.184  -1.055  1.00  0.00    -0.309 N 
HETATM   21  C1  UNL     1       4.490  -0.953  -1.402  1.00  0.00     0.318 C 
HETATM   22  N1  UNL     1       5.323  -0.857  -2.545  1.00  0.00    -0.352 N 
HETATM   23  O1  UNL     1       4.306  -1.888  -0.588  1.00  0.00    -0.247 OA
HETATM   24  H1  UNL     1       5.216  -1.740  -3.088  1.00  0.00     0.160 HD
HETATM   25  H2  UNL     1       5.874   0.038  -2.644  1.00  0.00     0.160 HD
HETATM   26  H3  UNL     1       3.681   1.080  -1.599  1.00  0.00     0.170 HD
ENDBRANCH   1  20
TORSDOF 5
