REMARK  2 active torsions:
REMARK  status: ('A' for Active; 'I' for Inactive)
REMARK    1  A    between atoms: C4_5  and  N1_6 
REMARK    2  A    between atoms: N1_6  and  C5_7 
ROOT
HETATM    1  C5  UNL     1      -0.503   0.362  -0.210  1.00  0.00     0.126 A 
HETATM    2  N2  UNL     1       0.006   1.577   0.001  1.00  0.00    -0.227 NA
HETATM    3  C6  UNL     1      -0.789   2.608   0.552  1.00  0.00     0.234 A 
HETATM    4  N3  UNL     1      -1.991   2.717   0.883  1.00  0.00    -0.254 NA
HETATM    5  C7  UNL     1      -3.142   1.956   0.902  1.00  0.00     0.123 A 
HETATM    6  C8  UNL     1      -3.032   0.800   0.532  1.00  0.00    -0.035 A 
HETATM    7  C9  UNL     1      -4.546  -0.342   0.526  1.00  0.00     0.073 A 
HETATM    8  C10 UNL     1      -3.509  -0.953   0.202  1.00  0.00    -0.048 A 
HETATM    9  C11 UNL     1      -2.750  -1.373  -0.029  1.00  0.00    -0.045 A 
HETATM   10  C12 UNL     1      -1.744  -1.899  -0.332  1.00  0.00     0.054 A 
HETATM   11  C13 UNL     1      -1.853  -0.341  -0.031  1.00  0.00     0.078 A 
ENDROOT
BRANCH   1  12
HETATM   12  N1  UNL     1       0.524  -0.432  -0.766  1.00  0.00    -0.343 N 
HETATM   13  H3  UNL     1       0.200  -0.994  -1.626  1.00  0.00     0.167 HD
BRANCH  12  14
HETATM   14  C4  UNL     1       1.851  -0.520  -0.284  1.00  0.00     0.035 A 
HETATM   15  C3  UNL     1       2.740  -1.318  -0.977  1.00  0.00     0.032 A 
HETATM   16  C2  UNL     1       4.051  -1.493  -0.614  1.00  0.00     0.046 A 
HETATM   17  C1  UNL     1       4.535  -0.848   0.502  1.00  0.00     0.138 A 
HETATM   18  F1  UNL     1       5.826  -1.005   0.880  1.00  0.00    -0.204 F 
HETATM   19  C15 UNL     1       3.664  -0.044   1.210  1.00  0.00     0.074 A 
HETATM   20  C14 UNL     1       2.353   0.110   0.818  1.00  0.00     0.056 A 
HETATM   21 CL1  UNL     1       4.197   0.813   2.641  1.00  0.00    -0.081 Cl
ENDBRANCH  12  14
ENDBRANCH   1  12
TORSDOF 2
