REMARK  2 active torsions:
REMARK  status: ('A' for Active; 'I' for Inactive)
REMARK    1  A    between atoms: C7_7  and  C8_8 
REMARK    2  A    between atoms: C13_15  and  N3_16 
REMARK       I    between atoms: N3_16  and  C14_17 
REMARK       I    between atoms: C14_17  and  N4_18 
ROOT
HETATM    1  C1  UNL     1       5.550   2.465  -0.019  1.00  0.00     0.018 C 
HETATM    2  C2  UNL     1       4.680   1.702   0.324  1.00  0.00    -0.078 C 
HETATM    3  C3  UNL     1       3.634   0.802   0.716  1.00  0.00     0.017 A 
HETATM    4  C4  UNL     1       3.532   0.452   2.035  1.00  0.00     0.020 A 
HETATM    5  C5  UNL     1       2.521  -0.414   2.394  1.00  0.00     0.002 A 
HETATM    6  C6  UNL     1       1.635  -0.920   1.469  1.00  0.00     0.014 A 
HETATM    7  C7  UNL     1       1.700  -0.598   0.151  1.00  0.00    -0.005 A 
HETATM    8  C17 UNL     1       2.735   0.283  -0.191  1.00  0.00     0.034 A 
ENDROOT
BRANCH   7   9
HETATM    9  C8  UNL     1       0.869  -0.988  -0.976  1.00  0.00     0.081 A 
HETATM   10  N1  UNL     1       1.564  -1.455  -2.057  1.00  0.00    -0.240 NA
HETATM   11  C9  UNL     1       0.965  -1.858  -3.191  1.00  0.00     0.234 A 
HETATM   12  N2  UNL     1      -0.376  -1.832  -3.346  1.00  0.00    -0.241 NA
HETATM   13  C10 UNL     1      -1.096  -1.379  -2.305  1.00  0.00     0.070 A 
HETATM   14  C11 UNL     1      -2.473  -1.283  -2.314  1.00  0.00     0.035 A 
HETATM   15  C16 UNL     1      -0.499  -0.961  -1.136  1.00  0.00     0.025 A 
HETATM   16  C12 UNL     1      -3.213  -0.807  -1.245  1.00  0.00     0.032 A 
HETATM   17  C13 UNL     1      -2.551  -0.395  -0.084  1.00  0.00     0.037 A 
HETATM   18  C15 UNL     1      -1.177  -0.477  -0.039  1.00  0.00     0.045 A 
BRANCH  17  19
HETATM   19  N3  UNL     1      -3.366   0.084   0.977  1.00  0.00    -0.309 N 
HETATM   20  C14 UNL     1      -3.660   1.487   1.003  1.00  0.00     0.318 C 
HETATM   21  N4  UNL     1      -4.464   2.049   2.024  1.00  0.00    -0.352 N 
HETATM   22  O1  UNL     1      -3.355   2.466   0.272  1.00  0.00    -0.247 OA
HETATM   23  H9  UNL     1      -4.215   1.957   3.042  1.00  0.00     0.160 HD
HETATM   24  H10 UNL     1      -5.359   2.606   2.061  1.00  0.00     0.160 HD
HETATM   25  H8  UNL     1      -3.789  -0.464   1.757  1.00  0.00     0.170 HD
ENDBRANCH  17  19
ENDBRANCH   7   9
TORSDOF 2
