REMARK  2 active torsions:
REMARK  status: ('A' for Active; 'I' for Inactive)
REMARK       I    between atoms: N1_1  and  C1_2 
REMARK       I    between atoms: C1_2  and  N2_4 
REMARK    1  A    between atoms: N2_4  and  C2_5 
REMARK    2  A    between atoms: C3_6  and  N3_7 
ROOT
HETATM    1  C2  UNL     1       1.368   0.082  -0.025  1.00  0.00     0.047 A 
HETATM    2  C3  UNL     1       0.130  -0.378  -0.191  1.00  0.00     0.070 A 
HETATM    3  C9  UNL     1       0.289  -1.702  -0.779  1.00  0.00     0.035 A 
HETATM    4  C10 UNL     1      -0.517  -2.735  -1.208  1.00  0.00     0.134 A 
HETATM    5  N4  UNL     1      -0.074  -3.893  -1.730  1.00  0.00    -0.253 NA
HETATM    6  C11 UNL     1       1.228  -4.094  -1.858  1.00  0.00     0.232 A 
HETATM    7  N5  UNL     1       2.103  -3.156  -1.473  1.00  0.00    -0.245 NA
HETATM    8  C12 UNL     1       1.618  -2.016  -0.958  1.00  0.00     0.055 A 
HETATM    9  C13 UNL     1       2.416  -0.868  -0.479  1.00  0.00     0.119 A 
ENDROOT
BRANCH   1  10
HETATM   10  N2  UNL     1       1.742   1.336   0.520  1.00  0.00    -0.310 N 
HETATM   11  C1  UNL     1       3.096   1.748   0.661  1.00  0.00     0.318 C 
HETATM   12  N1  UNL     1       3.594   2.968   1.187  1.00  0.00    -0.352 N 
HETATM   13  O1  UNL     1       4.047   0.984   0.291  1.00  0.00    -0.247 OA
HETATM   14  H1  UNL     1       3.826   3.914   0.775  1.00  0.00     0.160 HD
HETATM   15  H2  UNL     1       3.772   2.910   2.225  1.00  0.00     0.160 HD
HETATM   16  H3  UNL     1       1.174   2.128   0.891  1.00  0.00     0.170 HD
ENDBRANCH   1  10
BRANCH   2  17
HETATM   17  N3  UNL     1      -1.128   0.218   0.113  1.00  0.00    -0.344 N 
HETATM   18  C4  UNL     1      -2.316  -0.102  -0.655  1.00  0.00     0.153 C 
HETATM   19  C5  UNL     1      -3.358   0.980  -0.590  1.00  0.00    -0.011 C 
HETATM   20  C6  UNL     1      -3.661   1.562   0.565  1.00  0.00    -0.025 C 
HETATM   21  C7  UNL     1      -2.820   0.960   1.661  1.00  0.00     0.086 C 
HETATM   22  C8  UNL     1      -1.377   1.173   1.176  1.00  0.00     0.275 C 
HETATM   23  F1  UNL     1      -1.420   2.451   0.596  1.00  0.00    -0.227 F 
ENDBRANCH   2  17
TORSDOF 2
