REMARK  3 active torsions:
REMARK  status: ('A' for Active; 'I' for Inactive)
REMARK    1  A    between atoms: N1_4  and  C4_5 
REMARK    2  A    between atoms: C9_12  and  N4_13 
REMARK    3  A    between atoms: N4_13  and  C10_14 
ROOT
HETATM    1  C4  UNL     1      -0.066  -0.720  -1.221  1.00  0.00     0.139 A 
HETATM    2  N2  UNL     1      -0.439  -1.367  -2.359  1.00  0.00    -0.224 NA
HETATM    3  C5  UNL     1       0.505  -1.711  -3.284  1.00  0.00     0.236 A 
HETATM    4  N3  UNL     1       1.814  -1.424  -3.103  1.00  0.00    -0.241 NA
HETATM    5  C6  UNL     1       2.256  -0.783  -1.998  1.00  0.00     0.073 A 
HETATM    6  C7  UNL     1       1.273  -0.457  -1.094  1.00  0.00     0.038 A 
HETATM    7  C8  UNL     1       1.560   0.158   0.035  1.00  0.00     0.039 A 
HETATM    8  C9  UNL     1       2.683   0.719   0.812  1.00  0.00     0.231 A 
HETATM    9  N5  UNL     1       3.944   0.575   0.151  1.00  0.00    -0.272 NA
HETATM   10  C11 UNL     1       4.311   0.062  -0.956  1.00  0.00     0.115 A 
HETATM   11  C12 UNL     1       3.564  -0.599  -2.015  1.00  0.00     0.051 A 
ENDROOT
BRANCH   1  12
HETATM   12  N1  UNL     1      -1.044  -0.345  -0.261  1.00  0.00    -0.361 N 
HETATM   13  C3  UNL     1      -1.596   0.895   0.305  1.00  0.00     0.134 C 
HETATM   14  C2  UNL     1      -3.077   1.030   0.013  1.00  0.00     0.044 C 
HETATM   15  C1  UNL     1      -3.799   1.647   1.210  1.00  0.00     0.017 C 
HETATM   16  C15 UNL     1      -3.701  -0.275  -0.346  1.00  0.00     0.015 C 
HETATM   17  C14 UNL     1      -3.137  -1.451  -0.182  1.00  0.00     0.013 C 
HETATM   18 CL1  UNL     1      -5.306  -0.152  -1.032  1.00  0.00    -0.089 Cl
HETATM   19  C13 UNL     1      -1.764  -1.437   0.413  1.00  0.00     0.153 C 
ENDBRANCH   1  12
BRANCH   8  20
HETATM   20  N4  UNL     1       2.746   0.139   2.141  1.00  0.00    -0.342 N 
HETATM   21  H10 UNL     1       2.874  -0.906   2.269  1.00  0.00     0.164 HD
BRANCH  20  22
HETATM   22  C10 UNL     1       2.643   0.926   3.345  1.00  0.00     0.350 C 
HETATM   23  O1  UNL     1       2.492   2.168   3.162  1.00  0.00    -0.284 OA
ENDBRANCH  20  22
ENDBRANCH   8  20
TORSDOF 3
