REMARK  2 active torsions:
REMARK  status: ('A' for Active; 'I' for Inactive)
REMARK       I    between atoms: C2_2  and  N1_4 
REMARK    1  A    between atoms: N1_4  and  C3_5 
REMARK    2  A    between atoms: C8_12  and  N4_13 
ROOT
HETATM    1  C3  UNL     1       2.359  -0.742  -0.293  1.00  0.00     0.035 A 
HETATM    2  C4  UNL     1       2.774  -2.006   0.129  1.00  0.00     0.032 A 
HETATM    3  C5  UNL     1       1.795  -2.932   0.498  1.00  0.00     0.035 A 
HETATM    4  C6  UNL     1       0.449  -2.613   0.449  1.00  0.00     0.072 A 
HETATM    5  N2  UNL     1      -0.492  -3.489   0.799  1.00  0.00    -0.241 NA
HETATM    6  C7  UNL     1      -1.793  -3.160   0.744  1.00  0.00     0.236 A 
HETATM    7  N3  UNL     1      -2.172  -1.937   0.334  1.00  0.00    -0.224 NA
HETATM    8  C8  UNL     1      -1.272  -0.983  -0.041  1.00  0.00     0.140 A 
HETATM    9  C14 UNL     1       0.053  -1.360   0.029  1.00  0.00     0.041 A 
HETATM   10  C15 UNL     1       1.009  -0.462  -0.329  1.00  0.00     0.047 A 
ENDROOT
BRANCH   8  11
HETATM   11  N4  UNL     1      -1.723   0.303  -0.470  1.00  0.00    -0.360 N 
HETATM   12  C9  UNL     1      -1.516   1.672  -0.005  1.00  0.00     0.154 C 
HETATM   13  C10 UNL     1      -2.804   2.404   0.116  1.00  0.00     0.032 C 
HETATM   14  C11 UNL     1      -3.922   1.928  -0.425  1.00  0.00     0.111 C 
HETATM   15  F1  UNL     1      -5.084   2.625  -0.295  1.00  0.00    -0.209 F 
HETATM   16  C12 UNL     1      -4.013   0.648  -1.190  1.00  0.00     0.162 C 
HETATM   17 CL1  UNL     1      -4.685  -0.579  -0.107  1.00  0.00    -0.116 Cl
HETATM   18  C13 UNL     1      -2.591   0.313  -1.631  1.00  0.00     0.152 C 
ENDBRANCH   8  11
BRANCH   1  19
HETATM   19  N1  UNL     1       3.337   0.234  -0.679  1.00  0.00    -0.327 N 
HETATM   20  C2  UNL     1       3.766   1.038   0.416  1.00  0.00     0.218 C 
HETATM   21  C1  UNL     1       4.781   2.104   0.193  1.00  0.00     0.117 C 
HETATM   22  O1  UNL     1       3.186   0.716   1.506  1.00  0.00    -0.274 OA
HETATM   23  H4  UNL     1       3.710   0.362  -1.645  1.00  0.00     0.169 HD
ENDBRANCH   1  19
TORSDOF 2
