REMARK  3 active torsions:
REMARK  status: ('A' for Active; 'I' for Inactive)
REMARK       I    between atoms: N1_1  and  C1_2 
REMARK    1  A    between atoms: C1_2  and  C2_4 
REMARK    2  A    between atoms: C8_10  and  N2_11 
REMARK    3  A    between atoms: C13_18  and  N3_19 
ROOT
HETATM    1  C2  UNL     1       2.603   0.349  -0.112  1.00  0.00     0.026 A 
HETATM    2  C3  UNL     1       3.204  -0.387   0.916  1.00  0.00     0.019 A 
HETATM    3  C4  UNL     1       2.536  -1.395   1.572  1.00  0.00     0.033 A 
HETATM    4  C5  UNL     1       1.237  -1.721   1.239  1.00  0.00     0.065 A 
HETATM    5  C6  UNL     1       0.633  -1.002   0.227  1.00  0.00    -0.001 A 
HETATM    6  C7  UNL     1       1.293  -0.001  -0.427  1.00  0.00     0.028 A 
HETATM    7  C8  UNL     1      -0.755  -1.476  -0.005  1.00  0.00     0.162 A 
HETATM    8  C14 UNL     1      -0.824  -2.556   1.024  1.00  0.00     0.120 A 
HETATM    9  N4  UNL     1       0.287  -2.684   1.709  1.00  0.00    -0.262 NA
ENDROOT
BRANCH   7  10
HETATM   10  N2  UNL     1      -1.737  -0.460   0.206  1.00  0.00    -0.343 N 
HETATM   11  C9  UNL     1      -1.646   0.225   1.466  1.00  0.00     0.116 A 
HETATM   12  C10 UNL     1      -2.507   1.181   1.759  1.00  0.00     0.087 A 
HETATM   13 CL1  UNL     1      -2.396   2.016   3.295  1.00  0.00    -0.080 Cl
HETATM   14  C11 UNL     1      -3.558   1.571   0.839  1.00  0.00     0.139 A 
HETATM   15  F1  UNL     1      -4.424   2.555   1.169  1.00  0.00    -0.204 F 
HETATM   16  C12 UNL     1      -3.630   0.941  -0.304  1.00  0.00     0.073 A 
HETATM   17  C13 UNL     1      -2.754  -0.144  -0.784  1.00  0.00     0.346 A 
BRANCH  17  18
HETATM   18  N3  UNL     1      -2.021   0.386  -1.944  1.00  0.00     0.105 N 
HETATM   19  H10 UNL     1      -2.004  -0.294  -2.734  1.00  0.00     0.315 HD
HETATM   20  H11 UNL     1      -2.422   1.286  -2.279  1.00  0.00     0.315 HD
ENDBRANCH  17  18
ENDBRANCH   7  10
BRANCH   1  21
HETATM   21  C1  UNL     1       3.271   1.427  -0.838  1.00  0.00     0.228 C 
HETATM   22  N1  UNL     1       4.608   1.704  -0.437  1.00  0.00    -0.268 NA
HETATM   23  H1  UNL     1       5.619   1.535  -0.638  1.00  0.00     0.127 HD
HETATM   24  H2  UNL     1       5.599   1.481  -0.711  1.00  0.00     0.127 HD
HETATM   25  O1  UNL     1       2.656   2.032  -1.743  1.00  0.00    -0.274 OA
ENDBRANCH   1  21
TORSDOF 3
