REMARK  1 active torsions:
REMARK  status: ('A' for Active; 'I' for Inactive)
REMARK       I    between atoms: C2_2  and  N1_4 
REMARK    1  A    between atoms: N1_4  and  C3_5 
REMARK       I    between atoms: C6_10  and  N4_11 
ROOT
HETATM    1  C3  UNL     1      -3.013   0.023   0.479  1.00  0.00     0.091 C 
HETATM    2  C4  UNL     1      -2.032   0.886   0.677  1.00  0.00    -0.022 C 
HETATM    3  C5  UNL     1      -1.165   1.643   0.831  1.00  0.00     0.066 C 
HETATM    4  N2  UNL     1      -0.207   2.460   0.983  1.00  0.00    -0.080 NA
HETATM    5  N3  UNL     1       1.055   2.050   0.890  1.00  0.00     0.053 NA
HETATM    6  C6  UNL     1       1.337   0.740   0.619  1.00  0.00     0.743 C 
HETATM    7  N4  UNL     1       2.621   0.450   0.061  1.00  0.00    -0.207 N 
HETATM    8  C7  UNL     1       3.114  -0.846  -0.294  1.00  0.00     0.171 C 
HETATM    9  C8  UNL     1       4.197  -1.262   0.643  1.00  0.00     0.032 C 
HETATM   10  C9  UNL     1       5.076  -0.263   0.697  1.00  0.00     0.111 C 
HETATM   11  F1  UNL     1       6.173  -0.428   1.510  1.00  0.00    -0.209 F 
HETATM   12  C10 UNL     1       5.013   1.039  -0.033  1.00  0.00     0.162 C 
HETATM   13 CL1  UNL     1       5.852   2.300   0.924  1.00  0.00    -0.116 Cl
HETATM   14  C11 UNL     1       3.590   1.482  -0.211  1.00  0.00     0.169 C 
HETATM   15  N5  UNL     1       0.513  -0.309   0.831  1.00  0.00    -0.074 NA
HETATM   16  C12 UNL     1      -0.209  -0.915  -0.113  1.00  0.00     0.136 C 
HETATM   17  C13 UNL     1      -1.271  -1.713   0.262  1.00  0.00     0.023 C 
HETATM   18  C14 UNL     1      -2.387  -1.115   0.857  1.00  0.00     0.040 C 
ENDROOT
BRANCH   1  19
HETATM   19  N1  UNL     1      -4.281   0.410   0.001  1.00  0.00    -0.320 N 
HETATM   20  C2  UNL     1      -5.183  -0.675  -0.143  1.00  0.00     0.218 C 
HETATM   21  C1  UNL     1      -6.559  -0.330  -0.652  1.00  0.00     0.117 C 
HETATM   22  O1  UNL     1      -4.739  -1.804   0.168  1.00  0.00    -0.274 OA
HETATM   23  H4  UNL     1      -4.439   1.416  -0.198  1.00  0.00     0.169 HD
ENDBRANCH   1  19
TORSDOF 1
