REMARK  5 active torsions:
REMARK  status: ('A' for Active; 'I' for Inactive)
REMARK    1  A    between atoms: N1_1  and  N2_2 
REMARK    2  A    between atoms: N2_2  and  O1_3 
REMARK    3  A    between atoms: N2_2  and  C1_4 
REMARK    4  A    between atoms: C6_11  and  N5_12 
REMARK    5  A    between atoms: N5_12  and  C7_13 
ROOT
HETATM    1  C1  UNL     1       2.389   0.307   0.599  1.00  0.00     0.076 A 
HETATM    2  C2  UNL     1       3.047  -0.906   0.757  1.00  0.00     0.036 A 
HETATM    3  C3  UNL     1       2.527  -2.020   0.086  1.00  0.00     0.035 A 
HETATM    4  C4  UNL     1       1.402  -1.942  -0.713  1.00  0.00     0.072 A 
HETATM    5  N3  UNL     1       0.904  -3.011  -1.359  1.00  0.00    -0.241 NA
HETATM    6  C5  UNL     1      -0.180  -2.907  -2.123  1.00  0.00     0.236 A 
HETATM    7  N4  UNL     1      -0.795  -1.700  -2.252  1.00  0.00    -0.224 NA
HETATM    8  C6  UNL     1      -0.299  -0.608  -1.600  1.00  0.00     0.142 A 
HETATM    9  C13 UNL     1       0.818  -0.681  -0.805  1.00  0.00     0.041 A 
HETATM   10  C14 UNL     1       1.269   0.459  -0.176  1.00  0.00     0.051 A 
ENDROOT
BRANCH   8  11
HETATM   11  N5  UNL     1      -1.040   0.616  -1.718  1.00  0.00    -0.340 N 
HETATM   12  H7  UNL     1      -1.044   1.473  -2.300  1.00  0.00     0.167 HD
BRANCH  11  13
HETATM   13  C7  UNL     1      -2.054   0.543  -0.694  1.00  0.00     0.035 A 
HETATM   14  C8  UNL     1      -3.025   1.541  -0.592  1.00  0.00     0.032 A 
HETATM   15  C9  UNL     1      -4.024   1.511   0.374  1.00  0.00     0.046 A 
HETATM   16  C10 UNL     1      -4.091   0.475   1.283  1.00  0.00     0.138 A 
HETATM   17  F1  UNL     1      -5.039   0.381   2.242  1.00  0.00    -0.204 F 
HETATM   18  C11 UNL     1      -3.160  -0.571   1.260  1.00  0.00     0.074 A 
HETATM   19 CL1  UNL     1      -3.141  -1.929   2.333  1.00  0.00    -0.081 Cl
HETATM   20  C12 UNL     1      -2.220  -0.439   0.266  1.00  0.00     0.056 A 
ENDBRANCH  11  13
ENDBRANCH   8  11
BRANCH   1  21
HETATM   21  N2  UNL     1       3.031   1.356   1.325  1.00  0.00    -0.189 N 
BRANCH  21  22
HETATM   22  N1  UNL     1       3.635   2.269   0.448  1.00  0.00    -0.222 NA
HETATM   23  H1  UNL     1       4.207   1.854  -0.287  1.00  0.00     0.145 HD
HETATM   24  H2  UNL     1       2.837   2.852   0.090  1.00  0.00     0.145 HD
ENDBRANCH  21  22
BRANCH  21  25
HETATM   25  O1  UNL     1       3.118   1.543   2.679  1.00  0.00    -0.272 OA
HETATM   26  H3  UNL     1       3.099   2.515   2.828  1.00  0.00     0.246 HD
ENDBRANCH  21  25
ENDBRANCH   1  21
TORSDOF 5
