REMARK  7 active torsions:
REMARK  status: ('A' for Active; 'I' for Inactive)
REMARK       I    between atoms: C1_2  and  N1_3 
REMARK       I    between atoms: C1_2  and  N2_5 
REMARK    1  A    between atoms: N2_5  and  C2_6 
REMARK    2  A    between atoms: C5_9  and  C6_10 
REMARK    3  A    between atoms: C6_10  and  C7_11 
REMARK    4  A    between atoms: C7_11  and  C8_13 
REMARK    5  A    between atoms: C8_13  and  O2_14 
REMARK    6  A    between atoms: O2_14  and  C9_15 
REMARK    7  A    between atoms: C9_15  and  C10_16 
ROOT
HETATM    1  C2  UNL     1      -1.735   0.662  -0.459  1.00  0.00     0.019 C 
HETATM    2  C3  UNL     1      -0.583  -0.033  -0.218  1.00  0.00    -0.000 C 
HETATM    3  C4  UNL     1       0.149   0.678   0.821  1.00  0.00     0.039 C 
HETATM    4  C5  UNL     1      -0.144   0.154   2.229  1.00  0.00     0.031 C 
HETATM    5  C16 UNL     1       0.239   1.356   3.131  1.00  0.00     0.130 C 
HETATM    6  N3  UNL     1      -0.242   2.548   2.443  1.00  0.00    -0.374 N 
HETATM    7  C17 UNL     1      -1.521   3.019   2.119  1.00  0.00     0.129 C 
HETATM    8  N4  UNL     1      -1.760   3.686   3.164  1.00  0.00    -0.225 NA
HETATM    9  C18 UNL     1      -3.033   4.392   3.228  1.00  0.00     0.229 C 
HETATM   10  N5  UNL     1      -3.820   4.318   2.214  1.00  0.00    -0.278 NA
HETATM   11  C19 UNL     1      -3.631   3.636   0.980  1.00  0.00     0.189 C 
HETATM   12  C20 UNL     1      -2.485   2.734   0.991  1.00  0.00    -0.004 C 
HETATM   13  C21 UNL     1      -2.572   1.813   0.006  1.00  0.00     0.084 C 
HETATM   14  H19 UNL     1       0.518   3.218   2.105  1.00  0.00     0.161 HD
ENDROOT
BRANCH   4  15
HETATM   15  C6  UNL     1       0.456  -1.100   2.494  1.00  0.00     0.001 C 
BRANCH  15  16
HETATM   16  C7  UNL     1       1.141  -2.261   2.423  1.00  0.00     0.032 C 
HETATM   17 CL1  UNL     1       1.309  -3.492   3.713  1.00  0.00    -0.087 Cl
BRANCH  16  18
HETATM   18  C8  UNL     1       1.935  -2.912   1.357  1.00  0.00     0.218 C 
BRANCH  18  19
HETATM   19  O2  UNL     1       1.942  -2.113   0.198  1.00  0.00    -0.381 OA
BRANCH  19  20
HETATM   20  C9  UNL     1       2.715  -2.835  -0.723  1.00  0.00     0.206 C 
BRANCH  20  21
HETATM   21  C10 UNL     1       2.823  -2.131  -2.012  1.00  0.00    -0.035 A 
HETATM   22  C11 UNL     1       1.978  -2.254  -3.085  1.00  0.00     0.009 A 
HETATM   23  C12 UNL     1       2.247  -1.504  -4.217  1.00  0.00     0.001 A 
HETATM   24  C13 UNL     1       3.315  -0.639  -4.332  1.00  0.00     0.000 A 
HETATM   25  C14 UNL     1       4.151  -0.536  -3.231  1.00  0.00     0.001 A 
HETATM   26  C15 UNL     1       3.908  -1.269  -2.096  1.00  0.00     0.009 A 
ENDBRANCH  20  21
ENDBRANCH  19  20
ENDBRANCH  18  19
ENDBRANCH  16  18
ENDBRANCH  15  16
ENDBRANCH   4  15
BRANCH   1  27
HETATM   27  N2  UNL     1      -2.664   0.207  -1.445  1.00  0.00    -0.310 N 
HETATM   28  C1  UNL     1      -2.604  -0.964  -2.222  1.00  0.00     0.348 C 
HETATM   29  O1  UNL     1      -1.653  -1.754  -2.079  1.00  0.00    -0.245 OA
HETATM   30  N1  UNL     1      -3.452  -1.506  -3.222  1.00  0.00    -0.173 N 
HETATM   31  F1  UNL     1      -3.110  -2.698  -3.808  1.00  0.00    -0.097 F 
HETATM   32  H1  UNL     1      -4.300  -0.903  -3.421  1.00  0.00     0.204 HD
HETATM   33  H2  UNL     1      -3.575   0.620  -1.820  1.00  0.00     0.170 HD
ENDBRANCH   1  27
TORSDOF 7
