REMARK  7 active torsions:
REMARK  status: ('A' for Active; 'I' for Inactive)
REMARK    1  A    between atoms: C2_2  and  N1_15 
REMARK    2  A    between atoms: C3_3  and  C4_4 
REMARK    3  A    between atoms: C4_4  and  C5_5 
REMARK    4  A    between atoms: C4_4  and  O1_7 
REMARK    5  A    between atoms: O1_7  and  C6_8 
REMARK    6  A    between atoms: N1_15  and  C12_16 
REMARK    7  A    between atoms: C17_23  and  N4_24 
REMARK       I    between atoms: N4_24  and  C18_25 
REMARK       I    between atoms: C18_25  and  N5_26 
ROOT
HETATM    1  C12 UNL     1       2.011   1.675   0.932  1.00  0.00     0.141 A 
HETATM    2  N2  UNL     1       1.690   2.902   1.376  1.00  0.00    -0.224 NA
HETATM    3  C13 UNL     1       2.542   3.953   1.228  1.00  0.00     0.236 A 
HETATM    4  N3  UNL     1       3.729   3.743   0.621  1.00  0.00    -0.241 NA
HETATM    5  C14 UNL     1       4.091   2.552   0.167  1.00  0.00     0.072 A 
HETATM    6  C15 UNL     1       5.308   2.289  -0.466  1.00  0.00     0.035 A 
HETATM    7  C16 UNL     1       5.599   1.013  -0.907  1.00  0.00     0.032 A 
HETATM    8  C17 UNL     1       4.693  -0.031  -0.732  1.00  0.00     0.037 A 
HETATM    9  C19 UNL     1       3.479   0.197  -0.109  1.00  0.00     0.047 A 
HETATM   10  C20 UNL     1       3.245   1.471   0.305  1.00  0.00     0.041 A 
ENDROOT
BRANCH   1  11
HETATM   11  N1  UNL     1       1.000   0.731   1.181  1.00  0.00    -0.344 N 
HETATM   12  H14 UNL     1       1.086   0.231   2.081  1.00  0.00     0.167 HD
BRANCH  11  13
HETATM   13  C2  UNL     1      -0.127   0.342   0.406  1.00  0.00     0.005 C 
HETATM   14  C1  UNL     1      -0.830   1.522  -0.171  1.00  0.00     0.068 C 
HETATM   15  C3  UNL     1      -0.506  -0.902   0.220  1.00  0.00     0.031 C 
BRANCH  15  16
HETATM   16  C4  UNL     1      -1.731  -1.091  -0.636  1.00  0.00     0.167 C 
BRANCH  16  17
HETATM   17  C5  UNL     1      -1.969  -2.585  -0.741  1.00  0.00     0.151 C 
HETATM   18 CL1  UNL     1      -0.518  -3.309  -1.497  1.00  0.00    -0.128 Cl
ENDBRANCH  16  17
BRANCH  16  19
HETATM   19  O1  UNL     1      -2.768  -0.406  -0.001  1.00  0.00    -0.342 OA
BRANCH  19  20
HETATM   20  C6  UNL     1      -4.078  -0.324  -0.450  1.00  0.00     0.089 A 
HETATM   21  C7  UNL     1      -4.912  -0.139   0.564  1.00  0.00     0.151 A 
HETATM   22  F1  UNL     1      -4.554  -0.039   1.883  1.00  0.00    -0.203 F 
HETATM   23  C8  UNL     1      -6.290  -0.054   0.085  1.00  0.00    -0.024 A 
HETATM   24  C9  UNL     1      -7.561   0.147   0.844  1.00  0.00     0.051 C 
HETATM   25  C10 UNL     1      -6.249  -0.193  -1.231  1.00  0.00    -0.010 A 
HETATM   26  C11 UNL     1      -4.852  -0.379  -1.719  1.00  0.00     0.095 A 
ENDBRANCH  19  20
ENDBRANCH  16  19
ENDBRANCH  15  16
ENDBRANCH  11  13
ENDBRANCH   1  11
BRANCH   8  27
HETATM   27  N4  UNL     1       4.954  -1.376  -1.175  1.00  0.00    -0.309 N 
HETATM   28  C18 UNL     1       5.603  -2.125  -0.135  1.00  0.00     0.318 C 
HETATM   29  N5  UNL     1       5.961  -3.486  -0.345  1.00  0.00    -0.352 N 
HETATM   30  O2  UNL     1       5.865  -1.587   0.977  1.00  0.00    -0.247 OA
HETATM   31  H19 UNL     1       7.003  -3.459  -0.502  1.00  0.00     0.160 HD
HETATM   32  H20 UNL     1       6.109  -4.487  -0.482  1.00  0.00     0.160 HD
HETATM   33  H18 UNL     1       4.742  -1.838  -2.099  1.00  0.00     0.170 HD
ENDBRANCH   8  27
TORSDOF 7
