REMARK  7 active torsions:
REMARK  status: ('A' for Active; 'I' for Inactive)
REMARK    1  A    between atoms: C2_2  and  C3_3 
REMARK    2  A    between atoms: C3_3  and  C4_4 
REMARK    3  A    between atoms: C6_8  and  N3_9 
REMARK    4  A    between atoms: N3_9  and  C7_10 
REMARK    5  A    between atoms: C13_18  and  C14_19 
REMARK    6  A    between atoms: C14_19  and  N4_20 
REMARK    7  A    between atoms: N4_20  and  O1_22 
ROOT
HETATM    1  C4  UNL     1      -1.782   0.401  -0.426  1.00  0.00     0.070 A 
HETATM    2  N1  UNL     1      -1.724   1.558  -1.144  1.00  0.00    -0.241 NA
HETATM    3  C5  UNL     1      -0.526   2.092  -1.435  1.00  0.00     0.236 A 
HETATM    4  N2  UNL     1       0.547   1.453  -1.002  1.00  0.00    -0.223 NA
HETATM    5  C6  UNL     1       0.610   0.326  -0.298  1.00  0.00     0.143 A 
HETATM    6  C13 UNL     1      -0.617  -0.201  -0.011  1.00  0.00     0.056 A 
ENDROOT
BRANCH   5   7
HETATM    7  N3  UNL     1       1.816  -0.279   0.120  1.00  0.00    -0.340 N 
HETATM    8  H8  UNL     1       1.746  -1.164   0.665  1.00  0.00     0.167 HD
BRANCH   7   9
HETATM    9  C7  UNL     1       3.143   0.146  -0.096  1.00  0.00     0.035 A 
HETATM   10  C8  UNL     1       4.230  -0.570   0.385  1.00  0.00     0.032 A 
HETATM   11  C9  UNL     1       5.533  -0.198   0.201  1.00  0.00     0.046 A 
HETATM   12  C10 UNL     1       5.836   0.948  -0.499  1.00  0.00     0.138 A 
HETATM   13  F1  UNL     1       7.132   1.276  -0.656  1.00  0.00    -0.204 F 
HETATM   14  C11 UNL     1       4.808   1.712  -1.008  1.00  0.00     0.074 A 
HETATM   15 CL1  UNL     1       5.191   3.165  -1.895  1.00  0.00    -0.081 Cl
HETATM   16  C12 UNL     1       3.521   1.277  -0.784  1.00  0.00     0.056 A 
ENDBRANCH   7   9
ENDBRANCH   5   7
BRANCH   6  17
HETATM   17  C14 UNL     1      -0.712  -1.314   0.682  1.00  0.00     0.134 C 
BRANCH  17  18
HETATM   18  N4  UNL     1      -1.591  -2.266   1.249  1.00  0.00    -0.276 N 
HETATM   19  C15 UNL     1      -2.081  -3.524   0.666  1.00  0.00     0.184 C 
BRANCH  18  20
HETATM   20  O1  UNL     1      -2.174  -2.190   2.496  1.00  0.00    -0.288 OA
HETATM   21  H16 UNL     1      -3.166  -2.243   2.400  1.00  0.00     0.244 HD
ENDBRANCH  18  20
ENDBRANCH  17  18
ENDBRANCH   6  17
BRANCH   1  22
HETATM   22  C3  UNL     1      -3.016  -0.009  -0.211  1.00  0.00     0.006 C 
BRANCH  22  23
HETATM   23  C2  UNL     1      -4.167   0.744  -0.717  1.00  0.00     0.025 C 
HETATM   24  C1  UNL     1      -4.056   2.152  -0.127  1.00  0.00     0.009 C 
ENDBRANCH  22  23
ENDBRANCH   1  22
TORSDOF 7
