REMARK  5 active torsions:
REMARK  status: ('A' for Active; 'I' for Inactive)
REMARK       I    between atoms: C2_2  and  N1_4 
REMARK    1  A    between atoms: N1_4  and  C3_5 
REMARK    2  A    between atoms: C8_10  and  N2_11 
REMARK    3  A    between atoms: N3_13  and  C10_14 
REMARK    4  A    between atoms: C10_14  and  N4_15 
REMARK    5  A    between atoms: N4_15  and  C11_16 
ROOT
HETATM    1  N2  UNL     1      -0.556  -0.105  -0.316  1.00  0.00    -0.261 N 
HETATM    2  C9  UNL     1       0.664  -0.319  -0.578  1.00  0.00     0.202 A 
HETATM    3  N3  UNL     1       0.481   1.057  -0.335  1.00  0.00    -0.143 NA
ENDROOT
BRANCH   1   4
HETATM    4  C8  UNL     1      -1.605  -1.057  -0.263  1.00  0.00     0.079 A 
HETATM    5  C3  UNL     1      -2.906  -0.619  -0.362  1.00  0.00     0.063 A 
HETATM    6  C4  UNL     1      -3.845  -1.618  -0.296  1.00  0.00     0.032 A 
HETATM    7  C5  UNL     1      -3.576  -2.958  -0.145  1.00  0.00     0.002 A 
HETATM    8  C6  UNL     1      -2.266  -3.363  -0.049  1.00  0.00     0.002 A 
HETATM    9  C7  UNL     1      -1.294  -2.390  -0.111  1.00  0.00     0.033 A 
BRANCH   5  10
HETATM   10  N1  UNL     1      -3.142   0.768  -0.516  1.00  0.00    -0.325 N 
HETATM   11  C2  UNL     1      -4.362   1.454  -0.624  1.00  0.00     0.218 C 
HETATM   12  C1  UNL     1      -4.452   2.940  -0.786  1.00  0.00     0.117 C 
HETATM   13  O1  UNL     1      -5.439   0.824  -0.589  1.00  0.00    -0.274 OA
HETATM   14  H4  UNL     1      -2.330   1.422  -0.561  1.00  0.00     0.169 HD
ENDBRANCH   5  10
ENDBRANCH   1   4
BRANCH   3  15
HETATM   15  C10 UNL     1       1.145   1.822   0.435  1.00  0.00     0.180 C 
BRANCH  15  16
HETATM   16  N4  UNL     1       2.221   1.337   1.186  1.00  0.00    -0.355 N 
HETATM   17  H11 UNL     1       2.181   1.453   2.230  1.00  0.00     0.166 HD
BRANCH  16  18
HETATM   18  C11 UNL     1       3.330   0.730   0.547  1.00  0.00     0.034 A 
HETATM   19  C12 UNL     1       4.261   0.136   1.383  1.00  0.00     0.032 A 
HETATM   20  C13 UNL     1       5.393  -0.470   0.903  1.00  0.00     0.046 A 
HETATM   21  C14 UNL     1       5.680  -0.527  -0.443  1.00  0.00     0.138 A 
HETATM   22  F1  UNL     1       6.791  -1.119  -0.936  1.00  0.00    -0.204 F 
HETATM   23  C15 UNL     1       4.759   0.063  -1.292  1.00  0.00     0.074 A 
HETATM   24 CL1  UNL     1       4.992   0.069  -3.036  1.00  0.00    -0.081 Cl
HETATM   25  C16 UNL     1       3.627   0.667  -0.792  1.00  0.00     0.056 A 
ENDBRANCH  16  18
ENDBRANCH  15  16
ENDBRANCH   3  15
TORSDOF 5
