REMARK  3 active torsions:
REMARK  status: ('A' for Active; 'I' for Inactive)
REMARK    1  A    between atoms: C2_2  and  C3_4 
REMARK    2  A    between atoms: C7_10  and  N3_11 
REMARK    3  A    between atoms: N3_11  and  C8_12 
ROOT
HETATM    1  C3  UNL     1      -3.307  -0.046   0.602  1.00  0.00     0.103 A 
HETATM    2  C4  UNL     1      -3.353   1.309   0.002  1.00  0.00     0.022 A 
HETATM    3  C5  UNL     1      -2.133   1.680  -0.337  1.00  0.00     0.069 A 
HETATM    4  N1  UNL     1      -1.700   2.823  -0.909  1.00  0.00    -0.241 NA
HETATM    5  C6  UNL     1      -0.391   3.022  -1.184  1.00  0.00     0.235 A 
HETATM    6  N2  UNL     1       0.500   2.072  -0.885  1.00  0.00    -0.224 NA
HETATM    7  C7  UNL     1       0.161   0.910  -0.317  1.00  0.00     0.141 A 
HETATM    8  C14 UNL     1      -1.189   0.723  -0.042  1.00  0.00     0.036 A 
HETATM    9  C15 UNL     1      -1.840  -0.316   0.515  1.00  0.00     0.007 A 
ENDROOT
BRANCH   7  10
HETATM   10  N3  UNL     1       1.053  -0.136   0.025  1.00  0.00    -0.340 N 
HETATM   11  H7  UNL     1       0.663  -1.004   0.469  1.00  0.00     0.167 HD
BRANCH  10  12
HETATM   12  C8  UNL     1       2.454  -0.155  -0.165  1.00  0.00     0.035 A 
HETATM   13  C9  UNL     1       3.225   0.840  -0.719  1.00  0.00     0.032 A 
HETATM   14  C10 UNL     1       4.588   0.793  -0.890  1.00  0.00     0.046 A 
HETATM   15  C11 UNL     1       5.266  -0.318  -0.490  1.00  0.00     0.138 A 
HETATM   16  F1  UNL     1       6.605  -0.454  -0.619  1.00  0.00    -0.204 F 
HETATM   17  C12 UNL     1       4.565  -1.359   0.075  1.00  0.00     0.074 A 
HETATM   18 CL1  UNL     1       5.415  -2.792   0.595  1.00  0.00    -0.081 Cl
HETATM   19  C13 UNL     1       3.202  -1.258   0.223  1.00  0.00     0.056 A 
ENDBRANCH  10  12
ENDBRANCH   7  10
BRANCH   1  20
HETATM   20  C2  UNL     1      -4.105  -1.045  -0.118  1.00  0.00     0.134 C 
HETATM   21  C1  UNL     1      -4.086  -2.421   0.452  1.00  0.00     0.092 C 
HETATM   22  O1  UNL     1      -4.576  -0.388  -1.036  1.00  0.00    -0.297 OA
ENDBRANCH   1  20
TORSDOF 3
