REMARK  4 active torsions:
REMARK  status: ('A' for Active; 'I' for Inactive)
REMARK    1  A    between atoms: C2_2  and  O1_3 
REMARK    2  A    between atoms: C3_4  and  C4_5 
REMARK    3  A    between atoms: C8_10  and  N2_11 
REMARK    4  A    between atoms: N2_11  and  C9_12 
ROOT
HETATM    1  C4  UNL     1      -2.870  -0.078  -0.346  1.00  0.00     0.036 C 
HETATM    2  C5  UNL     1      -1.667   0.259   0.094  1.00  0.00     0.064 C 
HETATM    3  C6  UNL     1      -1.400   0.934   1.378  1.00  0.00     0.179 C 
HETATM    4  N1  UNL     1      -0.502   0.054   2.147  1.00  0.00    -0.405 N 
HETATM    5  C7  UNL     1       0.890  -0.240   1.848  1.00  0.00     0.250 C 
HETATM    6  C8  UNL     1       1.574  -0.886   0.864  1.00  0.00     0.125 C 
HETATM    7  N3  UNL     1       1.907  -1.629  -0.348  1.00  0.00    -0.275 NA
HETATM    8  C15 UNL     1       0.972  -1.844  -1.213  1.00  0.00     0.112 C 
HETATM    9  C16 UNL     1      -0.447  -1.434  -1.158  1.00  0.00     0.221 C 
HETATM   10  O2  UNL     1      -0.594  -0.067  -0.745  1.00  0.00    -0.349 OA
HETATM   11  H9  UNL     1      -0.863  -0.427   3.017  1.00  0.00     0.154 HD
ENDROOT
BRANCH   6  12
HETATM   12  N2  UNL     1       2.924  -0.742   1.293  1.00  0.00    -0.365 N 
HETATM   13  H11 UNL     1       3.241  -1.345   2.110  1.00  0.00     0.162 HD
BRANCH  12  14
HETATM   14  C9  UNL     1       3.856   0.141   0.705  1.00  0.00     0.031 A 
HETATM   15  C10 UNL     1       3.525   0.944  -0.353  1.00  0.00     0.032 A 
HETATM   16  C11 UNL     1       4.443   1.807  -0.929  1.00  0.00     0.046 A 
HETATM   17  C12 UNL     1       5.742   1.909  -0.472  1.00  0.00     0.138 A 
HETATM   18  F1  UNL     1       6.701   2.714  -0.961  1.00  0.00    -0.204 F 
HETATM   19  C13 UNL     1       6.081   1.091   0.607  1.00  0.00     0.074 A 
HETATM   20 CL1  UNL     1       7.699   1.121   1.286  1.00  0.00    -0.081 Cl
HETATM   21  C14 UNL     1       5.136   0.236   1.160  1.00  0.00     0.056 A 
ENDBRANCH  12  14
ENDBRANCH   6  12
BRANCH   1  22
HETATM   22  C3  UNL     1      -4.130   0.161   0.360  1.00  0.00     0.034 C 
HETATM   23  C2  UNL     1      -5.311  -0.181  -0.090  1.00  0.00     0.039 C 
HETATM   24  C1  UNL     1      -6.579   0.062   0.625  1.00  0.00     0.076 C 
BRANCH  23  25
HETATM   25  O1  UNL     1      -5.339  -0.818  -1.335  1.00  0.00    -0.365 OA
HETATM   26  H4  UNL     1      -6.111  -1.451  -1.537  1.00  0.00     0.217 HD
ENDBRANCH  23  25
ENDBRANCH   1  22
TORSDOF 4
