REMARK  4 active torsions:
REMARK  status: ('A' for Active; 'I' for Inactive)
REMARK    1  A    between atoms: N1_2  and  O1_3 
REMARK    2  A    between atoms: O1_3  and  C1_4 
REMARK    3  A    between atoms: C7_11  and  C10_14 
REMARK    4  A    between atoms: C10_14  and  C11_15 
ROOT
HETATM    1  C1  UNL     1       2.650   0.806   0.854  1.00  0.00     0.077 A 
HETATM    2  C2  UNL     1       2.125  -0.370   0.615  1.00  0.00     0.042 A 
HETATM    3  C3  UNL     1       1.054  -0.294  -0.419  1.00  0.00    -0.045 A 
HETATM    4  C4  UNL     1       1.047   1.040  -0.725  1.00  0.00    -0.043 A 
HETATM    5  C5  UNL     1       0.240   1.845  -1.684  1.00  0.00     0.203 C 
HETATM    6  O2  UNL     1      -0.735   2.756  -1.264  1.00  0.00    -0.379 OA
HETATM    7  C6  UNL     1      -1.498   2.734  -0.007  1.00  0.00     0.073 A 
HETATM    8  C7  UNL     1      -1.817   1.435  -0.019  1.00  0.00     0.155 A 
HETATM    9  C8  UNL     1      -2.144   0.103  -0.029  1.00  0.00     0.238 A 
HETATM   10  C9  UNL     1      -2.901  -0.647   0.926  1.00  0.00     0.222 A 
HETATM   11  C10 UNL     1      -2.719   0.688   1.170  1.00  0.00     0.090 A 
HETATM   12  C11 UNL     1      -2.320   2.037   1.060  1.00  0.00     0.081 A 
HETATM   13 CL1  UNL     1      -2.705   3.290   2.196  1.00  0.00    -0.115 Cl
HETATM   14  N2  UNL     1      -2.339  -1.506  -0.052  1.00  0.00     0.015 N 
HETATM   15  C12 UNL     1      -1.996  -2.142  -1.351  1.00  0.00     0.261 C 
HETATM   16  C13 UNL     1      -0.553  -1.763  -1.754  1.00  0.00     0.040 C 
HETATM   17  C14 UNL     1       0.427  -1.638  -0.656  1.00  0.00     0.035 C 
HETATM   18  C15 UNL     1      -0.138  -2.295   0.555  1.00  0.00     0.127 C 
HETATM   19  N3  UNL     1      -1.535  -2.298   0.813  1.00  0.00    -0.150 NA
HETATM   20  C16 UNL     1       2.031   1.869   0.041  1.00  0.00     0.103 A 
HETATM   21  H15 UNL     1      -1.986  -3.210   0.884  1.00  0.00     0.153 HD
ENDROOT
BRANCH   1  22
HETATM   22  O1  UNL     1       3.624   1.318   1.663  1.00  0.00    -0.239 OA
BRANCH  22  23
HETATM   23  N1  UNL     1       4.797   0.691   1.976  1.00  0.00    -0.029 NA
HETATM   24  F1  UNL     1       5.090   0.772   3.290  1.00  0.00    -0.108 F 
HETATM   25  H1  UNL     1       4.881  -0.270   1.580  1.00  0.00     0.194 HD
ENDBRANCH  22  23
ENDBRANCH   1  22
TORSDOF 4
