REMARK  5 active torsions:
REMARK  status: ('A' for Active; 'I' for Inactive)
REMARK    1  A    between atoms: C2_2  and  C3_4 
REMARK    2  A    between atoms: C4_5  and  C5_6 
REMARK    3  A    between atoms: C12_14  and  N1_15 
REMARK    4  A    between atoms: N1_15  and  C13_16 
REMARK    5  A    between atoms: C18_23  and  N4_24 
REMARK       I    between atoms: N4_24  and  C19_25 
REMARK       I    between atoms: C19_25  and  N5_26 
ROOT
HETATM    1  N1  UNL     1      -0.725  -0.879   0.480  1.00  0.00    -0.342 N 
HETATM    2  H8  UNL     1      -0.911  -0.434   1.384  1.00  0.00     0.167 HD
ENDROOT
BRANCH   1   3
HETATM    3  C12 UNL     1       0.666  -1.137   0.370  1.00  0.00     0.036 A 
HETATM    4  C11 UNL     1       1.539  -0.165   0.252  1.00  0.00     0.042 A 
HETATM    5  C4  UNL     1       2.980  -0.313   0.131  1.00  0.00     0.011 A 
HETATM    6  C3  UNL     1       3.329  -1.570   0.151  1.00  0.00     0.096 A 
HETATM    7  O2  UNL     1       2.533  -2.668   0.266  1.00  0.00    -0.343 OA
HETATM    8  C22 UNL     1       1.131  -2.536   0.396  1.00  0.00     0.232 A 
BRANCH   5   9
HETATM    9  C5  UNL     1       3.693   0.947   0.011  1.00  0.00    -0.020 A 
HETATM   10  C6  UNL     1       4.607   1.225  -0.989  1.00  0.00     0.012 A 
HETATM   11  C7  UNL     1       5.323   2.390  -1.117  1.00  0.00     0.004 A 
HETATM   12  C8  UNL     1       5.098   3.370  -0.145  1.00  0.00     0.042 A 
HETATM   13  C9  UNL     1       4.185   3.102   0.861  1.00  0.00     0.117 A 
HETATM   14  F1  UNL     1       4.058   4.138   1.744  1.00  0.00    -0.206 F 
HETATM   15  C10 UNL     1       3.480   1.934   0.972  1.00  0.00     0.054 A 
ENDBRANCH   5   9
BRANCH   6  16
HETATM   16  C2  UNL     1       4.732  -1.934   0.044  1.00  0.00     0.021 C 
HETATM   17  C1  UNL     1       5.799  -2.689  -0.023  1.00  0.00     0.230 C 
HETATM   18 CL1  UNL     1       6.324  -1.178   0.014  1.00  0.00    -0.230 Cl
ENDBRANCH   6  16
ENDBRANCH   1   3
BRANCH   1  19
HETATM   19  C13 UNL     1      -1.594  -1.243  -0.581  1.00  0.00     0.141 A 
HETATM   20  N2  UNL     1      -1.050  -1.872  -1.637  1.00  0.00    -0.224 NA
HETATM   21  C14 UNL     1      -1.821  -2.251  -2.702  1.00  0.00     0.236 A 
HETATM   22  N3  UNL     1      -3.155  -1.990  -2.697  1.00  0.00    -0.241 NA
HETATM   23  C15 UNL     1      -3.740  -1.358  -1.650  1.00  0.00     0.072 A 
HETATM   24  C16 UNL     1      -5.110  -1.077  -1.631  1.00  0.00     0.035 A 
HETATM   25  C21 UNL     1      -2.947  -0.983  -0.585  1.00  0.00     0.041 A 
HETATM   26  C17 UNL     1      -5.656  -0.418  -0.530  1.00  0.00     0.032 A 
HETATM   27  C18 UNL     1      -4.808  -0.067   0.509  1.00  0.00     0.037 A 
HETATM   28  C20 UNL     1      -3.455  -0.329   0.521  1.00  0.00     0.047 A 
BRANCH  27  29
HETATM   29  N4  UNL     1      -5.540   0.603   1.556  1.00  0.00    -0.309 N 
HETATM   30  C19 UNL     1      -5.544   1.998   1.283  1.00  0.00     0.318 C 
HETATM   31  N5  UNL     1      -6.152   3.024   2.057  1.00  0.00    -0.352 N 
HETATM   32  O1  UNL     1      -4.950   2.411   0.241  1.00  0.00    -0.247 OA
HETATM   33  H13 UNL     1      -6.901   3.466   2.628  1.00  0.00     0.160 HD
HETATM   34  H14 UNL     1      -5.642   3.907   2.220  1.00  0.00     0.160 HD
HETATM   35  H12 UNL     1      -6.041   0.337   2.422  1.00  0.00     0.170 HD
ENDBRANCH  27  29
ENDBRANCH   1  19
TORSDOF 5
