REMARK  6 active torsions:
REMARK  status: ('A' for Active; 'I' for Inactive)
REMARK    1  A    between atoms: N1_1  and  C1_2 
REMARK    2  A    between atoms: C4_5  and  C5_6 
REMARK    3  A    between atoms: C6_7  and  N2_8 
REMARK    4  A    between atoms: N3_10  and  C8_11 
REMARK    5  A    between atoms: C8_11  and  C9_12 
REMARK    6  A    between atoms: C10_13  and  C11_14 
ROOT
HETATM    1  C9  UNL     1      -1.967  -0.137  -0.772  1.00  0.00     0.012 A 
HETATM    2  C10 UNL     1      -3.214   0.175  -0.593  1.00  0.00     0.090 A 
HETATM    3  O1  UNL     1      -4.040   0.484  -1.676  1.00  0.00    -0.344 OA
HETATM    4  C17 UNL     1      -3.627   0.502  -3.020  1.00  0.00     0.227 A 
HETATM    5  C18 UNL     1      -2.212   0.144  -3.184  1.00  0.00     0.036 A 
HETATM    6 CL1  UNL     1      -1.514   0.103  -4.790  1.00  0.00    -0.087 Cl
HETATM    7  C19 UNL     1      -1.462  -0.147  -2.136  1.00  0.00     0.037 A 
ENDROOT
BRANCH   1   8
HETATM    8  C8  UNL     1      -1.083  -0.468   0.333  1.00  0.00     0.104 C 
BRANCH   8   9
HETATM    9  N3  UNL     1       0.138  -0.756   0.070  1.00  0.00    -0.159 NA
HETATM   10  C7  UNL     1       1.129  -1.100   1.026  1.00  0.00     0.199 A 
HETATM   11  N2  UNL     1       1.608  -0.557  -0.042  1.00  0.00    -0.276 N 
BRANCH  11  12
HETATM   12  C6  UNL     1       2.949  -0.294  -0.317  1.00  0.00     0.112 C 
HETATM   13  C5  UNL     1       4.233  -0.174  -0.048  1.00  0.00     0.020 C 
BRANCH  13  14
HETATM   14  C4  UNL     1       5.134   0.219  -1.118  1.00  0.00     0.015 C 
HETATM   15  C3  UNL     1       6.381   0.302  -0.722  1.00  0.00    -0.008 A 
HETATM   16  C1  UNL     1       7.502   0.235   0.207  1.00  0.00     0.037 A 
HETATM   17  C2  UNL     1       7.722   0.590  -1.092  1.00  0.00     0.043 A 
BRANCH  16  18
HETATM   18  N1  UNL     1       7.888  -0.044   1.562  1.00  0.00    -0.398 N 
HETATM   19  H1  UNL     1       7.799   0.815   2.148  1.00  0.00     0.156 HD
HETATM   20  H2  UNL     1       8.164  -1.040   1.625  1.00  0.00     0.156 HD
ENDBRANCH  16  18
ENDBRANCH  13  14
ENDBRANCH  11  12
ENDBRANCH   8   9
ENDBRANCH   1   8
BRANCH   2  21
HETATM   21  C11 UNL     1      -3.925   0.253   0.674  1.00  0.00     0.001 A 
HETATM   22  C12 UNL     1      -3.506   0.859   1.820  1.00  0.00     0.014 A 
HETATM   23  C13 UNL     1      -4.197   0.895   3.011  1.00  0.00     0.004 A 
HETATM   24  C14 UNL     1      -5.424   0.241   2.985  1.00  0.00     0.042 A 
HETATM   25  C15 UNL     1      -5.958  -0.404   1.899  1.00  0.00     0.117 A 
HETATM   26  F1  UNL     1      -7.146  -1.023   1.918  1.00  0.00    -0.206 F 
HETATM   27  C16 UNL     1      -5.175  -0.378   0.754  1.00  0.00     0.056 A 
ENDBRANCH   2  21
TORSDOF 6
