REMARK  5 active torsions:
REMARK  status: ('A' for Active; 'I' for Inactive)
REMARK    1  A    between atoms: O1_2  and  C2_3 
REMARK    2  A    between atoms: C10_12  and  N2_13 
REMARK    3  A    between atoms: N2_13  and  C11_14 
REMARK    4  A    between atoms: C11_14  and  C12_15 
REMARK    5  A    between atoms: C13_16  and  C14_17 
ROOT
HETATM    1  C2  UNL     1      -4.665   0.158   0.593  1.00  0.00     0.069 A 
HETATM    2  C3  UNL     1      -4.900  -0.411  -0.641  1.00  0.00     0.039 A 
HETATM    3  C4  UNL     1      -3.822  -0.923  -1.332  1.00  0.00     0.040 A 
HETATM    4  C5  UNL     1      -2.554  -0.850  -0.772  1.00  0.00     0.086 A 
HETATM    5  C6  UNL     1      -2.293  -0.287   0.459  1.00  0.00    -0.004 A 
HETATM    6  C7  UNL     1      -3.398   0.223   1.137  1.00  0.00     0.048 A 
HETATM    7  C8  UNL     1      -1.118  -0.062   1.299  1.00  0.00     0.161 C 
HETATM    8  N1  UNL     1       0.117  -0.604   0.781  1.00  0.00    -0.379 N 
HETATM    9  C9  UNL     1       0.557  -0.870  -0.541  1.00  0.00     0.128 A 
HETATM   10  C10 UNL     1       1.923  -0.721  -0.633  1.00  0.00     0.156 A 
HETATM   11  N3  UNL     1       2.416  -0.967  -1.857  1.00  0.00    -0.222 NA
HETATM   12  C15 UNL     1       1.633  -1.324  -2.888  1.00  0.00     0.238 A 
HETATM   13  N4  UNL     1       0.309  -1.468  -2.801  1.00  0.00    -0.215 NA
HETATM   14  C16 UNL     1      -0.268  -1.241  -1.606  1.00  0.00     0.202 A 
HETATM   15  O2  UNL     1      -1.644  -1.421  -1.637  1.00  0.00    -0.289 OA
HETATM   16  H9  UNL     1       0.859  -0.867   1.487  1.00  0.00     0.160 HD
ENDROOT
BRANCH  10  17
HETATM   17  N2  UNL     1       2.771  -0.332   0.439  1.00  0.00    -0.369 N 
HETATM   18  H10 UNL     1       2.608  -0.086   1.416  1.00  0.00     0.161 HD
BRANCH  17  19
HETATM   19  C11 UNL     1       4.185  -0.241   0.124  1.00  0.00     0.148 C 
BRANCH  19  20
HETATM   20  C12 UNL     1       5.022   0.160   1.252  1.00  0.00    -0.009 C 
HETATM   21  C13 UNL     1       5.811   1.207   1.381  1.00  0.00     0.002 C 
BRANCH  21  22
HETATM   22  C14 UNL     1       6.041   2.267   0.364  1.00  0.00     0.249 C 
HETATM   23  F1  UNL     1       7.373   2.342  -0.005  1.00  0.00    -0.251 F 
ENDBRANCH  21  22
ENDBRANCH  19  20
ENDBRANCH  17  19
ENDBRANCH  10  17
BRANCH   1  24
HETATM   24  O1  UNL     1      -5.732   0.695   1.338  1.00  0.00    -0.356 OA
HETATM   25  C1  UNL     1      -7.053   0.656   0.830  1.00  0.00     0.210 C 
ENDBRANCH   1  24
TORSDOF 5
