REMARK  1 active torsions:
REMARK  status: ('A' for Active; 'I' for Inactive)
REMARK       I    between atoms: C2_2  and  N1_4 
REMARK    1  A    between atoms: N1_4  and  C3_5 
ROOT
HETATM    1  C3  UNL     1       2.279  -0.047  -0.785  1.00  0.00     0.034 C 
HETATM    2  C4  UNL     1       2.607   1.213  -1.205  1.00  0.00     0.032 C 
HETATM    3  C5  UNL     1       1.742   2.260  -1.151  1.00  0.00     0.034 C 
HETATM    4  C6  UNL     1       0.549   2.291  -0.498  1.00  0.00     0.064 C 
HETATM    5  N2  UNL     1       0.142   0.978  -0.608  1.00  0.00    -0.242 NA
HETATM    6  C7  UNL     1      -0.311   0.598  -1.853  1.00  0.00     0.234 C 
HETATM    7  N3  UNL     1      -0.758  -0.657  -1.952  1.00  0.00    -0.241 NA
HETATM    8  C8  UNL     1      -0.668  -1.546  -0.972  1.00  0.00     0.071 C 
HETATM    9  C9  UNL     1       0.587  -1.892  -0.571  1.00  0.00     0.035 C 
HETATM   10  C10 UNL     1       1.759  -1.310  -0.891  1.00  0.00     0.032 C 
HETATM   11  C11 UNL     1      -1.868  -2.151  -0.352  1.00  0.00     0.024 A 
HETATM   12  C12 UNL     1      -2.896  -2.006   0.502  1.00  0.00     0.064 A 
HETATM   13  C13 UNL     1      -3.736  -3.230   0.542  1.00  0.00     0.116 A 
HETATM   14  C14 UNL     1      -3.052  -4.155  -0.409  1.00  0.00     0.019 A 
HETATM   15 CL1  UNL     1      -3.836  -5.709  -0.551  1.00  0.00    -0.089 Cl
HETATM   16  C15 UNL     1      -1.987  -3.515  -0.909  1.00  0.00     0.036 A 
HETATM   17  O2  UNL     1      -3.076  -0.846   1.211  1.00  0.00    -0.354 OA
HETATM   18  C16 UNL     1      -2.972   0.478   0.674  1.00  0.00     0.179 C 
HETATM   19  C17 UNL     1      -1.806   1.164   1.327  1.00  0.00     0.054 C 
HETATM   20  C18 UNL     1      -1.559   2.523   0.909  1.00  0.00    -0.016 C 
HETATM   21  C19 UNL     1      -0.558   2.948   0.150  1.00  0.00    -0.037 C 
HETATM   22  C20 UNL     1      -0.270   4.319  -0.277  1.00  0.00     0.050 C 
ENDROOT
BRANCH   1  23
HETATM   23  N1  UNL     1       2.792   0.027   0.540  1.00  0.00    -0.328 N 
HETATM   24  C2  UNL     1       4.158  -0.391   0.630  1.00  0.00     0.218 C 
HETATM   25  C1  UNL     1       4.961  -0.419   1.900  1.00  0.00     0.117 C 
HETATM   26  O1  UNL     1       4.636  -0.746  -0.502  1.00  0.00    -0.274 OA
HETATM   27  H4  UNL     1       2.331   0.333   1.425  1.00  0.00     0.169 HD
ENDBRANCH   1  23
TORSDOF 1
