REMARK  2 active torsions:
REMARK  status: ('A' for Active; 'I' for Inactive)
REMARK    1  A    between atoms: N2_7  and  C6_8 
REMARK    2  A    between atoms: C11_15  and  N5_16 
ROOT
HETATM    1  C1  UNL     1      -3.627   2.301   0.536  1.00  0.00     0.027 C 
HETATM    2  C2  UNL     1      -2.815   1.075   0.148  1.00  0.00     0.069 C 
HETATM    3  C3  UNL     1      -3.869   0.019  -0.206  1.00  0.00     0.022 C 
HETATM    4  C4  UNL     1      -3.239  -1.346  -0.351  1.00  0.00     0.018 C 
HETATM    5  C5  UNL     1      -2.059  -1.339  -1.276  1.00  0.00     0.112 C 
HETATM    6  N1  UNL     1      -0.882  -1.699  -0.513  1.00  0.00    -0.222 NA
HETATM    7  N2  UNL     1      -0.361  -0.618   0.206  1.00  0.00    -0.227 N 
HETATM    8  N6  UNL     1      -0.681   0.476   1.000  1.00  0.00    -0.153 NA
HETATM    9  N7  UNL     1      -2.013   0.676   1.251  1.00  0.00    -0.238 NA
HETATM   10  H11 UNL     1      -1.024  -2.552   0.047  1.00  0.00     0.148 HD
HETATM   11  H16 UNL     1      -0.238   0.271   1.945  1.00  0.00     0.168 HD
HETATM   12  H17 UNL     1      -2.068   1.350   2.058  1.00  0.00     0.142 HD
ENDROOT
BRANCH   7  13
HETATM   13  C6  UNL     1       1.063  -0.671   0.056  1.00  0.00     0.066 A 
HETATM   14  C7  UNL     1       1.674  -1.673  -0.696  1.00  0.00     0.035 A 
HETATM   15  C8  UNL     1       3.051  -1.750  -0.859  1.00  0.00     0.035 A 
HETATM   16  C9  UNL     1       3.860  -0.807  -0.260  1.00  0.00     0.072 A 
HETATM   17  N3  UNL     1       5.189  -0.917  -0.442  1.00  0.00    -0.241 NA
HETATM   18  C12 UNL     1       3.286   0.195   0.490  1.00  0.00     0.045 A 
HETATM   19  C10 UNL     1       6.009   0.005   0.142  1.00  0.00     0.236 A 
HETATM   20  N4  UNL     1       5.446   0.988   0.877  1.00  0.00    -0.220 NA
HETATM   21  C11 UNL     1       4.134   1.116   1.070  1.00  0.00     0.193 A 
HETATM   22  C13 UNL     1       1.933   0.250   0.635  1.00  0.00     0.050 A 
BRANCH  21  23
HETATM   23  N5  UNL     1       3.608   2.183   1.862  1.00  0.00    -0.077 NA
HETATM   24  O1  UNL     1       4.275   3.258   1.822  1.00  0.00    -0.059 OA
ENDBRANCH  21  23
ENDBRANCH   7  13
TORSDOF 2
