REMARK  6 active torsions:
REMARK  status: ('A' for Active; 'I' for Inactive)
REMARK    1  A    between atoms: C2_3  and  C3_4 
REMARK    2  A    between atoms: C2_3  and  N4_15 
REMARK    3  A    between atoms: C4_5  and  C5_6 
REMARK    4  A    between atoms: C5_6  and  N2_7 
REMARK    5  A    between atoms: N2_7  and  C6_8 
REMARK    6  A    between atoms: N4_15  and  C10_16 
ROOT
HETATM    1  C1  UNL     1       3.190   2.034  -0.439  1.00  0.00     0.262 C 
HETATM    2  N1  UNL     1       2.502   0.867  -0.373  1.00  0.00    -0.436 NA
HETATM    3  C2  UNL     1       1.858  -0.095  -0.317  1.00  0.00     0.172 C 
ENDROOT
BRANCH   3   4
HETATM    4  C3  UNL     1       0.398  -0.140  -0.286  1.00  0.00     0.061 C 
HETATM    5  C4  UNL     1      -0.509   0.808  -0.307  1.00  0.00     0.008 C 
BRANCH   5   6
HETATM    6  C5  UNL     1      -1.990   0.737  -0.273  1.00  0.00     0.300 C 
BRANCH   6   7
HETATM    7  N2  UNL     1      -2.475  -0.596  -0.225  1.00  0.00     0.117 N 
HETATM    8  H8  UNL     1      -2.124  -1.267  -0.906  1.00  0.00     0.319 HD
BRANCH   7   9
HETATM    9  C6  UNL     1      -3.915  -0.660  -0.069  1.00  0.00     0.389 C 
HETATM   10  N3  UNL     1      -4.584   0.251  -0.975  1.00  0.00    -0.367 N 
HETATM   11  C7  UNL     1      -5.152   1.425  -0.444  1.00  0.00     0.287 C 
HETATM   12  H10 UNL     1      -4.208   0.294  -1.920  1.00  0.00     0.157 HD
HETATM   13  O1  UNL     1      -5.047   1.693   0.894  1.00  0.00    -0.365 OA
HETATM   14  C8  UNL     1      -5.294   0.605   1.732  1.00  0.00     0.252 C 
HETATM   15  C9  UNL     1      -4.322  -0.432   1.332  1.00  0.00     0.202 C 
HETATM   16  O2  UNL     1      -3.762  -1.199   2.137  1.00  0.00    -0.291 OA
ENDBRANCH   7   9
ENDBRANCH   6   7
ENDBRANCH   5   6
ENDBRANCH   3   4
BRANCH   3  17
HETATM   17  N4  UNL     1       2.535  -1.358  -0.285  1.00  0.00    -0.332 N 
HETATM   18  H15 UNL     1       2.023  -2.275  -0.439  1.00  0.00     0.168 HD
BRANCH  17  19
HETATM   19  C10 UNL     1       3.959  -1.380  -0.022  1.00  0.00     0.035 A 
HETATM   20  C11 UNL     1       4.354  -0.558   1.004  1.00  0.00     0.031 A 
HETATM   21  C12 UNL     1       5.710  -0.455   1.372  1.00  0.00     0.019 A 
HETATM   22  P1  UNL     1       6.774  -1.439   0.428  1.00  0.00    -0.015 P 
HETATM   23  C13 UNL     1       5.998  -2.376  -0.803  1.00  0.00     0.026 A 
HETATM   24 BR1  UNL     1       6.959  -3.516  -1.957  1.00  0.00    -0.050 Br
HETATM   25  C14 UNL     1       4.609  -2.225  -0.883  1.00  0.00     0.050 A 
ENDBRANCH  17  19
ENDBRANCH   3  17
TORSDOF 6
