REMARK  4 active torsions:
REMARK  status: ('A' for Active; 'I' for Inactive)
REMARK       I    between atoms: C1_2  and  N1_3 
REMARK       I    between atoms: C1_2  and  N3_12 
REMARK    1  A    between atoms: N1_3  and  C2_4 
REMARK    2  A    between atoms: C2_4  and  C3_5 
REMARK    3  A    between atoms: C3_5  and  N2_6 
REMARK    4  A    between atoms: N3_12  and  C8_13 
ROOT
HETATM    1  C8  UNL     1       1.182  -1.398   1.019  1.00  0.00     0.037 A 
HETATM    2  C9  UNL     1       1.004  -1.657  -0.365  1.00  0.00     0.032 A 
HETATM    3  C10 UNL     1       1.842  -1.428  -1.484  1.00  0.00     0.034 A 
HETATM    4  C11 UNL     1       3.049  -0.837  -1.055  1.00  0.00     0.065 A 
HETATM    5  C12 UNL     1       3.349  -0.526   0.313  1.00  0.00    -0.009 A 
HETATM    6  C13 UNL     1       2.397  -0.835   1.177  1.00  0.00     0.040 A 
HETATM    7  C14 UNL     1       4.726   0.035   0.289  1.00  0.00     0.051 A 
HETATM    8  C15 UNL     1       4.453   1.335   0.073  1.00  0.00    -0.004 A 
HETATM    9  C16 UNL     1       5.457   1.680  -0.827  1.00  0.00     0.023 A 
HETATM   10  C17 UNL     1       6.287   0.603  -1.136  1.00  0.00     0.020 A 
HETATM   11  C18 UNL     1       5.903  -0.491  -0.463  1.00  0.00     0.095 A 
HETATM   12  C19 UNL     1       5.219  -1.301   0.350  1.00  0.00    -0.004 A 
HETATM   13 BR1  UNL     1       4.785  -2.844   1.264  1.00  0.00    -0.058 Br
HETATM   14  N4  UNL     1       7.278   0.536  -2.119  1.00  0.00    -0.358 N 
HETATM   15  C20 UNL     1       6.404  -0.141  -3.104  1.00  0.00     0.308 C 
HETATM   16  N5  UNL     1       5.170  -0.338  -3.564  1.00  0.00    -0.263 NA
HETATM   17  C21 UNL     1       4.108   0.411  -2.843  1.00  0.00     0.174 C 
HETATM   18  N6  UNL     1       3.922  -0.592  -2.113  1.00  0.00    -0.250 NA
HETATM   19  H21 UNL     1       8.180   0.636  -2.599  1.00  0.00     0.166 HD
ENDROOT
BRANCH   1  20
HETATM   20  N3  UNL     1       0.172  -1.779   1.881  1.00  0.00    -0.309 N 
HETATM   21  C1  UNL     1      -0.930  -0.916   1.770  1.00  0.00     0.320 C 
HETATM   22  O1  UNL     1      -0.794   0.044   0.930  1.00  0.00    -0.247 OA
HETATM   23  N1  UNL     1      -2.182  -0.922   2.421  1.00  0.00    -0.341 N 
HETATM   24  H1  UNL     1      -2.209  -1.723   3.130  1.00  0.00     0.164 HD
HETATM   25  H14 UNL     1       0.028  -2.536   2.579  1.00  0.00     0.170 HD
BRANCH  23  26
HETATM   26  C2  UNL     1      -3.365  -0.097   2.320  1.00  0.00     0.143 C 
BRANCH  26  27
HETATM   27  C3  UNL     1      -3.823  -0.245   0.881  1.00  0.00     0.136 C 
BRANCH  27  28
HETATM   28  N2  UNL     1      -5.010   0.429   0.539  1.00  0.00    -0.407 N 
HETATM   29  C4  UNL     1      -5.033   1.833   0.530  1.00  0.00     0.143 C 
HETATM   30  C5  UNL     1      -6.178   2.376  -0.291  1.00  0.00     0.187 C 
HETATM   31  O2  UNL     1      -7.011   1.386  -0.796  1.00  0.00    -0.388 OA
HETATM   32  C6  UNL     1      -7.386   0.612   0.319  1.00  0.00     0.187 C 
HETATM   33  C7  UNL     1      -6.224  -0.292   0.617  1.00  0.00     0.143 C 
ENDBRANCH  27  28
ENDBRANCH  26  27
ENDBRANCH  23  26
ENDBRANCH   1  20
TORSDOF 4
