REMARK  7 active torsions:
REMARK  status: ('A' for Active; 'I' for Inactive)
REMARK    1  A    between atoms: O1_1  and  C1_2 
REMARK    2  A    between atoms: C1_2  and  C2_3 
REMARK    3  A    between atoms: C3_4  and  C4_5 
REMARK    4  A    between atoms: C5_6  and  N1_7 
REMARK    5  A    between atoms: N1_7  and  C6_8 
REMARK    6  A    between atoms: C9_11  and  N2_12 
REMARK    7  A    between atoms: N2_12  and  C10_13 
ROOT
HETATM    1  C6  UNL     1       1.665  -0.351  -0.129  1.00  0.00     0.128 C 
HETATM    2  C7  UNL     1       0.737   0.006  -1.078  1.00  0.00     0.052 C 
HETATM    3  C8  UNL     1      -0.588  -0.246  -1.033  1.00  0.00     0.033 C 
HETATM    4  C9  UNL     1      -1.878   0.005  -0.614  1.00  0.00     0.033 C 
HETATM    5  C15 UNL     1      -1.996  -0.237   0.742  1.00  0.00     0.031 C 
HETATM    6  C16 UNL     1      -1.096  -0.006   1.763  1.00  0.00     0.021 C 
HETATM    7  C17 UNL     1      -0.326   0.897   2.477  1.00  0.00     0.118 C 
HETATM    8  N4  UNL     1       0.881   0.588   2.985  1.00  0.00    -0.254 NA
HETATM    9  C18 UNL     1       1.728  -0.134   2.228  1.00  0.00     0.234 C 
HETATM   10  N5  UNL     1       1.479  -0.827   1.100  1.00  0.00    -0.225 NA
ENDROOT
BRANCH   1  11
HETATM   11  N1  UNL     1       3.043  -0.194  -0.476  1.00  0.00    -0.351 N 
HETATM   12  H8  UNL     1       3.405  -0.802  -1.256  1.00  0.00     0.166 HD
BRANCH  11  13
HETATM   13  C5  UNL     1       3.835   0.755   0.225  1.00  0.00     0.089 C 
HETATM   14  C4  UNL     1       5.138   0.641   0.331  1.00  0.00     0.017 C 
BRANCH  14  15
HETATM   15  C3  UNL     1       5.862  -0.461  -0.264  1.00  0.00    -0.001 C 
HETATM   16  C2  UNL     1       7.148  -0.644  -0.204  1.00  0.00    -0.001 C 
BRANCH  16  17
HETATM   17  C1  UNL     1       8.013  -1.697  -0.750  1.00  0.00     0.191 C 
BRANCH  17  18
HETATM   18  O1  UNL     1       8.940  -1.100  -1.623  1.00  0.00    -0.397 OA
HETATM   19  H1  UNL     1       8.523  -0.257  -1.959  1.00  0.00     0.209 HD
ENDBRANCH  17  18
ENDBRANCH  16  17
ENDBRANCH  14  15
ENDBRANCH  11  13
ENDBRANCH   1  11
BRANCH   4  20
HETATM   20  N2  UNL     1      -2.924   0.456  -1.452  1.00  0.00    -0.345 N 
HETATM   21  H11 UNL     1      -2.697   0.607  -2.454  1.00  0.00     0.167 HD
BRANCH  20  22
HETATM   22  C10 UNL     1      -4.178   0.653  -0.811  1.00  0.00     0.107 A 
HETATM   23  C11 UNL     1      -5.246   0.954  -0.021  1.00  0.00     0.057 A 
HETATM   24  C12 UNL     1      -6.157   1.421   1.034  1.00  0.00     0.222 C 
HETATM   25  N3  UNL     1      -5.525   0.268  -1.201  1.00  0.00    -0.231 NA
HETATM   26  O2  UNL     1      -7.431   1.021   0.751  1.00  0.00    -0.384 OA
HETATM   27  C13 UNL     1      -7.475  -0.220   0.137  1.00  0.00     0.183 C 
HETATM   28  C14 UNL     1      -6.978   0.030  -1.295  1.00  0.00     0.129 C 
ENDBRANCH  20  22
ENDBRANCH   4  20
TORSDOF 7
