REMARK  2 active torsions:
REMARK  status: ('A' for Active; 'I' for Inactive)
REMARK    1  A    between atoms: C6_7  and  N1_8 
REMARK    2  A    between atoms: N1_8  and  C7_9 
ROOT
HETATM    1  C7  UNL     1       1.386  -0.528  -0.499  1.00  0.00     0.137 C 
HETATM    2  C8  UNL     1       1.304  -1.534   0.623  1.00  0.00     0.030 C 
HETATM    3  C9  UNL     1       0.234  -2.355   0.637  1.00  0.00     0.037 C 
HETATM    4  C10 UNL     1      -0.109  -2.809  -0.762  1.00  0.00     0.086 C 
HETATM    5  C11 UNL     1      -0.500  -1.531  -1.480  1.00  0.00    -0.014 C 
HETATM    6  C12 UNL     1      -0.015  -0.370  -0.971  1.00  0.00    -0.029 C 
HETATM    7  C13 UNL     1      -0.714   0.943  -0.850  1.00  0.00     0.310 C 
HETATM    8  N2  UNL     1      -2.121   0.858  -1.146  1.00  0.00     0.128 N 
HETATM    9  C14 UNL     1      -2.892   0.119  -0.180  1.00  0.00     0.316 C 
HETATM   10  C15 UNL     1      -4.235  -0.240  -0.726  1.00  0.00     0.197 C 
HETATM   11  N3  UNL     1      -4.796   1.022  -0.217  1.00  0.00    -0.180 NA
HETATM   12  O1  UNL     1      -4.196   2.128  -0.767  1.00  0.00    -0.301 OA
HETATM   13  C16 UNL     1      -3.557   2.491   0.440  1.00  0.00     0.221 C 
HETATM   14  C17 UNL     1      -3.693   1.023   0.728  1.00  0.00     0.181 C 
HETATM   15  O2  UNL     1      -2.203  -0.801   0.555  1.00  0.00    -0.233 OA
HETATM   16  N4  UNL     1      -2.628  -2.061   0.489  1.00  0.00    -0.257 N 
HETATM   17  C18 UNL     1      -1.929  -2.728   1.550  1.00  0.00     0.230 C 
HETATM   18  N5  UNL     1      -0.646  -2.881   1.653  1.00  0.00    -0.247 NA
HETATM   19  H13 UNL     1      -2.332   0.638  -2.122  1.00  0.00     0.320 HD
HETATM   20  H19 UNL     1      -3.313  -2.515  -0.170  1.00  0.00     0.195 HD
ENDROOT
BRANCH   1  21
HETATM   21  N1  UNL     1       2.067   0.662  -0.170  1.00  0.00    -0.377 N 
HETATM   22  H5  UNL     1       1.388   1.456  -0.177  1.00  0.00     0.160 HD
BRANCH  21  23
HETATM   23  C6  UNL     1       3.402   0.989   0.149  1.00  0.00     0.046 A 
HETATM   24  C1  UNL     1       4.464   0.113   0.174  1.00  0.00     0.037 A 
HETATM   25 BR1  UNL     1       4.182  -1.710  -0.299  1.00  0.00    -0.049 Br
HETATM   26  C2  UNL     1       5.760   0.442   0.505  1.00  0.00     0.021 A 
HETATM   27  C3  UNL     1       5.963   1.763   0.828  1.00  0.00     0.002 A 
HETATM   28  C4  UNL     1       4.971   2.713   0.833  1.00  0.00     0.002 A 
HETATM   29  C5  UNL     1       3.712   2.288   0.489  1.00  0.00     0.030 A 
ENDBRANCH  21  23
ENDBRANCH   1  21
TORSDOF 2
