REMARK  7 active torsions:
REMARK  status: ('A' for Active; 'I' for Inactive)
REMARK       I    between atoms: C1_2  and  N1_3 
REMARK       I    between atoms: C1_2  and  N3_12 
REMARK    1  A    between atoms: N1_3  and  C2_4 
REMARK    2  A    between atoms: C2_4  and  C3_5 
REMARK    3  A    between atoms: C3_5  and  N2_6 
REMARK    4  A    between atoms: N3_12  and  C8_13 
REMARK    5  A    between atoms: C14_19  and  N4_20 
REMARK    6  A    between atoms: N4_20  and  C15_21 
REMARK    7  A    between atoms: N6_31  and  P1_32 
ROOT
HETATM    1  C8  UNL     1      -0.455  -1.417   0.155  1.00  0.00     0.037 A 
HETATM    2  C9  UNL     1      -0.382  -2.569   0.921  1.00  0.00     0.032 A 
HETATM    3  C10 UNL     1      -1.586  -3.162   1.301  1.00  0.00     0.033 A 
HETATM    4  C11 UNL     1      -2.782  -2.593   0.911  1.00  0.00     0.049 A 
HETATM    5  C12 UNL     1      -2.803  -1.443   0.147  1.00  0.00     0.038 A 
HETATM    6  C13 UNL     1      -1.638  -0.823  -0.252  1.00  0.00     0.047 A 
HETATM    7  C14 UNL     1      -4.122  -0.921  -0.220  1.00  0.00     0.137 A 
HETATM    8  N5  UNL     1      -5.249  -1.453   0.116  1.00  0.00    -0.252 NA
HETATM    9  C21 UNL     1      -5.338  -2.655   0.912  1.00  0.00     0.279 A 
HETATM   10  N6  UNL     1      -4.040  -3.151   1.267  1.00  0.00    -0.341 N 
ENDROOT
BRANCH   1  11
HETATM   11  N3  UNL     1       0.772  -0.826  -0.233  1.00  0.00    -0.309 N 
HETATM   12  C1  UNL     1       1.642   0.148   0.340  1.00  0.00     0.320 C 
HETATM   13  O1  UNL     1       1.217   0.575   1.447  1.00  0.00    -0.247 OA
HETATM   14  N1  UNL     1       2.862   0.617  -0.233  1.00  0.00    -0.341 N 
HETATM   15  H1  UNL     1       2.995   0.129  -1.141  1.00  0.00     0.164 HD
HETATM   16  H14 UNL     1       1.069  -1.232  -1.167  1.00  0.00     0.170 HD
BRANCH  14  17
HETATM   17  C2  UNL     1       3.388   1.581   0.698  1.00  0.00     0.143 C 
BRANCH  17  18
HETATM   18  C3  UNL     1       4.689   2.157   0.216  1.00  0.00     0.136 C 
BRANCH  18  19
HETATM   19  N2  UNL     1       5.699   1.195   0.082  1.00  0.00    -0.407 N 
HETATM   20  C4  UNL     1       5.658   0.213  -0.909  1.00  0.00     0.143 C 
HETATM   21  C5  UNL     1       7.024  -0.272  -1.369  1.00  0.00     0.187 C 
HETATM   22  O2  UNL     1       7.728  -0.572  -0.184  1.00  0.00    -0.388 OA
HETATM   23  C6  UNL     1       8.096   0.676   0.316  1.00  0.00     0.187 C 
HETATM   24  C7  UNL     1       6.909   1.438   0.780  1.00  0.00     0.143 C 
ENDBRANCH  18  19
ENDBRANCH  17  18
ENDBRANCH  14  17
ENDBRANCH   1  11
BRANCH   7  25
HETATM   25  N4  UNL     1      -4.205   0.258  -1.007  1.00  0.00    -0.340 N 
HETATM   26  H18 UNL     1      -3.443   0.391  -1.709  1.00  0.00     0.167 HD
BRANCH  25  27
HETATM   27  C15 UNL     1      -5.212   1.252  -0.919  1.00  0.00     0.035 A 
HETATM   28  C16 UNL     1      -5.185   2.339  -1.788  1.00  0.00     0.032 A 
HETATM   29  C17 UNL     1      -6.123   3.346  -1.763  1.00  0.00     0.046 A 
HETATM   30  C18 UNL     1      -7.158   3.325  -0.853  1.00  0.00     0.138 A 
HETATM   31  F1  UNL     1      -8.039   4.333  -0.878  1.00  0.00    -0.204 F 
HETATM   32  C19 UNL     1      -7.214   2.263   0.023  1.00  0.00     0.074 A 
HETATM   33 CL1  UNL     1      -8.520   2.212   1.189  1.00  0.00    -0.081 Cl
HETATM   34  C20 UNL     1      -6.263   1.285  -0.036  1.00  0.00     0.056 A 
ENDBRANCH  25  27
ENDBRANCH   7  25
BRANCH  10  35
HETATM   35  P1  UNL     1      -3.979  -4.649   2.274  1.00  0.00    -0.037 P 
HETATM   36  H24 UNL     1      -3.536  -5.710   1.358  1.00  0.00     0.077 HD
HETATM   37  H25 UNL     1      -3.023  -4.533   3.339  1.00  0.00     0.077 HD
ENDBRANCH  10  35
TORSDOF 7
