REMARK  6 active torsions:
REMARK  status: ('A' for Active; 'I' for Inactive)
REMARK    1  A    between atoms: C4_5  and  N1_6 
REMARK    2  A    between atoms: N1_6  and  C5_7 
REMARK    3  A    between atoms: C10_14  and  N4_15 
REMARK       I    between atoms: N4_15  and  C11_16 
REMARK       I    between atoms: C11_16  and  N5_18 
REMARK    4  A    between atoms: N5_18  and  C12_19 
REMARK    5  A    between atoms: C12_19  and  C13_20 
REMARK    6  A    between atoms: C13_20  and  N6_21 
ROOT
HETATM    1  C5  UNL     1       4.874  -0.869  -0.971  1.00  0.00     0.138 A 
HETATM    2  N2  UNL     1       6.167  -1.266  -0.846  1.00  0.00    -0.224 NA
HETATM    3  C6  UNL     1       6.372  -2.580  -0.514  1.00  0.00     0.235 A 
HETATM    4  N3  UNL     1       5.352  -3.417  -0.328  1.00  0.00    -0.241 NA
HETATM    5  C7  UNL     1       4.047  -3.019  -0.452  1.00  0.00     0.072 A 
HETATM    6  C8  UNL     1       2.878  -3.766  -0.286  1.00  0.00     0.035 A 
HETATM    7  C9  UNL     1       1.643  -3.200  -0.446  1.00  0.00     0.032 A 
HETATM    8  C10 UNL     1       1.476  -1.866  -0.780  1.00  0.00     0.037 A 
HETATM    9  C19 UNL     1       2.606  -1.083  -0.953  1.00  0.00     0.047 A 
HETATM   10  C20 UNL     1       3.816  -1.703  -0.785  1.00  0.00     0.041 A 
ENDROOT
BRANCH   8  11
HETATM   11  N4  UNL     1       0.079  -1.648  -0.848  1.00  0.00    -0.309 N 
HETATM   12  C11 UNL     1      -0.795  -1.136   0.165  1.00  0.00     0.320 C 
HETATM   13  O1  UNL     1      -0.161  -0.793   1.213  1.00  0.00    -0.247 OA
HETATM   14  N5  UNL     1      -2.223  -0.993   0.088  1.00  0.00    -0.341 N 
HETATM   15  H10 UNL     1      -2.490  -1.372  -0.846  1.00  0.00     0.164 HD
HETATM   16  H9  UNL     1      -0.413  -1.874  -1.739  1.00  0.00     0.170 HD
BRANCH  14  17
HETATM   17  C12 UNL     1      -2.668  -0.392   1.319  1.00  0.00     0.143 C 
BRANCH  17  18
HETATM   18  C13 UNL     1      -4.127  -0.216   1.489  1.00  0.00     0.136 C 
BRANCH  18  19
HETATM   19  N6  UNL     1      -4.873   0.549   0.579  1.00  0.00    -0.411 N 
HETATM   20  C14 UNL     1      -6.211   0.853   1.023  1.00  0.00     0.117 C 
HETATM   21  C15 UNL     1      -6.930   1.925   0.294  1.00  0.00     0.019 C 
HETATM   22  C16 UNL     1      -6.247   2.430  -0.936  1.00  0.00     0.003 C 
HETATM   23  C17 UNL     1      -5.582   1.306  -1.641  1.00  0.00     0.019 C 
HETATM   24  C18 UNL     1      -4.634   0.507  -0.782  1.00  0.00     0.117 C 
ENDBRANCH  18  19
ENDBRANCH  17  18
ENDBRANCH  14  17
ENDBRANCH   8  11
BRANCH   1  25
HETATM   25  N1  UNL     1       4.804   0.558  -1.214  1.00  0.00    -0.367 N 
HETATM   26  H5  UNL     1       4.126   0.525  -2.034  1.00  0.00     0.161 HD
BRANCH  25  27
HETATM   27  C4  UNL     1       5.318   1.852  -0.756  1.00  0.00     0.107 A 
HETATM   28  C3  UNL     1       6.014   1.048  -0.030  1.00  0.00     0.037 A 
HETATM   29  C2  UNL     1       6.386   2.518   0.291  1.00  0.00     0.029 A 
HETATM   30  C1  UNL     1       7.330   2.502   1.250  1.00  0.00     0.156 C 
HETATM   31 BR1  UNL     1       6.882   4.328   0.727  1.00  0.00    -0.194 Br
ENDBRANCH  25  27
ENDBRANCH   1  25
TORSDOF 6
