REMARK  0 active torsions:
REMARK  status: ('A' for Active; 'I' for Inactive)
ROOT
HETATM    1  C1  UNL     1      -2.674  -3.695   0.622  1.00  0.00     0.055 C 
HETATM    2  C2  UNL     1      -2.043  -2.339   0.267  1.00  0.00     0.176 C 
HETATM    3  N1  UNL     1      -0.643  -2.533   0.453  1.00  0.00    -0.377 N 
HETATM    4  C3  UNL     1       0.697  -2.616   0.590  1.00  0.00     0.101 C 
HETATM    5  C4  UNL     1       1.991  -2.726   0.820  1.00  0.00     0.102 C 
HETATM    6  N2  UNL     1       2.986  -2.455  -0.191  1.00  0.00    -0.388 N 
HETATM    7  C5  UNL     1       3.982  -2.093  -1.214  1.00  0.00     0.129 C 
HETATM    8  C6  UNL     1       4.147  -0.775  -0.619  1.00  0.00     0.036 C 
HETATM    9  C7  UNL     1       2.822  -1.016   0.095  1.00  0.00     0.129 C 
HETATM   10  C8  UNL     1       4.195   0.440  -1.441  1.00  0.00     0.070 C 
HETATM   11 BR1  UNL     1       5.976   0.850  -1.999  1.00  0.00    -0.090 Br
HETATM   12  C9  UNL     1       3.181   0.534  -2.539  1.00  0.00     0.011 C 
HETATM   13  C10 UNL     1       1.926   1.004  -2.780  1.00  0.00     0.002 C 
HETATM   14  C11 UNL     1       0.764   1.724  -2.115  1.00  0.00     0.012 C 
HETATM   15  C12 UNL     1       0.580   2.232  -0.825  1.00  0.00     0.067 A 
HETATM   16  N3  UNL     1      -0.767   2.724  -1.063  1.00  0.00    -0.271 NA
HETATM   17  C13 UNL     1      -1.680   3.272  -0.140  1.00  0.00     0.117 A 
HETATM   18  N4  UNL     1      -2.184   4.493   0.312  1.00  0.00    -0.229 NA
HETATM   19  C14 UNL     1      -2.919   5.074   1.071  1.00  0.00     0.235 A 
HETATM   20  N5  UNL     1      -3.626   4.250   1.912  1.00  0.00    -0.241 NA
HETATM   21  C15 UNL     1      -3.345   2.950   1.696  1.00  0.00     0.071 A 
HETATM   22  C16 UNL     1      -3.882   1.832   2.254  1.00  0.00     0.035 A 
HETATM   23  C17 UNL     1      -3.909   0.527   2.275  1.00  0.00     0.031 A 
HETATM   24  C18 UNL     1      -2.953   0.120   1.262  1.00  0.00     0.030 A 
HETATM   25  C19 UNL     1      -2.236   1.074   0.519  1.00  0.00     0.046 A 
HETATM   26  C20 UNL     1      -2.491   2.453   0.801  1.00  0.00     0.035 A 
HETATM   27  N6  UNL     1      -2.704  -1.249   0.875  1.00  0.00    -0.369 N 
HETATM   28  H5  UNL     1      -0.388  -3.528   0.907  1.00  0.00     0.161 HD
HETATM   29  H18 UNL     1      -0.310   2.769  -0.064  1.00  0.00     0.151 HD
HETATM   30  H23 UNL     1      -3.568  -1.772   1.236  1.00  0.00     0.161 HD
ENDROOT
TORSDOF 0
