REMARK  5 active torsions:
REMARK  status: ('A' for Active; 'I' for Inactive)
REMARK    1  A    between atoms: N1_1  and  C1_2 
REMARK    2  A    between atoms: C5_7  and  C6_8 
REMARK       I    between atoms: N3_19  and  C15_20 
REMARK       I    between atoms: C15_20  and  N4_22 
REMARK    3  A    between atoms: N4_22  and  C16_23 
REMARK    4  A    between atoms: C16_23  and  C17_24 
REMARK    5  A    between atoms: C17_24  and  N5_25 
ROOT
HETATM    1  C1  UNL     1      -0.593  -3.545   0.323  1.00  0.00     0.349 C 
HETATM    2  C2  UNL     1      -1.750  -3.268   1.218  1.00  0.00     0.061 C 
HETATM    3  C3  UNL     1      -2.769  -2.480   0.934  1.00  0.00     0.063 A 
HETATM    4  N2  UNL     1      -3.880  -2.207   1.783  1.00  0.00    -0.264 NA
HETATM    5  C4  UNL     1      -4.835  -1.404   1.381  1.00  0.00     0.103 A 
HETATM    6  C5  UNL     1      -4.914  -0.699   0.079  1.00  0.00     0.082 A 
HETATM    7  C12 UNL     1      -3.721  -1.052  -0.713  1.00  0.00    -0.001 A 
HETATM    8  C13 UNL     1      -2.721  -1.849  -0.379  1.00  0.00    -0.014 A 
HETATM    9  C14 UNL     1      -1.566  -2.119  -1.286  1.00  0.00     0.170 C 
HETATM   10  N3  UNL     1      -0.392  -2.356  -0.487  1.00  0.00    -0.296 N 
HETATM   11  C15 UNL     1       0.680  -1.438  -0.628  1.00  0.00     0.320 C 
HETATM   12  O1  UNL     1       0.300  -0.569  -1.486  1.00  0.00    -0.247 OA
HETATM   13  N4  UNL     1       1.967  -1.332  -0.040  1.00  0.00    -0.341 N 
HETATM   14  H13 UNL     1       2.103  -2.120   0.630  1.00  0.00     0.164 HD
ENDROOT
BRANCH   1  15
HETATM   15  N1  UNL     1       0.589  -3.898   1.085  1.00  0.00     0.105 N 
HETATM   16  H1  UNL     1       0.430  -3.620   2.091  1.00  0.00     0.315 HD
HETATM   17  H2  UNL     1       0.787  -4.939   1.017  1.00  0.00     0.315 HD
ENDBRANCH   1  15
BRANCH  13  18
HETATM   18  C16 UNL     1       2.583  -0.135  -0.631  1.00  0.00     0.143 C 
BRANCH  18  19
HETATM   19  C17 UNL     1       3.960   0.006  -0.036  1.00  0.00     0.136 C 
BRANCH  19  20
HETATM   20  N5  UNL     1       4.665   1.141  -0.535  1.00  0.00    -0.407 N 
HETATM   21  C18 UNL     1       4.163   2.416  -0.147  1.00  0.00     0.143 C 
HETATM   22  C19 UNL     1       5.359   3.288   0.229  1.00  0.00     0.187 C 
HETATM   23  O2  UNL     1       6.028   2.626   1.240  1.00  0.00    -0.388 OA
HETATM   24  C20 UNL     1       6.686   1.530   0.730  1.00  0.00     0.187 C 
HETATM   25  C21 UNL     1       6.079   0.986  -0.522  1.00  0.00     0.143 C 
ENDBRANCH  19  20
ENDBRANCH  18  19
ENDBRANCH  13  18
BRANCH   6  26
HETATM   26  C6  UNL     1      -5.105   0.763   0.207  1.00  0.00    -0.044 A 
HETATM   27  C7  UNL     1      -6.226   1.406  -0.278  1.00  0.00     0.011 A 
HETATM   28  C8  UNL     1      -6.307   2.788  -0.105  1.00  0.00     0.044 A 
HETATM   29  C9  UNL     1      -5.289   3.473   0.532  1.00  0.00     0.138 A 
HETATM   30  F1  UNL     1      -5.366   4.810   0.701  1.00  0.00    -0.204 F 
HETATM   31  C10 UNL     1      -4.185   2.793   1.002  1.00  0.00     0.073 A 
HETATM   32 CL1  UNL     1      -2.897   3.693   1.814  1.00  0.00    -0.081 Cl
HETATM   33  C11 UNL     1      -4.058   1.407   0.852  1.00  0.00     0.035 A 
ENDBRANCH   6  26
TORSDOF 5
