REMARK  6 active torsions:
REMARK  status: ('A' for Active; 'I' for Inactive)
REMARK    1  A    between atoms: N1_1  and  C1_2 
REMARK    2  A    between atoms: N2_9  and  C6_10 
REMARK    3  A    between atoms: C11_16  and  N4_17 
REMARK       I    between atoms: N4_17  and  C12_18 
REMARK       I    between atoms: C12_18  and  N5_20 
REMARK    4  A    between atoms: N5_20  and  C13_21 
REMARK    5  A    between atoms: C13_21  and  C14_22 
REMARK    6  A    between atoms: C14_22  and  N6_23 
ROOT
HETATM    1  C6  UNL     1       3.895  -0.582   0.815  1.00  0.00     0.136 C 
HETATM    2  C7  UNL     1       4.753  -1.866   0.521  1.00  0.00     0.324 C 
HETATM    3  N3  UNL     1       4.119  -2.105   1.726  1.00  0.00     0.326 N 
HETATM    4  C8  UNL     1       2.668  -2.040   1.131  1.00  0.00     0.221 A 
HETATM    5  C9  UNL     1       2.198  -1.864  -0.160  1.00  0.00     0.050 A 
HETATM    6  C10 UNL     1       2.478  -0.622   0.570  1.00  0.00     0.094 A 
HETATM    7  C11 UNL     1       1.345  -0.821   1.611  1.00  0.00     0.007 C 
HETATM    8  C19 UNL     1       2.201  -1.448   2.492  1.00  0.00     0.087 C 
ENDROOT
BRANCH   7   9
HETATM    9  N4  UNL     1      -0.043  -0.301   1.396  1.00  0.00    -0.315 N 
HETATM   10  C12 UNL     1      -1.011  -0.758   0.444  1.00  0.00     0.320 C 
HETATM   11  O1  UNL     1      -0.606  -1.744  -0.268  1.00  0.00    -0.247 OA
HETATM   12  N5  UNL     1      -2.288  -0.251   0.239  1.00  0.00    -0.341 N 
HETATM   13  H11 UNL     1      -2.393   0.566   0.907  1.00  0.00     0.164 HD
HETATM   14  H10 UNL     1      -0.340   0.461   2.013  1.00  0.00     0.170 HD
BRANCH  12  15
HETATM   15  C13 UNL     1      -2.881  -1.071  -0.789  1.00  0.00     0.154 C 
BRANCH  15  16
HETATM   16  C14 UNL     1      -4.253  -0.696  -1.230  1.00  0.00     0.292 C 
BRANCH  16  17
HETATM   17  N6  UNL     1      -5.195  -0.775  -0.168  1.00  0.00     0.094 N 
HETATM   18  C15 UNL     1      -6.549  -0.599  -0.710  1.00  0.00     0.298 C 
HETATM   19  C16 UNL     1      -6.767   0.868  -0.928  1.00  0.00     0.198 C 
HETATM   20  O2  UNL     1      -6.996   1.484   0.311  1.00  0.00    -0.388 OA
HETATM   21  C17 UNL     1      -6.348   0.770   1.322  1.00  0.00     0.198 C 
HETATM   22  C18 UNL     1      -5.004   0.282   0.802  1.00  0.00     0.298 C 
ENDBRANCH  16  17
ENDBRANCH  15  16
ENDBRANCH  12  15
ENDBRANCH   7   9
BRANCH   1  23
HETATM   23  N2  UNL     1       4.561   0.374  -0.134  1.00  0.00    -0.348 N 
HETATM   24  C1  UNL     1       5.789   1.043   0.253  1.00  0.00     0.345 A 
HETATM   25  C2  UNL     1       6.165   1.993  -0.805  1.00  0.00     0.073 A 
HETATM   26  C3  UNL     1       5.615   2.201  -1.981  1.00  0.00     0.139 A 
HETATM   27  F1  UNL     1       6.197   3.150  -2.762  1.00  0.00    -0.204 F 
HETATM   28  C4  UNL     1       4.426   1.412  -2.288  1.00  0.00     0.087 A 
HETATM   29 CL1  UNL     1       3.704   1.673  -3.848  1.00  0.00    -0.080 Cl
HETATM   30  C5  UNL     1       3.942   0.538  -1.384  1.00  0.00     0.115 A 
BRANCH  24  31
HETATM   31  N1  UNL     1       5.758   1.568   1.580  1.00  0.00     0.105 N 
HETATM   32  H1  UNL     1       5.271   2.447   1.732  1.00  0.00     0.315 HD
HETATM   33  H2  UNL     1       6.730   1.505   1.995  1.00  0.00     0.315 HD
ENDBRANCH  24  31
ENDBRANCH   1  23
TORSDOF 6
