REMARK  3 active torsions:
REMARK  status: ('A' for Active; 'I' for Inactive)
REMARK    1  A    between atoms: C2_3  and  C3_4 
REMARK    2  A    between atoms: C9_14  and  C10_15 
REMARK    3  A    between atoms: C10_15  and  N5_16 
ROOT
HETATM    1  C3  UNL     1      -3.146  -0.883   0.967  1.00  0.00     0.132 C 
HETATM    2  N1  UNL     1      -3.906  -0.115   0.205  1.00  0.00    -0.161 NA
HETATM    3  N2  UNL     1      -3.487   1.159  -0.150  1.00  0.00    -0.288 N 
HETATM    4  C4  UNL     1      -3.740   1.976  -1.238  1.00  0.00     0.109 C 
HETATM    5  C5  UNL     1      -3.447   2.751  -2.227  1.00  0.00     0.020 C 
HETATM    6  C6  UNL     1      -2.045   3.106  -2.569  1.00  0.00     0.018 C 
HETATM    7  C7  UNL     1      -0.724   3.134  -2.485  1.00  0.00     0.084 C 
HETATM    8  N3  UNL     1       0.677   3.413  -2.729  1.00  0.00    -0.375 N 
HETATM    9  C8  UNL     1       1.419   2.780  -1.609  1.00  0.00     0.392 C 
HETATM   10  N4  UNL     1       0.980   1.421  -1.580  1.00  0.00     0.107 N 
HETATM   11  C9  UNL     1       1.153   0.741  -0.286  1.00  0.00     0.257 C 
HETATM   12  C15 UNL     1      -0.122   0.025  -0.129  1.00  0.00     0.054 C 
HETATM   13  C16 UNL     1      -0.699   0.325   1.007  1.00  0.00     0.118 A 
HETATM   14  C17 UNL     1      -1.545   0.505   2.219  1.00  0.00     0.134 A 
HETATM   15  N6  UNL     1      -1.997  -0.186   1.259  1.00  0.00    -0.351 N 
HETATM   16  H4  UNL     1      -2.864   1.969   0.154  1.00  0.00     0.188 HD
HETATM   17  H9  UNL     1       0.200   3.871  -3.531  1.00  0.00     0.160 HD
HETATM   18  H12 UNL     1       1.586   0.843  -2.228  1.00  0.00     0.318 HD
ENDROOT
BRANCH  11  19
HETATM   19  C10 UNL     1       2.404  -0.016  -0.220  1.00  0.00     0.308 C 
BRANCH  19  20
HETATM   20  N5  UNL     1       2.669  -0.716   1.014  1.00  0.00     0.094 N 
HETATM   21  C11 UNL     1       4.016  -1.286   1.028  1.00  0.00     0.298 C 
HETATM   22  C12 UNL     1       4.185  -2.396   0.033  1.00  0.00     0.198 C 
HETATM   23  O2  UNL     1       3.327  -3.465   0.275  1.00  0.00    -0.388 OA
HETATM   24  C13 UNL     1       2.501  -3.156   1.372  1.00  0.00     0.198 C 
HETATM   25  C14 UNL     1       1.761  -1.846   1.112  1.00  0.00     0.298 C 
ENDBRANCH  19  20
ENDBRANCH  11  19
BRANCH   1  26
HETATM   26  C2  UNL     1      -3.742  -2.163   1.232  1.00  0.00     0.094 A 
HETATM   27  C1  UNL     1      -3.379  -3.189   1.919  1.00  0.00    -0.017 A 
HETATM   28  O1  UNL     1      -2.382  -2.227   2.029  1.00  0.00     0.000 OA
HETATM   29  H1  UNL     1      -1.834  -2.294   2.898  1.00  0.00     0.000 HD
ENDBRANCH   1  26
TORSDOF 3
