REMARK  7 active torsions:
REMARK  status: ('A' for Active; 'I' for Inactive)
REMARK    1  A    between atoms: N1_1  and  C1_2 
REMARK    2  A    between atoms: C1_2  and  C2_3 
REMARK    3  A    between atoms: C1_2  and  C7_11 
REMARK    4  A    between atoms: C2_3  and  N2_4 
REMARK    5  A    between atoms: C6_9  and  N3_10 
REMARK    6  A    between atoms: C12_18  and  N6_19 
REMARK    7  A    between atoms: N6_19  and  C13_20 
ROOT
HETATM    1  C7  UNL     1      -0.496   1.363   0.318  1.00  0.00    -0.023 A 
HETATM    2  C8  UNL     1      -0.733   2.591  -0.246  1.00  0.00     0.012 A 
HETATM    3  C9  UNL     1       0.357   3.240  -0.826  1.00  0.00     0.033 A 
HETATM    4  C10 UNL     1       1.605   2.621  -0.805  1.00  0.00     0.072 A 
HETATM    5  N4  UNL     1       2.580   3.296  -1.387  1.00  0.00    -0.241 NA
HETATM    6  C11 UNL     1       3.832   2.761  -1.426  1.00  0.00     0.236 A 
HETATM    7  N5  UNL     1       4.083   1.550  -0.874  1.00  0.00    -0.224 NA
HETATM    8  C12 UNL     1       3.088   0.869  -0.282  1.00  0.00     0.142 A 
HETATM    9  C19 UNL     1       1.810   1.378  -0.225  1.00  0.00     0.039 A 
HETATM   10  C20 UNL     1       0.746   0.721   0.353  1.00  0.00     0.027 A 
ENDROOT
BRANCH   1  11
HETATM   11  C1  UNL     1      -1.703   0.651   0.912  1.00  0.00     0.279 C 
BRANCH  11  12
HETATM   12  N1  UNL     1      -2.390   1.612   1.671  1.00  0.00     0.089 N 
HETATM   13  H1  UNL     1      -1.876   2.538   1.779  1.00  0.00     0.313 HD
HETATM   14  H2  UNL     1      -2.518   1.310   2.687  1.00  0.00     0.313 HD
ENDBRANCH  11  12
BRANCH  11  15
HETATM   15  C2  UNL     1      -2.369  -0.084  -0.170  1.00  0.00     0.315 C 
BRANCH  15  16
HETATM   16  N2  UNL     1      -3.490  -0.905   0.065  1.00  0.00     0.128 N 
HETATM   17  C3  UNL     1      -3.735  -1.741  -1.136  1.00  0.00     0.301 C 
HETATM   18  C4  UNL     1      -5.087  -2.361  -1.151  1.00  0.00     0.198 C 
HETATM   19  O1  UNL     1      -6.102  -1.392  -1.209  1.00  0.00    -0.385 OA
HETATM   20  C5  UNL     1      -5.557  -0.141  -0.895  1.00  0.00     0.235 C 
HETATM   21  C6  UNL     1      -4.739  -0.314   0.374  1.00  0.00     0.474 C 
BRANCH  21  22
HETATM   22  N3  UNL     1      -4.772   0.907   1.093  1.00  0.00     0.114 N 
HETATM   23  H13 UNL     1      -5.556   0.883   1.802  1.00  0.00     0.315 HD
HETATM   24  H14 UNL     1      -4.884   1.753   0.464  1.00  0.00     0.315 HD
ENDBRANCH  21  22
ENDBRANCH  15  16
ENDBRANCH  11  15
ENDBRANCH   1  11
BRANCH   8  25
HETATM   25  N6  UNL     1       3.369  -0.392   0.296  1.00  0.00    -0.340 N 
HETATM   26  H18 UNL     1       2.746  -0.995   0.870  1.00  0.00     0.167 HD
BRANCH  25  27
HETATM   27  C13 UNL     1       4.580  -1.119   0.223  1.00  0.00     0.035 A 
HETATM   28  C14 UNL     1       5.195  -1.553  -0.961  1.00  0.00     0.032 A 
HETATM   29  C15 UNL     1       6.399  -2.242  -0.880  1.00  0.00     0.046 A 
HETATM   30  C16 UNL     1       7.039  -2.533   0.290  1.00  0.00     0.138 A 
HETATM   31  F1  UNL     1       8.210  -3.202   0.369  1.00  0.00    -0.204 F 
HETATM   32  C17 UNL     1       6.481  -2.133   1.473  1.00  0.00     0.074 A 
HETATM   33 CL1  UNL     1       7.195  -2.431   3.043  1.00  0.00    -0.081 Cl
HETATM   34  C18 UNL     1       5.271  -1.439   1.396  1.00  0.00     0.056 A 
ENDBRANCH  25  27
ENDBRANCH   8  25
TORSDOF 7
