REMARK  7 active torsions:
REMARK  status: ('A' for Active; 'I' for Inactive)
REMARK       I    between atoms: C1_2  and  N1_3 
REMARK       I    between atoms: C1_2  and  N3_12 
REMARK    1  A    between atoms: N1_3  and  C2_4 
REMARK    2  A    between atoms: C2_4  and  C3_5 
REMARK    3  A    between atoms: C3_5  and  N2_6 
REMARK    4  A    between atoms: N3_12  and  C9_13 
REMARK    5  A    between atoms: C14_20  and  N6_21 
REMARK    6  A    between atoms: N6_21  and  C15_22 
REMARK    7  A    between atoms: C17_24  and  C18_25 
ROOT
HETATM    1  C9  UNL     1      -1.425  -0.809  -0.119  1.00  0.00     0.037 A 
HETATM    2  C10 UNL     1      -1.267  -1.742  -1.109  1.00  0.00     0.032 A 
HETATM    3  C11 UNL     1      -2.289  -2.398  -1.758  1.00  0.00     0.035 A 
HETATM    4  C12 UNL     1      -3.599  -2.106  -1.395  1.00  0.00     0.072 A 
HETATM    5  N4  UNL     1      -4.627  -2.720  -2.002  1.00  0.00    -0.241 NA
HETATM    6  C13 UNL     1      -5.901  -2.458  -1.675  1.00  0.00     0.236 A 
HETATM    7  N5  UNL     1      -6.118  -1.546  -0.706  1.00  0.00    -0.224 NA
HETATM    8  C14 UNL     1      -5.101  -0.926  -0.092  1.00  0.00     0.141 A 
HETATM    9  C19 UNL     1      -3.787  -1.170  -0.402  1.00  0.00     0.041 A 
HETATM   10  C20 UNL     1      -2.734  -0.552   0.207  1.00  0.00     0.047 A 
ENDROOT
BRANCH   1  11
HETATM   11  N3  UNL     1      -0.409  -0.116   0.568  1.00  0.00    -0.309 N 
HETATM   12  C1  UNL     1       0.993  -0.195   0.410  1.00  0.00     0.320 C 
HETATM   13  O1  UNL     1       1.435  -0.981  -0.453  1.00  0.00    -0.247 OA
HETATM   14  N1  UNL     1       1.919   0.557   1.167  1.00  0.00    -0.341 N 
HETATM   15  H1  UNL     1       1.527   1.215   1.903  1.00  0.00     0.164 HD
HETATM   16  H16 UNL     1      -0.674   0.567   1.312  1.00  0.00     0.170 HD
BRANCH  14  17
HETATM   17  C2  UNL     1       3.354   0.495   1.013  1.00  0.00     0.143 C 
BRANCH  17  18
HETATM   18  C3  UNL     1       3.726   0.918  -0.366  1.00  0.00     0.136 C 
BRANCH  18  19
HETATM   19  N2  UNL     1       5.150   0.893  -0.637  1.00  0.00    -0.411 N 
HETATM   20  C4  UNL     1       5.695  -0.419  -0.670  1.00  0.00     0.117 C 
HETATM   21  C5  UNL     1       7.184  -0.278  -1.014  1.00  0.00     0.019 C 
HETATM   22  C6  UNL     1       7.816   0.254   0.258  1.00  0.00     0.003 C 
HETATM   23  C7  UNL     1       7.126   1.478   0.746  1.00  0.00     0.019 C 
HETATM   24  C8  UNL     1       5.906   1.899   0.016  1.00  0.00     0.117 C 
ENDBRANCH  18  19
ENDBRANCH  17  18
ENDBRANCH  14  17
ENDBRANCH   1  11
BRANCH   8  25
HETATM   25  N6  UNL     1      -5.432   0.016   0.911  1.00  0.00    -0.343 N 
HETATM   26  H20 UNL     1      -4.849   0.612   1.530  1.00  0.00     0.167 HD
BRANCH  25  27
HETATM   27  C15 UNL     1      -6.810   0.257   1.196  1.00  0.00     0.016 A 
HETATM   28  C16 UNL     1      -8.035  -0.363   1.381  1.00  0.00     0.011 A 
HETATM   29  C17 UNL     1      -8.045   1.043   1.497  1.00  0.00     0.073 A 
BRANCH  29  30
HETATM   30  C18 UNL     1      -8.503   1.887   0.314  1.00  0.00     0.129 C 
HETATM   31 CL1  UNL     1      -8.833   0.771  -1.029  1.00  0.00    -0.129 Cl
ENDBRANCH  29  30
ENDBRANCH  25  27
ENDBRANCH   8  25
TORSDOF 7
