REMARK  7 active torsions:
REMARK  status: ('A' for Active; 'I' for Inactive)
REMARK    1  A    between atoms: C1_2  and  C2_3 
REMARK       I    between atoms: C1_2  and  N2_12 
REMARK    2  A    between atoms: C2_3  and  C3_4 
REMARK    3  A    between atoms: C3_4  and  C4_5 
REMARK    4  A    between atoms: C4_5  and  N1_6 
REMARK    5  A    between atoms: N2_12  and  C10_13 
REMARK    6  A    between atoms: C15_20  and  N5_21 
REMARK    7  A    between atoms: N5_21  and  C16_22 
ROOT
HETATM    1  C10 UNL     1       1.501   0.487  -2.234  1.00  0.00     0.035 A 
HETATM    2  C11 UNL     1       1.624   0.428  -3.604  1.00  0.00     0.032 A 
HETATM    3  C12 UNL     1       2.841   0.075  -4.136  1.00  0.00     0.035 A 
HETATM    4  C13 UNL     1       3.881  -0.202  -3.281  1.00  0.00     0.072 A 
HETATM    5  N3  UNL     1       5.051  -0.541  -3.877  1.00  0.00    -0.241 NA
HETATM    6  C14 UNL     1       6.105  -0.823  -3.069  1.00  0.00     0.236 A 
HETATM    7  N4  UNL     1       6.029  -0.778  -1.740  1.00  0.00    -0.224 NA
HETATM    8  C15 UNL     1       4.901  -0.450  -1.102  1.00  0.00     0.142 A 
HETATM    9  C22 UNL     1       3.822  -0.161  -1.904  1.00  0.00     0.041 A 
HETATM   10  C23 UNL     1       2.578   0.198  -1.435  1.00  0.00     0.047 A 
ENDROOT
BRANCH   1  11
HETATM   11  N2  UNL     1       0.209   0.856  -1.772  1.00  0.00    -0.327 N 
HETATM   12  C1  UNL     1      -0.868  -0.013  -1.466  1.00  0.00     0.222 C 
HETATM   13  O1  UNL     1      -0.486  -1.192  -1.673  1.00  0.00    -0.273 OA
HETATM   14  H17 UNL     1       0.278   1.912  -1.726  1.00  0.00     0.169 HD
BRANCH  12  15
HETATM   15  C2  UNL     1      -2.038   0.822  -1.016  1.00  0.00     0.105 C 
BRANCH  15  16
HETATM   16  C3  UNL     1      -3.223  -0.071  -0.689  1.00  0.00     0.039 C 
BRANCH  16  17
HETATM   17  C4  UNL     1      -4.344   0.823  -0.252  1.00  0.00     0.273 C 
BRANCH  17  18
HETATM   18  N1  UNL     1      -5.556   0.160   0.099  1.00  0.00     0.088 N 
HETATM   19  C5  UNL     1      -5.489  -0.632   1.286  1.00  0.00     0.272 C 
HETATM   20  C6  UNL     1      -6.886  -0.914   1.831  1.00  0.00     0.030 C 
HETATM   21  C7  UNL     1      -7.525   0.341   2.356  1.00  0.00     0.003 C 
HETATM   22  C8  UNL     1      -6.953   1.514   1.591  1.00  0.00     0.030 C 
HETATM   23  C9  UNL     1      -6.635   1.110   0.165  1.00  0.00     0.272 C 
ENDBRANCH  17  18
ENDBRANCH  16  17
ENDBRANCH  15  16
ENDBRANCH  12  15
ENDBRANCH   1  11
BRANCH   8  24
HETATM   24  N5  UNL     1       4.763  -0.387   0.284  1.00  0.00    -0.340 N 
HETATM   25  H21 UNL     1       3.860  -0.157   0.746  1.00  0.00     0.167 HD
BRANCH  24  26
HETATM   26  C16 UNL     1       5.749  -0.605   1.275  1.00  0.00     0.035 A 
HETATM   27  C17 UNL     1       7.087  -0.710   0.993  1.00  0.00     0.032 A 
HETATM   28  C18 UNL     1       8.066  -0.931   1.925  1.00  0.00     0.046 A 
HETATM   29  C19 UNL     1       7.756  -1.065   3.248  1.00  0.00     0.138 A 
HETATM   30  F1  UNL     1       8.650  -1.283   4.219  1.00  0.00    -0.204 F 
HETATM   31  C20 UNL     1       6.433  -0.970   3.594  1.00  0.00     0.074 A 
HETATM   32 CL1  UNL     1       5.949  -1.130   5.268  1.00  0.00    -0.081 Cl
HETATM   33  C21 UNL     1       5.491  -0.747   2.620  1.00  0.00     0.056 A 
ENDBRANCH  24  26
ENDBRANCH   8  24
TORSDOF 7
