REMARK  8 active torsions:
REMARK  status: ('A' for Active; 'I' for Inactive)
REMARK    1  A    between atoms: C2_2  and  N1_8 
REMARK    2  A    between atoms: C3_3  and  C4_4 
REMARK    3  A    between atoms: C4_4  and  C6_6 
REMARK    4  A    between atoms: N1_8  and  C7_9 
REMARK    5  A    between atoms: C12_16  and  N4_17 
REMARK       I    between atoms: N4_17  and  C13_18 
REMARK       I    between atoms: C13_18  and  N5_20 
REMARK    6  A    between atoms: N5_20  and  C14_21 
REMARK    7  A    between atoms: C14_21  and  C15_22 
REMARK    8  A    between atoms: C15_22  and  N6_23 
ROOT
HETATM    1  C7  UNL     1      -3.990   1.790  -0.700  1.00  0.00     0.141 A 
HETATM    2  N2  UNL     1      -4.799   2.483  -1.490  1.00  0.00    -0.224 NA
HETATM    3  C8  UNL     1      -4.213   3.278  -2.420  1.00  0.00     0.236 A 
HETATM    4  N3  UNL     1      -2.889   3.363  -2.540  1.00  0.00    -0.241 NA
HETATM    5  C9  UNL     1      -2.099   2.648  -1.724  1.00  0.00     0.072 A 
HETATM    6  C10 UNL     1      -0.719   2.726  -1.836  1.00  0.00     0.035 A 
HETATM    7  C11 UNL     1       0.033   1.962  -0.963  1.00  0.00     0.032 A 
HETATM    8  C12 UNL     1      -0.436   1.135   0.003  1.00  0.00     0.037 A 
HETATM    9  C21 UNL     1      -1.813   1.086   0.080  1.00  0.00     0.047 A 
HETATM   10  C22 UNL     1      -2.635   1.813  -0.748  1.00  0.00     0.041 A 
ENDROOT
BRANCH   8  11
HETATM   11  N4  UNL     1       0.296   0.358   0.891  1.00  0.00    -0.309 N 
HETATM   12  C13 UNL     1       1.692   0.212   1.044  1.00  0.00     0.320 C 
HETATM   13  O1  UNL     1       2.437   0.868   0.277  1.00  0.00    -0.247 OA
HETATM   14  N5  UNL     1       2.365  -0.595   1.970  1.00  0.00    -0.341 N 
HETATM   15  H16 UNL     1       1.760  -1.164   2.635  1.00  0.00     0.164 HD
HETATM   16  H15 UNL     1      -0.192  -0.254   1.606  1.00  0.00     0.170 HD
BRANCH  14  17
HETATM   17  C14 UNL     1       3.795  -0.678   2.048  1.00  0.00     0.154 C 
BRANCH  17  18
HETATM   18  C15 UNL     1       4.458  -1.162   0.801  1.00  0.00     0.292 C 
BRANCH  18  19
HETATM   19  N6  UNL     1       5.878  -1.255   0.850  1.00  0.00     0.090 N 
HETATM   20  C16 UNL     1       6.440  -1.732  -0.397  1.00  0.00     0.272 C 
HETATM   21  C17 UNL     1       7.906  -2.060  -0.257  1.00  0.00     0.030 C 
HETATM   22  C18 UNL     1       8.602  -0.770   0.107  1.00  0.00     0.003 C 
HETATM   23  C19 UNL     1       8.015  -0.275   1.409  1.00  0.00     0.030 C 
HETATM   24  C20 UNL     1       6.535  -0.094   1.356  1.00  0.00     0.272 C 
ENDBRANCH  18  19
ENDBRANCH  17  18
ENDBRANCH  14  17
ENDBRANCH   8  11
BRANCH   1  25
HETATM   25  N1  UNL     1      -4.622   0.964   0.267  1.00  0.00    -0.344 N 
HETATM   26  H11 UNL     1      -4.309   0.308   1.013  1.00  0.00     0.167 HD
BRANCH  25  27
HETATM   27  C2  UNL     1      -6.010   0.781   0.515  1.00  0.00     0.003 C 
HETATM   28  C1  UNL     1      -6.495   2.108   1.003  1.00  0.00     0.068 C 
HETATM   29  C3  UNL     1      -6.764  -0.301   0.366  1.00  0.00     0.003 C 
BRANCH  29  30
HETATM   30  C4  UNL     1      -6.808  -1.727  -0.036  1.00  0.00     0.020 C 
HETATM   31  C5  UNL     1      -7.875  -1.992  -1.089  1.00  0.00     0.015 C 
BRANCH  30  32
HETATM   32  C6  UNL     1      -5.460  -2.252  -0.484  1.00  0.00     0.122 C 
HETATM   33 CL1  UNL     1      -4.802  -1.389  -1.878  1.00  0.00    -0.130 Cl
ENDBRANCH  30  32
ENDBRANCH  29  30
ENDBRANCH  25  27
ENDBRANCH   1  25
TORSDOF 8
