REMARK  8 active torsions:
REMARK  status: ('A' for Active; 'I' for Inactive)
REMARK    1  A    between atoms: C3_4  and  C4_5 
REMARK    2  A    between atoms: C5_6  and  N1_7 
REMARK    3  A    between atoms: C5_6  and  S1_30 
REMARK    4  A    between atoms: N1_7  and  C6_8 
REMARK    5  A    between atoms: C11_15  and  C12_16 
REMARK       I    between atoms: C12_16  and  N4_18 
REMARK    6  A    between atoms: N4_18  and  C13_19 
REMARK    7  A    between atoms: C13_19  and  C14_20 
REMARK    8  A    between atoms: C14_20  and  N5_21 
ROOT
HETATM    1  C6  UNL     1      -2.968  -0.395  -1.982  1.00  0.00     0.142 A 
HETATM    2  N2  UNL     1      -3.870  -0.709  -2.918  1.00  0.00    -0.224 NA
HETATM    3  C7  UNL     1      -3.909  -0.120  -4.121  1.00  0.00     0.236 A 
HETATM    4  N3  UNL     1      -3.016   0.820  -4.408  1.00  0.00    -0.241 NA
HETATM    5  C8  UNL     1      -2.066   1.195  -3.507  1.00  0.00     0.072 A 
HETATM    6  C9  UNL     1      -1.130   2.171  -3.793  1.00  0.00     0.034 A 
HETATM    7  C10 UNL     1      -0.182   2.508  -2.829  1.00  0.00     0.019 A 
HETATM    8  C11 UNL     1      -0.140   1.902  -1.589  1.00  0.00     0.033 A 
HETATM    9  C21 UNL     1      -1.094   0.936  -1.352  1.00  0.00     0.034 A 
HETATM   10  C22 UNL     1      -2.038   0.571  -2.255  1.00  0.00     0.040 A 
ENDROOT
BRANCH   8  11
HETATM   11  C12 UNL     1       0.896   2.310  -0.624  1.00  0.00     0.251 C 
HETATM   12  O1  UNL     1       1.689   3.193  -1.038  1.00  0.00    -0.268 OA
HETATM   13  N4  UNL     1       0.971   1.737   0.663  1.00  0.00    -0.355 N 
HETATM   14  H10 UNL     1       0.305   1.014   0.975  1.00  0.00     0.162 HD
BRANCH  13  15
HETATM   15  C13 UNL     1       1.986   2.127   1.620  1.00  0.00     0.142 C 
BRANCH  15  16
HETATM   16  C14 UNL     1       3.385   1.887   1.166  1.00  0.00     0.137 C 
BRANCH  16  17
HETATM   17  N5  UNL     1       3.764   0.566   0.868  1.00  0.00    -0.407 N 
HETATM   18  C15 UNL     1       3.186  -0.051  -0.265  1.00  0.00     0.117 C 
HETATM   19  C16 UNL     1       3.910  -1.269  -0.754  1.00  0.00     0.019 C 
HETATM   20  C17 UNL     1       4.637  -2.052   0.273  1.00  0.00     0.004 C 
HETATM   21  C18 UNL     1       5.359  -1.220   1.293  1.00  0.00     0.024 C 
HETATM   22  C19 UNL     1       5.150   0.257   1.102  1.00  0.00     0.075 C 
HETATM   23  C20 UNL     1       5.638   0.976   2.325  1.00  0.00     0.032 C 
ENDBRANCH  16  17
ENDBRANCH  15  16
ENDBRANCH  13  15
ENDBRANCH   8  11
BRANCH   1  24
HETATM   24  N1  UNL     1      -3.013  -1.073  -0.757  1.00  0.00    -0.334 N 
HETATM   25  H6  UNL     1      -2.439  -0.999   0.094  1.00  0.00     0.168 HD
BRANCH  24  26
HETATM   26  C5  UNL     1      -3.962  -2.083  -0.463  1.00  0.00     0.087 C 
HETATM   27  C4  UNL     1      -4.907  -1.862   0.402  1.00  0.00     0.041 C 
BRANCH  27  28
HETATM   28  C3  UNL     1      -6.066  -2.221   1.170  1.00  0.00     0.040 C 
HETATM   29  C2  UNL     1      -7.007  -1.964   2.048  1.00  0.00     0.090 C 
HETATM   30  C1  UNL     1      -6.841  -0.564   2.568  1.00  0.00     0.082 C 
HETATM   31  F1  UNL     1      -7.883  -2.936   2.302  1.00  0.00    -0.211 F 
ENDBRANCH  27  28
BRANCH  26  32
HETATM   32  S1  UNL     1      -3.715  -3.593  -1.367  1.00  0.00    -0.001 SA
HETATM   33 CL1  UNL     1      -5.138  -5.037  -0.879  1.00  0.00    -0.037 Cl
ENDBRANCH  26  32
ENDBRANCH  24  26
ENDBRANCH   1  24
TORSDOF 8
