REMARK  9 active torsions:
REMARK  status: ('A' for Active; 'I' for Inactive)
REMARK    1  A    between atoms: O1_2  and  C2_3 
REMARK    2  A    between atoms: C2_3  and  C3_4 
REMARK    3  A    between atoms: C4_5  and  C5_6 
REMARK    4  A    between atoms: C5_6  and  C6_7 
REMARK    5  A    between atoms: C6_7  and  C7_8 
REMARK    6  A    between atoms: C7_8  and  N1_9 
REMARK    7  A    between atoms: C10_15  and  C11_16 
REMARK    8  A    between atoms: C11_16  and  N4_17 
REMARK    9  A    between atoms: N4_17  and  C12_18 
ROOT
HETATM    1  C2  UNL     1       0.320  -0.997  -0.916  1.00  0.00     0.065 C 
HETATM    2  C10 UNL     1       1.550  -1.170  -1.366  1.00  0.00     0.029 C 
ENDROOT
BRANCH   1   3
HETATM    3  O1  UNL     1       0.311   0.136  -0.120  1.00  0.00    -0.356 OA
HETATM    4  C1  UNL     1       0.552  -0.006   1.275  1.00  0.00     0.210 C 
ENDBRANCH   1   3
BRANCH   1   5
HETATM    5  C3  UNL     1      -0.757  -1.904  -1.265  1.00  0.00     0.032 C 
HETATM    6  C4  UNL     1      -2.010  -1.826  -0.881  1.00  0.00    -0.024 C 
BRANCH   6   7
HETATM    7  C5  UNL     1      -2.827  -0.925  -0.037  1.00  0.00     0.034 C 
BRANCH   7   8
HETATM    8  C6  UNL     1      -3.969  -0.299  -0.811  1.00  0.00     0.102 C 
BRANCH   8   9
HETATM    9  C7  UNL     1      -4.813   0.629   0.047  1.00  0.00     0.362 A 
HETATM   10  N2  UNL     1      -5.796   1.235  -0.800  1.00  0.00    -0.216 NA
HETATM   11  C8  UNL     1      -7.059   1.208  -0.642  1.00  0.00     0.234 A 
HETATM   12  N3  UNL     1      -7.618   0.510   0.488  1.00  0.00    -0.231 NA
HETATM   13  C9  UNL     1      -6.765  -0.059   1.288  1.00  0.00     0.257 A 
HETATM   14  O2  UNL     1      -5.401  -0.033   1.122  1.00  0.00    -0.286 OA
BRANCH   9  15
HETATM   15  N1  UNL     1      -3.998   1.714   0.578  1.00  0.00     0.137 N 
HETATM   16  H10 UNL     1      -3.199   1.902  -0.068  1.00  0.00     0.319 HD
HETATM   17  H11 UNL     1      -4.607   2.554   0.695  1.00  0.00     0.319 HD
ENDBRANCH   9  15
ENDBRANCH   8   9
ENDBRANCH   7   8
ENDBRANCH   6   7
ENDBRANCH   1   5
BRANCH   2  18
HETATM   18  C11 UNL     1       2.664  -0.255  -1.021  1.00  0.00     0.150 C 
BRANCH  18  19
HETATM   19  N4  UNL     1       3.719  -0.975  -0.331  1.00  0.00    -0.386 N 
HETATM   20  H17 UNL     1       3.666  -2.012  -0.116  1.00  0.00     0.160 HD
BRANCH  19  21
HETATM   21  C12 UNL     1       4.913  -0.298   0.103  1.00  0.00     0.029 A 
HETATM   22  C13 UNL     1       5.928  -0.946   0.757  1.00  0.00     0.029 A 
HETATM   23  C14 UNL     1       7.082  -0.313   1.181  1.00  0.00     0.004 A 
HETATM   24  C15 UNL     1       7.215   1.043   0.929  1.00  0.00     0.019 A 
HETATM   25  C16 UNL     1       6.201   1.708   0.271  1.00  0.00     0.013 A 
HETATM   26 BR1  UNL     1       6.364   3.588  -0.089  1.00  0.00    -0.051 Br
HETATM   27  C17 UNL     1       5.054   1.052  -0.144  1.00  0.00     0.048 A 
ENDBRANCH  19  21
ENDBRANCH  18  19
ENDBRANCH   2  18
TORSDOF 9
