REMARK  5 active torsions:
REMARK  status: ('A' for Active; 'I' for Inactive)
REMARK    1  A    between atoms: O1_2  and  C2_3 
REMARK    2  A    between atoms: C6_9  and  N3_10 
REMARK    3  A    between atoms: N3_10  and  C7_11 
REMARK    4  A    between atoms: C7_11  and  C8_12 
REMARK    5  A    between atoms: C15_21  and  N4_22 
ROOT
HETATM    1  C8  UNL     1       7.247   0.268   0.283  1.00  0.00    -0.070 C 
HETATM    2  C9  UNL     1       7.915  -0.592   0.826  1.00  0.00     0.006 C 
HETATM    3 CL1  UNL     1       8.850  -1.830   1.617  1.00  0.00    -0.023 Cl
ENDROOT
BRANCH   1   4
HETATM    4  C7  UNL     1       6.474   1.301  -0.372  1.00  0.00     0.217 C 
BRANCH   4   5
HETATM    5  N3  UNL     1       5.147   0.853  -0.691  1.00  0.00    -0.364 N 
HETATM    6  H6  UNL     1       4.848   0.705  -1.692  1.00  0.00     0.162 HD
BRANCH   5   7
HETATM    7  C6  UNL     1       4.084   0.552   0.199  1.00  0.00     0.125 C 
HETATM    8  N2  UNL     1       2.713   0.761  -0.110  1.00  0.00    -0.225 NA
HETATM    9  C5  UNL     1       2.299   0.325  -1.267  1.00  0.00     0.235 C 
HETATM   10  N1  UNL     1       0.930   0.527  -1.588  1.00  0.00    -0.244 NA
HETATM   11  C4  UNL     1      -0.066   0.166  -0.874  1.00  0.00     0.067 C 
HETATM   12  C3  UNL     1      -1.376   0.510  -1.462  1.00  0.00     0.064 C 
HETATM   13  C13 UNL     1       0.043  -0.528   0.410  1.00  0.00     0.182 C 
HETATM   14  C2  UNL     1      -2.527   0.419  -0.771  1.00  0.00     0.081 C 
HETATM   15  C15 UNL     1      -2.406  -0.044   0.610  1.00  0.00     0.284 C 
HETATM   16  C14 UNL     1      -1.316  -1.076   0.792  1.00  0.00     0.081 C 
HETATM   17  O2  UNL     1       0.604   0.243   1.454  1.00  0.00    -0.352 OA
HETATM   18  C12 UNL     1       1.850  -0.044   1.978  1.00  0.00     0.136 C 
HETATM   19  C11 UNL     1       3.119  -0.243   2.286  1.00  0.00     0.028 C 
HETATM   20  C10 UNL     1       4.236   0.047   1.412  1.00  0.00     0.052 C 
BRANCH  14  21
HETATM   21  O1  UNL     1      -3.705   0.754  -1.377  1.00  0.00    -0.358 OA
HETATM   22  C1  UNL     1      -3.741   1.012  -2.781  1.00  0.00     0.209 C 
ENDBRANCH  14  21
BRANCH  15  23
HETATM   23  N4  UNL     1      -3.605  -0.518   1.221  1.00  0.00     0.124 N 
HETATM   24  C16 UNL     1      -4.674   0.420   1.320  1.00  0.00     0.302 C 
HETATM   25  C17 UNL     1      -5.888  -0.383   0.919  1.00  0.00     0.200 C 
HETATM   26  O3  UNL     1      -5.459  -1.606   0.433  1.00  0.00    -0.361 OA
HETATM   27  C18 UNL     1      -4.115  -1.754   0.730  1.00  0.00     0.441 C 
ENDBRANCH  15  23
ENDBRANCH   5   7
ENDBRANCH   4   5
ENDBRANCH   1   4
TORSDOF 5
