REMARK  2 active torsions:
REMARK  status: ('A' for Active; 'I' for Inactive)
REMARK    1  A    between atoms: C4_6  and  C5_7 
REMARK    2  A    between atoms: C12_16  and  N3_17 
ROOT
HETATM    1  C1  UNL     1       4.686  -2.981   0.222  1.00  0.00     0.066 C 
HETATM    2  C2  UNL     1       3.771  -1.814   0.165  1.00  0.00     0.013 C 
HETATM    3  N1  UNL     1       2.715  -2.228   0.759  1.00  0.00    -0.251 NA
HETATM    4  C3  UNL     1       1.546  -1.456   0.952  1.00  0.00     0.233 C 
HETATM    5  N2  UNL     1       0.617  -0.702   1.283  1.00  0.00    -0.239 NA
HETATM    6  C4  UNL     1      -0.646  -0.397   0.824  1.00  0.00     0.093 C 
HETATM    7  C12 UNL     1      -0.707   0.948   0.999  1.00  0.00     0.066 C 
HETATM    8  C15 UNL     1       0.274   1.900   1.586  1.00  0.00     0.088 C 
HETATM    9  C16 UNL     1       0.836   2.884   0.595  1.00  0.00     0.180 C 
HETATM   10  O2  UNL     1       1.494   2.202  -0.474  1.00  0.00    -0.363 OA
HETATM   11  C17 UNL     1       2.813   1.742  -0.250  1.00  0.00     0.131 C 
HETATM   12  C18 UNL     1       3.406   0.584  -0.423  1.00  0.00     0.003 C 
HETATM   13  C19 UNL     1       4.261  -0.583  -0.526  1.00  0.00     0.083 C 
ENDROOT
BRANCH   6  14
HETATM   14  C5  UNL     1      -1.907  -0.898   0.282  1.00  0.00     0.003 A 
HETATM   15  C6  UNL     1      -3.011  -0.509   1.054  1.00  0.00     0.017 A 
HETATM   16  C7  UNL     1      -4.323  -0.861   0.712  1.00  0.00     0.045 A 
HETATM   17  C8  UNL     1      -4.401  -1.611  -0.436  1.00  0.00     0.138 A 
HETATM   18  F1  UNL     1      -5.659  -1.983  -0.817  1.00  0.00    -0.204 F 
HETATM   19  C9  UNL     1      -3.382  -2.036  -1.252  1.00  0.00     0.079 A 
HETATM   20 CL1  UNL     1      -3.571  -2.992  -2.701  1.00  0.00    -0.080 Cl
HETATM   21  C10 UNL     1      -2.122  -1.650  -0.849  1.00  0.00    -0.025 A 
HETATM   22  C11 UNL     1      -0.955  -2.045  -1.671  1.00  0.00     0.051 C 
ENDBRANCH   6  14
BRANCH   7  23
HETATM   23  N3  UNL     1      -1.805   1.838   0.686  1.00  0.00    -0.258 N 
HETATM   24  C13 UNL     1      -2.271   2.155  -0.649  1.00  0.00     0.184 C 
HETATM   25  C14 UNL     1      -2.886   3.360   0.007  1.00  0.00     0.223 C 
HETATM   26  O1  UNL     1      -2.758   2.658   1.182  1.00  0.00    -0.276 OA
ENDBRANCH   7  23
TORSDOF 2
