REMARK  8 active torsions:
REMARK  status: ('A' for Active; 'I' for Inactive)
REMARK    1  A    between atoms: O1_2  and  C2_3 
REMARK    2  A    between atoms: C6_9  and  N3_10 
REMARK    3  A    between atoms: N3_10  and  C7_11 
REMARK    4  A    between atoms: C15_21  and  O2_22 
REMARK    5  A    between atoms: O2_22  and  C16_23 
REMARK    6  A    between atoms: C16_23  and  C17_24 
REMARK    7  A    between atoms: C17_24  and  C18_25 
REMARK    8  A    between atoms: C18_25  and  C19_26 
ROOT
HETATM    1  C2  UNL     1       0.134  -2.989   0.129  1.00  0.00     0.103 A 
HETATM    2  C3  UNL     1       1.334  -3.545  -0.256  1.00  0.00     0.072 A 
HETATM    3  C4  UNL     1       2.472  -2.766  -0.309  1.00  0.00     0.075 A 
HETATM    4  N1  UNL     1       3.601  -3.376  -0.698  1.00  0.00    -0.241 NA
HETATM    5  C5  UNL     1       4.758  -2.696  -0.786  1.00  0.00     0.236 A 
HETATM    6  N2  UNL     1       4.717  -1.395  -0.466  1.00  0.00    -0.224 NA
HETATM    7  C6  UNL     1       3.623  -0.737  -0.072  1.00  0.00     0.142 A 
HETATM    8  C13 UNL     1       2.429  -1.415   0.024  1.00  0.00     0.042 A 
HETATM    9  C14 UNL     1       1.224  -0.883   0.405  1.00  0.00     0.057 A 
HETATM   10  C15 UNL     1       0.074  -1.640   0.464  1.00  0.00     0.103 A 
ENDROOT
BRANCH   7  11
HETATM   11  N3  UNL     1       3.634   0.649   0.249  1.00  0.00    -0.340 N 
HETATM   12  H6  UNL     1       2.836   1.181   0.645  1.00  0.00     0.167 HD
BRANCH  11  13
HETATM   13  C7  UNL     1       4.719   1.556   0.092  1.00  0.00     0.035 A 
HETATM   14  C8  UNL     1       4.885   2.751   0.779  1.00  0.00     0.032 A 
HETATM   15  C9  UNL     1       5.957   3.582   0.546  1.00  0.00     0.046 A 
HETATM   16  C10 UNL     1       6.932   3.282  -0.383  1.00  0.00     0.138 A 
HETATM   17  F1  UNL     1       7.910   4.215  -0.478  1.00  0.00    -0.204 F 
HETATM   18  C11 UNL     1       6.772   2.103  -1.064  1.00  0.00     0.074 A 
HETATM   19 CL1  UNL     1       8.052   1.777  -2.246  1.00  0.00    -0.081 Cl
HETATM   20  C12 UNL     1       5.711   1.289  -0.827  1.00  0.00     0.056 A 
ENDBRANCH  11  13
ENDBRANCH   7  11
BRANCH  10  21
HETATM   21  O2  UNL     1      -1.145  -1.106   0.847  1.00  0.00    -0.348 OA
BRANCH  21  22
HETATM   22  C16 UNL     1      -1.142   0.270   1.172  1.00  0.00     0.176 C 
BRANCH  22  23
HETATM   23  C17 UNL     1      -2.592   0.606   1.546  1.00  0.00     0.029 C 
BRANCH  23  24
HETATM   24  C18 UNL     1      -3.399   0.279   0.313  1.00  0.00     0.040 C 
BRANCH  24  25
HETATM   25  C19 UNL     1      -4.870   0.542   0.451  1.00  0.00     0.248 C 
HETATM   26  C20 UNL     1      -5.502   0.147  -0.890  1.00  0.00     0.205 C 
HETATM   27  O3  UNL     1      -6.511   1.055  -1.116  1.00  0.00    -0.360 OA
HETATM   28  C21 UNL     1      -5.997   2.265  -0.654  1.00  0.00     0.440 C 
HETATM   29  N4  UNL     1      -5.163   1.968   0.471  1.00  0.00     0.113 N 
HETATM   30  C22 UNL     1      -5.757   2.377   1.727  1.00  0.00     0.313 C 
ENDBRANCH  24  25
ENDBRANCH  23  24
ENDBRANCH  22  23
ENDBRANCH  21  22
ENDBRANCH  10  21
BRANCH   1  31
HETATM   31  O1  UNL     1      -1.048  -3.724   0.201  1.00  0.00    -0.353 OA
HETATM   32  C1  UNL     1      -0.979  -5.098  -0.144  1.00  0.00     0.210 C 
ENDBRANCH   1  31
TORSDOF 8
