REMARK  8 active torsions:
REMARK  status: ('A' for Active; 'I' for Inactive)
REMARK    1  A    between atoms: C6_8  and  N3_9 
REMARK    2  A    between atoms: N3_9  and  C7_10 
REMARK    3  A    between atoms: C11_15  and  O1_16 
REMARK    4  A    between atoms: C15_20  and  O2_21 
REMARK    5  A    between atoms: O2_21  and  C16_22 
REMARK    6  A    between atoms: C16_22  and  C17_23 
REMARK    7  A    between atoms: C17_23  and  C18_24 
REMARK    8  A    between atoms: C18_24  and  C19_25 
ROOT
HETATM    1  C1  UNL     1       1.178  -3.156  -2.452  1.00  0.00     0.051 C 
HETATM    2  C2  UNL     1       0.157  -2.589  -1.495  1.00  0.00    -0.026 A 
HETATM    3  C3  UNL     1      -0.934  -3.473  -1.444  1.00  0.00     0.042 A 
HETATM    4  C4  UNL     1      -1.996  -3.152  -0.630  1.00  0.00     0.072 A 
HETATM    5  N1  UNL     1      -3.094  -3.933  -0.493  1.00  0.00    -0.241 NA
HETATM    6  C5  UNL     1      -4.103  -3.575   0.330  1.00  0.00     0.236 A 
HETATM    7  N2  UNL     1      -4.076  -2.434   1.051  1.00  0.00    -0.224 NA
HETATM    8  C6  UNL     1      -3.014  -1.610   0.962  1.00  0.00     0.142 A 
HETATM    9  C13 UNL     1      -2.001  -1.996   0.120  1.00  0.00     0.041 A 
HETATM   10  C14 UNL     1      -0.916  -1.179   0.031  1.00  0.00     0.055 A 
HETATM   11  C15 UNL     1       0.195  -1.399  -0.745  1.00  0.00     0.075 A 
ENDROOT
BRANCH   8  12
HETATM   12  N3  UNL     1      -3.059  -0.438   1.756  1.00  0.00    -0.340 N 
HETATM   13  H6  UNL     1      -2.548  -0.284   2.649  1.00  0.00     0.167 HD
BRANCH  12  14
HETATM   14  C7  UNL     1      -3.890   0.640   1.276  1.00  0.00     0.036 A 
HETATM   15  C8  UNL     1      -4.099   1.769   2.048  1.00  0.00     0.032 A 
HETATM   16  C9  UNL     1      -4.918   2.769   1.550  1.00  0.00     0.047 A 
HETATM   17  C10 UNL     1      -5.540   2.707   0.322  1.00  0.00     0.149 A 
HETATM   18  F1  UNL     1      -6.344   3.705  -0.142  1.00  0.00    -0.203 F 
HETATM   19  C11 UNL     1      -5.328   1.586  -0.441  1.00  0.00     0.106 A 
HETATM   20  C12 UNL     1      -4.515   0.564   0.026  1.00  0.00     0.069 A 
BRANCH  19  21
HETATM   21  O1  UNL     1      -5.950   1.522  -1.670  1.00  0.00    -0.358 OA
HETATM   22  H9  UNL     1      -6.843   1.918  -1.838  1.00  0.00     0.217 HD
ENDBRANCH  19  21
ENDBRANCH  12  14
ENDBRANCH   8  12
BRANCH  11  23
HETATM   23  O2  UNL     1       1.353  -0.827  -1.034  1.00  0.00    -0.351 OA
BRANCH  23  24
HETATM   24  C16 UNL     1       2.007   0.329  -0.640  1.00  0.00     0.176 C 
BRANCH  24  25
HETATM   25  C17 UNL     1       2.267   0.385   0.837  1.00  0.00     0.029 C 
BRANCH  25  26
HETATM   26  C18 UNL     1       2.979   1.609   1.233  1.00  0.00     0.037 C 
BRANCH  26  27
HETATM   27  C19 UNL     1       4.342   1.864   0.731  1.00  0.00     0.161 C 
HETATM   28  C20 UNL     1       5.391   0.841   1.093  1.00  0.00     0.154 C 
HETATM   29  N4  UNL     1       5.872   1.186  -0.210  1.00  0.00    -0.198 NA
HETATM   30  C21 UNL     1       6.984   2.069  -0.325  1.00  0.00     0.143 C 
HETATM   31  O3  UNL     1       4.678   1.623  -0.570  1.00  0.00    -0.297 OA
ENDBRANCH  26  27
ENDBRANCH  25  26
ENDBRANCH  24  25
ENDBRANCH  23  24
ENDBRANCH  11  23
TORSDOF 8
