REMARK  5 active torsions:
REMARK  status: ('A' for Active; 'I' for Inactive)
REMARK    1  A    between atoms: O1_2  and  C2_3 
REMARK    2  A    between atoms: C7_11  and  C8_12 
REMARK    3  A    between atoms: C8_12  and  O2_13 
REMARK    4  A    between atoms: O2_13  and  C9_14 
REMARK    5  A    between atoms: C9_14  and  C10_15 
ROOT
HETATM    1  C2  UNL     1      -2.073  -0.326   0.271  1.00  0.00     0.079 C 
HETATM    2  C3  UNL     1      -3.173  -0.597   1.012  1.00  0.00     0.071 C 
HETATM    3  C4  UNL     1      -4.118   0.506   0.832  1.00  0.00     0.083 C 
HETATM    4  N1  UNL     1      -4.828   1.412   1.476  1.00  0.00    -0.151 NA
HETATM    5  N2  UNL     1      -4.328   2.781   1.275  1.00  0.00    -0.165 NA
HETATM    6  C5  UNL     1      -3.260   2.779   0.478  1.00  0.00     0.128 C 
HETATM    7  C6  UNL     1      -2.778   2.041  -0.772  1.00  0.00     0.097 C 
HETATM    8  P1  UNL     1      -4.330   0.900  -1.030  1.00  0.00    -0.058 P 
HETATM    9  C7  UNL     1      -1.781   0.974  -0.382  1.00  0.00     0.011 C 
HETATM   10  H7  UNL     1      -5.438   1.760  -1.246  1.00  0.00     0.065 HD
ENDROOT
BRANCH   9  11
HETATM   11  C8  UNL     1      -0.499   1.137  -0.610  1.00  0.00     0.145 C 
BRANCH  11  12
HETATM   12  O2  UNL     1       0.851   1.082  -0.744  1.00  0.00    -0.360 OA
BRANCH  12  13
HETATM   13  C9  UNL     1       1.589   0.599   0.372  1.00  0.00     0.210 C 
BRANCH  13  14
HETATM   14  C10 UNL     1       3.056   0.572   0.117  1.00  0.00     0.249 C 
HETATM   15  C11 UNL     1       3.428  -0.303  -1.050  1.00  0.00     0.064 C 
HETATM   16  C12 UNL     1       3.187  -1.753  -0.770  1.00  0.00     0.172 C 
HETATM   17  O3  UNL     1       3.867  -2.100   0.387  1.00  0.00    -0.363 OA
HETATM   18  C13 UNL     1       3.509  -1.337   1.471  1.00  0.00     0.438 C 
HETATM   19  N3  UNL     1       3.730   0.069   1.301  1.00  0.00     0.113 N 
HETATM   20  H18 UNL     1       4.745   0.285   1.195  1.00  0.00     0.319 HD
ENDBRANCH  13  14
ENDBRANCH  12  13
ENDBRANCH  11  12
ENDBRANCH   9  11
BRANCH   1  21
HETATM   21  O1  UNL     1      -1.298  -1.506   0.259  1.00  0.00    -0.355 OA
HETATM   22  C1  UNL     1      -1.690  -2.460  -0.727  1.00  0.00     0.210 C 
ENDBRANCH   1  21
TORSDOF 5
