REMARK  8 active torsions:
REMARK  status: ('A' for Active; 'I' for Inactive)
REMARK    1  A    between atoms: C1_2  and  C2_3 
REMARK    2  A    between atoms: C1_2  and  C7_10 
REMARK    3  A    between atoms: C2_3  and  C3_4 
REMARK    4  A    between atoms: C7_10  and  O1_11 
REMARK    5  A    between atoms: O1_11  and  C8_12 
REMARK    6  A    between atoms: C8_12  and  C9_13 
REMARK    7  A    between atoms: C9_13  and  C10_14 
REMARK    8  A    between atoms: C10_14  and  N3_15 
ROOT
HETATM    1  C7  UNL     1       1.879   1.883   0.544  1.00  0.00     0.246 C 
ENDROOT
BRANCH   1   2
HETATM    2  C1  UNL     1       2.416   0.802   1.333  1.00  0.00     0.163 C 
HETATM    3  F1  UNL     1       2.120   0.384   2.542  1.00  0.00    -0.199 F 
BRANCH   2   4
HETATM    4  C2  UNL     1       3.384   0.043   0.848  1.00  0.00    -0.078 C 
BRANCH   4   5
HETATM    5  C3  UNL     1       4.497  -0.388   0.307  1.00  0.00     0.027 A 
HETATM    6  C4  UNL     1       5.745   0.222   0.617  1.00  0.00     0.135 A 
HETATM    7  N1  UNL     1       6.797  -0.278   0.014  1.00  0.00    -0.253 NA
HETATM    8  C5  UNL     1       6.548  -1.378  -0.881  1.00  0.00     0.226 A 
HETATM    9  N2  UNL     1       5.424  -1.931  -1.162  1.00  0.00    -0.278 NA
HETATM   10  C6  UNL     1       4.154  -1.489  -0.570  1.00  0.00     0.199 A 
ENDBRANCH   4   5
ENDBRANCH   2   4
ENDBRANCH   1   2
BRANCH   1  11
HETATM   11  O1  UNL     1       0.498   1.740   0.410  1.00  0.00    -0.384 OA
BRANCH  11  12
HETATM   12  C8  UNL     1       0.253   0.527  -0.213  1.00  0.00     0.169 C 
BRANCH  12  13
HETATM   13  C9  UNL     1      -1.240   0.292  -0.404  1.00  0.00     0.046 C 
BRANCH  13  14
HETATM   14  C10 UNL     1      -1.876   0.304   0.956  1.00  0.00     0.119 C 
BRANCH  14  15
HETATM   15  N3  UNL     1      -3.284   0.100   0.959  1.00  0.00    -0.408 N 
HETATM   16  C11 UNL     1      -4.073   1.139   0.399  1.00  0.00     0.143 C 
HETATM   17  C12 UNL     1      -4.885   0.761  -0.800  1.00  0.00     0.187 C 
HETATM   18  O2  UNL     1      -5.603  -0.395  -0.484  1.00  0.00    -0.388 OA
HETATM   19  C13 UNL     1      -4.691  -1.426  -0.356  1.00  0.00     0.187 C 
HETATM   20  C14 UNL     1      -3.749  -1.229   0.803  1.00  0.00     0.143 C 
ENDBRANCH  14  15
ENDBRANCH  13  14
ENDBRANCH  12  13
ENDBRANCH  11  12
ENDBRANCH   1  11
TORSDOF 8
