REMARK  8 active torsions:
REMARK  status: ('A' for Active; 'I' for Inactive)
REMARK    1  A    between atoms: C3_3  and  N1_4 
REMARK    2  A    between atoms: C3_3  and  C11_16 
REMARK    3  A    between atoms: N1_4  and  C4_5 
REMARK    4  A    between atoms: C4_5  and  N2_7 
REMARK    5  A    between atoms: N2_7  and  C5_8 
REMARK    6  A    between atoms: C5_8  and  C6_9 
REMARK    7  A    between atoms: C6_9  and  N3_10 
REMARK    8  A    between atoms: C15_21  and  N5_22 
ROOT
HETATM    1  C1  UNL     1       0.582  -2.166  -0.815  1.00  0.00     0.038 C 
HETATM    2  C2  UNL     1       1.838  -1.353  -0.758  1.00  0.00    -0.006 C 
HETATM    3  C3  UNL     1       1.510  -0.138  -0.420  1.00  0.00     0.015 C 
ENDROOT
BRANCH   3   4
HETATM    4  N1  UNL     1       0.084   0.009  -0.221  1.00  0.00    -0.337 N 
HETATM    5  H5  UNL     1      -0.411  -0.292   0.648  1.00  0.00     0.168 HD
BRANCH   4   6
HETATM    6  C4  UNL     1      -0.754   0.590  -1.222  1.00  0.00     0.172 C 
HETATM    7  S1  UNL     1      -0.043   1.082  -2.606  1.00  0.00    -0.041 SA
BRANCH   6   8
HETATM    8  N2  UNL     1      -2.159   0.758  -1.076  1.00  0.00    -0.365 N 
HETATM    9  H6  UNL     1      -2.712   1.183  -1.829  1.00  0.00     0.161 HD
BRANCH   8  10
HETATM   10  C5  UNL     1      -2.876   0.339   0.136  1.00  0.00     0.152 C 
BRANCH  10  11
HETATM   11  C6  UNL     1      -4.348   0.646   0.006  1.00  0.00     0.292 C 
BRANCH  11  12
HETATM   12  N3  UNL     1      -5.072   0.244   1.181  1.00  0.00     0.094 N 
HETATM   13  C7  UNL     1      -5.113  -1.181   1.308  1.00  0.00     0.298 C 
HETATM   14  C8  UNL     1      -6.487  -1.729   0.954  1.00  0.00     0.198 C 
HETATM   15  O1  UNL     1      -6.864  -1.117  -0.257  1.00  0.00    -0.388 OA
HETATM   16  C9  UNL     1      -7.196   0.218  -0.041  1.00  0.00     0.198 C 
HETATM   17  C10 UNL     1      -6.430   0.756   1.156  1.00  0.00     0.298 C 
ENDBRANCH  11  12
ENDBRANCH  10  11
ENDBRANCH   8  10
ENDBRANCH   6   8
ENDBRANCH   4   6
ENDBRANCH   3   4
BRANCH   3  18
HETATM   18  C11 UNL     1       2.087   1.192  -0.156  1.00  0.00     0.084 C 
HETATM   19  C12 UNL     1       1.796   1.709   1.211  1.00  0.00     0.162 C 
HETATM   20  N4  UNL     1       2.915   2.517   1.558  1.00  0.00    -0.296 NA
HETATM   21  C13 UNL     1       3.889   2.328   0.763  1.00  0.00     0.026 C 
HETATM   22  C14 UNL     1       5.232   3.012   0.829  1.00  0.00     0.067 C 
HETATM   23  C15 UNL     1       3.554   1.314  -0.293  1.00  0.00     0.147 C 
BRANCH  23  24
HETATM   24  N5  UNL     1       4.337   0.151   0.010  1.00  0.00    -0.354 N 
HETATM   25  C16 UNL     1       4.289  -0.479   1.280  1.00  0.00     0.090 A 
HETATM   26  C17 UNL     1       5.073  -1.535   1.419  1.00  0.00     0.033 A 
HETATM   27  C18 UNL     1       5.997  -2.164   0.453  1.00  0.00     0.240 A 
HETATM   28  F1  UNL     1       7.294  -2.018   0.945  1.00  0.00    -0.239 F 
HETATM   29  C19 UNL     1       5.946  -1.414  -0.809  1.00  0.00     0.065 A 
HETATM   30 CL1  UNL     1       6.998  -2.059  -2.035  1.00  0.00    -0.084 Cl
HETATM   31  C20 UNL     1       5.195  -0.350  -1.039  1.00  0.00     0.114 A 
ENDBRANCH  23  24
ENDBRANCH   3  18
TORSDOF 8
