REMARK  7 active torsions:
REMARK  status: ('A' for Active; 'I' for Inactive)
REMARK    1  A    between atoms: C2_2  and  C3_4 
REMARK    2  A    between atoms: C4_5  and  C5_6 
REMARK    3  A    between atoms: C6_7  and  N1_8 
REMARK    4  A    between atoms: N1_8  and  C7_9 
REMARK    5  A    between atoms: C12_16  and  N4_17 
REMARK    6  A    between atoms: N4_17  and  C13_18 
REMARK    7  A    between atoms: C13_18  and  N5_19 
ROOT
HETATM    1  C7  UNL     1       3.202  -1.422  -0.772  1.00  0.00     0.141 A 
HETATM    2  N2  UNL     1       4.266  -2.225  -0.534  1.00  0.00    -0.224 NA
HETATM    3  C8  UNL     1       4.025  -3.474  -0.170  1.00  0.00     0.236 A 
HETATM    4  N3  UNL     1       2.772  -3.904  -0.050  1.00  0.00    -0.241 NA
HETATM    5  C9  UNL     1       1.674  -3.175  -0.269  1.00  0.00     0.072 A 
HETATM    6  C10 UNL     1       0.370  -3.668  -0.111  1.00  0.00     0.035 A 
HETATM    7  C11 UNL     1      -0.689  -2.781  -0.357  1.00  0.00     0.031 A 
HETATM    8  C12 UNL     1      -0.504  -1.485  -0.734  1.00  0.00     0.030 A 
HETATM    9  C20 UNL     1       0.811  -1.059  -0.872  1.00  0.00     0.046 A 
HETATM   10  C21 UNL     1       1.904  -1.869  -0.648  1.00  0.00     0.041 A 
ENDROOT
BRANCH   8  11
HETATM   11  N4  UNL     1      -1.500  -0.517  -0.942  1.00  0.00    -0.374 N 
HETATM   12  H11 UNL     1      -1.279   0.434  -1.368  1.00  0.00     0.161 HD
BRANCH  11  13
HETATM   13  C13 UNL     1      -2.915  -0.598  -0.654  1.00  0.00     0.241 C 
BRANCH  13  14
HETATM   14  N5  UNL     1      -3.045  -0.146   0.719  1.00  0.00    -0.394 N 
HETATM   15  C14 UNL     1      -2.547   1.159   0.913  1.00  0.00     0.137 C 
HETATM   16  C15 UNL     1      -3.488   2.073   0.002  1.00  0.00     0.133 C 
HETATM   17  N6  UNL     1      -4.709   1.858   0.565  1.00  0.00    -0.418 N 
HETATM   18  C16 UNL     1      -5.995   1.781   0.149  1.00  0.00     0.140 C 
HETATM   19  H18 UNL     1      -4.688   2.369   1.535  1.00  0.00     0.153 HD
HETATM   20  C17 UNL     1      -6.233   0.536  -0.749  1.00  0.00     0.186 C 
HETATM   21  O1  UNL     1      -5.459  -0.487  -0.162  1.00  0.00    -0.388 OA
HETATM   22  C18 UNL     1      -5.397  -0.408   1.183  1.00  0.00     0.187 C 
HETATM   23  C19 UNL     1      -3.943  -0.835   1.505  1.00  0.00     0.144 C 
ENDBRANCH  13  14
ENDBRANCH  11  13
ENDBRANCH   8  11
BRANCH   1  24
HETATM   24  N1  UNL     1       3.307  -0.071  -1.124  1.00  0.00    -0.350 N 
HETATM   25  H7  UNL     1       3.417  -0.154  -2.159  1.00  0.00     0.166 HD
BRANCH  24  26
HETATM   26  C6  UNL     1       3.370   1.320  -1.088  1.00  0.00     0.090 C 
HETATM   27  C5  UNL     1       4.510   1.795  -0.654  1.00  0.00     0.017 C 
BRANCH  27  28
HETATM   28  C4  UNL     1       5.881   1.608  -0.140  1.00  0.00     0.002 C 
HETATM   29  C3  UNL     1       7.053   2.170   0.305  1.00  0.00     0.015 C 
BRANCH  29  30
HETATM   30  C2  UNL     1       7.827   1.017   0.578  1.00  0.00    -0.012 A 
HETATM   31  C1  UNL     1       9.019   1.478   1.030  1.00  0.00     0.124 A 
HETATM   32 BR1  UNL     1       9.013  -0.368   1.001  1.00  0.00    -0.128 Br
ENDBRANCH  29  30
ENDBRANCH  27  28
ENDBRANCH  24  26
ENDBRANCH   1  24
TORSDOF 7
