REMARK  6 active torsions:
REMARK  status: ('A' for Active; 'I' for Inactive)
REMARK    1  A    between atoms: C1_2  and  N1_3 
REMARK    2  A    between atoms: C1_2  and  N3_12 
REMARK    3  A    between atoms: N1_3  and  C2_4 
REMARK    4  A    between atoms: C2_4  and  C3_5 
REMARK    5  A    between atoms: C3_5  and  N2_6 
REMARK    6  A    between atoms: N3_12  and  C8_13 
ROOT
HETATM    1  C8  UNL     1      -1.100   0.895  -1.871  1.00  0.00     0.109 C 
HETATM    2  C9  UNL     1      -2.169   1.817  -1.516  1.00  0.00     0.025 C 
HETATM    3  C10 UNL     1      -3.489   2.009  -1.327  1.00  0.00     0.041 C 
HETATM    4  C11 UNL     1      -4.626   1.064  -1.462  1.00  0.00     0.136 C 
HETATM    5  C12 UNL     1      -5.397   1.126  -0.197  1.00  0.00     0.101 C 
HETATM    6  N4  UNL     1      -5.546   2.211   0.485  1.00  0.00    -0.229 NA
HETATM    7  C13 UNL     1      -4.824   3.389   0.114  1.00  0.00     0.235 C 
HETATM    8  N5  UNL     1      -4.036   3.259  -0.933  1.00  0.00    -0.246 NA
HETATM    9  N6  UNL     1      -6.013  -0.035   0.288  1.00  0.00    -0.378 NA
HETATM   10  C14 UNL     1      -5.506  -1.160   0.552  1.00  0.00     0.268 C 
HETATM   11  C15 UNL     1      -4.596  -2.257   0.731  1.00  0.00     0.062 C 
HETATM   12  C16 UNL     1      -3.975  -3.369   0.963  1.00  0.00     0.003 C 
HETATM   13  C17 UNL     1      -2.532  -3.198   0.680  1.00  0.00     0.004 C 
HETATM   14 BR1  UNL     1      -1.560  -4.842   0.974  1.00  0.00    -0.052 Br
HETATM   15  C18 UNL     1      -1.858  -2.135   0.276  1.00  0.00    -0.008 C 
HETATM   16  C19 UNL     1      -1.753  -0.703  -0.130  1.00  0.00     0.031 C 
HETATM   17  C20 UNL     1      -1.374  -0.554  -1.558  1.00  0.00     0.033 C 
ENDROOT
BRANCH   1  18
HETATM   18  N3  UNL     1       0.126   1.190  -1.097  1.00  0.00    -0.359 N 
HETATM   19  H14 UNL     1       0.541   0.543  -0.395  1.00  0.00     0.162 HD
BRANCH  18  20
HETATM   20  C1  UNL     1       1.020   2.294  -1.062  1.00  0.00     0.168 C 
HETATM   21  S1  UNL     1       0.592   3.470  -2.149  1.00  0.00    -0.041 SA
BRANCH  20  22
HETATM   22  N1  UNL     1       2.200   2.535  -0.286  1.00  0.00    -0.366 N 
HETATM   23  H1  UNL     1       2.677   3.445  -0.444  1.00  0.00     0.161 HD
BRANCH  22  24
HETATM   24  C2  UNL     1       2.801   1.651   0.695  1.00  0.00     0.152 C 
BRANCH  24  25
HETATM   25  C3  UNL     1       3.435   0.430   0.121  1.00  0.00     0.292 C 
BRANCH  25  26
HETATM   26  N2  UNL     1       4.021  -0.457   1.119  1.00  0.00     0.094 N 
HETATM   27  C4  UNL     1       4.624  -1.617   0.485  1.00  0.00     0.298 C 
HETATM   28  C5  UNL     1       6.100  -1.724   0.807  1.00  0.00     0.198 C 
HETATM   29  O1  UNL     1       6.247  -1.855   2.182  1.00  0.00    -0.388 OA
HETATM   30  C6  UNL     1       5.582  -0.863   2.858  1.00  0.00     0.198 C 
HETATM   31  C7  UNL     1       5.007   0.192   1.931  1.00  0.00     0.298 C 
ENDBRANCH  25  26
ENDBRANCH  24  25
ENDBRANCH  22  24
ENDBRANCH  20  22
ENDBRANCH  18  20
ENDBRANCH   1  18
TORSDOF 6
