REMARK  5 active torsions:
REMARK  status: ('A' for Active; 'I' for Inactive)
REMARK    1  A    between atoms: C1_2  and  C2_3 
REMARK    2  A    between atoms: C2_3  and  C3_4 
REMARK    3  A    between atoms: C4_6  and  C5_7 
REMARK    4  A    between atoms: C5_7  and  C6_8 
REMARK    5  A    between atoms: C8_11  and  N2_12 
ROOT
HETATM    1  C6  UNL     1       1.300  -0.579  -0.611  1.00  0.00     0.319 C 
HETATM    2  N1  UNL     1       0.164  -0.801  -1.407  1.00  0.00     0.112 N 
HETATM    3  C7  UNL     1      -0.914  -1.679  -0.953  1.00  0.00     0.331 C 
HETATM    4  C8  UNL     1      -1.511  -1.014   0.163  1.00  0.00     0.067 C 
HETATM    5  C14 UNL     1      -1.466  -1.471   1.406  1.00  0.00     0.112 C 
HETATM    6  N3  UNL     1      -0.562  -2.394   1.446  1.00  0.00    -0.245 NA
HETATM    7  C15 UNL     1      -0.934  -3.666   0.939  1.00  0.00     0.181 C 
HETATM    8  N4  UNL     1       0.036  -4.543   0.532  1.00  0.00    -0.251 NA
HETATM    9  C16 UNL     1       1.364  -3.919   0.708  1.00  0.00     0.067 A 
HETATM   10  C17 UNL     1       1.469  -3.320   1.914  1.00  0.00    -0.015 A 
HETATM   11  C18 UNL     1       2.116  -2.547   0.974  1.00  0.00     0.069 A 
HETATM   12  C19 UNL     1       2.093  -3.032  -0.295  1.00  0.00     0.069 A 
HETATM   13  C20 UNL     1       1.940  -3.707  -1.468  1.00  0.00     0.002 A 
HETATM   14  C21 UNL     1       1.267  -4.514  -0.526  1.00  0.00     0.123 A 
HETATM   15  N5  UNL     1       2.307  -1.668  -0.736  1.00  0.00    -0.379 N 
HETATM   16  H9  UNL     1      -0.230   0.141  -1.634  1.00  0.00     0.319 HD
HETATM   17  H27 UNL     1       3.267  -1.536  -1.152  1.00  0.00     0.156 HD
ENDROOT
BRANCH   1  18
HETATM   18  C5  UNL     1       2.077   0.612  -1.196  1.00  0.00     0.085 C 
BRANCH  18  19
HETATM   19  C4  UNL     1       1.333   1.857  -1.239  1.00  0.00    -0.003 C 
HETATM   20  C3  UNL     1       1.741   2.950  -0.568  1.00  0.00     0.010 C 
HETATM   21 CL1  UNL     1       0.856   4.476  -0.612  1.00  0.00    -0.089 Cl
BRANCH  20  22
HETATM   22  C2  UNL     1       2.901   3.186   0.292  1.00  0.00     0.082 C 
BRANCH  22  23
HETATM   23  C1  UNL     1       3.777   4.324  -0.244  1.00  0.00     0.227 C 
HETATM   24  F1  UNL     1       3.105   5.504  -0.329  1.00  0.00    -0.255 F 
ENDBRANCH  22  23
ENDBRANCH  20  22
ENDBRANCH  18  19
ENDBRANCH   1  18
BRANCH   4  25
HETATM   25  N2  UNL     1      -2.214   0.209   0.095  1.00  0.00    -0.381 N 
HETATM   26  C9  UNL     1      -1.686   1.499   0.375  1.00  0.00     0.123 C 
HETATM   27  C10 UNL     1      -2.623   2.341   1.242  1.00  0.00     0.020 C 
HETATM   28  C11 UNL     1      -4.052   2.291   0.747  1.00  0.00     0.003 C 
HETATM   29  C12 UNL     1      -4.480   0.829   0.758  1.00  0.00     0.020 C 
HETATM   30  C13 UNL     1      -3.618   0.123  -0.299  1.00  0.00     0.123 C 
ENDBRANCH   4  25
TORSDOF 5
