REMARK  6 active torsions:
REMARK  status: ('A' for Active; 'I' for Inactive)
REMARK    1  A    between atoms: C1_2  and  N1_3 
REMARK    2  A    between atoms: C1_2  and  N3_12 
REMARK    3  A    between atoms: N1_3  and  C2_4 
REMARK    4  A    between atoms: C2_4  and  C3_5 
REMARK    5  A    between atoms: C3_5  and  N2_6 
REMARK    6  A    between atoms: N3_12  and  C9_13 
ROOT
HETATM    1  S1  UNL     1       1.055  -1.124   1.128  1.00  0.00    -0.041 SA
HETATM    2  C1  UNL     1       0.879   0.491   0.960  1.00  0.00     0.168 C 
ENDROOT
BRANCH   2   3
HETATM    3  N1  UNL     1      -0.435   0.907   1.300  1.00  0.00    -0.366 N 
HETATM    4  H1  UNL     1      -0.601   1.933   1.221  1.00  0.00     0.161 HD
BRANCH   3   5
HETATM    5  C2  UNL     1      -1.550   0.131   1.730  1.00  0.00     0.152 C 
BRANCH   5   6
HETATM    6  C3  UNL     1      -2.197  -0.735   0.720  1.00  0.00     0.292 C 
BRANCH   6   7
HETATM    7  N2  UNL     1      -2.762  -0.052  -0.397  1.00  0.00     0.090 N 
HETATM    8  C4  UNL     1      -3.491  -0.988  -1.226  1.00  0.00     0.272 C 
HETATM    9  C5  UNL     1      -4.705  -1.532  -0.493  1.00  0.00     0.030 C 
HETATM   10  C6  UNL     1      -5.382  -0.485   0.351  1.00  0.00     0.003 C 
HETATM   11  C7  UNL     1      -5.023   0.876  -0.188  1.00  0.00     0.030 C 
HETATM   12  C8  UNL     1      -3.539   1.105  -0.123  1.00  0.00     0.272 C 
ENDBRANCH   6   7
ENDBRANCH   5   6
ENDBRANCH   3   5
ENDBRANCH   2   3
BRANCH   2  13
HETATM   13  N3  UNL     1       1.923   1.390   0.529  1.00  0.00    -0.353 N 
HETATM   14  H16 UNL     1       1.626   2.386   0.474  1.00  0.00     0.163 HD
BRANCH  13  15
HETATM   15  C9  UNL     1       3.170   0.752   0.257  1.00  0.00     0.171 C 
HETATM   16  C10 UNL     1       4.164   1.767  -0.178  1.00  0.00     0.005 C 
HETATM   17  C11 UNL     1       5.448   1.557  -0.434  1.00  0.00    -0.002 C 
HETATM   18  C12 UNL     1       6.412   0.442  -0.432  1.00  0.00    -0.003 C 
HETATM   19  C13 UNL     1       6.241  -0.869  -0.321  1.00  0.00    -0.005 C 
HETATM   20  C14 UNL     1       5.091  -1.832  -0.154  1.00  0.00     0.177 C 
HETATM   21  N4  UNL     1       3.922  -1.339  -0.858  1.00  0.00    -0.276 NA
HETATM   22  C15 UNL     1       3.125  -0.333  -0.745  1.00  0.00     0.124 C 
HETATM   23 CL1  UNL     1       1.842  -0.239  -1.929  1.00  0.00    -0.065 Cl
ENDBRANCH  13  15
ENDBRANCH   2  13
TORSDOF 6
