REMARK  9 active torsions:
REMARK  status: ('A' for Active; 'I' for Inactive)
REMARK    1  A    between atoms: N1_7  and  C6_8 
REMARK    2  A    between atoms: C6_8  and  C7_9 
REMARK    3  A    between atoms: C7_9  and  N2_10 
REMARK    4  A    between atoms: N2_10  and  C8_11 
REMARK    5  A    between atoms: C8_11  and  C9_13 
REMARK    6  A    between atoms: C9_13  and  C10_14 
REMARK    7  A    between atoms: C10_14  and  C11_15 
REMARK    8  A    between atoms: C12_16  and  N3_17 
REMARK    9  A    between atoms: N3_17  and  C13_18 
ROOT
HETATM    1  C11 UNL     1       2.183   2.020   1.080  1.00  0.00     0.031 A 
HETATM    2  C12 UNL     1       2.915   2.944   1.748  1.00  0.00     0.141 A 
HETATM    3  N4  UNL     1       3.486   4.047   1.323  1.00  0.00    -0.224 NA
HETATM    4  C19 UNL     1       3.453   4.498   0.069  1.00  0.00     0.235 A 
HETATM    5  N5  UNL     1       2.756   3.687  -0.738  1.00  0.00    -0.245 NA
HETATM    6  C20 UNL     1       2.168   2.535  -0.264  1.00  0.00     0.050 A 
HETATM    7  C21 UNL     1       1.689   2.159  -1.472  1.00  0.00     0.066 C 
ENDROOT
BRANCH   1   8
HETATM    8  C10 UNL     1       1.494   0.984   0.816  1.00  0.00    -0.003 C 
BRANCH   8   9
HETATM    9  C9  UNL     1       0.720   0.062  -0.004  1.00  0.00     0.097 C 
BRANCH   9  10
HETATM   10  C8  UNL     1      -0.642   0.577  -0.331  1.00  0.00     0.076 C 
HETATM   11  S1  UNL     1      -1.136   1.939   0.434  1.00  0.00    -0.065 SA
BRANCH  10  12
HETATM   12  N2  UNL     1      -1.546  -0.061  -1.250  1.00  0.00    -0.383 N 
HETATM   13  H13 UNL     1      -2.472   0.382  -1.417  1.00  0.00     0.160 HD
BRANCH  12  14
HETATM   14  C7  UNL     1      -1.214  -1.270  -1.928  1.00  0.00     0.140 C 
BRANCH  14  15
HETATM   15  C6  UNL     1      -2.232  -1.785  -2.894  1.00  0.00     0.142 C 
BRANCH  15  16
HETATM   16  N1  UNL     1      -3.521  -2.065  -2.357  1.00  0.00    -0.379 N 
HETATM   17  C2  UNL     1      -4.583  -1.260  -2.841  1.00  0.00     0.021 C 
HETATM   18  C1  UNL     1      -4.516  -0.056  -3.383  1.00  0.00     0.040 C 
HETATM   19  C3  UNL     1      -6.029  -1.687  -2.822  1.00  0.00     0.223 C 
HETATM   20  O1  UNL     1      -6.006  -3.074  -2.543  1.00  0.00    -0.384 OA
HETATM   21  C4  UNL     1      -5.359  -3.291  -1.308  1.00  0.00     0.187 C 
HETATM   22  C5  UNL     1      -3.875  -3.085  -1.402  1.00  0.00     0.149 C 
ENDBRANCH  15  16
ENDBRANCH  14  15
ENDBRANCH  12  14
ENDBRANCH  10  12
ENDBRANCH   9  10
ENDBRANCH   8   9
ENDBRANCH   1   8
BRANCH   2  23
HETATM   23  N3  UNL     1       2.846   2.295   3.048  1.00  0.00    -0.340 N 
HETATM   24  H17 UNL     1       2.089   2.601   3.694  1.00  0.00     0.167 HD
BRANCH  23  25
HETATM   25  C13 UNL     1       3.788   1.268   3.431  1.00  0.00     0.035 A 
HETATM   26  C14 UNL     1       3.777   0.683   4.696  1.00  0.00     0.029 A 
HETATM   27  C15 UNL     1       4.705  -0.300   4.978  1.00  0.00     0.004 A 
HETATM   28  C16 UNL     1       5.599  -0.655   3.993  1.00  0.00     0.019 A 
HETATM   29  C17 UNL     1       5.637  -0.098   2.737  1.00  0.00     0.013 A 
HETATM   30 BR1  UNL     1       6.883  -0.610   1.386  1.00  0.00    -0.051 Br
HETATM   31  C18 UNL     1       4.709   0.889   2.446  1.00  0.00     0.048 A 
ENDBRANCH  23  25
ENDBRANCH   2  23
TORSDOF 9
