REMARK  7 active torsions:
REMARK  status: ('A' for Active; 'I' for Inactive)
REMARK    1  A    between atoms: C1_2  and  N1_3 
REMARK    2  A    between atoms: C1_2  and  N3_12 
REMARK    3  A    between atoms: N1_3  and  C2_4 
REMARK    4  A    between atoms: C2_4  and  C3_5 
REMARK    5  A    between atoms: C3_5  and  N2_6 
REMARK    6  A    between atoms: N3_12  and  C8_13 
REMARK    7  A    between atoms: N4_19  and  C14_20 
ROOT
HETATM    1  C8  UNL     1      -0.697  -1.165   1.504  1.00  0.00     0.036 A 
HETATM    2  C9  UNL     1      -0.765  -1.704   2.788  1.00  0.00     0.032 A 
HETATM    3  C10 UNL     1      -1.925  -1.738   3.537  1.00  0.00     0.036 A 
HETATM    4  C11 UNL     1      -3.077  -1.214   2.991  1.00  0.00     0.087 A 
HETATM    5  C12 UNL     1      -3.009  -0.684   1.724  1.00  0.00     0.087 A 
HETATM    6  C13 UNL     1      -1.857  -0.644   0.969  1.00  0.00     0.063 A 
HETATM    7  N4  UNL     1      -4.125  -0.109   1.064  1.00  0.00    -0.253 N 
HETATM    8  N5  UNL     1      -5.350  -0.100   1.785  1.00  0.00    -0.287 N 
HETATM    9  C20 UNL     1      -5.392  -0.662   3.114  1.00  0.00     0.224 A 
HETATM   10  N6  UNL     1      -4.340  -1.172   3.657  1.00  0.00    -0.240 NA
HETATM   11  H22 UNL     1      -6.301   0.266   1.514  1.00  0.00     0.188 HD
ENDROOT
BRANCH   1  12
HETATM   12  N3  UNL     1       0.556  -1.177   0.817  1.00  0.00    -0.333 N 
HETATM   13  H14 UNL     1       0.870  -0.247   1.209  1.00  0.00     0.168 HD
BRANCH  12  14
HETATM   14  C1  UNL     1       1.037  -2.191  -0.055  1.00  0.00     0.172 C 
HETATM   15  S1  UNL     1      -0.024  -3.434  -0.228  1.00  0.00    -0.041 SA
BRANCH  14  16
HETATM   16  N1  UNL     1       2.274  -2.222  -0.744  1.00  0.00    -0.365 N 
HETATM   17  H1  UNL     1       2.480  -3.041  -1.349  1.00  0.00     0.161 HD
BRANCH  16  18
HETATM   18  C2  UNL     1       3.281  -1.185  -0.669  1.00  0.00     0.152 C 
BRANCH  18  19
HETATM   19  C3  UNL     1       2.784   0.068  -1.342  1.00  0.00     0.292 C 
BRANCH  19  20
HETATM   20  N2  UNL     1       3.720   1.163  -1.317  1.00  0.00     0.094 N 
HETATM   21  C4  UNL     1       4.852   0.893  -2.126  1.00  0.00     0.298 C 
HETATM   22  C5  UNL     1       6.126   0.606  -1.404  1.00  0.00     0.198 C 
HETATM   23  O1  UNL     1       5.951   0.352  -0.051  1.00  0.00    -0.388 OA
HETATM   24  C6  UNL     1       5.381   1.510   0.480  1.00  0.00     0.198 C 
HETATM   25  C7  UNL     1       3.954   1.561   0.028  1.00  0.00     0.298 C 
ENDBRANCH  19  20
ENDBRANCH  18  19
ENDBRANCH  16  18
ENDBRANCH  14  16
ENDBRANCH  12  14
ENDBRANCH   1  12
BRANCH   7  26
HETATM   26  C14 UNL     1      -4.289   0.427  -0.220  1.00  0.00     0.058 A 
HETATM   27  C15 UNL     1      -3.873  -0.137  -1.409  1.00  0.00     0.031 A 
HETATM   28  C16 UNL     1      -4.035   0.428  -2.658  1.00  0.00     0.004 A 
HETATM   29  C17 UNL     1      -4.666   1.659  -2.744  1.00  0.00     0.019 A 
HETATM   30  C18 UNL     1      -5.092   2.247  -1.589  1.00  0.00     0.013 A 
HETATM   31 BR1  UNL     1      -5.950   3.946  -1.839  1.00  0.00    -0.051 Br
HETATM   32  C19 UNL     1      -4.917   1.662  -0.352  1.00  0.00     0.050 A 
ENDBRANCH   7  26
TORSDOF 7
