REMARK  8 active torsions:
REMARK  status: ('A' for Active; 'I' for Inactive)
REMARK    1  A    between atoms: C3_4  and  C4_5 
REMARK    2  A    between atoms: C4_5  and  C5_6 
REMARK    3  A    between atoms: C6_7  and  N1_8 
REMARK    4  A    between atoms: N1_8  and  C7_9 
REMARK    5  A    between atoms: C7_9  and  N2_11 
REMARK    6  A    between atoms: N2_11  and  C8_12 
REMARK    7  A    between atoms: C8_12  and  C9_13 
REMARK    8  A    between atoms: C9_13  and  N3_14 
ROOT
HETATM    1  C4  UNL     1      -3.159  -1.140  -0.017  1.00  0.00    -0.005 C 
ENDROOT
BRANCH   1   2
HETATM    2  C3  UNL     1      -4.400  -0.809  -0.294  1.00  0.00     0.071 A 
HETATM    3  C2  UNL     1      -5.419  -1.350   0.583  1.00  0.00     0.001 A 
HETATM    4  C1  UNL     1      -5.785  -2.009   1.614  1.00  0.00     0.449 C 
HETATM    5  C18 UNL     1      -5.857  -0.617  -0.556  1.00  0.00     0.185 A 
HETATM    6  F1  UNL     1      -6.979  -2.360   2.210  1.00  0.00    -0.452 F 
HETATM    7  N5  UNL     1      -7.154  -0.273  -0.092  1.00  0.00    -0.250 NA
HETATM    8  N6  UNL     1      -6.435   0.005  -1.508  1.00  0.00    -0.084 NA
HETATM    9  N4  UNL     1      -5.030  -0.081  -1.392  1.00  0.00     0.000 N 
HETATM   10  C17 UNL     1      -7.033   0.806   0.708  1.00  0.00     0.107 C 
HETATM   11  C16 UNL     1      -6.216   1.701   0.125  1.00  0.00     0.086 C 
HETATM   12  C15 UNL     1      -4.794   1.607  -0.321  1.00  0.00     0.058 C 
HETATM   13 CL2  UNL     1      -7.326   3.046  -0.032  1.00  0.00    -0.080 Cl
HETATM   14  C14 UNL     1      -3.919   0.854  -1.111  1.00  0.00     0.027 C 
HETATM   15 CL1  UNL     1      -4.293   3.083   0.533  1.00  0.00    -0.082 Cl
HETATM   16  N7  UNL     1      -5.659   0.639  -2.478  1.00  0.00    -0.232 N 
HETATM   17  H20 UNL     1      -5.083   1.103  -3.187  1.00  0.00     0.205 HD
ENDBRANCH   1   2
BRANCH   1  18
HETATM   18  C5  UNL     1      -1.819  -0.893  -0.556  1.00  0.00     0.014 C 
HETATM   19  C6  UNL     1      -0.813  -1.464   0.076  1.00  0.00     0.090 C 
BRANCH  19  20
HETATM   20  N1  UNL     1       0.558  -1.420  -0.199  1.00  0.00    -0.343 N 
HETATM   21  H5  UNL     1       0.754  -0.916  -1.089  1.00  0.00     0.167 HD
BRANCH  20  22
HETATM   22  C7  UNL     1       1.574  -1.983   0.592  1.00  0.00     0.171 C 
HETATM   23  S1  UNL     1       1.031  -2.709   1.945  1.00  0.00    -0.041 SA
BRANCH  22  24
HETATM   24  N2  UNL     1       2.930  -1.934   0.255  1.00  0.00    -0.365 N 
HETATM   25  H6  UNL     1       3.544  -2.420   0.980  1.00  0.00     0.161 HD
BRANCH  24  26
HETATM   26  C8  UNL     1       3.720  -1.412  -0.801  1.00  0.00     0.152 C 
BRANCH  26  27
HETATM   27  C9  UNL     1       3.815   0.090  -0.878  1.00  0.00     0.292 C 
BRANCH  27  28
HETATM   28  N3  UNL     1       4.383   0.636   0.318  1.00  0.00     0.094 N 
HETATM   29  C10 UNL     1       4.563   2.063   0.178  1.00  0.00     0.298 C 
HETATM   30  C11 UNL     1       5.977   2.337  -0.353  1.00  0.00     0.198 C 
HETATM   31  O1  UNL     1       6.918   2.022   0.624  1.00  0.00    -0.388 OA
HETATM   32  C12 UNL     1       6.512   0.939   1.413  1.00  0.00     0.198 C 
HETATM   33  C13 UNL     1       5.627   0.005   0.626  1.00  0.00     0.298 C 
ENDBRANCH  27  28
ENDBRANCH  26  27
ENDBRANCH  24  26
ENDBRANCH  22  24
ENDBRANCH  20  22
ENDBRANCH  19  20
ENDBRANCH   1  18
TORSDOF 8
