REMARK  1 active torsions:
REMARK  status: ('A' for Active; 'I' for Inactive)
REMARK    1  A    between atoms: N1_1  and  C1_2 
ROOT
HETATM    1  C1  UNL     1      -3.178  -0.289   0.685  1.00  0.00     0.017 C 
HETATM    2  C2  UNL     1      -1.883   0.061   0.518  1.00  0.00    -0.002 C 
HETATM    3  C3  UNL     1      -1.499   1.432   0.195  1.00  0.00     0.071 C 
HETATM    4  N2  UNL     1      -2.770   1.838   0.137  1.00  0.00    -0.288 NA
HETATM    5  C4  UNL     1      -3.574   1.268  -1.033  1.00  0.00     0.160 C 
HETATM    6  C5  UNL     1      -3.634  -0.254  -0.766  1.00  0.00     0.055 C 
HETATM    7  C6  UNL     1      -2.677  -1.094  -1.499  1.00  0.00     0.013 C 
HETATM    8  C7  UNL     1      -1.834  -2.047  -0.632  1.00  0.00     0.010 C 
HETATM    9  C8  UNL     1      -1.058  -1.215   0.384  1.00  0.00     0.025 C 
HETATM   10  C9  UNL     1      -0.622  -1.837   1.627  1.00  0.00     0.036 C 
HETATM   11  C10 UNL     1       0.931  -2.049   1.580  1.00  0.00     0.168 C 
HETATM   12  O1  UNL     1       1.154  -2.972   0.603  1.00  0.00    -0.389 OA
HETATM   13  C11 UNL     1       2.450  -3.222   0.252  1.00  0.00     0.197 C 
HETATM   14  C12 UNL     1       3.139  -2.143  -0.520  1.00  0.00     0.295 C 
HETATM   15  N3  UNL     1       3.170  -0.892   0.164  1.00  0.00     0.086 N 
HETATM   16  C13 UNL     1       3.760   0.179  -0.592  1.00  0.00     0.280 C 
HETATM   17  C14 UNL     1       3.020   0.591  -1.820  1.00  0.00     0.109 C 
HETATM   18  S1  UNL     1       1.314   0.993  -1.630  1.00  0.00    -0.126 SA
HETATM   19  C15 UNL     1       0.863   2.324  -0.599  1.00  0.00     0.030 A 
HETATM   20  C16 UNL     1       1.640   3.430  -0.373  1.00  0.00     0.028 A 
HETATM   21 BR1  UNL     1       3.301   3.630  -1.283  1.00  0.00    -0.050 Br
HETATM   22  C17 UNL     1       1.328   4.477   0.458  1.00  0.00     0.020 A 
HETATM   23  C18 UNL     1       0.143   4.488   1.159  1.00  0.00     0.002 A 
HETATM   24  C19 UNL     1      -0.667   3.361   0.936  1.00  0.00     0.015 A 
HETATM   25  C20 UNL     1      -0.327   2.288   0.075  1.00  0.00     0.011 A 
HETATM   26  H19 UNL     1       3.621  -0.973   1.115  1.00  0.00     0.315 HD
ENDROOT
BRANCH   1  27
HETATM   27  N1  UNL     1      -4.239  -0.600   1.582  1.00  0.00    -0.401 N 
HETATM   28  H1  UNL     1      -4.902  -1.334   1.298  1.00  0.00     0.156 HD
HETATM   29  H2  UNL     1      -4.459  -0.201   2.493  1.00  0.00     0.156 HD
ENDBRANCH   1  27
TORSDOF 1
