REMARK  8 active torsions:
REMARK  status: ('A' for Active; 'I' for Inactive)
REMARK    1  A    between atoms: C4_5  and  N1_6 
REMARK    2  A    between atoms: N1_6  and  C5_7 
REMARK    3  A    between atoms: C7_11  and  C8_12 
REMARK    4  A    between atoms: C8_12  and  N4_14 
REMARK    5  A    between atoms: N4_14  and  C9_15 
REMARK    6  A    between atoms: C9_15  and  C10_16 
REMARK    7  A    between atoms: C10_16  and  C11_17 
REMARK    8  A    between atoms: C11_17  and  N5_18 
ROOT
HETATM    1  C5  UNL     1       3.917  -0.619  -0.552  1.00  0.00     0.129 A 
HETATM    2  N2  UNL     1       3.841   0.691  -0.548  1.00  0.00    -0.225 NA
HETATM    3  C6  UNL     1       2.697   1.494  -0.309  1.00  0.00     0.230 A 
HETATM    4  N3  UNL     1       1.526   1.096  -0.048  1.00  0.00    -0.267 NA
HETATM    5  C7  UNL     1       0.792  -0.112   0.129  1.00  0.00     0.193 A 
HETATM    6  C16 UNL     1       1.592  -1.333  -0.042  1.00  0.00     0.011 A 
HETATM    7  C17 UNL     1       2.874  -1.623  -0.321  1.00  0.00     0.049 A 
ENDROOT
BRANCH   5   8
HETATM    8  C8  UNL     1      -0.322  -0.111  -0.893  1.00  0.00     0.102 C 
HETATM    9  S1  UNL     1      -0.521  -1.434  -1.859  1.00  0.00    -0.063 SA
BRANCH   8  10
HETATM   10  N4  UNL     1      -1.211   0.979  -1.072  1.00  0.00    -0.382 N 
HETATM   11  H6  UNL     1      -1.007   1.793  -0.419  1.00  0.00     0.160 HD
BRANCH  10  12
HETATM   12  C9  UNL     1      -2.303   1.103  -1.992  1.00  0.00     0.122 C 
BRANCH  12  13
HETATM   13  C10 UNL     1      -3.442   0.146  -1.586  1.00  0.00     0.039 C 
BRANCH  13  14
HETATM   14  C11 UNL     1      -3.843   0.558  -0.212  1.00  0.00     0.118 C 
BRANCH  14  15
HETATM   15  N5  UNL     1      -4.893  -0.149   0.413  1.00  0.00    -0.408 N 
HETATM   16  C12 UNL     1      -6.194   0.039  -0.157  1.00  0.00     0.143 C 
HETATM   17  C13 UNL     1      -7.225  -0.907   0.350  1.00  0.00     0.187 C 
HETATM   18  O1  UNL     1      -6.967  -1.354   1.643  1.00  0.00    -0.388 OA
HETATM   19  C14 UNL     1      -6.237  -0.438   2.378  1.00  0.00     0.187 C 
HETATM   20  C15 UNL     1      -4.855  -0.179   1.842  1.00  0.00     0.143 C 
ENDBRANCH  14  15
ENDBRANCH  13  14
ENDBRANCH  12  13
ENDBRANCH  10  12
ENDBRANCH   8  10
ENDBRANCH   5   8
BRANCH   1  21
HETATM   21  N1  UNL     1       5.253  -1.073  -0.835  1.00  0.00    -0.341 N 
HETATM   22  H3  UNL     1       5.303  -1.995  -1.364  1.00  0.00     0.167 HD
BRANCH  21  23
HETATM   23  C4  UNL     1       6.304  -0.208  -0.355  1.00  0.00     0.035 A 
HETATM   24  C3  UNL     1       6.846   0.866  -1.006  1.00  0.00     0.032 A 
HETATM   25  C2  UNL     1       7.847   1.599  -0.414  1.00  0.00     0.046 A 
HETATM   26  C1  UNL     1       8.351   1.302   0.839  1.00  0.00     0.138 A 
HETATM   27  F1  UNL     1       9.347   2.066   1.378  1.00  0.00    -0.204 F 
HETATM   28  C19 UNL     1       7.797   0.214   1.491  1.00  0.00     0.074 A 
HETATM   29  C18 UNL     1       6.777  -0.542   0.900  1.00  0.00     0.056 A 
HETATM   30 CL1  UNL     1       8.399  -0.221   3.094  1.00  0.00    -0.081 Cl
ENDBRANCH  21  23
ENDBRANCH   1  21
TORSDOF 8
