REMARK  3 active torsions:
REMARK  status: ('A' for Active; 'I' for Inactive)
REMARK    1  A    between atoms: N1_7  and  C5_8 
REMARK    2  A    between atoms: C5_8  and  C6_9 
REMARK    3  A    between atoms: N2_11  and  C8_12 
ROOT
HETATM    1  C6  UNL     1       0.589  -0.996  -0.140  1.00  0.00    -0.025 A 
HETATM    2  C7  UNL     1      -0.630  -0.578  -0.464  1.00  0.00     0.100 A 
HETATM    3  N2  UNL     1      -1.740  -0.531   0.420  1.00  0.00    -0.353 N 
HETATM    4  C14 UNL     1      -1.623  -0.982   1.792  1.00  0.00     0.156 A 
HETATM    5  C15 UNL     1      -0.228  -1.416   2.020  1.00  0.00    -0.006 A 
HETATM    6  C16 UNL     1       0.835  -1.466   1.236  1.00  0.00     0.008 A 
ENDROOT
BRANCH   1   7
HETATM    7  C5  UNL     1       1.721  -1.035  -1.067  1.00  0.00     0.163 C 
BRANCH   7   8
HETATM    8  N1  UNL     1       2.854  -0.246  -0.707  1.00  0.00    -0.367 N 
HETATM    9  C1  UNL     1       4.178  -0.657  -0.297  1.00  0.00     0.099 C 
HETATM   10  S1  UNL     1       4.462  -2.253  -0.625  1.00  0.00    -0.063 SA
HETATM   11  C2  UNL     1       4.988   0.449   0.331  1.00  0.00     0.237 C 
HETATM   12  O1  UNL     1       5.002   1.587  -0.432  1.00  0.00    -0.383 OA
HETATM   13  C3  UNL     1       3.954   1.758  -1.298  1.00  0.00     0.188 C 
HETATM   14  C4  UNL     1       2.637   1.211  -0.763  1.00  0.00     0.150 C 
ENDBRANCH   7   8
ENDBRANCH   1   7
BRANCH   3  15
HETATM   15  C8  UNL     1      -3.001  -0.036  -0.011  1.00  0.00     0.035 A 
HETATM   16  C9  UNL     1      -3.212   0.529  -1.249  1.00  0.00     0.029 A 
HETATM   17  C10 UNL     1      -4.418   1.024  -1.723  1.00  0.00     0.004 A 
HETATM   18  C11 UNL     1      -5.495   0.928  -0.845  1.00  0.00     0.019 A 
HETATM   19  C12 UNL     1      -5.365   0.375   0.412  1.00  0.00     0.013 A 
HETATM   20 BR1  UNL     1      -6.886   0.279   1.556  1.00  0.00    -0.051 Br
HETATM   21  C13 UNL     1      -4.111  -0.102   0.814  1.00  0.00     0.048 A 
ENDBRANCH   3  15
TORSDOF 3
