REMARK  8 active torsions:
REMARK  status: ('A' for Active; 'I' for Inactive)
REMARK    1  A    between atoms: N1_1  and  C1_2 
REMARK    2  A    between atoms: N2_7  and  C5_8 
REMARK    3  A    between atoms: C5_8  and  C6_9 
REMARK    4  A    between atoms: C6_9  and  N3_10 
REMARK    5  A    between atoms: N3_10  and  C7_11 
REMARK    6  A    between atoms: C7_11  and  N4_13 
REMARK    7  A    between atoms: N4_13  and  C8_14 
REMARK    8  A    between atoms: N5_21  and  C15_22 
ROOT
HETATM    1  C8  UNL     1       0.892  -0.859  -0.041  1.00  0.00     0.034 A 
HETATM    2  C9  UNL     1       0.743   0.018  -1.089  1.00  0.00     0.030 A 
HETATM    3  C10 UNL     1       1.733   0.497  -1.916  1.00  0.00     0.011 A 
HETATM    4  C11 UNL     1       2.982   0.005  -1.606  1.00  0.00    -0.035 A 
HETATM    5  C12 UNL     1       3.241  -0.875  -0.583  1.00  0.00    -0.029 A 
HETATM    6  C13 UNL     1       2.177  -1.286   0.179  1.00  0.00     0.039 A 
HETATM    7  C14 UNL     1       4.625  -1.335  -0.339  1.00  0.00     0.182 C 
HETATM    8  N5  UNL     1       5.559  -0.249  -0.606  1.00  0.00    -0.308 N 
HETATM    9  N6  UNL     1       5.204   0.767  -1.492  1.00  0.00    -0.233 NA
HETATM   10  C21 UNL     1       4.159   0.426  -2.408  1.00  0.00     0.149 C 
HETATM   11  H24 UNL     1       4.883   1.582  -0.934  1.00  0.00     0.147 HD
ENDROOT
BRANCH   1  12
HETATM   12  N4  UNL     1      -0.120  -1.341   0.807  1.00  0.00    -0.333 N 
HETATM   13  H15 UNL     1       0.187  -2.048   1.541  1.00  0.00     0.168 HD
BRANCH  12  14
HETATM   14  C7  UNL     1      -1.484  -1.226   1.057  1.00  0.00     0.172 C 
HETATM   15  S1  UNL     1      -2.302  -2.029   2.219  1.00  0.00    -0.041 SA
BRANCH  14  16
HETATM   16  N3  UNL     1      -2.590  -0.522   0.552  1.00  0.00    -0.365 N 
HETATM   17  H14 UNL     1      -2.165   0.034  -0.209  1.00  0.00     0.161 HD
BRANCH  16  18
HETATM   18  C6  UNL     1      -3.999  -0.293   0.683  1.00  0.00     0.141 C 
BRANCH  18  19
HETATM   19  C5  UNL     1      -4.501   0.721  -0.339  1.00  0.00     0.138 C 
BRANCH  19  20
HETATM   20  N2  UNL     1      -5.896   0.952  -0.212  1.00  0.00    -0.379 N 
HETATM   21  C1  UNL     1      -6.749  -0.120  -0.619  1.00  0.00     0.338 C 
HETATM   22  C2  UNL     1      -7.680  -0.510   0.536  1.00  0.00     0.224 C 
HETATM   23  O1  UNL     1      -8.438   0.557   0.952  1.00  0.00    -0.386 OA
HETATM   24  C3  UNL     1      -7.771   1.751   1.083  1.00  0.00     0.187 C 
HETATM   25  C4  UNL     1      -6.266   1.624   0.991  1.00  0.00     0.145 C 
BRANCH  21  26
HETATM   26  N1  UNL     1      -7.660   0.291  -1.698  1.00  0.00     0.103 N 
HETATM   27  H1  UNL     1      -8.554   0.672  -1.301  1.00  0.00     0.315 HD
HETATM   28  H2  UNL     1      -7.217   1.032  -2.290  1.00  0.00     0.315 HD
ENDBRANCH  21  26
ENDBRANCH  19  20
ENDBRANCH  18  19
ENDBRANCH  16  18
ENDBRANCH  14  16
ENDBRANCH  12  14
ENDBRANCH   1  12
BRANCH   8  29
HETATM   29  C15 UNL     1       6.860  -0.108  -0.028  1.00  0.00     0.047 A 
HETATM   30  C16 UNL     1       7.742   0.937  -0.299  1.00  0.00     0.034 A 
HETATM   31  C17 UNL     1       8.972   0.961   0.324  1.00  0.00     0.046 A 
HETATM   32  C18 UNL     1       9.380  -0.010   1.215  1.00  0.00     0.138 A 
HETATM   33  F1  UNL     1      10.609   0.149   1.743  1.00  0.00    -0.204 F 
HETATM   34  C19 UNL     1       8.524  -1.065   1.507  1.00  0.00     0.074 A 
HETATM   35 CL1  UNL     1       9.052  -2.272   2.625  1.00  0.00    -0.081 Cl
HETATM   36  C20 UNL     1       7.297  -1.063   0.867  1.00  0.00     0.057 A 
ENDBRANCH   8  29
TORSDOF 8
