REMARK  3 active torsions:
REMARK  status: ('A' for Active; 'I' for Inactive)
REMARK    1  A    between atoms: O1_1  and  C1_2 
REMARK    2  A    between atoms: C1_2  and  C2_3 
REMARK    3  A    between atoms: C2_3  and  N1_4 
ROOT
HETATM    1  N1  UNL     1       2.236  -0.235   0.048  1.00  0.00    -0.410 N 
HETATM    2  C3  UNL     1       2.118   0.220  -1.295  1.00  0.00     0.117 C 
HETATM    3  C4  UNL     1       0.847  -0.092  -2.031  1.00  0.00     0.021 C 
HETATM    4  C5  UNL     1      -0.391   0.551  -1.637  1.00  0.00     0.029 C 
HETATM    5  C6  UNL     1      -1.000   0.512  -0.308  1.00  0.00     0.108 C 
HETATM    6  C7  UNL     1      -1.181  -0.768   0.429  1.00  0.00     0.122 C 
HETATM    7  S1  UNL     1      -0.036  -0.855   1.878  1.00  0.00    -0.154 SA
HETATM    8  C8  UNL     1       1.295  -2.053   1.473  1.00  0.00     0.094 C 
HETATM    9  C9  UNL     1       1.833  -1.568   0.140  1.00  0.00     0.127 C 
HETATM   10  C10 UNL     1      -2.567  -0.836   1.041  1.00  0.00     0.047 C 
HETATM   11  C11 UNL     1      -3.190  -0.258   2.108  1.00  0.00     0.029 C 
HETATM   12  C12 UNL     1      -2.954   1.265   2.137  1.00  0.00     0.019 C 
HETATM   13  C13 UNL     1      -2.769   2.051   0.993  1.00  0.00     0.091 C 
HETATM   14  N2  UNL     1      -2.216   1.400  -0.254  1.00  0.00    -0.358 N 
HETATM   15  C14 UNL     1      -3.105   1.910  -1.290  1.00  0.00     0.124 C 
HETATM   16  C15 UNL     1      -3.766   1.144  -2.097  1.00  0.00     0.099 C 
HETATM   17  N3  UNL     1      -3.916  -0.097  -1.987  1.00  0.00    -0.254 NA
HETATM   18  C16 UNL     1      -3.579  -0.738  -0.847  1.00  0.00     0.276 C 
HETATM   19  N4  UNL     1      -3.451  -1.669   0.165  1.00  0.00    -0.261 NA
ENDROOT
BRANCH   1  20
HETATM   20  C2  UNL     1       3.376   0.259   0.677  1.00  0.00     0.143 C 
BRANCH  20  21
HETATM   21  C1  UNL     1       3.755  -0.169   2.033  1.00  0.00     0.183 C 
BRANCH  21  22
HETATM   22  O1  UNL     1       4.945   0.549   2.354  1.00  0.00    -0.399 OA
HETATM   23  H1  UNL     1       5.298   1.051   1.604  1.00  0.00     0.209 HD
ENDBRANCH  21  22
ENDBRANCH  20  21
ENDBRANCH   1  20
TORSDOF 3
