REMARK  1 active torsions:
REMARK  status: ('A' for Active; 'I' for Inactive)
REMARK    1  A    between atoms: N1_1  and  C1_2 
ROOT
HETATM    1  C1  UNL     1       1.514  -1.397   2.753  1.00  0.00     0.342 A 
HETATM    2  O1  UNL     1       0.902  -0.709   1.954  1.00  0.00     0.000 OA
HETATM    3  N2  UNL     1       0.184  -1.380   2.158  1.00  0.00     0.139 N 
HETATM    4  C2  UNL     1       0.094  -0.213   1.236  1.00  0.00     0.227 A 
HETATM    5  C3  UNL     1      -1.169  -0.179   0.658  1.00  0.00     0.007 A 
HETATM    6  C4  UNL     1      -1.805  -1.373   1.292  1.00  0.00     0.189 A 
HETATM    7  N3  UNL     1      -3.159  -1.552   0.940  1.00  0.00    -0.278 NA
HETATM    8  C5  UNL     1      -3.913  -0.953   0.186  1.00  0.00     0.227 A 
HETATM    9  N4  UNL     1      -3.169   0.054  -0.336  1.00  0.00    -0.245 NA
HETATM   10  C6  UNL     1      -2.029   0.542  -0.283  1.00  0.00     0.060 A 
HETATM   11  C7  UNL     1      -1.966   1.665  -1.257  1.00  0.00     0.132 C 
HETATM   12 BR1  UNL     1      -1.201   3.296  -0.618  1.00  0.00    -0.080 Br
HETATM   13  C8  UNL     1      -1.231   1.168  -2.483  1.00  0.00    -0.009 C 
HETATM   14  C9  UNL     1      -0.032   0.852  -3.034  1.00  0.00    -0.023 C 
HETATM   15  C10 UNL     1       1.246   0.478  -3.732  1.00  0.00     0.043 C 
HETATM   16  C11 UNL     1       2.155   0.770  -2.598  1.00  0.00    -0.019 C 
HETATM   17  C12 UNL     1       1.669   1.248  -1.300  1.00  0.00     0.001 C 
HETATM   18  C13 UNL     1       2.136   0.413  -0.092  1.00  0.00     0.003 C 
HETATM   19  C14 UNL     1       1.187   0.812   1.041  1.00  0.00     0.050 C 
HETATM   20  H3  UNL     1      -0.274  -2.287   2.652  1.00  0.00     0.321 HD
ENDROOT
BRANCH   1  21
HETATM   21  N1  UNL     1       2.009  -2.332   3.692  1.00  0.00    -0.390 N 
HETATM   22  H1  UNL     1       1.909  -3.239   3.141  1.00  0.00     0.152 HD
HETATM   23  H2  UNL     1       2.279  -1.793   4.555  1.00  0.00     0.152 HD
ENDBRANCH   1  21
TORSDOF 1
