REMARK  6 active torsions:
REMARK  status: ('A' for Active; 'I' for Inactive)
REMARK    1  A    between atoms: O1_2  and  C2_3 
REMARK    2  A    between atoms: C6_7  and  N1_8 
REMARK    3  A    between atoms: N1_8  and  C7_9 
REMARK    4  A    between atoms: C8_10  and  N2_11 
REMARK    5  A    between atoms: C8_10  and  N3_12 
REMARK    6  A    between atoms: N3_12  and  C9_13 
ROOT
HETATM    1  C7  UNL     1       0.031   0.443   0.339  1.00  0.00     0.132 C 
HETATM    2  C8  UNL     1       1.211   0.092   0.845  1.00  0.00     0.114 C 
ENDROOT
BRANCH   1   3
HETATM    3  N1  UNL     1      -0.740  -0.563  -0.350  1.00  0.00    -0.385 N 
HETATM    4  H7  UNL     1      -0.374  -0.288  -1.310  1.00  0.00     0.159 HD
BRANCH   3   5
HETATM    5  C6  UNL     1      -1.688  -1.639  -0.171  1.00  0.00     0.142 C 
HETATM    6  C5  UNL     1      -1.990  -2.206  -1.537  1.00  0.00     0.032 C 
HETATM    7  C4  UNL     1      -3.307  -2.039  -1.665  1.00  0.00     0.055 C 
HETATM    8  C3  UNL     1      -4.462  -1.064  -1.516  1.00  0.00     0.066 C 
HETATM    9  N4  UNL     1      -4.009  -3.354  -1.196  1.00  0.00    -0.254 NA
HETATM   10  C2  UNL     1      -3.462  -0.248  -1.026  1.00  0.00     0.079 C 
HETATM   11  C15 UNL     1      -3.000  -0.957   0.308  1.00  0.00     0.207 C 
HETATM   12  O2  UNL     1      -3.855  -1.964   0.805  1.00  0.00    -0.346 OA
HETATM   13  C16 UNL     1      -4.037  -3.311   0.251  1.00  0.00     0.295 C 
BRANCH  10  14
HETATM   14  O1  UNL     1      -2.670   0.959  -1.200  1.00  0.00    -0.357 OA
HETATM   15  C1  UNL     1      -3.291   2.064  -0.534  1.00  0.00     0.209 C 
ENDBRANCH  10  14
ENDBRANCH   3   5
ENDBRANCH   1   3
BRANCH   2  16
HETATM   16  N2  UNL     1       1.501  -1.289   0.595  1.00  0.00    -0.384 N 
HETATM   17  H9  UNL     1       1.778  -1.632   1.547  1.00  0.00     0.157 HD
HETATM   18  H10 UNL     1       1.408  -1.701  -0.369  1.00  0.00     0.157 HD
ENDBRANCH   2  16
BRANCH   2  19
HETATM   19  N3  UNL     1       1.981   1.071   1.525  1.00  0.00    -0.342 N 
HETATM   20  H11 UNL     1       1.665   1.617   2.360  1.00  0.00     0.167 HD
BRANCH  19  21
HETATM   21  C9  UNL     1       3.313   1.365   1.056  1.00  0.00     0.034 A 
HETATM   22  C10 UNL     1       4.150   2.308   1.654  1.00  0.00     0.029 A 
HETATM   23  C11 UNL     1       5.409   2.509   1.121  1.00  0.00     0.004 A 
HETATM   24  C12 UNL     1       5.879   1.833   0.037  1.00  0.00     0.019 A 
HETATM   25  C13 UNL     1       5.078   0.892  -0.579  1.00  0.00     0.013 A 
HETATM   26 BR1  UNL     1       5.653  -0.100  -2.098  1.00  0.00    -0.051 Br
HETATM   27  C14 UNL     1       3.822   0.694  -0.045  1.00  0.00     0.048 A 
ENDBRANCH  19  21
ENDBRANCH   2  19
TORSDOF 6
