REMARK  1 active torsions:
REMARK  status: ('A' for Active; 'I' for Inactive)
REMARK    1  A    between atoms: C5_6  and  N3_9 
REMARK       I    between atoms: N4_14  and  C11_15 
REMARK       I    between atoms: C11_15  and  N5_16 
ROOT
HETATM    1  C1  UNL     1      -0.810  -3.297   2.425  1.00  0.00     0.043 C 
HETATM    2  C2  UNL     1      -1.506  -2.047   2.058  1.00  0.00    -0.078 C 
HETATM    3  C3  UNL     1      -2.726  -1.556   1.884  1.00  0.00     0.001 C 
HETATM    4  C4  UNL     1      -2.310  -0.294   1.588  1.00  0.00     0.113 C 
HETATM    5  N1  UNL     1      -2.423   0.582   0.481  1.00  0.00    -0.355 N 
HETATM    6  C5  UNL     1      -1.474   1.606  -0.334  1.00  0.00     0.441 A 
HETATM    7  N2  UNL     1      -2.324   2.620  -0.081  1.00  0.00     0.232 N 
HETATM    8  C6  UNL     1      -2.289   3.791  -0.712  1.00  0.00     0.538 A 
HETATM    9  N3  UNL     1      -2.173   2.509  -0.162  1.00  0.00     0.232 N 
HETATM   10  C7  UNL     1      -1.214   1.742  -0.632  1.00  0.00     0.414 A 
HETATM   11  C8  UNL     1      -0.174   0.871   0.207  1.00  0.00     0.085 A 
HETATM   12  C9  UNL     1       1.074   0.374  -0.245  1.00  0.00     0.019 A 
HETATM   13  C10 UNL     1       1.651   0.520  -1.488  1.00  0.00     0.030 A 
HETATM   14  N4  UNL     1       2.688   0.298  -2.285  1.00  0.00    -0.310 N 
HETATM   15  C11 UNL     1       3.687  -0.344  -1.535  1.00  0.00     0.318 C 
HETATM   16  N5  UNL     1       4.908  -0.687  -2.163  1.00  0.00    -0.352 N 
HETATM   17  O1  UNL     1       3.896  -0.764  -0.375  1.00  0.00    -0.247 OA
HETATM   18  C12 UNL     1       0.655   1.234  -2.032  1.00  0.00     0.024 A 
HETATM   19  C13 UNL     1      -0.344   1.510  -1.295  1.00  0.00     0.149 A 
HETATM   20  C14 UNL     1       0.064   0.088   1.568  1.00  0.00     0.086 C 
HETATM   21 BR1  UNL     1      -0.070   1.129   3.134  1.00  0.00    -0.089 Br
HETATM   22  C15 UNL     1      -0.925  -1.003   1.412  1.00  0.00     0.056 C 
HETATM   23  H6  UNL     1      -3.470   0.400   0.217  1.00  0.00     0.158 HD
HETATM   24  H9  UNL     1       2.842   0.509  -3.279  1.00  0.00     0.170 HD
HETATM   25  H10 UNL     1       5.876  -0.357  -1.968  1.00  0.00     0.160 HD
HETATM   26  H11 UNL     1       5.233  -1.319  -2.955  1.00  0.00     0.160 HD
ENDROOT
TORSDOF 1
