REMARK  3 active torsions:
REMARK  status: ('A' for Active; 'I' for Inactive)
REMARK       I    between atoms: C2_2  and  N1_4 
REMARK    1  A    between atoms: N1_4  and  C3_5 
REMARK    2  A    between atoms: C8_12  and  N4_13 
REMARK    3  A    between atoms: N4_13  and  C9_14 
ROOT
HETATM    1  C3  UNL     1      -2.040  -0.245  -0.232  1.00  0.00     0.035 A 
HETATM    2  C4  UNL     1      -2.636  -1.339  -0.852  1.00  0.00     0.032 A 
HETATM    3  C5  UNL     1      -1.933  -2.533  -1.048  1.00  0.00     0.035 A 
HETATM    4  C6  UNL     1      -0.623  -2.594  -0.606  1.00  0.00     0.072 A 
HETATM    5  N2  UNL     1       0.050  -3.728  -0.790  1.00  0.00    -0.241 NA
HETATM    6  C7  UNL     1       1.320  -3.846  -0.383  1.00  0.00     0.236 A 
HETATM    7  N3  UNL     1       1.949  -2.805   0.229  1.00  0.00    -0.223 NA
HETATM    8  C8  UNL     1       1.276  -1.645   0.423  1.00  0.00     0.143 A 
HETATM    9  C13 UNL     1      -0.035  -1.505   0.010  1.00  0.00     0.041 A 
HETATM   10  C14 UNL     1      -0.734  -0.330   0.200  1.00  0.00     0.047 A 
ENDROOT
BRANCH   8  11
HETATM   11  N4  UNL     1       1.955  -0.568   1.065  1.00  0.00    -0.328 N 
HETATM   12  H8  UNL     1       1.934  -0.451   2.111  1.00  0.00     0.169 HD
BRANCH  11  13
HETATM   13  C9  UNL     1       2.680   0.373   0.281  1.00  0.00     0.110 A 
HETATM   14  N5  UNL     1       2.353   0.681  -0.930  1.00  0.00    -0.246 NA
HETATM   15  C10 UNL     1       3.285   1.647  -1.416  1.00  0.00     0.133 A 
HETATM   16  C11 UNL     1       4.194   1.938  -0.498  1.00  0.00     0.013 A 
HETATM   17 BR1  UNL     1       5.590   3.199  -0.830  1.00  0.00    -0.054 Br
HETATM   18  C12 UNL     1       3.879   1.128   0.700  1.00  0.00     0.126 A 
ENDBRANCH  11  13
ENDBRANCH   8  11
BRANCH   1  19
HETATM   19  N1  UNL     1      -2.740   0.970  -0.027  1.00  0.00    -0.327 N 
HETATM   20  C2  UNL     1      -3.542   1.488   0.998  1.00  0.00     0.218 C 
HETATM   21  C1  UNL     1      -4.123   2.848   0.850  1.00  0.00     0.117 C 
HETATM   22  O1  UNL     1      -3.858   0.938   2.085  1.00  0.00    -0.274 OA
HETATM   23  H4  UNL     1      -2.544   1.526  -0.897  1.00  0.00     0.169 HD
ENDBRANCH   1  19
TORSDOF 3
