REMARK  3 active torsions:
REMARK  status: ('A' for Active; 'I' for Inactive)
REMARK    1  A    between atoms: C2_2  and  C3_3 
REMARK    2  A    between atoms: C16_23  and  C17_24 
REMARK    3  A    between atoms: C18_25  and  C19_26 
ROOT
HETATM    1  C3  UNL     1       1.493   0.431   1.358  1.00  0.00    -0.039 C 
HETATM    2  C4  UNL     1       0.329   0.365   1.941  1.00  0.00    -0.012 C 
HETATM    3  C5  UNL     1      -0.580  -0.746   1.644  1.00  0.00     0.045 C 
HETATM    4  C6  UNL     1      -1.786  -0.756   2.274  1.00  0.00    -0.008 C 
HETATM    5  C7  UNL     1      -2.440  -1.983   1.745  1.00  0.00    -0.014 C 
HETATM    6  C8  UNL     1      -3.593  -2.614   1.890  1.00  0.00     0.013 C 
HETATM    7  C9  UNL     1      -1.990  -2.972   0.705  1.00  0.00     0.128 C 
HETATM    8  N1  UNL     1      -3.080  -3.853   0.352  1.00  0.00    -0.412 N 
HETATM    9  C10 UNL     1      -3.920  -2.847  -0.325  1.00  0.00    -0.008 C 
HETATM   10  B1  UNL     1      -3.290  -1.374  -1.217  1.00  0.00     0.215 B 
HETATM   11  C11 UNL     1      -4.380  -0.270  -1.966  1.00  0.00     0.085 C 
HETATM   12  N2  UNL     1      -3.916   1.077  -1.593  1.00  0.00    -0.323 N 
HETATM   13  N3  UNL     1      -2.673   1.601  -1.953  1.00  0.00    -0.186 NA
HETATM   14  C12 UNL     1      -2.249   2.686  -1.372  1.00  0.00     0.184 C 
HETATM   15  S1  UNL     1      -0.686   3.428  -1.758  1.00  0.00    -0.102 SA
HETATM   16  C13 UNL     1      -0.158   4.529  -0.453  1.00  0.00     0.185 C 
HETATM   17  N4  UNL     1       0.155   3.819   0.782  1.00  0.00    -0.415 NA
HETATM   18  C14 UNL     1       1.267   3.199   0.935  1.00  0.00     0.407 C 
HETATM   19  N5  UNL     1       2.214   2.429   1.602  1.00  0.00    -0.388 N 
HETATM   20  C15 UNL     1       2.671   1.185   1.017  1.00  0.00     0.045 C 
HETATM   21  C16 UNL     1       3.490   0.403   0.366  1.00  0.00     0.117 C 
HETATM   22  H11 UNL     1      -3.570  -4.763   0.314  1.00  0.00     0.157 HD
HETATM   23  H15 UNL     1      -4.570   1.664  -1.027  1.00  0.00     0.181 HD
HETATM   24  H20 UNL     1       2.787   2.379   2.416  1.00  0.00     0.156 HD
ENDROOT
BRANCH   1  25
HETATM   25  C2  UNL     1       1.085  -0.812   0.732  1.00  0.00    -0.001 C 
HETATM   26  C1  UNL     1       1.868  -1.461  -0.156  1.00  0.00     0.012 C 
ENDBRANCH   1  25
BRANCH  21  27
HETATM   27  C17 UNL     1       4.799   0.736  -0.178  1.00  0.00    -0.021 C 
HETATM   28  C18 UNL     1       5.361  -0.345  -0.769  1.00  0.00    -0.015 C 
BRANCH  28  29
HETATM   29  C19 UNL     1       6.570  -0.837  -1.508  1.00  0.00     0.141 C 
HETATM   30 CL1  UNL     1       6.204  -1.488  -3.098  1.00  0.00    -0.126 Cl
ENDBRANCH  28  29
ENDBRANCH  21  27
TORSDOF 3
