REMARK  3 active torsions:
REMARK  status: ('A' for Active; 'I' for Inactive)
REMARK       I    between atoms: C2_2  and  N1_4 
REMARK    1  A    between atoms: N1_4  and  C3_5 
REMARK    2  A    between atoms: C8_12  and  N4_13 
REMARK    3  A    between atoms: N4_13  and  C9_14 
ROOT
HETATM    1  C3  UNL     1      -2.668  -0.200   0.131  1.00  0.00     0.035 A 
HETATM    2  C4  UNL     1      -3.159  -1.459  -0.089  1.00  0.00     0.032 A 
HETATM    3  C5  UNL     1      -2.367  -2.559  -0.346  1.00  0.00     0.035 A 
HETATM    4  C6  UNL     1      -1.011  -2.356  -0.379  1.00  0.00     0.072 A 
HETATM    5  N2  UNL     1      -0.248  -3.435  -0.631  1.00  0.00    -0.241 NA
HETATM    6  C7  UNL     1       1.092  -3.354  -0.688  1.00  0.00     0.236 A 
HETATM    7  N3  UNL     1       1.605  -2.142  -0.478  1.00  0.00    -0.224 NA
HETATM    8  C8  UNL     1       0.920  -1.024  -0.222  1.00  0.00     0.142 A 
HETATM    9  C15 UNL     1      -0.439  -1.118  -0.167  1.00  0.00     0.041 A 
HETATM   10  C16 UNL     1      -1.298  -0.073   0.083  1.00  0.00     0.047 A 
ENDROOT
BRANCH   8  11
HETATM   11  N4  UNL     1       1.540   0.223  -0.012  1.00  0.00    -0.340 N 
HETATM   12  H8  UNL     1       1.004   1.062   0.202  1.00  0.00     0.167 HD
BRANCH  11  13
HETATM   13  C9  UNL     1       2.911   0.597  -0.040  1.00  0.00     0.035 A 
HETATM   14  C10 UNL     1       3.437   1.830   0.313  1.00  0.00     0.029 A 
HETATM   15  C11 UNL     1       4.754   2.159   0.271  1.00  0.00     0.004 A 
HETATM   16  C12 UNL     1       5.684   1.235  -0.148  1.00  0.00     0.019 A 
HETATM   17  C13 UNL     1       5.230  -0.012  -0.515  1.00  0.00     0.013 A 
HETATM   18 BR1  UNL     1       6.571  -1.239  -1.084  1.00  0.00    -0.051 Br
HETATM   19  C14 UNL     1       3.882  -0.288  -0.451  1.00  0.00     0.048 A 
ENDBRANCH  11  13
ENDBRANCH   8  11
BRANCH   1  20
HETATM   20  N1  UNL     1      -3.424   0.965   0.399  1.00  0.00    -0.327 N 
HETATM   21  C2  UNL     1      -4.821   1.116   0.501  1.00  0.00     0.218 C 
HETATM   22  C1  UNL     1      -5.542   2.377   0.785  1.00  0.00     0.117 C 
HETATM   23  O1  UNL     1      -5.537   0.117   0.343  1.00  0.00    -0.274 OA
HETATM   24  H4  UNL     1      -2.957   1.887   0.555  1.00  0.00     0.169 HD
ENDBRANCH   1  20
TORSDOF 3
