REMARK  5 active torsions:
REMARK  status: ('A' for Active; 'I' for Inactive)
REMARK    1  A    between atoms: B1_1  and  C1_2 
REMARK    2  A    between atoms: C1_2  and  N1_4 
REMARK    3  A    between atoms: N1_4  and  C3_5 
REMARK    4  A    between atoms: C8_12  and  N4_13 
REMARK    5  A    between atoms: N4_13  and  C9_14 
ROOT
HETATM    1  C3  UNL     1      -2.493  -1.161  -0.265  1.00  0.00     0.032 A 
HETATM    2  C4  UNL     1      -2.852  -2.201   0.565  1.00  0.00     0.032 A 
HETATM    3  C5  UNL     1      -1.873  -2.732   1.378  1.00  0.00     0.035 A 
HETATM    4  C6  UNL     1      -0.601  -2.214   1.329  1.00  0.00     0.072 A 
HETATM    5  N2  UNL     1       0.311  -2.780   2.149  1.00  0.00    -0.241 NA
HETATM    6  C7  UNL     1       1.587  -2.357   2.188  1.00  0.00     0.236 A 
HETATM    7  N3  UNL     1       1.921  -1.352   1.381  1.00  0.00    -0.224 NA
HETATM    8  C8  UNL     1       1.103  -0.737   0.547  1.00  0.00     0.142 A 
HETATM    9  C15 UNL     1      -0.197  -1.178   0.518  1.00  0.00     0.041 A 
HETATM   10  C16 UNL     1      -1.204  -0.679  -0.274  1.00  0.00     0.047 A 
ENDROOT
BRANCH   8  11
HETATM   11  N4  UNL     1       1.455   0.330  -0.316  1.00  0.00    -0.340 N 
HETATM   12  H9  UNL     1       0.770   0.793  -0.931  1.00  0.00     0.167 HD
BRANCH  11  13
HETATM   13  C9  UNL     1       2.708   0.956  -0.520  1.00  0.00     0.035 A 
HETATM   14  C10 UNL     1       2.947   2.062  -1.344  1.00  0.00     0.029 A 
HETATM   15  C11 UNL     1       4.190   2.621  -1.504  1.00  0.00     0.004 A 
HETATM   16  C12 UNL     1       5.284   2.127  -0.861  1.00  0.00     0.019 A 
HETATM   17  C13 UNL     1       5.106   1.033  -0.032  1.00  0.00     0.013 A 
HETATM   18 BR1  UNL     1       6.662   0.384   0.839  1.00  0.00    -0.051 Br
HETATM   19  C14 UNL     1       3.844   0.500   0.103  1.00  0.00     0.048 A 
ENDBRANCH  11  13
ENDBRANCH   8  11
BRANCH   1  20
HETATM   20  N1  UNL     1      -3.496  -0.608  -1.107  1.00  0.00    -0.376 N 
HETATM   21  H5  UNL     1      -3.875  -0.750  -2.068  1.00  0.00     0.164 HD
BRANCH  20  22
HETATM   22  C1  UNL     1      -4.217   0.465  -0.469  1.00  0.00    -0.075 C 
HETATM   23  C2  UNL     1      -4.790   1.639  -1.224  1.00  0.00     0.047 C 
BRANCH  22  24
HETATM   24  B1  UNL     1      -4.678   0.820   1.240  1.00  0.00     0.174 B 
HETATM   25  H1  UNL     1      -4.461   0.060   2.770  1.00  0.00    -0.029 HD
ENDBRANCH  22  24
ENDBRANCH  20  22
ENDBRANCH   1  20
TORSDOF 5
