REMARK  3 active torsions:
REMARK  status: ('A' for Active; 'I' for Inactive)
REMARK    1  A    between atoms: C5_5  and  N1_6 
REMARK    2  A    between atoms: N1_6  and  C6_7 
REMARK    3  A    between atoms: C11_14  and  N4_15 
REMARK       I    between atoms: N4_15  and  C12_16 
REMARK       I    between atoms: C12_16  and  N5_17 
ROOT
HETATM    1  C6  UNL     1       0.156  -0.332  -0.984  1.00  0.00     0.141 A 
HETATM    2  N2  UNL     1       0.935  -0.747  -1.986  1.00  0.00    -0.224 NA
HETATM    3  C7  UNL     1       0.433  -1.256  -3.136  1.00  0.00     0.236 A 
HETATM    4  N3  UNL     1      -0.923  -1.342  -3.260  1.00  0.00    -0.241 NA
HETATM    5  C8  UNL     1      -1.736  -0.933  -2.270  1.00  0.00     0.072 A 
HETATM    6  C9  UNL     1      -3.110  -0.998  -2.346  1.00  0.00     0.035 A 
HETATM    7  C10 UNL     1      -3.916  -0.574  -1.319  1.00  0.00     0.032 A 
HETATM    8  C11 UNL     1      -3.408  -0.058  -0.155  1.00  0.00     0.037 A 
HETATM    9  C13 UNL     1      -2.038  -0.002  -0.102  1.00  0.00     0.047 A 
HETATM   10  C14 UNL     1      -1.210  -0.417  -1.107  1.00  0.00     0.041 A 
ENDROOT
BRANCH   1  11
HETATM   11  N1  UNL     1       0.801   0.182   0.170  1.00  0.00    -0.343 N 
HETATM   12  H6  UNL     1       0.438   0.557   1.056  1.00  0.00     0.167 HD
BRANCH  11  13
HETATM   13  C5  UNL     1       2.221   0.230   0.202  1.00  0.00     0.014 A 
HETATM   14  C4  UNL     1       2.900   0.663  -0.865  1.00  0.00     0.025 A 
HETATM   15  C3  UNL     1       4.343   0.625  -0.604  1.00  0.00     0.005 A 
HETATM   16  C2  UNL     1       4.484   0.162   0.630  1.00  0.00    -0.078 A 
HETATM   17  C1  UNL     1       5.824  -0.024   1.269  1.00  0.00     0.044 C 
HETATM   18  C15 UNL     1       3.187  -0.142   1.289  1.00  0.00     0.090 A 
ENDBRANCH  11  13
ENDBRANCH   1  11
BRANCH   8  19
HETATM   19  N4  UNL     1      -4.318   0.354   0.847  1.00  0.00    -0.309 N 
HETATM   20  C12 UNL     1      -4.063   0.911   2.121  1.00  0.00     0.318 C 
HETATM   21  N5  UNL     1      -5.044   1.292   3.055  1.00  0.00    -0.352 N 
HETATM   22  O1  UNL     1      -2.886   1.095   2.484  1.00  0.00    -0.247 OA
HETATM   23  H11 UNL     1      -5.181   0.752   3.936  1.00  0.00     0.160 HD
HETATM   24  H12 UNL     1      -5.799   1.991   3.262  1.00  0.00     0.160 HD
HETATM   25  H10 UNL     1      -5.344   0.260   0.685  1.00  0.00     0.170 HD
ENDBRANCH   8  19
TORSDOF 3
