REMARK  5 active torsions:
REMARK  status: ('A' for Active; 'I' for Inactive)
REMARK       I    between atoms: C2_2  and  N1_4 
REMARK    1  A    between atoms: N1_4  and  C3_5 
REMARK    2  A    between atoms: C8_12  and  N4_13 
REMARK    3  A    between atoms: N4_13  and  C9_14 
REMARK    4  A    between atoms: C10_15  and  C11_16 
REMARK    5  A    between atoms: C12_17  and  C13_18 
ROOT
HETATM    1  C3  UNL     1      -3.424  -0.270  -0.166  1.00  0.00     0.035 A 
HETATM    2  C4  UNL     1      -3.742  -1.576  -0.443  1.00  0.00     0.032 A 
HETATM    3  C5  UNL     1      -2.815  -2.524  -0.820  1.00  0.00     0.035 A 
HETATM    4  C6  UNL     1      -1.502  -2.187  -0.935  1.00  0.00     0.072 A 
HETATM    5  N2  UNL     1      -0.554  -3.080  -1.301  1.00  0.00    -0.241 NA
HETATM    6  C7  UNL     1       0.751  -2.699  -1.403  1.00  0.00     0.236 A 
HETATM    7  N3  UNL     1       1.045  -1.424  -1.129  1.00  0.00    -0.224 NA
HETATM    8  C8  UNL     1       0.155  -0.494  -0.763  1.00  0.00     0.141 A 
HETATM    9  C15 UNL     1      -1.161  -0.890  -0.663  1.00  0.00     0.041 A 
HETATM   10  C16 UNL     1      -2.090   0.041  -0.290  1.00  0.00     0.047 A 
ENDROOT
BRANCH   8  11
HETATM   11  N4  UNL     1       0.589   0.843  -0.494  1.00  0.00    -0.350 N 
HETATM   12  H8  UNL     1       0.525   1.305  -1.418  1.00  0.00     0.166 HD
BRANCH  11  13
HETATM   13  C9  UNL     1       0.944   1.106   0.840  1.00  0.00     0.090 C 
HETATM   14  C10 UNL     1       2.197   1.015   1.251  1.00  0.00     0.017 C 
BRANCH  14  15
HETATM   15  C11 UNL     1       3.308   0.644   0.394  1.00  0.00    -0.002 C 
HETATM   16  C12 UNL     1       4.585   0.534   0.748  1.00  0.00    -0.011 C 
BRANCH  16  17
HETATM   17  C13 UNL     1       5.661   0.151  -0.182  1.00  0.00     0.076 C 
HETATM   18  C14 UNL     1       6.964   0.802   0.207  1.00  0.00     0.026 C 
HETATM   19 BR1  UNL     1       5.966  -1.777  -0.119  1.00  0.00    -0.087 Br
ENDBRANCH  16  17
ENDBRANCH  14  15
ENDBRANCH  11  13
ENDBRANCH   8  11
BRANCH   1  20
HETATM   20  N1  UNL     1      -4.305   0.764   0.227  1.00  0.00    -0.327 N 
HETATM   21  C2  UNL     1      -5.705   0.725   0.431  1.00  0.00     0.218 C 
HETATM   22  C1  UNL     1      -6.546   1.856   0.842  1.00  0.00     0.117 C 
HETATM   23  O1  UNL     1      -6.315  -0.358   0.255  1.00  0.00    -0.274 OA
HETATM   24  H4  UNL     1      -3.943   1.724   0.410  1.00  0.00     0.169 HD
ENDBRANCH   1  20
TORSDOF 5
