REMARK  4 active torsions:
REMARK  status: ('A' for Active; 'I' for Inactive)
REMARK    1  A    between atoms: C2_2  and  C3_4 
REMARK    2  A    between atoms: C4_5  and  C5_6 
REMARK    3  A    between atoms: N1_7  and  C6_8 
REMARK    4  A    between atoms: C14_19  and  N4_20 
ROOT
HETATM    1  C6  UNL     1       0.509  -0.060  -0.944  1.00  0.00     0.157 C 
HETATM    2  N2  UNL     1       0.848  -1.227  -1.285  1.00  0.00    -0.266 NA
HETATM    3  C7  UNL     1      -0.228  -2.174  -1.100  1.00  0.00     0.187 C 
HETATM    4  C8  UNL     1      -1.379  -1.301  -0.753  1.00  0.00    -0.035 C 
HETATM    5  C9  UNL     1      -2.422  -2.167  -0.755  1.00  0.00     0.053 C 
HETATM    6  C10 UNL     1      -3.859  -2.274  -0.561  1.00  0.00     0.000 C 
HETATM    7  C11 UNL     1      -5.019  -1.599  -0.291  1.00  0.00     0.087 C 
HETATM    8  N3  UNL     1      -4.261  -0.456  -0.241  1.00  0.00    -0.337 N 
HETATM    9  C12 UNL     1      -3.512   0.695  -0.231  1.00  0.00     0.227 C 
HETATM   10  O1  UNL     1      -3.703   1.005  -1.456  1.00  0.00    -0.273 OA
HETATM   11  C13 UNL     1      -2.645   1.709   0.383  1.00  0.00     0.160 C 
HETATM   12  C14 UNL     1      -1.256   1.287  -0.095  1.00  0.00     0.026 C 
HETATM   13  C15 UNL     1      -0.872   0.081  -0.555  1.00  0.00     0.039 C 
HETATM   14  H11 UNL     1      -4.001  -0.412   0.804  1.00  0.00     0.168 HD
ENDROOT
BRANCH   1  15
HETATM   15  N1  UNL     1       1.626   0.763  -1.149  1.00  0.00    -0.241 NA
HETATM   16  C5  UNL     1       2.693   0.725  -0.425  1.00  0.00     0.119 C 
BRANCH  16  17
HETATM   17  C4  UNL     1       2.858  -0.173   0.680  1.00  0.00     0.021 C 
HETATM   18  C3  UNL     1       3.973  -0.171   1.390  1.00  0.00     0.018 C 
BRANCH  18  19
HETATM   19  C2  UNL     1       5.128   0.689   1.173  1.00  0.00    -0.016 C 
HETATM   20  C1  UNL     1       6.310   0.858   1.740  1.00  0.00     0.163 C 
HETATM   21 BR1  UNL     1       5.884   2.077   0.109  1.00  0.00    -0.165 Br
ENDBRANCH  18  19
ENDBRANCH  16  17
ENDBRANCH   1  15
BRANCH  12  22
HETATM   22  N4  UNL     1      -0.430   2.412   0.045  1.00  0.00    -0.401 N 
HETATM   23  H14 UNL     1       0.180   2.447   0.905  1.00  0.00     0.156 HD
HETATM   24  H15 UNL     1      -0.383   3.210  -0.642  1.00  0.00     0.156 HD
ENDBRANCH  12  22
TORSDOF 4
