REMARK  4 active torsions:
REMARK  status: ('A' for Active; 'I' for Inactive)
REMARK    1  A    between atoms: C2_2  and  C3_3 
REMARK    2  A    between atoms: C4_4  and  C5_5 
REMARK    3  A    between atoms: C4_4  and  N4_17 
REMARK    4  A    between atoms: C6_6  and  C7_7 
REMARK       I    between atoms: N4_17  and  C13_18 
ROOT
HETATM    1  C7  UNL     1      -1.504   1.178   0.209  1.00  0.00     0.127 A 
HETATM    2  N1  UNL     1      -2.221   2.248   0.161  1.00  0.00    -0.225 NA
HETATM    3  C8  UNL     1      -3.565   2.206   0.619  1.00  0.00     0.232 A 
HETATM    4  N2  UNL     1      -4.210   1.200   1.103  1.00  0.00    -0.246 NA
HETATM    5  C9  UNL     1      -3.536  -0.082   1.223  1.00  0.00     0.152 A 
HETATM    6  C10 UNL     1      -3.699  -0.616   2.561  1.00  0.00     0.043 A 
HETATM    7  C11 UNL     1      -4.348  -1.665   2.125  1.00  0.00    -0.006 A 
HETATM    8 BR1  UNL     1      -5.220  -3.284   2.664  1.00  0.00    -0.056 Br
HETATM    9  C12 UNL     1      -4.266  -1.259   0.715  1.00  0.00     0.106 A 
HETATM   10  N3  UNL     1      -2.175   0.041   0.736  1.00  0.00    -0.343 N 
HETATM   11  H11 UNL     1      -1.713  -0.875   0.826  1.00  0.00     0.164 HD
ENDROOT
BRANCH   1  12
HETATM   12  C6  UNL     1      -0.128   1.127  -0.235  1.00  0.00     0.052 C 
HETATM   13  C5  UNL     1       0.705   0.102  -0.238  1.00  0.00     0.033 C 
BRANCH  13  14
HETATM   14  C4  UNL     1       2.080   0.101  -0.695  1.00  0.00     0.034 C 
HETATM   15  C3  UNL     1       2.694  -1.051  -0.593  1.00  0.00     0.029 C 
BRANCH  15  16
HETATM   16  C2  UNL     1       1.842  -2.089  -0.034  1.00  0.00    -0.008 C 
HETATM   17  C1  UNL     1       2.258  -3.349   0.164  1.00  0.00     0.011 C 
ENDBRANCH  15  16
BRANCH  14  18
HETATM   18  N4  UNL     1       2.655   1.290  -1.204  1.00  0.00    -0.328 N 
HETATM   19  C13 UNL     1       3.981   1.434  -1.686  1.00  0.00     0.218 C 
HETATM   20  C14 UNL     1       4.568   2.676  -2.213  1.00  0.00     0.117 C 
HETATM   21  O1  UNL     1       4.768   0.457  -1.691  1.00  0.00    -0.274 OA
HETATM   22  H12 UNL     1       2.144   2.191  -1.271  1.00  0.00     0.169 HD
ENDBRANCH  14  18
ENDBRANCH  13  14
ENDBRANCH   1  12
TORSDOF 4
