REMARK  5 active torsions:
REMARK  status: ('A' for Active; 'I' for Inactive)
REMARK    1  A    between atoms: C3_3  and  C4_4 
REMARK    2  A    between atoms: C5_6  and  C6_7 
REMARK    3  A    between atoms: C6_7  and  N1_8 
REMARK    4  A    between atoms: N1_8  and  C7_9 
REMARK    5  A    between atoms: C12_17  and  O2_18 
ROOT
HETATM    1  C7  UNL     1       0.610  -1.229   0.152  1.00  0.00     0.139 A 
HETATM    2  N2  UNL     1       1.452  -1.969   0.873  1.00  0.00    -0.224 NA
HETATM    3  C8  UNL     1       1.128  -2.556   2.021  1.00  0.00     0.238 A 
HETATM    4  N3  UNL     1      -0.127  -2.432   2.550  1.00  0.00    -0.217 NA
HETATM    5  C9  UNL     1      -1.050  -1.694   1.880  1.00  0.00     0.185 A 
HETATM    6  O1  UNL     1      -2.245  -1.586   2.402  1.00  0.00    -0.290 OA
HETATM    7  C10 UNL     1      -3.223  -0.911   1.869  1.00  0.00     0.091 A 
HETATM    8  C11 UNL     1      -4.532  -0.644   2.201  1.00  0.00     0.075 A 
HETATM    9  C12 UNL     1      -5.031   0.155   1.188  1.00  0.00     0.071 A 
HETATM   10  C14 UNL     1      -4.056   0.392   0.232  1.00  0.00     0.051 A 
HETATM   11  C15 UNL     1      -2.882  -0.258   0.603  1.00  0.00     0.002 A 
HETATM   12  C16 UNL     1      -1.610  -0.378   0.055  1.00  0.00     0.034 A 
HETATM   13  C17 UNL     1      -0.652  -1.108   0.689  1.00  0.00     0.064 A 
ENDROOT
BRANCH   1  14
HETATM   14  N1  UNL     1       0.982  -0.604  -1.088  1.00  0.00    -0.370 N 
HETATM   15  H9  UNL     1       0.385  -0.029  -1.692  1.00  0.00     0.161 HD
BRANCH  14  16
HETATM   16  C6  UNL     1       2.364  -0.832  -1.506  1.00  0.00     0.150 C 
BRANCH  16  17
HETATM   17  C5  UNL     1       2.640  -0.113  -2.756  1.00  0.00     0.011 C 
HETATM   18  C4  UNL     1       3.571   0.821  -2.856  1.00  0.00     0.008 C 
HETATM   19 BR1  UNL     1       4.000   1.805  -4.407  1.00  0.00    -0.051 Br
BRANCH  18  20
HETATM   20  C3  UNL     1       4.201   0.936  -1.511  1.00  0.00     0.014 C 
HETATM   21  C2  UNL     1       5.167   1.889  -1.560  1.00  0.00    -0.030 C 
HETATM   22  C1  UNL     1       6.250   2.679  -0.867  1.00  0.00     0.036 C 
ENDBRANCH  18  20
ENDBRANCH  16  17
ENDBRANCH  14  16
ENDBRANCH   1  14
BRANCH   9  23
HETATM   23  O2  UNL     1      -6.341   0.652   1.146  1.00  0.00    -0.356 OA
HETATM   24  C13 UNL     1      -7.197   0.312   2.202  1.00  0.00     0.210 C 
ENDBRANCH   9  23
TORSDOF 5
