REMARK  4 active torsions:
REMARK  status: ('A' for Active; 'I' for Inactive)
REMARK    1  A    between atoms: C3_3  and  C4_4 
REMARK    2  A    between atoms: C4_4  and  C5_5 
REMARK    3  A    between atoms: C4_4  and  N1_7 
REMARK    4  A    between atoms: C10_14  and  N4_15 
REMARK       I    between atoms: N4_15  and  C11_16 
ROOT
HETATM    1  N1  UNL     1      -1.005  -0.118   0.870  1.00  0.00    -0.280 N 
HETATM    2  N2  UNL     1      -1.790  -0.484   1.963  1.00  0.00    -0.291 N 
HETATM    3  C6  UNL     1      -1.280  -1.254   3.043  1.00  0.00     0.224 A 
HETATM    4  N3  UNL     1      -0.047  -1.676   3.097  1.00  0.00    -0.240 NA
HETATM    5  C7  UNL     1       0.820  -1.343   2.015  1.00  0.00     0.086 A 
HETATM    6  C8  UNL     1       2.144  -1.769   2.026  1.00  0.00     0.036 A 
HETATM    7  C9  UNL     1       3.026  -1.463   0.989  1.00  0.00     0.032 A 
HETATM    8  C10 UNL     1       2.506  -0.705  -0.063  1.00  0.00     0.037 A 
HETATM    9  C13 UNL     1       1.192  -0.302  -0.041  1.00  0.00     0.063 A 
HETATM   10  C14 UNL     1       0.330  -0.596   0.965  1.00  0.00     0.082 A 
HETATM   11  H9  UNL     1      -2.776  -0.261   2.114  1.00  0.00     0.188 HD
ENDROOT
BRANCH   1  12
HETATM   12  C4  UNL     1      -1.573   0.661  -0.177  1.00  0.00     0.141 C 
BRANCH  12  13
HETATM   13  C3  UNL     1      -2.830  -0.008  -0.697  1.00  0.00    -0.003 C 
HETATM   14  C2  UNL     1      -4.071   0.424  -0.873  1.00  0.00    -0.033 C 
HETATM   15  C1  UNL     1      -5.251  -0.340  -1.403  1.00  0.00     0.036 C 
ENDBRANCH  12  13
BRANCH  12  16
HETATM   16  C5  UNL     1      -1.875   2.083   0.224  1.00  0.00     0.116 C 
HETATM   17 BR1  UNL     1      -3.210   2.240   1.600  1.00  0.00    -0.094 Br
ENDBRANCH  12  16
ENDBRANCH   1  12
BRANCH   8  18
HETATM   18  N4  UNL     1       3.469  -0.436  -1.080  1.00  0.00    -0.327 N 
HETATM   19  C11 UNL     1       4.269   0.755  -0.972  1.00  0.00     0.218 C 
HETATM   20  C12 UNL     1       5.318   1.164  -1.967  1.00  0.00     0.117 C 
HETATM   21  O1  UNL     1       4.231   1.635  -0.054  1.00  0.00    -0.274 OA
HETATM   22  H13 UNL     1       3.718  -0.979  -1.949  1.00  0.00     0.169 HD
ENDBRANCH   8  18
TORSDOF 4
