REMARK  3 active torsions:
REMARK  status: ('A' for Active; 'I' for Inactive)
REMARK    1  A    between atoms: C6_6  and  N1_7 
REMARK    2  A    between atoms: N1_7  and  C7_8 
REMARK    3  A    between atoms: C12_15  and  N4_16 
REMARK       I    between atoms: N4_16  and  C13_17 
REMARK       I    between atoms: C13_17  and  N5_18 
ROOT
HETATM    1  C7  UNL     1       0.270  -1.760  -0.461  1.00  0.00     0.142 A 
HETATM    2  N2  UNL     1       0.776  -2.999  -0.260  1.00  0.00    -0.224 NA
HETATM    3  C8  UNL     1       0.026  -3.933   0.387  1.00  0.00     0.236 A 
HETATM    4  N3  UNL     1      -1.208  -3.655   0.832  1.00  0.00    -0.241 NA
HETATM    5  C9  UNL     1      -1.792  -2.460   0.679  1.00  0.00     0.072 A 
HETATM    6  C10 UNL     1      -3.051  -2.214   1.131  1.00  0.00     0.035 A 
HETATM    7  C11 UNL     1      -3.615  -0.966   0.938  1.00  0.00     0.032 A 
HETATM    8  C12 UNL     1      -2.882   0.002   0.288  1.00  0.00     0.037 A 
HETATM    9  C14 UNL     1      -1.608  -0.252  -0.168  1.00  0.00     0.047 A 
HETATM   10  C15 UNL     1      -1.025  -1.512   0.021  1.00  0.00     0.041 A 
ENDROOT
BRANCH   1  11
HETATM   11  N1  UNL     1       0.915  -0.706  -1.129  1.00  0.00    -0.340 N 
HETATM   12  H7  UNL     1       0.363  -0.590  -2.030  1.00  0.00     0.167 HD
BRANCH  11  13
HETATM   13  C6  UNL     1       2.010   0.178  -0.953  1.00  0.00     0.034 A 
HETATM   14  C5  UNL     1       2.199   1.278  -1.770  1.00  0.00     0.029 A 
HETATM   15  C4  UNL     1       3.318   2.031  -1.505  1.00  0.00     0.003 A 
HETATM   16  C3  UNL     1       4.225   1.761  -0.511  1.00  0.00     0.007 A 
HETATM   17  C2  UNL     1       4.048   0.667   0.311  1.00  0.00    -0.060 A 
HETATM   18  C1  UNL     1       5.012   0.338   1.382  1.00  0.00     0.048 C 
HETATM   19  C16 UNL     1       2.930  -0.102   0.062  1.00  0.00     0.036 A 
ENDBRANCH  11  13
ENDBRANCH   1  11
BRANCH   8  20
HETATM   20  N4  UNL     1      -3.537   1.249   0.124  1.00  0.00    -0.309 N 
HETATM   21  C13 UNL     1      -4.345   1.769  -0.923  1.00  0.00     0.318 C 
HETATM   22  N5  UNL     1      -4.870   3.087  -0.782  1.00  0.00    -0.352 N 
HETATM   23  O1  UNL     1      -4.633   1.141  -1.976  1.00  0.00    -0.247 OA
HETATM   24  H12 UNL     1      -5.645   3.693  -0.388  1.00  0.00     0.160 HD
HETATM   25  H13 UNL     1      -4.268   3.815  -1.262  1.00  0.00     0.160 HD
HETATM   26  H11 UNL     1      -3.329   1.813   0.975  1.00  0.00     0.170 HD
ENDBRANCH   8  20
TORSDOF 3
