REMARK  4 active torsions:
REMARK  status: ('A' for Active; 'I' for Inactive)
REMARK    1  A    between atoms: N1_2  and  C2_3 
REMARK    2  A    between atoms: C2_3  and  C3_4 
REMARK    3  A    between atoms: C3_4  and  C4_5 
REMARK    4  A    between atoms: C9_11  and  C10_12 
REMARK       I    between atoms: C10_12  and  N3_13 
ROOT
HETATM    1  C4  UNL     1      -1.208  -0.046  -0.647  1.00  0.00    -0.022 C 
HETATM    2  C5  UNL     1      -0.715  -1.240  -0.173  1.00  0.00     0.170 C 
HETATM    3  N2  UNL     1      -0.182  -2.276   0.496  1.00  0.00    -0.289 NA
HETATM    4  C6  UNL     1       1.048  -2.751   0.216  1.00  0.00     0.111 C 
HETATM    5  C7  UNL     1       2.191  -2.377  -0.453  1.00  0.00     0.020 C 
HETATM    6  C8  UNL     1       2.867  -1.241  -0.130  1.00  0.00     0.018 C 
HETATM    7  C9  UNL     1       2.364  -0.113   0.480  1.00  0.00     0.032 C 
HETATM    8  C11 UNL     1       1.719   1.013   0.014  1.00  0.00     0.031 C 
HETATM    9  C12 UNL     1       0.884   1.254  -1.061  1.00  0.00     0.004 A 
HETATM   10  C13 UNL     1      -0.396   0.818  -1.395  1.00  0.00    -0.013 A 
HETATM   11  C14 UNL     1      -0.543   1.462  -2.567  1.00  0.00     0.044 A 
HETATM   12  C15 UNL     1       0.800   1.995  -2.339  1.00  0.00     0.060 A 
HETATM   13  N4  UNL     1       1.552   2.804  -3.045  1.00  0.00    -0.299 NA
HETATM   14  H14 UNL     1       2.484   3.022  -2.636  1.00  0.00     0.187 HD
ENDROOT
BRANCH   7  15
HETATM   15  C10 UNL     1       2.605  -0.207   1.915  1.00  0.00     0.249 C 
HETATM   16  N3  UNL     1       2.258   0.739   2.924  1.00  0.00    -0.366 N 
HETATM   17  H10 UNL     1       1.728   0.497   3.799  1.00  0.00     0.159 HD
HETATM   18  H11 UNL     1       2.658   1.625   2.544  1.00  0.00     0.159 HD
HETATM   19  O1  UNL     1       3.186  -1.248   2.295  1.00  0.00    -0.268 OA
ENDBRANCH   7  15
BRANCH   1  20
HETATM   20  C3  UNL     1      -2.489   0.219  -0.348  1.00  0.00     0.005 C 
BRANCH  20  21
HETATM   21  C2  UNL     1      -3.129  -0.855   0.452  1.00  0.00     0.175 C 
BRANCH  21  22
HETATM   22  N1  UNL     1      -4.477  -0.504   0.785  1.00  0.00    -0.309 NA
HETATM   23  C1  UNL     1      -4.891   0.711   0.818  1.00  0.00     0.142 C 
ENDBRANCH  21  22
ENDBRANCH  20  21
ENDBRANCH   1  20
TORSDOF 4
