REMARK  3 active torsions:
REMARK  status: ('A' for Active; 'I' for Inactive)
REMARK    1  A    between atoms: C7_7  and  N1_8 
REMARK    2  A    between atoms: N1_8  and  C8_9 
REMARK    3  A    between atoms: C8_9  and  C9_10 
ROOT
HETATM    1  C1  UNL     1       7.315   1.686  -0.059  1.00  0.00     0.018 C 
HETATM    2  C2  UNL     1       6.326   0.975   0.017  1.00  0.00    -0.078 C 
HETATM    3  C3  UNL     1       5.161   0.115   0.092  1.00  0.00     0.019 A 
HETATM    4  C4  UNL     1       5.299  -1.271   0.180  1.00  0.00     0.021 A 
HETATM    5  C5  UNL     1       4.168  -2.068   0.250  1.00  0.00     0.004 A 
HETATM    6  C6  UNL     1       2.923  -1.451   0.230  1.00  0.00     0.029 A 
HETATM    7  C7  UNL     1       2.748  -0.089   0.145  1.00  0.00     0.029 A 
HETATM    8  C16 UNL     1       3.892   0.687   0.076  1.00  0.00     0.049 A 
ENDROOT
BRANCH   7   9
HETATM    9  N1  UNL     1       1.435   0.475   0.129  1.00  0.00    -0.386 N 
HETATM   10  H5  UNL     1       1.375   1.527   0.062  1.00  0.00     0.160 HD
BRANCH   9  11
HETATM   11  C8  UNL     1       0.328  -0.465   0.209  1.00  0.00     0.149 C 
BRANCH  11  12
HETATM   12  C9  UNL     1      -0.945   0.253   0.183  1.00  0.00     0.017 C 
HETATM   13  C10 UNL     1      -1.902   0.113  -0.719  1.00  0.00     0.011 C 
HETATM   14  N2  UNL     1      -1.764  -0.800  -1.800  1.00  0.00    -0.354 N 
HETATM   15  C15 UNL     1      -3.147   0.891  -0.644  1.00  0.00     0.074 C 
HETATM   16  C11 UNL     1      -3.000  -1.314  -2.335  1.00  0.00     0.207 C 
HETATM   17  H9  UNL     1      -0.812  -1.059  -2.157  1.00  0.00     0.166 HD
HETATM   18  N3  UNL     1      -4.145  -0.961  -1.857  1.00  0.00    -0.249 NA
HETATM   19  C12 UNL     1      -4.316  -0.051  -0.777  1.00  0.00     0.037 C 
HETATM   20  C13 UNL     1      -5.400  -0.076  -0.011  1.00  0.00     0.024 C 
HETATM   21  C14 UNL     1      -5.542   0.906   1.122  1.00  0.00     0.172 C 
HETATM   22  O1  UNL     1      -4.263   1.058   1.704  1.00  0.00    -0.452 OA
HETATM   23  B1  UNL     1      -3.333   1.636   0.739  1.00  0.00     0.326 B 
HETATM   24  H14 UNL     1      -2.500   2.350   1.142  1.00  0.00     0.009 HD
ENDBRANCH  11  12
ENDBRANCH   9  11
ENDBRANCH   7   9
TORSDOF 3
