REMARK  3 active torsions:
REMARK  status: ('A' for Active; 'I' for Inactive)
REMARK    1  A    between atoms: C7_7  and  N1_8 
REMARK    2  A    between atoms: N1_8  and  C8_9 
REMARK    3  A    between atoms: C10_12  and  N3_13 
REMARK       I    between atoms: N3_13  and  C11_14 
REMARK       I    between atoms: C11_14  and  N4_15 
ROOT
HETATM    1  C1  UNL     1      -6.965  -1.628   0.390  1.00  0.00     0.018 C 
HETATM    2  C2  UNL     1      -5.869  -1.180   0.623  1.00  0.00    -0.078 C 
HETATM    3  C3  UNL     1      -4.570  -0.626   0.900  1.00  0.00     0.019 A 
HETATM    4  C4  UNL     1      -4.223  -0.267   2.184  1.00  0.00     0.021 A 
HETATM    5  C5  UNL     1      -2.966   0.260   2.398  1.00  0.00     0.004 A 
HETATM    6  C6  UNL     1      -2.110   0.409   1.339  1.00  0.00     0.029 A 
HETATM    7  C7  UNL     1      -2.373   0.082   0.055  1.00  0.00     0.034 A 
HETATM    8  C16 UNL     1      -3.659  -0.450  -0.119  1.00  0.00     0.050 A 
ENDROOT
BRANCH   7   9
HETATM    9  N1  UNL     1      -1.544   0.196  -1.083  1.00  0.00    -0.344 N 
HETATM   10  H5  UNL     1      -1.946  -0.055  -2.037  1.00  0.00     0.167 HD
BRANCH   9  11
HETATM   11  C8  UNL     1      -0.201   0.635  -1.051  1.00  0.00     0.102 C 
HETATM   12  N2  UNL     1       0.375   0.169  -0.005  1.00  0.00    -0.271 NA
HETATM   13  C9  UNL     1       1.690   0.231   0.608  1.00  0.00     0.208 C 
HETATM   14  C10 UNL     1       2.747  -0.238  -0.328  1.00  0.00     0.033 C 
HETATM   15  C12 UNL     1       2.951  -0.290  -1.635  1.00  0.00     0.026 C 
HETATM   16  C13 UNL     1       2.231   0.094  -2.852  1.00  0.00    -0.002 C 
HETATM   17  C14 UNL     1       1.122   0.803  -3.117  1.00  0.00    -0.019 C 
HETATM   18  C15 UNL     1       0.195   1.481  -2.180  1.00  0.00     0.105 C 
BRANCH  14  19
HETATM   19  N3  UNL     1       3.847  -0.786   0.397  1.00  0.00    -0.311 N 
HETATM   20  C11 UNL     1       4.508   0.103   1.306  1.00  0.00     0.318 C 
HETATM   21  N4  UNL     1       5.614  -0.359   2.070  1.00  0.00    -0.352 N 
HETATM   22  O1  UNL     1       4.210   1.313   1.523  1.00  0.00    -0.247 OA
HETATM   23  H9  UNL     1       6.564   0.053   2.113  1.00  0.00     0.160 HD
HETATM   24  H10 UNL     1       5.641  -1.174   2.699  1.00  0.00     0.160 HD
HETATM   25  H8  UNL     1       4.189  -1.770   0.306  1.00  0.00     0.170 HD
ENDBRANCH  14  19
ENDBRANCH   9  11
ENDBRANCH   7   9
TORSDOF 3
