REMARK  2 active torsions:
REMARK  status: ('A' for Active; 'I' for Inactive)
REMARK    1  A    between atoms: C9_9  and  N1_10 
REMARK       I    between atoms: N1_10  and  C10_11 
REMARK    2  A    between atoms: C10_11  and  C11_13 
ROOT
HETATM    1  C1  UNL     1      -5.403   1.712   1.055  1.00  0.00     0.013 C 
HETATM    2  C2  UNL     1      -4.675   0.759   1.263  1.00  0.00    -0.103 C 
HETATM    3  C3  UNL     1      -3.801  -0.379   1.508  1.00  0.00     0.134 C 
HETATM    4  C4  UNL     1      -3.616  -1.197   0.298  1.00  0.00    -0.007 C 
HETATM    5  C5  UNL     1      -2.854  -1.821  -0.616  1.00  0.00    -0.023 C 
HETATM    6  C6  UNL     1      -1.544  -2.251  -1.208  1.00  0.00     0.021 C 
HETATM    7  C7  UNL     1      -0.171  -2.370  -1.266  1.00  0.00     0.004 C 
HETATM    8  C8  UNL     1       0.698  -1.814  -0.167  1.00  0.00     0.062 C 
HETATM    9  C9  UNL     1       1.488  -0.650  -0.428  1.00  0.00     0.010 C 
HETATM   10  C13 UNL     1       0.663   0.163   0.265  1.00  0.00     0.025 C 
HETATM   11  C14 UNL     1      -0.446   0.596   1.058  1.00  0.00     0.139 C 
HETATM   12  C15 UNL     1      -1.072  -0.305   2.068  1.00  0.00     0.088 C 
HETATM   13  C16 UNL     1      -2.538   0.187   2.079  1.00  0.00     0.035 C 
HETATM   14  N2  UNL     1      -2.490   1.348   2.702  1.00  0.00    -0.249 NA
HETATM   15  C17 UNL     1      -1.283   2.157   2.540  1.00  0.00     0.227 C 
HETATM   16  N3  UNL     1      -0.209   1.852   1.825  1.00  0.00    -0.273 NA
ENDROOT
BRANCH   9  17
HETATM   17  N1  UNL     1       2.675  -0.514  -1.149  1.00  0.00    -0.331 N 
HETATM   18  C10 UNL     1       3.500   0.586  -1.426  1.00  0.00     0.221 C 
HETATM   19  O1  UNL     1       3.176   1.709  -0.969  1.00  0.00    -0.273 OA
HETATM   20  H9  UNL     1       2.952  -1.440  -1.532  1.00  0.00     0.168 HD
BRANCH  18  21
HETATM   21  C11 UNL     1       4.732   0.516  -2.222  1.00  0.00     0.098 C 
HETATM   22  C12 UNL     1       5.328   1.921  -2.250  1.00  0.00     0.014 C 
ENDBRANCH  18  21
ENDBRANCH   9  17
TORSDOF 2
