REMARK  6 active torsions:
REMARK  status: ('A' for Active; 'I' for Inactive)
REMARK    1  A    between atoms: C6_7  and  N1_8 
REMARK    2  A    between atoms: N1_8  and  C7_9 
REMARK    3  A    between atoms: C11_15  and  C12_16 
REMARK    4  A    between atoms: C12_16  and  C13_17 
REMARK    5  A    between atoms: C13_17  and  B1_18 
REMARK    6  A    between atoms: B1_18  and  C14_19 
ROOT
HETATM    1  C1  UNL     1      -5.679   2.383   2.465  1.00  0.00     0.011 C 
HETATM    2  S1  UNL     1      -5.237   1.337   1.917  1.00  0.00    -0.063 SA
HETATM    3  C2  UNL     1      -4.707   0.069   1.224  1.00  0.00     0.014 A 
HETATM    4  C3  UNL     1      -5.647  -0.867   0.846  1.00  0.00     0.019 A 
HETATM    5  C4  UNL     1      -5.176  -2.019   0.217  1.00  0.00     0.004 A 
HETATM    6  C5  UNL     1      -3.823  -2.082   0.048  1.00  0.00     0.029 A 
HETATM    7  C6  UNL     1      -2.864  -1.163   0.416  1.00  0.00     0.035 A 
HETATM    8  C16 UNL     1      -3.345  -0.020   1.042  1.00  0.00     0.049 A 
ENDROOT
BRANCH   7   9
HETATM    9  N1  UNL     1      -1.480  -1.379   0.167  1.00  0.00    -0.340 N 
HETATM   10  H5  UNL     1      -0.798  -1.842   0.785  1.00  0.00     0.167 HD
BRANCH   9  11
HETATM   11  C7  UNL     1      -0.961  -0.912  -1.065  1.00  0.00     0.137 A 
HETATM   12  N2  UNL     1      -1.683  -0.837  -2.147  1.00  0.00    -0.224 NA
HETATM   13  C8  UNL     1      -1.103  -0.359  -3.357  1.00  0.00     0.229 A 
HETATM   14  N3  UNL     1       0.105   0.039  -3.565  1.00  0.00    -0.278 NA
HETATM   15  C9  UNL     1       1.051   0.025  -2.469  1.00  0.00     0.192 A 
HETATM   16  C10 UNL     1       0.416  -0.472  -1.246  1.00  0.00     0.004 A 
HETATM   17  C11 UNL     1       1.214  -0.516  -0.187  1.00  0.00    -0.011 C 
BRANCH  17  18
HETATM   18  C12 UNL     1       2.647  -0.112  -0.167  1.00  0.00     0.039 C 
BRANCH  18  19
HETATM   19  C13 UNL     1       2.901   0.990   0.798  1.00  0.00    -0.100 C 
BRANCH  19  20
HETATM   20  B1  UNL     1       4.640   1.388   0.766  1.00  0.00     0.256 B 
BRANCH  20  21
HETATM   21  C14 UNL     1       6.384   1.417   0.390  1.00  0.00     0.071 C 
HETATM   22  C15 UNL     1       7.297   1.515   1.553  1.00  0.00     0.075 C 
HETATM   23  O1  UNL     1       6.793   1.355  -0.809  1.00  0.00    -0.313 OA
ENDBRANCH  20  21
ENDBRANCH  19  20
ENDBRANCH  18  19
ENDBRANCH  17  18
ENDBRANCH   9  11
ENDBRANCH   7   9
TORSDOF 6
