REMARK  8 active torsions:
REMARK  status: ('A' for Active; 'I' for Inactive)
REMARK    1  A    between atoms: O1_2  and  C2_3 
REMARK    2  A    between atoms: C5_6  and  C6_7 
REMARK    3  A    between atoms: C6_7  and  N1_8 
REMARK    4  A    between atoms: N1_8  and  C7_9 
REMARK    5  A    between atoms: C10_15  and  N4_16 
REMARK    6  A    between atoms: N4_16  and  B1_17 
REMARK    7  A    between atoms: B1_17  and  C11_18 
REMARK    8  A    between atoms: C11_18  and  C13_20 
ROOT
HETATM    1  C2  UNL     1      -0.591   3.163  -0.991  1.00  0.00     0.070 A 
HETATM    2  C3  UNL     1       0.451   2.859  -1.837  1.00  0.00     0.037 A 
HETATM    3  C4  UNL     1       1.025   1.612  -1.776  1.00  0.00     0.014 A 
HETATM    4  C5  UNL     1       0.684   0.595  -0.954  1.00  0.00    -0.014 A 
HETATM    5  C10 UNL     1      -0.380   0.907  -0.090  1.00  0.00     0.043 A 
HETATM    6  C14 UNL     1      -0.986   2.153  -0.121  1.00  0.00     0.066 A 
ENDROOT
BRANCH   4   7
HETATM    7  C6  UNL     1       1.205  -0.752  -0.784  1.00  0.00     0.159 C 
BRANCH   7   8
HETATM    8  N1  UNL     1       2.547  -1.012  -1.121  1.00  0.00    -0.375 N 
HETATM    9  H8  UNL     1       2.750  -1.359  -2.077  1.00  0.00     0.157 HD
BRANCH   8  10
HETATM   10  C7  UNL     1       3.575  -0.260  -0.495  1.00  0.00     0.356 A 
HETATM   11  N2  UNL     1       3.454  -0.340   0.926  1.00  0.00    -0.232 NA
HETATM   12  C8  UNL     1       4.287  -0.841   1.741  1.00  0.00     0.233 A 
HETATM   13  N3  UNL     1       5.506  -1.406   1.246  1.00  0.00    -0.231 NA
HETATM   14  C9  UNL     1       5.709  -1.379  -0.044  1.00  0.00     0.257 A 
HETATM   15  O2  UNL     1       4.823  -0.840  -0.940  1.00  0.00    -0.300 OA
ENDBRANCH   8  10
ENDBRANCH   7   8
ENDBRANCH   4   7
BRANCH   5  16
HETATM   16  N4  UNL     1      -0.926   0.041   0.867  1.00  0.00    -0.362 NA
BRANCH  16  17
HETATM   17  B1  UNL     1      -2.316  -0.902   0.719  1.00  0.00     0.311 B 
BRANCH  17  18
HETATM   18  C11 UNL     1      -3.612  -2.011   1.054  1.00  0.00    -0.028 C 
HETATM   19  C12 UNL     1      -3.310  -2.883   2.253  1.00  0.00     0.001 C 
BRANCH  18  20
HETATM   20  C13 UNL     1      -3.902  -2.886  -0.149  1.00  0.00     0.081 C 
HETATM   21 BR1  UNL     1      -2.316  -3.901  -0.597  1.00  0.00    -0.097 Br
ENDBRANCH  18  20
ENDBRANCH  17  18
ENDBRANCH  16  17
ENDBRANCH   5  16
BRANCH   1  22
HETATM   22  O1  UNL     1      -1.202   4.409  -1.014  1.00  0.00    -0.356 OA
HETATM   23  C1  UNL     1      -2.268   4.627  -0.108  1.00  0.00     0.210 C 
ENDBRANCH   1  22
TORSDOF 8
