REMARK  3 active torsions:
REMARK  status: ('A' for Active; 'I' for Inactive)
REMARK    1  A    between atoms: C7_7  and  N1_8 
REMARK    2  A    between atoms: N1_8  and  B1_9 
REMARK    3  A    between atoms: C13_16  and  N3_17 
REMARK       I    between atoms: N3_17  and  C14_18 
ROOT
HETATM    1  C1  UNL     1       7.216  -0.267   1.553  1.00  0.00     0.018 C 
HETATM    2  C2  UNL     1       6.091  -0.396   1.080  1.00  0.00    -0.078 C 
HETATM    3  C3  UNL     1       4.800  -0.570   0.538  1.00  0.00     0.019 A 
HETATM    4  C4  UNL     1       4.587  -1.321  -0.622  1.00  0.00     0.021 A 
HETATM    5  C5  UNL     1       3.399  -1.576  -1.263  1.00  0.00     0.004 A 
HETATM    6  C6  UNL     1       2.282  -1.008  -0.673  1.00  0.00     0.028 A 
HETATM    7  C7  UNL     1       2.408  -0.252   0.473  1.00  0.00     0.015 A 
HETATM    8  C18 UNL     1       3.640  -0.043   1.058  1.00  0.00     0.048 A 
ENDROOT
BRANCH   7   9
HETATM    9  N1  UNL     1       1.175   0.257   0.976  1.00  0.00    -0.430 N 
HETATM   10  H5  UNL     1       0.985  -0.303   1.820  1.00  0.00     0.139 HD
BRANCH   9  11
HETATM   11  B1  UNL     1       0.565   1.372   0.195  1.00  0.00     0.357 B 
HETATM   12  C8  UNL     1       1.439   2.464  -0.483  1.00  0.00    -0.013 C 
HETATM   13  C9  UNL     1       0.783   3.361  -1.201  1.00  0.00     0.073 C 
HETATM   14  N2  UNL     1      -0.384   3.165  -1.645  1.00  0.00    -0.248 NA
HETATM   15  C10 UNL     1      -1.333   2.259  -1.154  1.00  0.00     0.055 A 
HETATM   16  C11 UNL     1      -2.669   2.278  -1.574  1.00  0.00     0.033 A 
HETATM   17  C17 UNL     1      -0.941   1.317  -0.219  1.00  0.00    -0.037 A 
HETATM   18  C12 UNL     1      -3.484   1.329  -0.998  1.00  0.00     0.032 A 
HETATM   19  C13 UNL     1      -3.131   0.378  -0.069  1.00  0.00     0.034 A 
HETATM   20  C16 UNL     1      -1.794   0.387   0.328  1.00  0.00     0.029 A 
BRANCH  19  21
HETATM   21  N3  UNL     1      -4.141  -0.494   0.389  1.00  0.00    -0.328 N 
HETATM   22  C14 UNL     1      -4.631  -1.755  -0.065  1.00  0.00     0.218 C 
HETATM   23  C15 UNL     1      -5.734  -2.426   0.654  1.00  0.00     0.117 C 
HETATM   24  O1  UNL     1      -4.063  -2.238  -1.105  1.00  0.00    -0.274 OA
HETATM   25  H9  UNL     1      -4.550  -0.026   1.234  1.00  0.00     0.169 HD
ENDBRANCH  19  21
ENDBRANCH   9  11
ENDBRANCH   7   9
TORSDOF 3
