REMARK  4 active torsions:
REMARK  status: ('A' for Active; 'I' for Inactive)
REMARK    1  A    between atoms: C3_3  and  C4_4 
REMARK       I    between atoms: C4_4  and  N1_6 
REMARK    2  A    between atoms: N1_6  and  C5_7 
REMARK    3  A    between atoms: C12_17  and  N4_18 
REMARK    4  A    between atoms: N4_18  and  C13_19 
ROOT
HETATM    1  C5  UNL     1       1.696  -0.911  -0.514  1.00  0.00     0.140 C 
HETATM    2  N2  UNL     1       2.475  -1.898  -0.766  1.00  0.00    -0.224 NA
HETATM    3  C6  UNL     1       2.037  -3.028  -1.489  1.00  0.00     0.229 C 
HETATM    4  N3  UNL     1       0.852  -3.102  -1.950  1.00  0.00    -0.278 NA
HETATM    5  C7  UNL     1      -0.149  -2.038  -1.794  1.00  0.00     0.193 C 
HETATM    6  C8  UNL     1       0.235  -1.099  -0.727  1.00  0.00     0.017 C 
HETATM    7  C9  UNL     1      -0.707  -0.571   0.116  1.00  0.00    -0.012 C 
HETATM    8  C10 UNL     1      -0.592   0.234   1.359  1.00  0.00     0.058 C 
HETATM    9  C11 UNL     1      -1.646  -0.316   2.285  1.00  0.00     0.072 C 
HETATM   10  S1  UNL     1      -3.032  -0.571   1.141  1.00  0.00    -0.106 SA
HETATM   11  C12 UNL     1      -2.125  -0.711  -0.244  1.00  0.00     0.073 C 
ENDROOT
BRANCH   1  12
HETATM   12  N1  UNL     1       2.051   0.300   0.185  1.00  0.00    -0.308 N 
HETATM   13  C4  UNL     1       3.404   0.312   0.685  1.00  0.00     0.246 C 
HETATM   14  O1  UNL     1       4.169  -0.695   0.491  1.00  0.00    -0.268 OA
HETATM   15  H6  UNL     1       1.402   1.104   0.282  1.00  0.00     0.170 HD
BRANCH  13  16
HETATM   16  C3  UNL     1       3.876   1.488   1.413  1.00  0.00     0.070 C 
HETATM   17  C2  UNL     1       3.196   2.613   1.693  1.00  0.00    -0.026 C 
HETATM   18  C1  UNL     1       3.788   3.750   2.446  1.00  0.00     0.036 C 
ENDBRANCH  13  16
ENDBRANCH   1  12
BRANCH  11  19
HETATM   19  N4  UNL     1      -2.823  -0.892  -1.520  1.00  0.00    -0.384 N 
HETATM   20  H13 UNL     1      -2.446  -0.939  -2.469  1.00  0.00     0.160 HD
BRANCH  19  21
HETATM   21  C13 UNL     1      -4.268  -1.010  -1.546  1.00  0.00     0.116 C 
HETATM   22  C14 UNL     1      -4.936   0.289  -1.170  1.00  0.00     0.026 C 
ENDBRANCH  19  21
ENDBRANCH  11  19
TORSDOF 4
