REMARK  1 active torsions:
REMARK  status: ('A' for Active; 'I' for Inactive)
REMARK    1  A    between atoms: C2_2  and  C3_3 
ROOT
HETATM    1  C3  UNL     1       3.002  -0.721   0.362  1.00  0.00     0.057 C 
HETATM    2  C4  UNL     1       3.263   0.513   0.005  1.00  0.00     0.034 C 
HETATM    3  C5  UNL     1       2.744   1.830  -0.286  1.00  0.00     0.048 C 
HETATM    4  C6  UNL     1       1.659   2.539  -0.358  1.00  0.00     0.156 C 
HETATM    5  F1  UNL     1       1.803   3.858  -0.714  1.00  0.00    -0.203 F 
HETATM    6  C7  UNL     1       0.187   2.468  -0.231  1.00  0.00     0.166 C 
HETATM    7 CL1  UNL     1      -0.962   3.761  -0.414  1.00  0.00    -0.059 Cl
HETATM    8  N1  UNL     1      -0.447   1.437   0.035  1.00  0.00    -0.216 NA
HETATM    9  C8  UNL     1      -1.800   1.136   0.200  1.00  0.00     0.150 A 
HETATM   10  N2  UNL     1      -2.222   1.989   1.075  1.00  0.00    -0.244 NA
HETATM   11  C9  UNL     1      -3.588   1.925   1.452  1.00  0.00     0.115 A 
HETATM   12  C10 UNL     1      -4.387   1.005   0.909  1.00  0.00    -0.005 A 
HETATM   13  C11 UNL     1      -3.985   0.005  -0.083  1.00  0.00     0.061 A 
HETATM   14  C12 UNL     1      -2.565   0.044  -0.514  1.00  0.00     0.157 A 
HETATM   15  N3  UNL     1      -1.872  -1.218  -0.172  1.00  0.00    -0.345 N 
HETATM   16  C13 UNL     1      -0.840  -2.162   0.202  1.00  0.00     0.473 A 
HETATM   17  O1  UNL     1      -0.296  -1.035   0.160  1.00  0.00    -0.103 OA
HETATM   18  N4  UNL     1       0.572  -2.033   0.505  1.00  0.00     0.201 N 
HETATM   19  N5  UNL     1       1.766  -1.319   0.671  1.00  0.00    -0.187 N 
HETATM   20  H11 UNL     1      -2.540  -2.051  -0.208  1.00  0.00     0.159 HD
HETATM   21  H12 UNL     1       0.853  -3.046   0.719  1.00  0.00     0.356 HD
HETATM   22  H13 UNL     1       1.798  -1.004   1.687  1.00  0.00     0.196 HD
ENDROOT
BRANCH   1  23
HETATM   23  C2  UNL     1       4.043  -1.726   0.511  1.00  0.00     0.021 C 
HETATM   24  C1  UNL     1       3.849  -2.947   0.860  1.00  0.00     0.013 C 
ENDBRANCH   1  23
TORSDOF 1
