REMARK  4 active torsions:
REMARK  status: ('A' for Active; 'I' for Inactive)
REMARK    1  A    between atoms: C5_5  and  N1_6 
REMARK       I    between atoms: N1_6  and  C6_7 
REMARK       I    between atoms: C6_7  and  N2_8 
REMARK    2  A    between atoms: C9_14  and  C10_15 
REMARK    3  A    between atoms: C10_15  and  N5_16 
REMARK    4  A    between atoms: N5_16  and  C11_17 
ROOT
HETATM    1  C1  UNL     1       0.773   1.620  -2.515  1.00  0.00     0.021 C 
HETATM    2  C2  UNL     1      -0.182   1.532  -1.626  1.00  0.00    -0.038 C 
HETATM    3  C3  UNL     1      -1.659   1.802  -1.822  1.00  0.00     0.069 C 
HETATM    4  C4  UNL     1      -2.314   0.509  -1.390  1.00  0.00     0.005 C 
HETATM    5  C5  UNL     1      -2.901   0.264  -0.202  1.00  0.00     0.030 C 
HETATM    6  C7  UNL     1      -2.976   1.261   0.890  1.00  0.00     0.206 C 
HETATM    7  N3  UNL     1      -2.217   0.821   2.063  1.00  0.00    -0.277 NA
HETATM    8  C8  UNL     1      -0.917   0.669   1.939  1.00  0.00     0.227 C 
HETATM    9  N4  UNL     1      -1.000   1.052   0.611  1.00  0.00    -0.245 NA
HETATM   10  C9  UNL     1      -0.011   1.109  -0.191  1.00  0.00     0.059 C 
ENDROOT
BRANCH  10  11
HETATM   11  C10 UNL     1       1.347   0.766   0.229  1.00  0.00     0.179 C 
BRANCH  11  12
HETATM   12  N5  UNL     1       1.952  -0.333  -0.474  1.00  0.00    -0.384 N 
HETATM   13  H14 UNL     1       1.449  -0.853  -1.236  1.00  0.00     0.160 HD
BRANCH  12  14
HETATM   14  C11 UNL     1       3.279  -0.735  -0.126  1.00  0.00     0.030 A 
HETATM   15  C12 UNL     1       3.952  -0.062   0.873  1.00  0.00     0.032 A 
HETATM   16  C13 UNL     1       5.234  -0.403   1.252  1.00  0.00     0.046 A 
HETATM   17  C14 UNL     1       5.838  -1.469   0.581  1.00  0.00     0.138 A 
HETATM   18  F1  UNL     1       7.102  -1.809   0.951  1.00  0.00    -0.204 F 
HETATM   19  C15 UNL     1       5.154  -2.146  -0.429  1.00  0.00     0.074 A 
HETATM   20 CL1  UNL     1       5.942  -3.491  -1.261  1.00  0.00    -0.081 Cl
HETATM   21  C16 UNL     1       3.887  -1.789  -0.784  1.00  0.00     0.056 A 
ENDBRANCH  12  14
ENDBRANCH  11  12
ENDBRANCH  10  11
BRANCH   5  22
HETATM   22  N1  UNL     1      -3.519  -0.926   0.227  1.00  0.00    -0.311 N 
HETATM   23  C6  UNL     1      -4.911  -0.878   0.590  1.00  0.00     0.318 C 
HETATM   24  N2  UNL     1      -5.779  -1.910   1.051  1.00  0.00    -0.352 N 
HETATM   25  O1  UNL     1      -5.823  -0.001   0.641  1.00  0.00    -0.247 OA
HETATM   26  H7  UNL     1      -6.072  -2.413   1.916  1.00  0.00     0.160 HD
HETATM   27  H8  UNL     1      -6.445  -2.500   0.492  1.00  0.00     0.160 HD
HETATM   28  H6  UNL     1      -3.251  -1.931   0.377  1.00  0.00     0.170 HD
ENDBRANCH   5  22
TORSDOF 4
