REMARK  5 active torsions:
REMARK  status: ('A' for Active; 'I' for Inactive)
REMARK       I    between atoms: C2_2  and  N1_4 
REMARK    1  A    between atoms: N1_4  and  C3_5 
REMARK    2  A    between atoms: C8_12  and  C9_13 
REMARK    3  A    between atoms: C10_14  and  C11_15 
REMARK    4  A    between atoms: C12_16  and  C13_17 
REMARK    5  A    between atoms: C14_18  and  N4_19 
ROOT
HETATM    1  C3  UNL     1      -3.076  -0.660  -0.986  1.00  0.00     0.035 A 
HETATM    2  C4  UNL     1      -3.704  -1.684  -0.353  1.00  0.00     0.032 A 
HETATM    3  C5  UNL     1      -3.168  -2.450   0.669  1.00  0.00     0.035 A 
HETATM    4  C6  UNL     1      -1.888  -2.154   1.085  1.00  0.00     0.070 A 
HETATM    5  N2  UNL     1      -1.275  -2.836   2.069  1.00  0.00    -0.241 NA
HETATM    6  C7  UNL     1      -0.028  -2.574   2.498  1.00  0.00     0.234 A 
HETATM    7  N3  UNL     1       0.643  -1.558   1.896  1.00  0.00    -0.241 NA
HETATM    8  C8  UNL     1       0.042  -0.852   0.897  1.00  0.00     0.070 A 
HETATM    9  C15 UNL     1      -1.216  -1.112   0.460  1.00  0.00     0.024 A 
HETATM   10  C16 UNL     1      -1.800  -0.397  -0.540  1.00  0.00     0.045 A 
ENDROOT
BRANCH   8  11
HETATM   11  C9  UNL     1       0.819   0.203   0.317  1.00  0.00     0.032 C 
HETATM   12  C10 UNL     1       2.066   0.439   0.769  1.00  0.00     0.002 C 
BRANCH  12  13
HETATM   13  C11 UNL     1       3.007   1.445   0.324  1.00  0.00     0.000 C 
HETATM   14  C12 UNL     1       4.226   1.642   0.786  1.00  0.00     0.001 C 
BRANCH  14  15
HETATM   15  C13 UNL     1       4.807   0.842   1.843  1.00  0.00     0.016 C 
HETATM   16  C14 UNL     1       6.034   1.081   2.271  1.00  0.00     0.080 C 
BRANCH  16  17
HETATM   17  N4  UNL     1       6.840   2.133   1.720  1.00  0.00    -0.408 N 
HETATM   18  H14 UNL     1       7.428   2.756   1.147  1.00  0.00     0.155 HD
HETATM   19  H15 UNL     1       6.938   2.913   2.437  1.00  0.00     0.155 HD
ENDBRANCH  16  17
ENDBRANCH  14  15
ENDBRANCH  12  13
ENDBRANCH   8  11
BRANCH   1  20
HETATM   20  N1  UNL     1      -3.594   0.123  -2.015  1.00  0.00    -0.327 N 
HETATM   21  C2  UNL     1      -4.844   0.094  -2.671  1.00  0.00     0.218 C 
HETATM   22  C1  UNL     1      -5.301   0.970  -3.756  1.00  0.00     0.117 C 
HETATM   23  O1  UNL     1      -5.676  -0.772  -2.303  1.00  0.00    -0.274 OA
HETATM   24  H4  UNL     1      -3.013   0.905  -2.442  1.00  0.00     0.169 HD
ENDBRANCH   1  20
TORSDOF 5
