REMARK  2 active torsions:
REMARK  status: ('A' for Active; 'I' for Inactive)
REMARK    1  A    between atoms: C5_6  and  N1_7 
REMARK    2  A    between atoms: N1_7  and  C6_8 
ROOT
HETATM    1  C6  UNL     1       0.040   0.608   0.012  1.00  0.00     0.160 A 
HETATM    2  N2  UNL     1       0.339   1.824  -0.430  1.00  0.00    -0.222 NA
HETATM    3  C7  UNL     1      -0.553   2.811  -0.578  1.00  0.00     0.238 A 
HETATM    4  N3  UNL     1      -1.869   2.636  -0.279  1.00  0.00    -0.216 NA
HETATM    5  C8  UNL     1      -2.244   1.418   0.178  1.00  0.00     0.197 A 
HETATM    6  C9  UNL     1      -1.284   0.405   0.323  1.00  0.00     0.128 A 
HETATM    7  N4  UNL     1      -1.565  -0.899   0.810  1.00  0.00    -0.383 N 
HETATM    8  C10 UNL     1      -2.735  -1.733   0.603  1.00  0.00     0.123 C 
HETATM    9  C11 UNL     1      -3.917  -0.938   0.125  1.00  0.00     0.062 C 
HETATM   10  C12 UNL     1      -4.270   0.237   0.981  1.00  0.00     0.199 C 
HETATM   11  I1  UNL     1      -6.347   0.585   1.164  1.00  0.00    -0.054 I 
HETATM   12  O1  UNL     1      -3.630   1.406   0.438  1.00  0.00    -0.317 OA
HETATM   13  H6  UNL     1      -0.775  -1.260   1.405  1.00  0.00     0.159 HD
ENDROOT
BRANCH   1  14
HETATM   14  N1  UNL     1       0.986  -0.433   0.163  1.00  0.00    -0.339 N 
HETATM   15  H4  UNL     1       0.800  -1.425   0.407  1.00  0.00     0.167 HD
BRANCH  14  16
HETATM   16  C5  UNL     1       2.385  -0.274  -0.019  1.00  0.00     0.035 A 
HETATM   17  C4  UNL     1       3.047   0.941  -0.007  1.00  0.00     0.029 A 
HETATM   18  C3  UNL     1       4.392   1.111  -0.199  1.00  0.00     0.004 A 
HETATM   19  C2  UNL     1       5.194   0.014  -0.425  1.00  0.00     0.019 A 
HETATM   20  C1  UNL     1       4.613  -1.231  -0.452  1.00  0.00     0.013 A 
HETATM   21 BR1  UNL     1       5.676  -2.783  -0.763  1.00  0.00    -0.051 Br
HETATM   22  C13 UNL     1       3.257  -1.322  -0.252  1.00  0.00     0.048 A 
ENDBRANCH  14  16
ENDBRANCH   1  14
TORSDOF 2
