REMARK  4 active torsions:
REMARK  status: ('A' for Active; 'I' for Inactive)
REMARK       I    between atoms: N1_1  and  C1_2 
REMARK       I    between atoms: C1_2  and  N2_4 
REMARK    1  A    between atoms: N2_4  and  C2_5 
REMARK    2  A    between atoms: C7_12  and  N5_13 
REMARK    3  A    between atoms: N5_13  and  C8_14 
REMARK    4  A    between atoms: C8_14  and  C9_16 
ROOT
HETATM    1  C9  UNL     1      -4.264   1.328   0.031  1.00  0.00     0.026 C 
HETATM    2  C10 UNL     1      -3.823   2.039   1.037  1.00  0.00     0.217 C 
HETATM    3 CL2  UNL     1      -3.097   2.804   2.441  1.00  0.00    -0.230 Cl
ENDROOT
BRANCH   1   4
HETATM    4  C8  UNL     1      -3.590   0.031   0.090  1.00  0.00     0.204 C 
HETATM    5 CL1  UNL     1      -4.119  -1.092  -1.202  1.00  0.00    -0.098 Cl
BRANCH   4   6
HETATM    6  N5  UNL     1      -2.143   0.094  -0.006  1.00  0.00    -0.353 N 
HETATM    7  H7  UNL     1      -1.816   1.037  -0.192  1.00  0.00     0.163 HD
BRANCH   6   8
HETATM    8  C7  UNL     1      -1.401  -1.119   0.164  1.00  0.00     0.139 A 
HETATM    9  N4  UNL     1      -2.038  -2.252   0.401  1.00  0.00    -0.224 NA
HETATM   10  C6  UNL     1      -1.407  -3.424   0.571  1.00  0.00     0.235 A 
HETATM   11  N3  UNL     1      -0.057  -3.512   0.507  1.00  0.00    -0.241 NA
HETATM   12  C5  UNL     1       0.619  -2.354   0.263  1.00  0.00     0.072 A 
HETATM   13  C4  UNL     1       1.996  -2.421   0.194  1.00  0.00     0.035 A 
HETATM   14  C11 UNL     1      -0.024  -1.147   0.088  1.00  0.00     0.041 A 
HETATM   15  C3  UNL     1       2.650  -1.233  -0.054  1.00  0.00     0.032 A 
HETATM   16  C2  UNL     1       2.068  -0.001  -0.237  1.00  0.00     0.037 A 
HETATM   17  C12 UNL     1       0.698  -0.016  -0.154  1.00  0.00     0.047 A 
BRANCH  16  18
HETATM   18  N2  UNL     1       2.713   1.209  -0.488  1.00  0.00    -0.309 N 
HETATM   19  C1  UNL     1       4.088   1.513  -0.622  1.00  0.00     0.318 C 
HETATM   20  N1  UNL     1       4.645   2.794  -0.881  1.00  0.00    -0.352 N 
HETATM   21  O1  UNL     1       4.903   0.567  -0.503  1.00  0.00    -0.247 OA
HETATM   22  H1  UNL     1       5.002   3.632  -0.345  1.00  0.00     0.160 HD
HETATM   23  H2  UNL     1       4.792   3.108  -1.869  1.00  0.00     0.160 HD
HETATM   24  H3  UNL     1       2.155   2.092  -0.611  1.00  0.00     0.170 HD
ENDBRANCH  16  18
ENDBRANCH   6   8
ENDBRANCH   4   6
ENDBRANCH   1   4
TORSDOF 4
