REMARK  2 active torsions:
REMARK  status: ('A' for Active; 'I' for Inactive)
REMARK    1  A    between atoms: C5_6  and  C6_7 
REMARK    2  A    between atoms: C6_7  and  C7_8 
REMARK       I    between atoms: C7_8  and  N2_9 
ROOT
HETATM    1  N1  UNL     1      -1.293   5.167  -0.035  1.00  0.00    -0.192 NA
HETATM    2  C1  UNL     1      -1.137   4.000  -0.202  1.00  0.00     0.095 C 
HETATM    3  C2  UNL     1      -0.919   2.537  -0.399  1.00  0.00     0.028 C 
HETATM    4  C3  UNL     1      -0.021   1.625  -0.091  1.00  0.00     0.065 C 
HETATM    5  C4  UNL     1       1.278   1.449   0.596  1.00  0.00    -0.008 C 
HETATM    6  C5  UNL     1       1.834   0.243   0.673  1.00  0.00    -0.053 C 
HETATM    7  C8  UNL     1       1.165  -0.974   0.192  1.00  0.00     0.005 C 
HETATM    8  C9  UNL     1       0.204  -1.684  -0.348  1.00  0.00    -0.007 C 
HETATM    9  C10 UNL     1      -0.583  -2.856  -0.874  1.00  0.00     0.141 C 
HETATM   10  N3  UNL     1      -1.776  -2.909  -0.141  1.00  0.00    -0.417 N 
HETATM   11  C11 UNL     1      -2.806  -2.011  -0.390  1.00  0.00     0.135 C 
HETATM   12  C12 UNL     1      -2.645  -0.587  -0.177  1.00  0.00     0.115 A 
HETATM   13  C13 UNL     1      -2.665   0.636   0.182  1.00  0.00     0.109 A 
HETATM   14 CL1  UNL     1      -3.756  -0.326   1.140  1.00  0.00    -0.194 Cl
HETATM   15  C14 UNL     1      -2.936   1.868   0.828  1.00  0.00     0.113 A 
HETATM   16  F1  UNL     1      -2.901   2.295   2.108  1.00  0.00    -0.212 F 
HETATM   17  C15 UNL     1      -3.154   2.108  -0.463  1.00  0.00     0.078 A 
HETATM   18  C16 UNL     1      -2.073   2.245  -1.225  1.00  0.00     0.012 C 
HETATM   19  H11 UNL     1      -1.617  -3.173   0.860  1.00  0.00     0.153 HD
ENDROOT
BRANCH   6  20
HETATM   20  C6  UNL     1       3.102  -0.224   1.278  1.00  0.00     0.140 C 
BRANCH  20  21
HETATM   21  C7  UNL     1       3.968  -0.850   0.215  1.00  0.00     0.219 C 
HETATM   22  N2  UNL     1       5.020  -0.112  -0.380  1.00  0.00    -0.370 N 
HETATM   23  H5  UNL     1       4.945   0.742  -0.987  1.00  0.00     0.159 HD
HETATM   24  H6  UNL     1       5.790   0.420  -0.810  1.00  0.00     0.159 HD
HETATM   25  O1  UNL     1       3.828  -2.012  -0.205  1.00  0.00    -0.273 OA
ENDBRANCH  20  21
ENDBRANCH   6  20
TORSDOF 2
