REMARK  4 active torsions:
REMARK  status: ('A' for Active; 'I' for Inactive)
REMARK    1  A    between atoms: N1_7  and  C6_8 
REMARK    2  A    between atoms: N4_16  and  C12_17 
REMARK    3  A    between atoms: C12_17  and  N5_18 
REMARK    4  A    between atoms: C13_19  and  O1_20 
ROOT
HETATM    1  C6  UNL     1       0.564  -1.190  -1.043  1.00  0.00     0.137 A 
HETATM    2  N2  UNL     1       0.201  -2.183  -1.816  1.00  0.00    -0.224 NA
HETATM    3  C7  UNL     1      -1.176  -2.617  -1.815  1.00  0.00     0.230 A 
HETATM    4  N3  UNL     1      -2.173  -2.165  -1.138  1.00  0.00    -0.268 NA
HETATM    5  C8  UNL     1      -1.980  -1.082  -0.234  1.00  0.00     0.205 A 
HETATM    6  C9  UNL     1      -0.559  -0.643  -0.265  1.00  0.00     0.015 A 
HETATM    7  C10 UNL     1      -0.402   0.397   0.564  1.00  0.00     0.016 C 
HETATM    8  C11 UNL     1      -1.617   0.863   1.300  1.00  0.00     0.306 C 
HETATM    9  N4  UNL     1      -2.736   1.129   0.419  1.00  0.00     0.150 N 
HETATM   10  C13 UNL     1      -2.775   0.151  -0.636  1.00  0.00     0.388 C 
ENDROOT
BRANCH   1  11
HETATM   11  N1  UNL     1       1.852  -0.622  -0.901  1.00  0.00    -0.330 N 
HETATM   12  C5  UNL     1       2.394   0.392  -1.785  1.00  0.00     0.156 C 
HETATM   13  C4  UNL     1       2.934   1.524  -0.982  1.00  0.00     0.013 C 
HETATM   14  C3  UNL     1       3.423   1.291   0.232  1.00  0.00     0.018 C 
HETATM   15  C2  UNL     1       3.474  -0.035   0.863  1.00  0.00     0.080 C 
HETATM   16 CL1  UNL     1       4.072   2.624   1.208  1.00  0.00    -0.089 Cl
HETATM   17  C1  UNL     1       4.940  -0.428   1.006  1.00  0.00     0.020 C 
HETATM   18  C14 UNL     1       2.663  -1.096   0.203  1.00  0.00     0.282 C 
HETATM   19  F1  UNL     1       1.953  -1.847   1.098  1.00  0.00    -0.226 F 
ENDBRANCH   1  11
BRANCH  10  20
HETATM   20  O1  UNL     1      -4.042  -0.167  -1.080  1.00  0.00    -0.366 OA
HETATM   21  H18 UNL     1      -4.249   0.375  -1.907  1.00  0.00     0.212 HD
ENDBRANCH  10  20
BRANCH   9  22
HETATM   22  C12 UNL     1      -4.000   1.066   1.108  1.00  0.00     0.540 C 
BRANCH  22  23
HETATM   23  N5  UNL     1      -5.048   1.340   0.174  1.00  0.00     0.106 N 
HETATM   24  H15 UNL     1      -5.459   2.292   0.296  1.00  0.00     0.315 HD
HETATM   25  H16 UNL     1      -5.799   0.594   0.271  1.00  0.00     0.315 HD
ENDBRANCH  22  23
ENDBRANCH   9  22
TORSDOF 4
