REMARK  3 active torsions:
REMARK  status: ('A' for Active; 'I' for Inactive)
REMARK       I    between atoms: N1_1  and  C1_2 
REMARK    1  A    between atoms: N2_4  and  C2_5 
REMARK    2  A    between atoms: C6_12  and  N5_13 
REMARK    3  A    between atoms: N5_13  and  C7_14 
ROOT
HETATM    1  C2  UNL     1      -2.722   0.290  -0.143  1.00  0.00     0.058 A 
HETATM    2  C3  UNL     1      -3.331  -0.862  -0.100  1.00  0.00     0.167 A 
HETATM    3  O2  UNL     1      -2.798  -2.176  -0.053  1.00  0.00    -0.329 OA
HETATM    4  C4  UNL     1      -1.424  -2.341  -0.085  1.00  0.00     0.288 A 
HETATM    5  N3  UNL     1      -0.797  -3.093   1.039  1.00  0.00    -0.246 NA
HETATM    6  C5  UNL     1       0.424  -2.626   1.324  1.00  0.00     0.232 C 
HETATM    7  N4  UNL     1       1.333  -1.573   0.882  1.00  0.00    -0.224 NA
HETATM    8  C6  UNL     1       0.765  -0.803  -0.112  1.00  0.00     0.140 C 
HETATM    9  C13 UNL     1      -0.712  -1.048  -0.119  1.00  0.00     0.040 A 
HETATM   10  C14 UNL     1      -1.313   0.133  -0.147  1.00  0.00     0.047 A 
ENDROOT
BRANCH   8  11
HETATM   11  N5  UNL     1       1.380   0.311  -0.805  1.00  0.00    -0.340 N 
HETATM   12  H7  UNL     1       0.692   0.934  -1.292  1.00  0.00     0.167 HD
BRANCH  11  13
HETATM   13  C7  UNL     1       2.800   0.291  -0.626  1.00  0.00     0.035 A 
HETATM   14  C8  UNL     1       3.667  -0.058  -1.635  1.00  0.00     0.032 A 
HETATM   15  C9  UNL     1       4.941   0.000  -1.216  1.00  0.00     0.046 A 
HETATM   16  C10 UNL     1       5.511   0.327  -0.019  1.00  0.00     0.138 A 
HETATM   17  F1  UNL     1       6.812   0.368   0.303  1.00  0.00    -0.204 F 
HETATM   18  C11 UNL     1       4.535   0.663   0.931  1.00  0.00     0.074 A 
HETATM   19 CL1  UNL     1       5.035   1.130   2.572  1.00  0.00    -0.081 Cl
HETATM   20  C12 UNL     1       3.156   0.664   0.686  1.00  0.00     0.056 A 
ENDBRANCH  11  13
ENDBRANCH   8  11
BRANCH   1  21
HETATM   21  N2  UNL     1      -3.839   1.070  -0.167  1.00  0.00    -0.319 N 
HETATM   22  C1  UNL     1      -4.939   1.834  -0.194  1.00  0.00     0.249 C 
HETATM   23  N1  UNL     1      -5.369   3.067   0.432  1.00  0.00    -0.363 N 
HETATM   24  O1  UNL     1      -5.558   1.050  -1.043  1.00  0.00    -0.152 OA
HETATM   25  H1  UNL     1      -5.125   3.479  -0.461  1.00  0.00     0.159 HD
HETATM   26  H2  UNL     1      -5.728   3.131   1.438  1.00  0.00     0.159 HD
HETATM   27  H3  UNL     1      -3.261   1.697   0.523  1.00  0.00     0.169 HD
ENDBRANCH   1  21
TORSDOF 3
