REMARK  3 active torsions:
REMARK  status: ('A' for Active; 'I' for Inactive)
REMARK    1  A    between atoms: C7_7  and  N1_8 
REMARK    2  A    between atoms: N1_8  and  C8_9 
REMARK    3  A    between atoms: C12_16  and  N4_17 
REMARK       I    between atoms: N4_17  and  C13_18 
ROOT
HETATM    1  C1  UNL     1       5.634   3.328   0.869  1.00  0.00     0.018 C 
HETATM    2  C2  UNL     1       5.075   2.332   0.554  1.00  0.00    -0.078 C 
HETATM    3  C3  UNL     1       4.378   1.137   0.163  1.00  0.00     0.019 A 
HETATM    4  C4  UNL     1       4.803   0.401  -0.932  1.00  0.00     0.021 A 
HETATM    5  C5  UNL     1       4.117  -0.747  -1.301  1.00  0.00     0.004 A 
HETATM    6  C6  UNL     1       3.030  -1.115  -0.558  1.00  0.00     0.029 A 
HETATM    7  C7  UNL     1       2.572  -0.405   0.547  1.00  0.00     0.035 A 
HETATM    8  C17 UNL     1       3.258   0.729   0.903  1.00  0.00     0.050 A 
ENDROOT
BRANCH   7   9
HETATM    9  N1  UNL     1       1.444  -0.881   1.236  1.00  0.00    -0.341 N 
HETATM   10  H5  UNL     1       1.212  -0.475   2.183  1.00  0.00     0.167 HD
BRANCH   9  11
HETATM   11  C8  UNL     1       0.615  -1.895   0.679  1.00  0.00     0.126 A 
HETATM   12  N2  UNL     1       0.970  -3.203   0.555  1.00  0.00    -0.225 NA
HETATM   13  C9  UNL     1       0.089  -4.084   0.019  1.00  0.00     0.235 A 
HETATM   14  N3  UNL     1      -1.128  -3.693  -0.390  1.00  0.00    -0.242 NA
HETATM   15  C10 UNL     1      -1.587  -2.432  -0.316  1.00  0.00     0.057 A 
HETATM   16  C11 UNL     1      -0.643  -1.613   0.230  1.00  0.00    -0.025 A 
HETATM   17  C16 UNL     1      -2.845  -2.186  -0.732  1.00  0.00     0.032 A 
HETATM   18  B1  UNL     1      -1.123   0.136   0.364  1.00  0.00     0.255 B 
HETATM   19  C12 UNL     1      -2.902   0.242  -0.174  1.00  0.00    -0.035 A 
HETATM   20  C15 UNL     1      -3.379  -0.937  -0.635  1.00  0.00     0.014 A 
BRANCH  19  21
HETATM   21  N4  UNL     1      -3.442   1.493  -0.011  1.00  0.00    -0.342 N 
HETATM   22  C13 UNL     1      -4.746   1.980  -0.283  1.00  0.00     0.217 C 
HETATM   23  C14 UNL     1      -5.220   3.369  -0.063  1.00  0.00     0.117 C 
HETATM   24  O1  UNL     1      -5.552   1.131  -0.751  1.00  0.00    -0.274 OA
HETATM   25  H7  UNL     1      -2.871   2.296   0.376  1.00  0.00     0.167 HD
ENDBRANCH  19  21
ENDBRANCH   9  11
ENDBRANCH   7   9
TORSDOF 3
