REMARK  6 active torsions:
REMARK  status: ('A' for Active; 'I' for Inactive)
REMARK    1  A    between atoms: C2_2  and  C3_3 
REMARK    2  A    between atoms: C5_7  and  N3_8 
REMARK    3  A    between atoms: N3_8  and  C6_9 
REMARK    4  A    between atoms: C12_17  and  C13_18 
REMARK    5  A    between atoms: C13_18  and  C14_19 
REMARK    6  A    between atoms: C14_19  and  N4_20 
REMARK       I    between atoms: N4_20  and  C15_21 
REMARK       I    between atoms: C15_21  and  N5_22 
ROOT
HETATM    1  C3  UNL     1       1.136  -2.719  -0.228  1.00  0.00     0.113 A 
HETATM    2  N1  UNL     1       0.382  -3.768  -0.459  1.00  0.00    -0.233 NA
HETATM    3  C4  UNL     1      -0.935  -3.523  -0.588  1.00  0.00     0.236 A 
HETATM    4  N2  UNL     1      -1.408  -2.279  -0.482  1.00  0.00    -0.223 NA
HETATM    5  C5  UNL     1      -0.646  -1.205  -0.247  1.00  0.00     0.142 A 
HETATM    6  C12 UNL     1       0.704  -1.417  -0.109  1.00  0.00     0.044 A 
ENDROOT
BRANCH   5   7
HETATM    7  N3  UNL     1      -1.268   0.049  -0.157  1.00  0.00    -0.340 N 
HETATM    8  H4  UNL     1      -0.651   0.850  -0.005  1.00  0.00     0.167 HD
BRANCH   7   9
HETATM    9  C6  UNL     1      -2.630   0.393  -0.244  1.00  0.00     0.035 A 
HETATM   10  C7  UNL     1      -3.683  -0.483  -0.285  1.00  0.00     0.032 A 
HETATM   11  C8  UNL     1      -5.013  -0.142  -0.379  1.00  0.00     0.046 A 
HETATM   12  C9  UNL     1      -5.316   1.201  -0.437  1.00  0.00     0.138 A 
HETATM   13  F1  UNL     1      -6.601   1.619  -0.532  1.00  0.00    -0.204 F 
HETATM   14  C10 UNL     1      -4.323   2.152  -0.402  1.00  0.00     0.074 A 
HETATM   15 CL1  UNL     1      -4.721   3.840  -0.476  1.00  0.00    -0.081 Cl
HETATM   16  C11 UNL     1      -3.025   1.714  -0.307  1.00  0.00     0.056 A 
ENDBRANCH   7   9
ENDBRANCH   5   7
BRANCH   6  17
HETATM   17  C13 UNL     1       1.544  -0.447   0.124  1.00  0.00     0.011 C 
BRANCH  17  18
HETATM   18  C14 UNL     1       1.772   0.982   0.342  1.00  0.00     0.152 C 
BRANCH  18  19
HETATM   19  N4  UNL     1       3.173   1.321   0.603  1.00  0.00    -0.340 N 
HETATM   20  C15 UNL     1       3.410   2.700   0.816  1.00  0.00     0.314 C 
HETATM   21  N5  UNL     1       4.766   3.052   1.072  1.00  0.00    -0.352 N 
HETATM   22  O1  UNL     1       2.453   3.521   0.771  1.00  0.00    -0.248 OA
HETATM   23  H12 UNL     1       5.403   3.518   0.377  1.00  0.00     0.160 HD
HETATM   24  H13 UNL     1       5.406   2.966   1.880  1.00  0.00     0.160 HD
HETATM   25  H11 UNL     1       3.903   0.574   0.622  1.00  0.00     0.164 HD
ENDBRANCH  18  19
ENDBRANCH  17  18
ENDBRANCH   6  17
BRANCH   1  26
HETATM   26  C2  UNL     1       2.397  -3.040  -0.115  1.00  0.00    -0.123 C 
HETATM   27  C1  UNL     1       3.695  -3.112  -0.017  1.00  0.00     0.099 C 
ENDBRANCH   1  26
TORSDOF 6
