REMARK  2 active torsions:
REMARK  status: ('A' for Active; 'I' for Inactive)
REMARK    1  A    between atoms: N1_1  and  C1_2 
REMARK    2  A    between atoms: C8_12  and  C9_13 
ROOT
HETATM    1  C1  UNL     1      -2.510  -0.934   0.649  1.00  0.00     0.339 C 
HETATM    2  C2  UNL     1      -1.066  -0.549   0.816  1.00  0.00     0.076 C 
HETATM    3  C3  UNL     1      -0.595   0.723   0.268  1.00  0.00     0.094 A 
HETATM    4  C4  UNL     1      -1.591   1.569  -0.453  1.00  0.00     0.047 A 
HETATM    5  C5  UNL     1      -2.891   1.817  -0.187  1.00  0.00     0.047 C 
HETATM    6  C6  UNL     1      -3.599   1.222   0.972  1.00  0.00     0.115 C 
HETATM    7  N2  UNL     1      -3.428  -0.021   1.353  1.00  0.00    -0.266 NA
HETATM    8  N3  UNL     1      -1.371   2.299  -1.683  1.00  0.00    -0.246 NA
HETATM    9  C7  UNL     1      -0.204   2.186  -2.211  1.00  0.00     0.233 A 
HETATM   10  N4  UNL     1       0.787   1.388  -1.594  1.00  0.00    -0.245 NA
HETATM   11  C8  UNL     1       0.663   0.722  -0.499  1.00  0.00     0.056 A 
ENDROOT
BRANCH  11  12
HETATM   12  C9  UNL     1       1.898   0.032  -0.175  1.00  0.00    -0.009 A 
HETATM   13  C10 UNL     1       3.018   0.073  -0.989  1.00  0.00     0.016 A 
HETATM   14  C11 UNL     1       4.222  -0.541  -0.730  1.00  0.00     0.045 A 
HETATM   15  C12 UNL     1       4.339  -1.262   0.435  1.00  0.00     0.138 A 
HETATM   16  F1  UNL     1       5.522  -1.863   0.684  1.00  0.00    -0.204 F 
HETATM   17  C13 UNL     1       3.288  -1.370   1.319  1.00  0.00     0.073 A 
HETATM   18 CL1  UNL     1       3.451  -2.286   2.788  1.00  0.00    -0.081 Cl
HETATM   19  C14 UNL     1       2.142  -0.715   0.951  1.00  0.00     0.040 A 
ENDBRANCH  11  12
BRANCH   1  20
HETATM   20  N1  UNL     1      -2.715  -2.275   1.091  1.00  0.00     0.103 N 
HETATM   21  H1  UNL     1      -3.372  -2.280   1.909  1.00  0.00     0.315 HD
HETATM   22  H2  UNL     1      -3.174  -2.884   0.377  1.00  0.00     0.315 HD
ENDBRANCH   1  20
TORSDOF 2
