REMARK  0 active torsions:
REMARK  status: ('A' for Active; 'I' for Inactive)
ROOT
HETATM    1  O1  UNL     1       2.130  -0.426   0.050  1.00  0.00    -0.274 OA
HETATM    2  C1  UNL     1       3.311  -0.765  -0.317  1.00  0.00     0.217 C 
HETATM    3  C2  UNL     1       4.304   0.200   0.152  1.00  0.00     0.108 C 
HETATM    4  C3  UNL     1       3.750   1.418   0.796  1.00  0.00     0.011 C 
HETATM    5  C4  UNL     1       3.102   2.436   1.322  1.00  0.00     0.063 C 
HETATM    6  C5  UNL     1       1.818   3.055   1.566  1.00  0.00     0.097 C 
HETATM    7  F1  UNL     1       2.474   4.029   2.223  1.00  0.00    -0.211 F 
HETATM    8  C6  UNL     1       0.485   3.128   1.476  1.00  0.00     0.037 C 
HETATM    9  C7  UNL     1      -0.879   2.825   1.150  1.00  0.00     0.159 A 
HETATM   10  C8  UNL     1      -1.771   2.093   0.598  1.00  0.00     0.088 A 
HETATM   11 CL1  UNL     1      -2.778   3.339   1.296  1.00  0.00    -0.153 Cl
HETATM   12  N1  UNL     1      -2.256   1.038  -0.139  1.00  0.00    -0.334 N 
HETATM   13  C9  UNL     1      -2.736  -0.248  -0.278  1.00  0.00     0.137 A 
HETATM   14  N2  UNL     1      -3.796   0.096   0.364  1.00  0.00    -0.224 NA
HETATM   15  C10 UNL     1      -4.781  -0.954   0.535  1.00  0.00     0.229 A 
HETATM   16  N3  UNL     1      -4.587  -2.119   0.062  1.00  0.00    -0.278 NA
HETATM   17  C11 UNL     1      -3.461  -2.592  -0.677  1.00  0.00     0.192 A 
HETATM   18  C12 UNL     1      -2.427  -1.546  -0.787  1.00  0.00     0.004 A 
HETATM   19  C13 UNL     1      -1.278  -1.940  -1.300  1.00  0.00    -0.012 C 
HETATM   20  C14 UNL     1       0.044  -1.261  -1.530  1.00  0.00     0.047 C 
HETATM   21  C15 UNL     1       1.049  -2.127  -0.856  1.00  0.00     0.126 C 
HETATM   22  N4  UNL     1       2.403  -1.714  -0.789  1.00  0.00    -0.361 N 
HETATM   23  H7  UNL     1      -2.192   1.588  -1.023  1.00  0.00     0.168 HD
HETATM   24  H16 UNL     1       3.224  -2.235  -1.236  1.00  0.00     0.162 HD
ENDROOT
TORSDOF 0
