REMARK  3 active torsions:
REMARK  status: ('A' for Active; 'I' for Inactive)
REMARK       I    between atoms: N1_1  and  C1_2 
REMARK       I    between atoms: C1_2  and  N2_4 
REMARK    1  A    between atoms: N2_4  and  C2_5 
REMARK    2  A    between atoms: C7_12  and  N5_13 
REMARK    3  A    between atoms: N5_13  and  C8_14 
ROOT
HETATM    1  C2  UNL     1      -2.895   0.311  -0.036  1.00  0.00     0.037 A 
HETATM    2  C3  UNL     1      -3.663  -0.598  -0.705  1.00  0.00     0.032 A 
HETATM    3  C4  UNL     1      -3.022  -1.620  -1.370  1.00  0.00     0.035 A 
HETATM    4  C5  UNL     1      -1.653  -1.699  -1.346  1.00  0.00     0.072 A 
HETATM    5  N3  UNL     1      -1.092  -2.740  -2.029  1.00  0.00    -0.241 NA
HETATM    6  C6  UNL     1       0.255  -2.869  -2.041  1.00  0.00     0.236 A 
HETATM    7  N4  UNL     1       1.005  -1.980  -1.386  1.00  0.00    -0.224 NA
HETATM    8  C7  UNL     1       0.545  -0.937  -0.694  1.00  0.00     0.142 A 
HETATM    9  C14 UNL     1      -0.826  -0.816  -0.690  1.00  0.00     0.041 A 
HETATM   10  C15 UNL     1      -1.526   0.178  -0.048  1.00  0.00     0.047 A 
ENDROOT
BRANCH   8  11
HETATM   11  N5  UNL     1       1.318   0.015   0.004  1.00  0.00    -0.340 N 
HETATM   12  H7  UNL     1       0.893   0.792   0.543  1.00  0.00     0.167 HD
BRANCH  11  13
HETATM   13  C8  UNL     1       2.729   0.083   0.094  1.00  0.00     0.035 A 
HETATM   14  C9  UNL     1       3.572  -0.710  -0.653  1.00  0.00     0.032 A 
HETATM   15  C10 UNL     1       4.946  -0.669  -0.579  1.00  0.00     0.046 A 
HETATM   16  C11 UNL     1       5.564   0.202   0.279  1.00  0.00     0.138 A 
HETATM   17  F1  UNL     1       6.910   0.276   0.385  1.00  0.00    -0.204 F 
HETATM   18  C12 UNL     1       4.775   1.010   1.042  1.00  0.00     0.074 A 
HETATM   19 CL1  UNL     1       5.501   2.145   2.159  1.00  0.00    -0.081 Cl
HETATM   20  C13 UNL     1       3.421   0.930   0.930  1.00  0.00     0.056 A 
ENDBRANCH  11  13
ENDBRANCH   8  11
BRANCH   1  21
HETATM   21  N2  UNL     1      -3.563   1.364   0.650  1.00  0.00    -0.309 N 
HETATM   22  C1  UNL     1      -4.109   1.618   1.943  1.00  0.00     0.318 C 
HETATM   23  N1  UNL     1      -4.695   2.907   2.100  1.00  0.00    -0.352 N 
HETATM   24  O1  UNL     1      -4.087   0.785   2.884  1.00  0.00    -0.247 OA
HETATM   25  H1  UNL     1      -5.577   2.914   2.685  1.00  0.00     0.160 HD
HETATM   26  H2  UNL     1      -4.250   3.759   1.649  1.00  0.00     0.160 HD
HETATM   27  H3  UNL     1      -3.594   2.081  -0.124  1.00  0.00     0.170 HD
ENDBRANCH   1  21
TORSDOF 3
