REMARK  5 active torsions:
REMARK  status: ('A' for Active; 'I' for Inactive)
REMARK    1  A    between atoms: C1_2  and  N2_3 
REMARK    2  A    between atoms: N2_3  and  C2_4 
REMARK    3  A    between atoms: C2_4  and  C3_5 
REMARK    4  A    between atoms: C5_7  and  N3_8 
REMARK    5  A    between atoms: N3_8  and  C6_9 
ROOT
HETATM    1  C3  UNL     1      -1.926  -0.831   0.899  1.00  0.00    -0.021 C 
HETATM    2  C4  UNL     1      -1.213  -1.455  -0.061  1.00  0.00     0.047 C 
HETATM    3  C5  UNL     1       0.144  -1.192  -0.442  1.00  0.00     0.140 C 
HETATM    4  N4  UNL     1       0.528  -1.661  -1.571  1.00  0.00    -0.224 NA
HETATM    5  C12 UNL     1      -0.392  -2.435  -2.332  1.00  0.00     0.232 C 
HETATM    6  N5  UNL     1      -1.606  -2.775  -1.999  1.00  0.00    -0.242 NA
HETATM    7  C13 UNL     1      -2.137  -2.404  -0.760  1.00  0.00     0.380 C 
HETATM    8  N6  UNL     1      -3.416  -1.801  -0.633  1.00  0.00     0.116 N 
HETATM    9  C14 UNL     1      -3.318  -1.467   0.804  1.00  0.00     0.309 C 
HETATM   10  H12 UNL     1      -3.588  -0.990  -1.228  1.00  0.00     0.319 HD
ENDROOT
BRANCH   3  11
HETATM   11  N3  UNL     1       1.040  -0.529   0.387  1.00  0.00    -0.340 N 
HETATM   12  H6  UNL     1       0.956  -0.723   1.400  1.00  0.00     0.167 HD
BRANCH  11  13
HETATM   13  C6  UNL     1       2.051   0.366  -0.144  1.00  0.00     0.035 A 
HETATM   14  C7  UNL     1       2.911   0.923   0.806  1.00  0.00     0.032 A 
HETATM   15  C8  UNL     1       3.913   1.789   0.465  1.00  0.00     0.046 A 
HETATM   16  C9  UNL     1       4.082   2.122  -0.839  1.00  0.00     0.138 A 
HETATM   17  F1  UNL     1       5.030   2.962  -1.299  1.00  0.00    -0.204 F 
HETATM   18  C10 UNL     1       3.243   1.584  -1.804  1.00  0.00     0.074 A 
HETATM   19 CL1  UNL     1       3.404   1.974  -3.515  1.00  0.00    -0.081 Cl
HETATM   20  C11 UNL     1       2.244   0.716  -1.432  1.00  0.00     0.056 A 
ENDBRANCH  11  13
ENDBRANCH   3  11
BRANCH   1  21
HETATM   21  C2  UNL     1      -1.861   0.211   1.904  1.00  0.00     0.157 C 
BRANCH  21  22
HETATM   22  N2  UNL     1      -0.773   1.085   2.072  1.00  0.00    -0.381 N 
HETATM   23  H3  UNL     1      -0.098   1.043   2.885  1.00  0.00     0.160 HD
BRANCH  22  24
HETATM   24  C1  UNL     1      -0.545   2.118   1.072  1.00  0.00     0.193 C 
HETATM   25  N1  UNL     1      -1.254   2.232  -0.005  1.00  0.00    -0.296 NA
HETATM   26  H1  UNL     1      -2.042   1.618  -0.271  1.00  0.00     0.187 HD
ENDBRANCH  22  24
ENDBRANCH  21  22
ENDBRANCH   1  21
TORSDOF 5
