REMARK  4 active torsions:
REMARK  status: ('A' for Active; 'I' for Inactive)
REMARK    1  A    between atoms: C1_2  and  N1_3 
REMARK    2  A    between atoms: N1_3  and  C2_4 
REMARK    3  A    between atoms: C7_11  and  N4_12 
REMARK    4  A    between atoms: N4_12  and  C8_13 
ROOT
HETATM    1  C2  UNL     1       3.237   0.083  -0.122  1.00  0.00     0.035 A 
HETATM    2  C3  UNL     1       3.862  -1.042   0.368  1.00  0.00     0.032 A 
HETATM    3  C4  UNL     1       3.093  -2.092   0.831  1.00  0.00     0.035 A 
HETATM    4  C5  UNL     1       1.739  -1.967   0.782  1.00  0.00     0.072 A 
HETATM    5  N2  UNL     1       0.991  -3.015   1.244  1.00  0.00    -0.241 NA
HETATM    6  C6  UNL     1      -0.359  -2.940   1.218  1.00  0.00     0.236 A 
HETATM    7  N3  UNL     1      -1.024  -1.879   0.756  1.00  0.00    -0.224 NA
HETATM    8  C7  UNL     1      -0.342  -0.824   0.291  1.00  0.00     0.142 A 
HETATM    9  C14 UNL     1       1.033  -0.881   0.309  1.00  0.00     0.041 A 
HETATM   10  C15 UNL     1       1.859   0.117  -0.131  1.00  0.00     0.047 A 
ENDROOT
BRANCH   8  11
HETATM   11  N4  UNL     1      -0.981   0.317  -0.205  1.00  0.00    -0.340 N 
HETATM   12  H6  UNL     1      -0.447   1.142  -0.543  1.00  0.00     0.167 HD
BRANCH  11  13
HETATM   13  C8  UNL     1      -2.349   0.570  -0.345  1.00  0.00     0.035 A 
HETATM   14  C9  UNL     1      -3.321  -0.397  -0.230  1.00  0.00     0.032 A 
HETATM   15  C10 UNL     1      -4.675  -0.195  -0.345  1.00  0.00     0.046 A 
HETATM   16  C11 UNL     1      -5.151   1.070  -0.597  1.00  0.00     0.138 A 
HETATM   17  F1  UNL     1      -6.458   1.390  -0.730  1.00  0.00    -0.204 F 
HETATM   18  C12 UNL     1      -4.240   2.094  -0.726  1.00  0.00     0.074 A 
HETATM   19 CL1  UNL     1      -4.778   3.721  -1.046  1.00  0.00    -0.081 Cl
HETATM   20  C13 UNL     1      -2.901   1.810  -0.597  1.00  0.00     0.056 A 
ENDBRANCH  11  13
ENDBRANCH   8  11
BRANCH   1  21
HETATM   21  N1  UNL     1       4.104   1.090  -0.566  1.00  0.00    -0.334 N 
HETATM   22  H2  UNL     1       4.231   0.840  -1.557  1.00  0.00     0.168 HD
BRANCH  21  23
HETATM   23  C1  UNL     1       4.734   2.222   0.044  1.00  0.00     0.353 C 
HETATM   24  O1  UNL     1       4.608   2.563   1.245  1.00  0.00    -0.283 OA
ENDBRANCH  21  23
ENDBRANCH   1  21
TORSDOF 4
