REMARK  2 active torsions:
REMARK  status: ('A' for Active; 'I' for Inactive)
REMARK       I    between atoms: C2_2  and  N1_4 
REMARK    1  A    between atoms: N1_4  and  C3_5 
REMARK    2  A    between atoms: C8_12  and  N4_13 
ROOT
HETATM    1  C3  UNL     1      -1.042   0.510   0.269  1.00  0.00     0.081 C 
HETATM    2  C4  UNL     1      -2.058   1.047   0.914  1.00  0.00     0.035 C 
HETATM    3  C5  UNL     1      -2.454   2.302   1.544  1.00  0.00     0.022 C 
HETATM    4  C6  UNL     1      -2.016   3.550   1.311  1.00  0.00     0.118 C 
HETATM    5  N2  UNL     1      -1.058   4.163   0.430  1.00  0.00    -0.254 NA
HETATM    6  C7  UNL     1      -0.011   3.670  -0.182  1.00  0.00     0.235 C 
HETATM    7  N3  UNL     1       0.607   2.377  -0.240  1.00  0.00    -0.222 NA
HETATM    8  C8  UNL     1       0.223   1.146  -0.069  1.00  0.00     0.158 C 
ENDROOT
BRANCH   8   9
HETATM    9  N4  UNL     1       1.284   0.197  -0.254  1.00  0.00    -0.335 N 
HETATM   10  C9  UNL     1       1.795  -0.028  -1.563  1.00  0.00     0.120 A 
HETATM   11  C10 UNL     1       2.772  -0.917  -1.661  1.00  0.00     0.087 A 
HETATM   12 CL1  UNL     1       3.484  -1.277  -3.238  1.00  0.00    -0.080 Cl
HETATM   13  C11 UNL     1       3.341  -1.658  -0.541  1.00  0.00     0.137 A 
HETATM   14  F1  UNL     1       4.342  -2.558  -0.694  1.00  0.00    -0.205 F 
HETATM   15  C12 UNL     1       2.825  -1.409   0.668  1.00  0.00     0.037 A 
HETATM   16  C13 UNL     1       1.730  -0.449   0.966  1.00  0.00     0.160 A 
ENDBRANCH   8   9
BRANCH   1  17
HETATM   17  N1  UNL     1      -1.061  -0.818  -0.204  1.00  0.00    -0.324 N 
HETATM   18  C2  UNL     1      -1.971  -1.897  -0.220  1.00  0.00     0.218 C 
HETATM   19  C1  UNL     1      -1.793  -3.253  -0.781  1.00  0.00     0.117 C 
HETATM   20  O1  UNL     1      -3.076  -1.722   0.294  1.00  0.00    -0.274 OA
HETATM   21  H4  UNL     1      -0.198  -1.186  -0.688  1.00  0.00     0.169 HD
ENDBRANCH   1  17
TORSDOF 2
