REMARK  6 active torsions:
REMARK  status: ('A' for Active; 'I' for Inactive)
REMARK    1  A    between atoms: B1_1  and  O1_2 
REMARK    2  A    between atoms: O1_2  and  C1_3 
REMARK    3  A    between atoms: C1_3  and  N1_5 
REMARK    4  A    between atoms: N1_5  and  C3_6 
REMARK    5  A    between atoms: C8_13  and  N4_14 
REMARK    6  A    between atoms: N4_14  and  C9_15 
ROOT
HETATM    1  C3  UNL     1       2.507  -1.363  -0.087  1.00  0.00     0.030 A 
HETATM    2  C4  UNL     1       2.675  -2.736  -0.306  1.00  0.00     0.031 A 
HETATM    3  C5  UNL     1       1.593  -3.557  -0.505  1.00  0.00     0.035 A 
HETATM    4  C6  UNL     1       0.334  -2.998  -0.483  1.00  0.00     0.072 A 
HETATM    5  N2  UNL     1      -0.703  -3.842  -0.682  1.00  0.00    -0.241 NA
HETATM    6  C7  UNL     1      -1.971  -3.383  -0.676  1.00  0.00     0.236 A 
HETATM    7  N3  UNL     1      -2.186  -2.080  -0.472  1.00  0.00    -0.224 NA
HETATM    8  C8  UNL     1      -1.212  -1.187  -0.268  1.00  0.00     0.142 A 
HETATM    9  C15 UNL     1       0.079  -1.662  -0.275  1.00  0.00     0.041 A 
HETATM   10  C16 UNL     1       1.213  -0.915  -0.086  1.00  0.00     0.046 A 
ENDROOT
BRANCH   8  11
HETATM   11  N4  UNL     1      -1.425   0.173  -0.052  1.00  0.00    -0.340 N 
HETATM   12  H11 UNL     1      -0.645   0.846   0.075  1.00  0.00     0.167 HD
BRANCH  11  13
HETATM   13  C9  UNL     1      -2.628   0.916   0.042  1.00  0.00     0.035 A 
HETATM   14  C10 UNL     1      -2.736   2.311   0.100  1.00  0.00     0.032 A 
HETATM   15  C11 UNL     1      -3.936   2.971   0.198  1.00  0.00     0.046 A 
HETATM   16  C12 UNL     1      -5.124   2.285   0.247  1.00  0.00     0.138 A 
HETATM   17  F1  UNL     1      -6.221   3.049   0.343  1.00  0.00    -0.204 F 
HETATM   18  C13 UNL     1      -5.070   0.910   0.194  1.00  0.00     0.074 A 
HETATM   19 CL1  UNL     1      -6.616   0.092   0.261  1.00  0.00    -0.081 Cl
HETATM   20  C14 UNL     1      -3.848   0.281   0.095  1.00  0.00     0.056 A 
ENDBRANCH  11  13
ENDBRANCH   8  11
BRANCH   1  21
HETATM   21  N1  UNL     1       3.620  -0.510   0.116  1.00  0.00    -0.365 N 
HETATM   22  H7  UNL     1       4.578  -0.969   0.087  1.00  0.00     0.162 HD
BRANCH  21  23
HETATM   23  C1  UNL     1       3.535   0.896   0.354  1.00  0.00     0.196 C 
HETATM   24  C2  UNL     1       2.792   1.125   1.648  1.00  0.00     0.061 C 
BRANCH  23  25
HETATM   25  O1  UNL     1       2.899   1.621  -0.643  1.00  0.00    -0.443 OA
BRANCH  25  26
HETATM   26  B1  UNL     1       3.746   2.678  -1.188  1.00  0.00     0.293 B 
HETATM   27  H1  UNL     1       3.401   3.163  -2.209  1.00  0.00     0.002 HD
HETATM   28  H2  UNL     1       4.912   2.555  -1.024  1.00  0.00     0.002 HD
ENDBRANCH  25  26
ENDBRANCH  23  25
ENDBRANCH  21  23
ENDBRANCH   1  21
TORSDOF 6
