REMARK  4 active torsions:
REMARK  status: ('A' for Active; 'I' for Inactive)
REMARK       I    between atoms: C2_2  and  N1_4 
REMARK    1  A    between atoms: N1_4  and  C3_5 
REMARK    2  A    between atoms: C6_8  and  N2_9 
REMARK    3  A    between atoms: C8_12  and  B1_13 
REMARK    4  A    between atoms: B1_13  and  C9_15 
ROOT
HETATM    1  C3  UNL     1      -1.666  -0.380  -0.122  1.00  0.00     0.009 C 
HETATM    2  C4  UNL     1      -2.477   0.541  -0.673  1.00  0.00     0.005 C 
HETATM    3  C5  UNL     1      -2.393   1.977  -0.949  1.00  0.00     0.106 C 
HETATM    4  C6  UNL     1      -1.560   2.706   0.055  1.00  0.00     0.095 C 
HETATM    5  N3  UNL     1      -0.794   2.288   0.980  1.00  0.00    -0.277 NA
HETATM    6  C7  UNL     1      -0.388   1.011   1.471  1.00  0.00     0.155 C 
HETATM    7  C8  UNL     1      -0.295  -0.045   0.397  1.00  0.00     0.058 C 
ENDROOT
BRANCH   7   8
HETATM    8  B1  UNL     1       0.703   0.321  -0.758  1.00  0.00     0.428 B 
HETATM    9  F1  UNL     1       0.306   0.697  -2.089  1.00  0.00    -0.340 F 
BRANCH   8  10
HETATM   10  C9  UNL     1       2.236   0.151  -0.527  1.00  0.00    -0.058 A 
HETATM   11  C10 UNL     1       2.976   1.038   0.208  1.00  0.00    -0.002 A 
HETATM   12  C11 UNL     1       4.333   0.906   0.424  1.00  0.00     0.001 A 
HETATM   13  C12 UNL     1       5.013  -0.181  -0.124  1.00  0.00     0.024 A 
HETATM   14  C13 UNL     1       4.285  -1.075  -0.861  1.00  0.00     0.033 A 
HETATM   15 CL1  UNL     1       5.183  -2.433  -1.535  1.00  0.00    -0.084 Cl
HETATM   16  C14 UNL     1       2.923  -0.924  -1.066  1.00  0.00     0.022 A 
ENDBRANCH   8  10
ENDBRANCH   7   8
BRANCH   1  17
HETATM   17  N1  UNL     1      -2.167  -1.722  -0.046  1.00  0.00    -0.332 N 
HETATM   18  C2  UNL     1      -1.789  -2.998  -0.537  1.00  0.00     0.217 C 
HETATM   19  C1  UNL     1      -2.642  -4.138  -0.190  1.00  0.00     0.117 C 
HETATM   20  O1  UNL     1      -0.771  -3.150  -1.238  1.00  0.00    -0.274 OA
HETATM   21  H4  UNL     1      -3.026  -1.615   0.541  1.00  0.00     0.168 HD
ENDBRANCH   1  17
BRANCH   4  22
HETATM   22  N2  UNL     1      -1.716   4.109  -0.134  1.00  0.00    -0.387 N 
HETATM   23  H8  UNL     1      -2.613   4.207   0.422  1.00  0.00     0.157 HD
HETATM   24  H9  UNL     1      -1.640   5.106  -0.387  1.00  0.00     0.157 HD
ENDBRANCH   4  22
TORSDOF 4
