REMARK  5 active torsions:
REMARK  status: ('A' for Active; 'I' for Inactive)
REMARK    1  A    between atoms: N1_1  and  C1_2 
REMARK    2  A    between atoms: C10_15  and  O1_16 
REMARK    3  A    between atoms: O1_16  and  C11_17 
REMARK    4  A    between atoms: C11_17  and  C12_18 
REMARK    5  A    between atoms: C12_18  and  C13_19 
ROOT
HETATM    1  C1  UNL     1      -1.948   1.523   1.734  1.00  0.00     0.121 C 
HETATM    2  N2  UNL     1      -2.876   2.346   1.279  1.00  0.00    -0.166 NA
HETATM    3  N3  UNL     1      -4.177   1.869   1.099  1.00  0.00    -0.312 N 
HETATM    4  C2  UNL     1      -5.581   1.536   1.243  1.00  0.00     0.145 C 
HETATM    5  C3  UNL     1      -5.986   0.564   0.119  1.00  0.00     0.048 C 
HETATM    6  C4  UNL     1      -5.106  -0.656   0.291  1.00  0.00    -0.029 C 
HETATM    7  C5  UNL     1      -4.208  -1.197  -0.510  1.00  0.00    -0.030 C 
HETATM    8  C6  UNL     1      -3.793  -0.746  -1.850  1.00  0.00     0.029 C 
HETATM    9  C7  UNL     1      -2.329  -0.377  -1.905  1.00  0.00     0.037 C 
HETATM   10  C8  UNL     1      -1.517  -1.563  -1.482  1.00  0.00     0.224 A 
HETATM   11  N4  UNL     1      -0.095  -1.359  -1.528  1.00  0.00    -0.265 NA
HETATM   12  C9  UNL     1       0.483  -0.522  -0.772  1.00  0.00     0.141 A 
HETATM   13 CL1  UNL     1       0.021  -1.723  -1.923  1.00  0.00    -0.143 Cl
HETATM   14  C10 UNL     1       0.914   0.461   0.162  1.00  0.00     0.104 C 
HETATM   15  C18 UNL     1       0.282   1.177   1.005  1.00  0.00     0.021 C 
HETATM   16  C19 UNL     1      -0.547   1.949   1.937  1.00  0.00     0.110 C 
HETATM   17  H3  UNL     1      -3.787   1.531   0.161  1.00  0.00     0.182 HD
ENDROOT
BRANCH  14  18
HETATM   18  O1  UNL     1       2.071   0.085  -0.422  1.00  0.00    -0.344 OA
BRANCH  18  19
HETATM   19  C11 UNL     1       3.086  -0.578   0.347  1.00  0.00     0.204 C 
BRANCH  19  20
HETATM   20  C12 UNL     1       4.251  -0.909  -0.472  1.00  0.00     0.011 C 
BRANCH  20  21
HETATM   21  C13 UNL     1       5.517  -0.550  -0.377  1.00  0.00    -0.035 A 
HETATM   22  C14 UNL     1       6.382  -1.101  -1.403  1.00  0.00     0.012 A 
HETATM   23  C15 UNL     1       7.661  -0.881  -1.505  1.00  0.00     0.011 A 
HETATM   24  P1  UNL     1       8.502   0.201  -0.290  1.00  0.00    -0.040 P 
HETATM   25  C16 UNL     1       7.160   0.735   0.864  1.00  0.00     0.121 A 
HETATM   26  H21 UNL     1       9.088   1.351  -0.956  1.00  0.00     0.069 HD
HETATM   27  F1  UNL     1       7.754   1.520   1.751  1.00  0.00    -0.205 F 
HETATM   28  C17 UNL     1       5.944   0.317   0.675  1.00  0.00     0.054 A 
ENDBRANCH  20  21
ENDBRANCH  19  20
ENDBRANCH  18  19
ENDBRANCH  14  18
BRANCH   1  29
HETATM   29  N1  UNL     1      -2.331   0.175   2.019  1.00  0.00    -0.386 N 
HETATM   30  H1  UNL     1      -3.233  -0.028   2.502  1.00  0.00     0.157 HD
HETATM   31  H2  UNL     1      -1.659  -0.562   1.716  1.00  0.00     0.157 HD
ENDBRANCH   1  29
TORSDOF 5
