REMARK  6 active torsions:
REMARK  status: ('A' for Active; 'I' for Inactive)
REMARK       I    between atoms: N1_1  and  C1_2 
REMARK       I    between atoms: C1_2  and  N2_4 
REMARK    1  A    between atoms: N2_4  and  C2_5 
REMARK    2  A    between atoms: C7_12  and  N5_13 
REMARK    3  A    between atoms: N5_13  and  C8_14 
REMARK    4  A    between atoms: C11_17  and  O2_18 
REMARK    5  A    between atoms: O2_18  and  C12_19 
REMARK    6  A    between atoms: C12_19  and  C13_20 
ROOT
HETATM    1  C2  UNL     1       4.532  -0.029   0.298  1.00  0.00     0.037 A 
HETATM    2  C3  UNL     1       5.282   1.006   0.796  1.00  0.00     0.032 A 
HETATM    3  C4  UNL     1       4.926   2.334   0.781  1.00  0.00     0.035 A 
HETATM    4  C5  UNL     1       3.689   2.623   0.204  1.00  0.00     0.072 A 
HETATM    5  N3  UNL     1       3.286   3.900   0.154  1.00  0.00    -0.241 NA
HETATM    6  C6  UNL     1       2.102   4.214  -0.400  1.00  0.00     0.236 A 
HETATM    7  N4  UNL     1       1.275   3.284  -0.923  1.00  0.00    -0.224 NA
HETATM    8  C7  UNL     1       1.645   1.967  -0.893  1.00  0.00     0.142 A 
HETATM    9  C20 UNL     1       2.876   1.639  -0.317  1.00  0.00     0.041 A 
HETATM   10  C21 UNL     1       3.329   0.340  -0.251  1.00  0.00     0.047 A 
ENDROOT
BRANCH   8  11
HETATM   11  N5  UNL     1       0.939   0.853  -1.395  1.00  0.00    -0.340 N 
HETATM   12  H7  UNL     1       1.415   0.567  -2.283  1.00  0.00     0.167 HD
BRANCH  11  13
HETATM   13  C8  UNL     1      -0.194   0.141  -0.928  1.00  0.00     0.035 A 
HETATM   14  C9  UNL     1      -1.132   0.692  -0.087  1.00  0.00     0.032 A 
HETATM   15  C10 UNL     1      -2.215  -0.020   0.365  1.00  0.00     0.041 A 
HETATM   16  C11 UNL     1      -2.387  -1.337  -0.024  1.00  0.00     0.091 A 
HETATM   17  C18 UNL     1      -1.442  -1.920  -0.880  1.00  0.00     0.069 A 
HETATM   18 CL1  UNL     1      -1.492  -3.571  -1.475  1.00  0.00    -0.081 Cl
HETATM   19  C19 UNL     1      -0.348  -1.167  -1.326  1.00  0.00     0.056 A 
BRANCH  16  20
HETATM   20  O2  UNL     1      -3.368  -2.254   0.283  1.00  0.00    -0.345 OA
BRANCH  20  21
HETATM   21  C12 UNL     1      -4.460  -1.944   1.113  1.00  0.00     0.214 C 
BRANCH  21  22
HETATM   22  C13 UNL     1      -5.297  -0.880   0.543  1.00  0.00    -0.035 A 
HETATM   23  C14 UNL     1      -5.354  -0.089  -0.548  1.00  0.00     0.023 A 
HETATM   24  C15 UNL     1      -6.522   0.844  -0.534  1.00  0.00     0.216 A 
HETATM   25  F1  UNL     1      -7.379   0.601  -1.574  1.00  0.00    -0.241 F 
HETATM   26  C16 UNL     1      -7.144   0.464   0.762  1.00  0.00     0.014 A 
HETATM   27  C17 UNL     1      -6.458  -0.506   1.371  1.00  0.00     0.008 A 
ENDBRANCH  21  22
ENDBRANCH  20  21
ENDBRANCH  16  20
ENDBRANCH  11  13
ENDBRANCH   8  11
BRANCH   1  28
HETATM   28  N2  UNL     1       4.854  -1.395   0.278  1.00  0.00    -0.309 N 
HETATM   29  C1  UNL     1       6.019  -2.040   0.731  1.00  0.00     0.318 C 
HETATM   30  N1  UNL     1       6.480  -3.371   0.776  1.00  0.00    -0.352 N 
HETATM   31  O1  UNL     1       6.944  -1.331   1.242  1.00  0.00    -0.247 OA
HETATM   32  H1  UNL     1       6.287  -4.316   1.165  1.00  0.00     0.160 HD
HETATM   33  H2  UNL     1       7.357  -3.675   0.253  1.00  0.00     0.160 HD
HETATM   34  H3  UNL     1       4.214  -2.110  -0.101  1.00  0.00     0.170 HD
ENDBRANCH   1  28
TORSDOF 6
