REMARK  4 active torsions:
REMARK  status: ('A' for Active; 'I' for Inactive)
REMARK       I    between atoms: N1_1  and  C1_2 
REMARK    1  A    between atoms: C1_2  and  C2_4 
REMARK    2  A    between atoms: C11_15  and  O2_16 
REMARK    3  A    between atoms: O2_16  and  C12_17 
REMARK    4  A    between atoms: C12_17  and  C13_18 
ROOT
HETATM    1  C2  UNL     1      -5.791   0.249   0.393  1.00  0.00     0.026 A 
HETATM    2  C3  UNL     1      -5.614   0.232  -0.970  1.00  0.00     0.017 A 
HETATM    3  C4  UNL     1      -4.389  -0.131  -1.491  1.00  0.00     0.010 A 
HETATM    4  C5  UNL     1      -3.332  -0.478  -0.674  1.00  0.00    -0.031 A 
HETATM    5  C6  UNL     1      -3.466  -0.475   0.705  1.00  0.00    -0.029 A 
HETATM    6  C7  UNL     1      -4.720  -0.103   1.187  1.00  0.00     0.026 A 
HETATM    7  C8  UNL     1      -2.367  -0.839   1.659  1.00  0.00     0.187 C 
HETATM    8  N2  UNL     1      -1.137  -0.680   0.907  1.00  0.00    -0.299 N 
HETATM    9  C9  UNL     1       0.001  -0.845   1.775  1.00  0.00     0.137 C 
HETATM   10  C10 UNL     1       1.288  -0.506   1.593  1.00  0.00     0.084 C 
HETATM   11 CL1  UNL     1       2.484  -0.818   2.812  1.00  0.00    -0.080 Cl
HETATM   12  C11 UNL     1       1.815   0.141   0.394  1.00  0.00     0.090 C 
HETATM   13  C19 UNL     1       1.164   0.694  -0.626  1.00  0.00     0.033 C 
HETATM   14  C20 UNL     1      -0.309   0.778  -0.773  1.00  0.00     0.173 C 
HETATM   15  N3  UNL     1      -1.002  -0.412  -0.435  1.00  0.00    -0.318 N 
HETATM   16  C21 UNL     1      -2.021  -0.864  -1.293  1.00  0.00     0.182 C 
ENDROOT
BRANCH  12  17
HETATM   17  O2  UNL     1       3.194   0.237   0.208  1.00  0.00    -0.345 OA
BRANCH  17  18
HETATM   18  C12 UNL     1       4.000  -0.825  -0.201  1.00  0.00     0.214 C 
BRANCH  18  19
HETATM   19  C13 UNL     1       5.407  -0.314  -0.280  1.00  0.00    -0.031 A 
HETATM   20  C14 UNL     1       5.831   0.223  -1.494  1.00  0.00     0.009 A 
HETATM   21  C15 UNL     1       7.082   0.740  -1.757  1.00  0.00     0.004 A 
HETATM   22  C16 UNL     1       7.965   0.706  -0.703  1.00  0.00     0.042 A 
HETATM   23  C17 UNL     1       7.583   0.182   0.515  1.00  0.00     0.117 A 
HETATM   24  F1  UNL     1       8.488   0.162   1.549  1.00  0.00    -0.206 F 
HETATM   25  C18 UNL     1       6.317  -0.332   0.753  1.00  0.00     0.051 A 
ENDBRANCH  18  19
ENDBRANCH  17  18
ENDBRANCH  12  17
BRANCH   1  26
HETATM   26  C1  UNL     1      -7.073   0.627   0.967  1.00  0.00     0.228 C 
HETATM   27  N1  UNL     1      -8.147   0.980   0.125  1.00  0.00    -0.268 NA
HETATM   28  H1  UNL     1      -8.538   1.772  -0.434  1.00  0.00     0.127 HD
HETATM   29  H2  UNL     1      -8.428   1.863  -0.396  1.00  0.00     0.127 HD
HETATM   30  O1  UNL     1      -7.187   0.627   2.240  1.00  0.00    -0.274 OA
ENDBRANCH   1  26
TORSDOF 4
