REMARK  6 active torsions:
REMARK  status: ('A' for Active; 'I' for Inactive)
REMARK    1  A    between atoms: C5_5  and  C6_6 
REMARK    2  A    between atoms: C6_6  and  O1_7 
REMARK    3  A    between atoms: O1_7  and  C7_8 
REMARK    4  A    between atoms: C7_8  and  C8_9 
REMARK    5  A    between atoms: C9_11  and  C10_12 
REMARK    6  A    between atoms: C15_19  and  N3_20 
REMARK       I    between atoms: N3_20  and  C16_21 
REMARK       I    between atoms: C16_21  and  N4_22 
ROOT
HETATM    1  C10 UNL     1      -1.655  -1.135   1.698  1.00  0.00     0.051 A 
HETATM    2  N1  UNL     1      -1.811  -1.569   2.891  1.00  0.00    -0.245 NA
HETATM    3  C11 UNL     1      -2.884  -2.378   3.316  1.00  0.00     0.233 A 
HETATM    4  N2  UNL     1      -3.800  -2.725   2.456  1.00  0.00    -0.246 NA
HETATM    5  C12 UNL     1      -3.734  -2.296   1.093  1.00  0.00     0.046 A 
HETATM    6  C13 UNL     1      -4.606  -2.579   0.139  1.00  0.00     0.007 C 
HETATM    7  C14 UNL     1      -4.285  -1.988  -1.213  1.00  0.00     0.086 C 
HETATM    8  C15 UNL     1      -4.129  -0.540  -0.920  1.00  0.00     0.014 C 
HETATM    9  C17 UNL     1      -3.258  -0.247   0.025  1.00  0.00     0.016 C 
HETATM   10  C18 UNL     1      -2.590  -1.434   0.622  1.00  0.00     0.114 A 
ENDROOT
BRANCH   1  11
HETATM   11  C9  UNL     1      -0.469  -0.314   1.491  1.00  0.00     0.050 C 
HETATM   12  C8  UNL     1       0.011   0.285   0.391  1.00  0.00     0.037 C 
HETATM   13 CL1  UNL     1      -0.636   0.272  -1.260  1.00  0.00    -0.087 Cl
BRANCH  12  14
HETATM   14  C7  UNL     1       1.253   1.114   0.294  1.00  0.00     0.219 C 
BRANCH  14  15
HETATM   15  O1  UNL     1       1.833   1.155   1.564  1.00  0.00    -0.381 OA
BRANCH  15  16
HETATM   16  C6  UNL     1       2.985   1.893   1.624  1.00  0.00     0.206 C 
BRANCH  16  17
HETATM   17  C5  UNL     1       3.980   1.307   0.703  1.00  0.00    -0.035 A 
HETATM   18  C4  UNL     1       4.836   0.318   1.160  1.00  0.00     0.010 A 
HETATM   19  C3  UNL     1       5.816  -0.326   0.435  1.00  0.00     0.007 A 
HETATM   20  C2  UNL     1       5.947   0.064  -0.878  1.00  0.00    -0.062 A 
HETATM   21  C1  UNL     1       6.976  -0.574  -1.737  1.00  0.00     0.048 C 
HETATM   22  C20 UNL     1       5.138   1.033  -1.401  1.00  0.00     0.007 A 
HETATM   23  C19 UNL     1       4.176   1.645  -0.640  1.00  0.00     0.010 A 
ENDBRANCH  16  17
ENDBRANCH  15  16
ENDBRANCH  14  15
ENDBRANCH  12  14
ENDBRANCH   1  11
BRANCH   8  24
HETATM   24  N3  UNL     1      -4.914   0.368  -1.668  1.00  0.00    -0.313 N 
HETATM   25  C16 UNL     1      -4.983   1.783  -1.616  1.00  0.00     0.318 C 
HETATM   26  N4  UNL     1      -5.822   2.592  -2.429  1.00  0.00    -0.352 N 
HETATM   27  O2  UNL     1      -4.270   2.408  -0.808  1.00  0.00    -0.247 OA
HETATM   28  H16 UNL     1      -6.282   3.458  -2.065  1.00  0.00     0.160 HD
HETATM   29  H17 UNL     1      -5.933   2.244  -3.411  1.00  0.00     0.160 HD
HETATM   30  H15 UNL     1      -5.574   0.008  -2.396  1.00  0.00     0.170 HD
ENDBRANCH   8  24
TORSDOF 6
