REMARK  2 active torsions:
REMARK  status: ('A' for Active; 'I' for Inactive)
REMARK    1  A    between atoms: C1_2  and  C2_3 
REMARK    2  A    between atoms: C14_20  and  C15_21 
ROOT
HETATM    1  C2  UNL     1       3.747   0.233   1.693  1.00  0.00    -0.022 A 
HETATM    2  C3  UNL     1       3.953  -0.033   0.345  1.00  0.00     0.011 A 
HETATM    3  C4  UNL     1       2.875  -0.093  -0.511  1.00  0.00     0.013 A 
HETATM    4  C5  UNL     1       1.581   0.090  -0.147  1.00  0.00    -0.000 A 
HETATM    5  C6  UNL     1       1.346   0.356   1.185  1.00  0.00     0.042 A 
HETATM    6  C7  UNL     1       2.415   0.423   2.079  1.00  0.00     0.040 A 
HETATM    7  N1  UNL     1       0.109   0.592   1.842  1.00  0.00    -0.349 N 
HETATM    8  C8  UNL     1      -0.953   1.529   1.716  1.00  0.00     0.229 C 
HETATM    9  N2  UNL     1      -2.111   1.500   1.152  1.00  0.00    -0.170 NA
HETATM   10  N3  UNL     1      -2.507   0.337   0.491  1.00  0.00    -0.272 N 
HETATM   11  C9  UNL     1      -3.642  -0.483   0.866  1.00  0.00     0.176 C 
HETATM   12  C10 UNL     1      -4.620  -0.506  -0.257  1.00  0.00     0.014 C 
HETATM   13  C11 UNL     1      -4.032  -0.334  -1.417  1.00  0.00     0.014 C 
HETATM   14 CL1  UNL     1      -5.023  -0.330  -2.866  1.00  0.00    -0.089 Cl
HETATM   15  C12 UNL     1      -2.640  -0.124  -1.866  1.00  0.00     0.106 C 
HETATM   16  C13 UNL     1      -1.718  -0.085  -0.664  1.00  0.00     0.247 C 
HETATM   17  O2  UNL     1      -0.615   0.745  -0.848  1.00  0.00    -0.352 OA
HETATM   18  C14 UNL     1       0.518  -0.003  -1.148  1.00  0.00     0.188 C 
HETATM   19  H5  UNL     1      -0.060  -0.099   2.617  1.00  0.00     0.167 HD
ENDROOT
BRANCH   1  20
HETATM   20  C1  UNL     1       4.838   0.311   2.654  1.00  0.00     0.429 C 
HETATM   21  O1  UNL     1       5.998   0.130   2.202  1.00  0.00    -0.426 OA
ENDBRANCH   1  20
BRANCH  18  22
HETATM   22  C15 UNL     1       0.987   0.280  -2.555  1.00  0.00     0.259 C 
HETATM   23  F1  UNL     1      -0.120   0.161  -3.393  1.00  0.00    -0.252 F 
ENDBRANCH  18  22
TORSDOF 2
