REMARK  5 active torsions:
REMARK  status: ('A' for Active; 'I' for Inactive)
REMARK       I    between atoms: C2_2  and  N1_4 
REMARK    1  A    between atoms: N1_4  and  C3_5 
REMARK    2  A    between atoms: C11_15  and  O2_16 
REMARK    3  A    between atoms: O2_16  and  C12_17 
REMARK    4  A    between atoms: C12_17  and  C13_18 
REMARK    5  A    between atoms: C22_29  and  N4_30 
ROOT
HETATM    1  C3  UNL     1      -4.583   0.127   0.125  1.00  0.00     0.060 A 
HETATM    2  C4  UNL     1      -5.135  -0.383  -0.959  1.00  0.00     0.037 A 
HETATM    3  C5  UNL     1      -4.189  -1.151  -1.720  1.00  0.00     0.172 A 
HETATM    4  N2  UNL     1      -4.493  -2.533  -2.043  1.00  0.00    -0.269 NA
HETATM    5  C6  UNL     1      -3.396  -3.302  -2.045  1.00  0.00     0.228 C 
HETATM    6  N3  UNL     1      -2.013  -2.989  -1.769  1.00  0.00    -0.241 NA
HETATM    7  C7  UNL     1      -1.684  -1.785  -1.427  1.00  0.00     0.079 C 
HETATM    8  C8  UNL     1      -0.449  -1.106  -1.108  1.00  0.00    -0.005 A 
HETATM    9  C9  UNL     1       0.657  -1.964  -1.068  1.00  0.00     0.017 A 
HETATM   10  C10 UNL     1       1.946  -1.537  -0.826  1.00  0.00     0.039 A 
HETATM   11  C11 UNL     1       2.157  -0.192  -0.612  1.00  0.00     0.090 A 
HETATM   12  C19 UNL     1       1.055   0.633  -0.657  1.00  0.00     0.068 A 
HETATM   13 CL1  UNL     1       1.203   2.378  -0.398  1.00  0.00    -0.081 Cl
HETATM   14  C20 UNL     1      -0.237   0.223  -0.898  1.00  0.00     0.040 A 
HETATM   15  C21 UNL     1      -2.926  -1.098  -0.985  1.00  0.00     0.028 A 
HETATM   16  C22 UNL     1      -3.204  -0.335   0.093  1.00  0.00     0.063 A 
ENDROOT
BRANCH  16  17
HETATM   17  N4  UNL     1      -2.323   0.027   1.186  1.00  0.00    -0.397 N 
HETATM   18  H17 UNL     1      -1.988   1.017   1.321  1.00  0.00     0.156 HD
HETATM   19  H18 UNL     1      -1.846  -0.456   2.003  1.00  0.00     0.156 HD
ENDBRANCH  16  17
BRANCH   1  20
HETATM   20  N1  UNL     1      -5.215   0.933   1.097  1.00  0.00    -0.326 N 
HETATM   21  C2  UNL     1      -6.566   1.301   1.017  1.00  0.00     0.218 C 
HETATM   22  C1  UNL     1      -7.208   2.151   2.055  1.00  0.00     0.117 C 
HETATM   23  O1  UNL     1      -7.345   0.961   0.094  1.00  0.00    -0.274 OA
HETATM   24  H4  UNL     1      -4.703   1.286   1.911  1.00  0.00     0.169 HD
ENDBRANCH   1  20
BRANCH  11  25
HETATM   25  O2  UNL     1       3.426   0.337  -0.358  1.00  0.00    -0.345 OA
BRANCH  25  26
HETATM   26  C12 UNL     1       4.576  -0.498  -0.308  1.00  0.00     0.214 C 
BRANCH  26  27
HETATM   27  C13 UNL     1       5.810   0.280  -0.025  1.00  0.00    -0.031 A 
HETATM   28  C14 UNL     1       6.314   0.546   1.233  1.00  0.00     0.009 A 
HETATM   29  C15 UNL     1       7.452   1.265   1.460  1.00  0.00     0.004 A 
HETATM   30  C16 UNL     1       8.126   1.745   0.362  1.00  0.00     0.042 A 
HETATM   31  C17 UNL     1       7.635   1.489  -0.915  1.00  0.00     0.117 A 
HETATM   32  F1  UNL     1       8.357   1.997  -1.943  1.00  0.00    -0.206 F 
HETATM   33  C18 UNL     1       6.482   0.761  -1.154  1.00  0.00     0.051 A 
ENDBRANCH  26  27
ENDBRANCH  25  26
ENDBRANCH  11  25
TORSDOF 5
