REMARK  5 active torsions:
REMARK  status: ('A' for Active; 'I' for Inactive)
REMARK    1  A    between atoms: N1_1  and  C1_2 
REMARK    2  A    between atoms: C6_9  and  C7_10 
REMARK       I    between atoms: N4_19  and  C14_20 
REMARK    3  A    between atoms: C14_20  and  C15_22 
REMARK    4  A    between atoms: C15_22  and  C16_23 
REMARK    5  A    between atoms: C16_23  and  N5_24 
ROOT
HETATM    1  C1  UNL     1      -1.581   0.119   0.649  1.00  0.00     0.121 A 
HETATM    2  C2  UNL     1      -2.440  -0.530   1.360  1.00  0.00     0.049 A 
HETATM    3  C3  UNL     1      -2.512  -1.699   2.189  1.00  0.00     0.000 A 
HETATM    4  C4  UNL     1      -3.400  -2.036   3.172  1.00  0.00     0.130 C 
HETATM    5  N2  UNL     1      -4.477  -1.147   3.540  1.00  0.00    -0.253 NA
HETATM    6  C5  UNL     1      -5.152  -0.235   2.958  1.00  0.00     0.233 C 
HETATM    7  N3  UNL     1      -4.891   0.087   1.606  1.00  0.00    -0.240 NA
HETATM    8  C6  UNL     1      -3.779  -0.028   0.903  1.00  0.00     0.083 C 
HETATM    9  C13 UNL     1      -1.351  -2.592   2.414  1.00  0.00     0.049 A 
HETATM   10  P1  UNL     1       0.027  -2.064   1.600  1.00  0.00     0.073 P 
HETATM   11  N4  UNL     1      -0.287  -0.534   0.669  1.00  0.00    -0.268 N 
HETATM   12  C14 UNL     1       0.811   0.052  -0.077  1.00  0.00     0.231 C 
HETATM   13  O1  UNL     1       0.780   1.116  -0.778  1.00  0.00    -0.273 OA
ENDROOT
BRANCH   1  14
HETATM   14  N1  UNL     1      -1.850   1.311  -0.066  1.00  0.00    -0.384 N 
HETATM   15  H1  UNL     1      -2.572   2.008   0.214  1.00  0.00     0.157 HD
HETATM   16  H2  UNL     1      -1.397   1.687  -0.911  1.00  0.00     0.157 HD
ENDBRANCH   1  14
BRANCH  12  17
HETATM   17  C15 UNL     1       2.113  -0.655  -0.023  1.00  0.00     0.134 C 
BRANCH  17  18
HETATM   18  C16 UNL     1       3.117   0.079  -0.839  1.00  0.00     0.282 C 
BRANCH  18  19
HETATM   19  N5  UNL     1       4.431  -0.539  -0.850  1.00  0.00     0.093 N 
HETATM   20  C17 UNL     1       5.267   0.295  -1.678  1.00  0.00     0.298 C 
HETATM   21  C18 UNL     1       6.678   0.409  -1.169  1.00  0.00     0.198 C 
HETATM   22  O2  UNL     1       6.749   0.889   0.129  1.00  0.00    -0.388 OA
HETATM   23  C19 UNL     1       5.590   0.647   0.857  1.00  0.00     0.198 C 
HETATM   24  C20 UNL     1       5.021  -0.687   0.444  1.00  0.00     0.298 C 
ENDBRANCH  18  19
ENDBRANCH  17  18
ENDBRANCH  12  17
BRANCH   8  25
HETATM   25  C7  UNL     1      -4.040   0.280  -0.534  1.00  0.00    -0.005 A 
HETATM   26  C8  UNL     1      -3.390   0.085  -1.729  1.00  0.00     0.014 A 
HETATM   27  C9  UNL     1      -3.694   0.513  -2.985  1.00  0.00     0.002 A 
HETATM   28  C10 UNL     1      -4.831   1.259  -3.091  1.00  0.00     0.019 A 
HETATM   29  C11 UNL     1      -5.590   1.537  -1.988  1.00  0.00     0.011 A 
HETATM   30 BR1  UNL     1      -7.166   2.585  -2.209  1.00  0.00    -0.051 Br
HETATM   31  C12 UNL     1      -5.186   1.056  -0.782  1.00  0.00     0.032 A 
ENDBRANCH   8  25
TORSDOF 5
