REMARK  5 active torsions:
REMARK  status: ('A' for Active; 'I' for Inactive)
REMARK    1  A    between atoms: C2_2  and  C3_4 
REMARK    2  A    between atoms: C4_6  and  C5_7 
REMARK    3  A    between atoms: C5_7  and  N1_10 
REMARK    4  A    between atoms: N1_10  and  C8_11 
REMARK    5  A    between atoms: C13_18  and  N4_19 
REMARK       I    between atoms: N4_19  and  C14_20 
ROOT
HETATM    1  C8  UNL     1       0.517   0.550  -1.408  1.00  0.00     0.142 A 
HETATM    2  N2  UNL     1       0.384   0.963  -2.660  1.00  0.00    -0.224 NA
HETATM    3  C9  UNL     1      -0.697   1.634  -3.120  1.00  0.00     0.236 A 
HETATM    4  N3  UNL     1      -1.719   1.913  -2.268  1.00  0.00    -0.241 NA
HETATM    5  C10 UNL     1      -1.632   1.511  -0.972  1.00  0.00     0.072 A 
HETATM    6  C11 UNL     1      -2.656   1.786  -0.094  1.00  0.00     0.035 A 
HETATM    7  C12 UNL     1      -2.496   1.350   1.201  1.00  0.00     0.032 A 
HETATM    8  C13 UNL     1      -1.405   0.669   1.682  1.00  0.00     0.035 A 
HETATM    9  C16 UNL     1      -0.423   0.429   0.752  1.00  0.00     0.047 A 
HETATM   10  C17 UNL     1      -0.515   0.830  -0.544  1.00  0.00     0.041 A 
ENDROOT
BRANCH   1  11
HETATM   11  N1  UNL     1       1.712  -0.141  -1.041  1.00  0.00    -0.340 N 
HETATM   12  H8  UNL     1       1.969  -0.560  -0.123  1.00  0.00     0.167 HD
BRANCH  11  13
HETATM   13  C5  UNL     1       2.712  -0.274  -2.088  1.00  0.00     0.031 C 
HETATM   14  C6  UNL     1       3.454   0.777  -1.864  1.00  0.00    -0.002 C 
HETATM   15  C7  UNL     1       3.370   1.830  -0.846  1.00  0.00     0.038 C 
BRANCH  13  16
HETATM   16  C4  UNL     1       2.076  -1.491  -2.562  1.00  0.00     0.056 C 
HETATM   17  C3  UNL     1       1.182  -2.433  -2.544  1.00  0.00     0.069 C 
HETATM   18 CL1  UNL     1       1.400  -3.618  -3.806  1.00  0.00    -0.081 Cl
BRANCH  17  19
HETATM   19  C2  UNL     1       0.140  -2.424  -1.539  1.00  0.00     0.099 A 
HETATM   20  C1  UNL     1      -0.700  -3.458  -1.657  1.00  0.00     0.252 A 
HETATM   21  F1  UNL     1      -0.820  -2.419  -0.616  1.00  0.00    -0.365 F 
ENDBRANCH  17  19
ENDBRANCH  13  16
ENDBRANCH  11  13
ENDBRANCH   1  11
BRANCH   8  22
HETATM   22  N4  UNL     1      -1.212   0.207   3.005  1.00  0.00    -0.327 N 
HETATM   23  C14 UNL     1      -2.031   0.311   4.124  1.00  0.00     0.218 C 
HETATM   24  C15 UNL     1      -1.736  -0.215   5.482  1.00  0.00     0.117 C 
HETATM   25  O1  UNL     1      -3.132   0.897   4.015  1.00  0.00    -0.274 OA
HETATM   26  H12 UNL     1      -0.330  -0.306   3.249  1.00  0.00     0.169 HD
ENDBRANCH   8  22
TORSDOF 5
