REMARK  4 active torsions:
REMARK  status: ('A' for Active; 'I' for Inactive)
REMARK    1  A    between atoms: C2_2  and  N1_3 
REMARK    2  A    between atoms: N1_3  and  C3_4 
REMARK    3  A    between atoms: C15_20  and  O1_21 
REMARK    4  A    between atoms: O1_21  and  C16_22 
ROOT
HETATM    1  C3  UNL     1      -0.733   1.885   0.174  1.00  0.00     0.079 C 
HETATM    2  C4  UNL     1       0.222   2.720   0.621  1.00  0.00     0.148 C 
HETATM    3  N2  UNL     1       1.576   2.454   0.793  1.00  0.00    -0.271 NA
HETATM    4  C5  UNL     1       2.583   3.181   0.608  1.00  0.00     0.118 C 
HETATM    5  C6  UNL     1       3.745   2.409   0.946  1.00  0.00     0.047 C 
HETATM    6  C7  UNL     1       3.875   1.176   1.390  1.00  0.00     0.044 C 
HETATM    7  C8  UNL     1       2.806   0.155   1.696  1.00  0.00     0.137 C 
HETATM    8  C9  UNL     1       2.933  -0.743   0.494  1.00  0.00     0.111 C 
HETATM    9  N3  UNL     1       4.018  -1.450   0.573  1.00  0.00    -0.228 NA
HETATM   10  C10 UNL     1       5.181  -0.789   1.194  1.00  0.00     0.235 C 
HETATM   11  N4  UNL     1       5.109   0.465   1.641  1.00  0.00    -0.246 NA
HETATM   12  N5  UNL     1       2.449  -1.204  -0.729  1.00  0.00    -0.348 N 
HETATM   13  C11 UNL     1       1.671  -2.255  -1.137  1.00  0.00     0.006 C 
HETATM   14  C12 UNL     1       1.755  -3.629  -1.611  1.00  0.00     0.068 C 
HETATM   15  C13 UNL     1       0.416  -1.849  -1.074  1.00  0.00     0.027 C 
HETATM   16  C14 UNL     1      -0.080  -0.594  -0.667  1.00  0.00     0.041 C 
HETATM   17  C15 UNL     1      -0.636   0.524  -0.315  1.00  0.00     0.097 C 
HETATM   18  H13 UNL     1       2.597  -0.838  -1.691  1.00  0.00     0.167 HD
ENDROOT
BRANCH  17  19
HETATM   19  O1  UNL     1      -1.714  -0.200  -0.691  1.00  0.00    -0.338 OA
BRANCH  19  20
HETATM   20  C16 UNL     1      -2.688  -0.829   0.089  1.00  0.00     0.180 A 
HETATM   21  C17 UNL     1      -3.654  -1.629  -0.722  1.00  0.00     0.065 A 
HETATM   22  C18 UNL     1      -3.855  -3.011  -0.250  1.00  0.00    -0.021 A 
HETATM   23  C19 UNL     1      -3.281  -3.614   0.808  1.00  0.00     0.040 A 
HETATM   24  C20 UNL     1      -2.336  -2.832   1.609  1.00  0.00     0.136 A 
HETATM   25  F1  UNL     1      -1.738  -3.386   2.677  1.00  0.00    -0.205 F 
HETATM   26  C21 UNL     1      -2.105  -1.575   1.239  1.00  0.00     0.080 A 
HETATM   27 CL1  UNL     1      -0.977  -0.599   2.191  1.00  0.00    -0.083 Cl
ENDBRANCH  19  20
ENDBRANCH  17  19
BRANCH   1  28
HETATM   28  N1  UNL     1      -2.059   2.403   0.095  1.00  0.00    -0.387 N 
HETATM   29  H6  UNL     1      -2.485   2.204   1.032  1.00  0.00     0.159 HD
BRANCH  28  30
HETATM   30  C2  UNL     1      -2.699   3.058  -1.002  1.00  0.00     0.115 C 
HETATM   31  C1  UNL     1      -2.109   4.417  -1.300  1.00  0.00     0.026 C 
ENDBRANCH  28  30
ENDBRANCH   1  28
TORSDOF 4
