REMARK  3 active torsions:
REMARK  status: ('A' for Active; 'I' for Inactive)
REMARK    1  A    between atoms: C2_2  and  C3_3 
REMARK    2  A    between atoms: C12_16  and  C13_17 
REMARK    3  A    between atoms: C12_16  and  O1_19 
ROOT
HETATM    1  C3  UNL     1      -1.789  -0.962   0.300  1.00  0.00    -0.017 C 
HETATM    2  C4  UNL     1      -2.521   0.103  -0.105  1.00  0.00     0.102 C 
HETATM    3  N1  UNL     1      -3.494   1.171  -0.053  1.00  0.00    -0.288 NA
HETATM    4  C5  UNL     1      -3.084   2.283   0.509  1.00  0.00     0.238 C 
HETATM    5  C6  UNL     1      -2.032   3.110   1.196  1.00  0.00     0.067 C 
HETATM    6  C7  UNL     1      -0.673   2.707   0.945  1.00  0.00    -0.003 C 
HETATM    7 BR1  UNL     1       0.255   3.676   2.359  1.00  0.00    -0.058 Br
HETATM    8  C8  UNL     1       0.435   2.201   0.488  1.00  0.00     0.172 A 
HETATM    9  C9  UNL     1       0.631   1.364  -0.679  1.00  0.00     0.024 A 
HETATM   10  N2  UNL     1      -0.618   1.782  -0.750  1.00  0.00    -0.331 N 
HETATM   11  C10 UNL     1      -1.509   1.456  -1.774  1.00  0.00     0.212 C 
HETATM   12  N3  UNL     1      -2.440   0.633  -1.453  1.00  0.00    -0.232 NA
HETATM   13  C11 UNL     1       1.162   0.452  -1.722  1.00  0.00     0.123 C 
HETATM   14  C12 UNL     1       1.467  -0.925  -1.089  1.00  0.00     0.168 C 
HETATM   15  O2  UNL     1       0.416  -1.163  -0.165  1.00  0.00    -0.350 OA
HETATM   16  C16 UNL     1      -0.821  -1.313  -0.771  1.00  0.00     0.209 C 
ENDROOT
BRANCH  14  17
HETATM   17  C13 UNL     1       2.655  -0.723  -0.147  1.00  0.00     0.064 C 
HETATM   18  C14 UNL     1       3.876  -0.214  -0.826  1.00  0.00     0.010 C 
ENDBRANCH  14  17
BRANCH  14  19
HETATM   19  O1  UNL     1       1.629  -1.862  -2.003  1.00  0.00    -0.360 OA
HETATM   20  C15 UNL     1       1.923  -3.131  -1.621  1.00  0.00     0.205 C 
ENDBRANCH  14  19
BRANCH   1  21
HETATM   21  C2  UNL     1      -2.183  -1.344   1.669  1.00  0.00     0.035 C 
HETATM   22  C1  UNL     1      -1.016  -1.241   2.632  1.00  0.00     0.010 C 
ENDBRANCH   1  21
TORSDOF 3
