REMARK  4 active torsions:
REMARK  status: ('A' for Active; 'I' for Inactive)
REMARK    1  A    between atoms: C2_2  and  C3_3 
REMARK    2  A    between atoms: C8_10  and  C9_11 
REMARK    3  A    between atoms: C9_11  and  N2_12 
REMARK    4  A    between atoms: C15_19  and  N3_20 
ROOT
HETATM    1  C3  UNL     1       3.133   1.100   1.598  1.00  0.00     0.097 A 
HETATM    2  C4  UNL     1       2.042   0.298   0.743  1.00  0.00     0.018 A 
HETATM    3 BR1  UNL     1       2.483  -0.967   2.227  1.00  0.00    -0.119 Br
HETATM    4  C5  UNL     1       0.989  -0.160  -0.095  1.00  0.00     0.056 C 
HETATM    5  N1  UNL     1       0.330   0.923  -0.649  1.00  0.00    -0.390 N 
HETATM    6  C6  UNL     1       0.061   0.614  -2.049  1.00  0.00     0.120 C 
HETATM    7  C7  UNL     1      -1.362   1.042  -2.413  1.00  0.00     0.027 C 
HETATM    8  C8  UNL     1      -2.228   0.149  -1.296  1.00  0.00    -0.016 C 
HETATM    9  C10 UNL     1      -1.628  -0.714  -0.322  1.00  0.00     0.056 A 
HETATM   10  C11 UNL     1      -2.905  -1.091   0.184  1.00  0.00     0.021 A 
HETATM   11  C12 UNL     1      -1.965  -1.779   0.884  1.00  0.00     0.041 A 
HETATM   12  I1  UNL     1      -3.490  -2.731   2.143  1.00  0.00    -0.074 I 
HETATM   13  C13 UNL     1      -0.794  -2.451   1.533  1.00  0.00    -0.007 C 
HETATM   14  C14 UNL     1       0.397  -2.239   1.136  1.00  0.00     0.012 C 
HETATM   15  C15 UNL     1       1.291  -1.569   0.249  1.00  0.00     0.290 C 
HETATM   16  H6  UNL     1       0.219   1.556   0.198  1.00  0.00     0.159 HD
ENDROOT
BRANCH  15  17
HETATM   17  N3  UNL     1       2.612  -1.993  -0.072  1.00  0.00     0.092 NA
HETATM   18  H20 UNL     1       2.820  -2.076  -1.151  1.00  0.00     0.314 HD
HETATM   19  H21 UNL     1       2.794  -2.956   0.274  1.00  0.00     0.314 HD
ENDBRANCH  15  17
BRANCH   1  20
HETATM   20  C2  UNL     1       4.278   1.127   2.385  1.00  0.00     0.005 C 
HETATM   21  C1  UNL     1       4.102   2.684   2.504  1.00  0.00     0.012 C 
ENDBRANCH   1  20
BRANCH   8  22
HETATM   22  C9  UNL     1      -3.659   0.491  -1.814  1.00  0.00     0.272 C 
BRANCH  22  23
HETATM   23  N2  UNL     1      -4.020   1.813  -1.447  1.00  0.00     0.078 N 
HETATM   24  H13 UNL     1      -4.658   2.300  -2.137  1.00  0.00     0.312 HD
HETATM   25  H14 UNL     1      -4.637   1.771  -0.565  1.00  0.00     0.312 HD
ENDBRANCH  22  23
ENDBRANCH   8  22
TORSDOF 4
