REMARK  5 active torsions:
REMARK  status: ('A' for Active; 'I' for Inactive)
REMARK    1  A    between atoms: C2_2  and  C3_3 
REMARK    2  A    between atoms: C5_7  and  N3_8 
REMARK    3  A    between atoms: N3_8  and  C6_9 
REMARK    4  A    between atoms: C12_16  and  C13_17 
REMARK    5  A    between atoms: C13_17  and  C14_18 
ROOT
HETATM    1  C3  UNL     1      -2.308  -2.524  -0.389  1.00  0.00     0.068 A 
HETATM    2  N1  UNL     1      -3.545  -2.893  -0.740  1.00  0.00    -0.241 NA
HETATM    3  C4  UNL     1      -4.413  -1.975  -1.190  1.00  0.00     0.235 A 
HETATM    4  N2  UNL     1      -4.085  -0.700  -1.299  1.00  0.00    -0.224 NA
HETATM    5  C5  UNL     1      -2.833  -0.279  -0.951  1.00  0.00     0.142 A 
HETATM    6  C12 UNL     1      -1.899  -1.221  -0.476  1.00  0.00     0.041 A 
ENDROOT
BRANCH   6   7
HETATM    7  C13 UNL     1      -0.700  -0.882  -0.156  1.00  0.00     0.046 C 
BRANCH   7   8
HETATM    8  C14 UNL     1       0.659  -0.747   0.249  1.00  0.00     0.026 C 
HETATM    9  C15 UNL     1       1.466  -1.755   0.703  1.00  0.00     0.002 C 
HETATM   10  C16 UNL     1       2.809  -1.351   1.049  1.00  0.00     0.031 C 
HETATM   11  C17 UNL     1       3.957  -2.026   0.282  1.00  0.00     0.023 C 
HETATM   12  C18 UNL     1       5.172  -1.055   0.650  1.00  0.00     0.114 C 
HETATM   13  N4  UNL     1       4.687   0.162   0.087  1.00  0.00    -0.420 N 
HETATM   14  C19 UNL     1       5.128   1.422   0.499  1.00  0.00     0.133 C 
HETATM   15  H19 UNL     1       4.537   0.083  -0.961  1.00  0.00     0.153 HD
HETATM   16  C20 UNL     1       4.324   2.420  -0.358  1.00  0.00     0.134 C 
HETATM   17  N5  UNL     1       3.013   2.024  -0.580  1.00  0.00    -0.405 N 
HETATM   18  C21 UNL     1       2.020   1.875   0.376  1.00  0.00     0.238 C 
HETATM   19  H24 UNL     1       2.738   1.851  -1.572  1.00  0.00     0.154 HD
HETATM   20  N6  UNL     1       1.397   0.539   0.199  1.00  0.00    -0.374 N 
HETATM   21  H27 UNL     1       1.681   0.133  -0.746  1.00  0.00     0.161 HD
ENDBRANCH   7   8
ENDBRANCH   6   7
BRANCH   1  22
HETATM   22  C2  UNL     1      -1.621  -3.576   0.034  1.00  0.00     0.002 C 
HETATM   23  C1  UNL     1      -2.243  -4.921   0.067  1.00  0.00     0.038 C 
ENDBRANCH   1  22
BRANCH   5  24
HETATM   24  N3  UNL     1      -2.517   1.099  -1.062  1.00  0.00    -0.340 N 
HETATM   25  H6  UNL     1      -1.673   1.588  -1.476  1.00  0.00     0.167 HD
BRANCH  24  26
HETATM   26  C6  UNL     1      -3.529   1.949  -0.513  1.00  0.00     0.035 A 
HETATM   27  C7  UNL     1      -4.487   1.476   0.361  1.00  0.00     0.029 A 
HETATM   28  C8  UNL     1      -5.498   2.241   0.920  1.00  0.00     0.004 A 
HETATM   29  C9  UNL     1      -5.519   3.571   0.554  1.00  0.00     0.019 A 
HETATM   30  C10 UNL     1      -4.610   4.135  -0.307  1.00  0.00     0.013 A 
HETATM   31 BR1  UNL     1      -4.656   5.971  -0.801  1.00  0.00    -0.051 Br
HETATM   32  C11 UNL     1      -3.630   3.299  -0.822  1.00  0.00     0.048 A 
ENDBRANCH  24  26
ENDBRANCH   5  24
TORSDOF 5
