REMARK  6 active torsions:
REMARK  status: ('A' for Active; 'I' for Inactive)
REMARK    1  A    between atoms: N1_7  and  C6_8 
REMARK    2  A    between atoms: C6_8  and  C7_9 
REMARK    3  A    between atoms: C7_9  and  S1_10 
REMARK    4  A    between atoms: C8_11  and  N2_13 
REMARK    5  A    between atoms: N2_13  and  C9_14 
REMARK    6  A    between atoms: C14_21  and  C15_22 
ROOT
HETATM    1  C9  UNL     1       1.555  -0.787  -1.214  1.00  0.00     0.035 A 
HETATM    2  C10 UNL     1       1.290  -1.313  -2.455  1.00  0.00     0.032 A 
HETATM    3  C11 UNL     1       2.350  -1.820  -3.167  1.00  0.00     0.035 A 
HETATM    4  C12 UNL     1       3.616  -1.794  -2.642  1.00  0.00     0.070 A 
HETATM    5  N3  UNL     1       4.626  -2.291  -3.379  1.00  0.00    -0.241 NA
HETATM    6  C13 UNL     1       5.876  -2.270  -2.894  1.00  0.00     0.234 A 
HETATM    7  N4  UNL     1       6.113  -1.758  -1.690  1.00  0.00    -0.241 NA
HETATM    8  C14 UNL     1       5.208  -1.238  -0.864  1.00  0.00     0.078 A 
HETATM    9  C20 UNL     1       3.951  -1.284  -1.406  1.00  0.00     0.024 A 
HETATM   10  C21 UNL     1       2.847  -0.795  -0.753  1.00  0.00     0.045 A 
ENDROOT
BRANCH   1  11
HETATM   11  N2  UNL     1       0.454  -0.265  -0.488  1.00  0.00    -0.330 N 
HETATM   12  H15 UNL     1      -0.304  -0.473   0.196  1.00  0.00     0.168 HD
BRANCH  11  13
HETATM   13  C8  UNL     1       0.181   1.113  -0.701  1.00  0.00     0.210 A 
HETATM   14  S1  UNL     1      -0.893   2.462  -0.266  1.00  0.00    -0.001 SA
HETATM   15  O2  UNL     1       0.625   2.111  -1.370  1.00  0.00    -0.257 OA
BRANCH  14  16
HETATM   16  C7  UNL     1      -2.197   1.804   0.843  1.00  0.00     0.131 C 
BRANCH  16  17
HETATM   17  C6  UNL     1      -3.125   0.870   0.102  1.00  0.00     0.285 C 
BRANCH  17  18
HETATM   18  N1  UNL     1      -4.134   0.328   0.959  1.00  0.00     0.097 N 
HETATM   19  C2  UNL     1      -4.878   1.262   1.738  1.00  0.00     0.242 C 
HETATM   20  C1  UNL     1      -5.717   0.502   2.754  1.00  0.00     0.045 C 
HETATM   21  C3  UNL     1      -5.811   2.013   0.811  1.00  0.00     0.203 C 
HETATM   22  O1  UNL     1      -6.737   1.109   0.292  1.00  0.00    -0.387 OA
HETATM   23  C4  UNL     1      -6.069   0.207  -0.531  1.00  0.00     0.198 C 
HETATM   24  C5  UNL     1      -5.026  -0.579   0.236  1.00  0.00     0.299 C 
ENDBRANCH  17  18
ENDBRANCH  16  17
ENDBRANCH  14  16
ENDBRANCH  11  13
ENDBRANCH   1  11
BRANCH   8  25
HETATM   25  C15 UNL     1       5.475  -0.658   0.474  1.00  0.00    -0.010 A 
HETATM   26  C16 UNL     1       6.804  -0.654   0.657  1.00  0.00     0.011 A 
HETATM   27  C17 UNL     1       7.210  -0.109   1.935  1.00  0.00    -0.002 A 
HETATM   28  C18 UNL     1       6.087   0.216   2.531  1.00  0.00    -0.006 A 
HETATM   29  C19 UNL     1       4.871  -0.097   1.684  1.00  0.00     0.115 A 
HETATM   30 BR1  UNL     1       3.951  -1.448   2.766  1.00  0.00    -0.082 Br
ENDBRANCH   8  25
TORSDOF 6
