REMARK  3 active torsions:
REMARK  status: ('A' for Active; 'I' for Inactive)
REMARK    1  A    between atoms: O1_2  and  C2_3 
REMARK    2  A    between atoms: C10_14  and  N3_15 
REMARK    3  A    between atoms: N3_15  and  C11_16 
ROOT
HETATM    1  C2  UNL     1       4.902  -0.414  -1.024  1.00  0.00     0.070 A 
HETATM    2  C3  UNL     1       4.858  -0.727   0.336  1.00  0.00     0.037 A 
HETATM    3  C4  UNL     1       3.709  -0.571   1.077  1.00  0.00     0.014 A 
HETATM    4  C5  UNL     1       2.516  -0.094   0.525  1.00  0.00    -0.006 A 
HETATM    5  C6  UNL     1       2.609   0.201  -0.829  1.00  0.00     0.088 A 
HETATM    6  C7  UNL     1       3.743   0.054  -1.590  1.00  0.00     0.074 A 
HETATM    7  O2  UNL     1       1.559   0.684  -1.589  1.00  0.00    -0.289 OA
HETATM    8  C8  UNL     1       0.304   1.116  -1.196  1.00  0.00     0.202 A 
HETATM    9  N1  UNL     1      -0.327   1.859  -2.137  1.00  0.00    -0.215 NA
HETATM   10  C9  UNL     1      -1.559   2.367  -1.931  1.00  0.00     0.238 A 
HETATM   11  N2  UNL     1      -2.132   2.100  -0.746  1.00  0.00    -0.222 NA
HETATM   12  C10 UNL     1      -1.538   1.367   0.212  1.00  0.00     0.160 A 
HETATM   13  C17 UNL     1      -0.270   0.831   0.031  1.00  0.00     0.129 A 
HETATM   14  N4  UNL     1       0.158   0.115   1.170  1.00  0.00    -0.379 N 
HETATM   15  C18 UNL     1       1.524  -0.055   1.590  1.00  0.00     0.161 C 
HETATM   16  H15 UNL     1      -0.676  -0.269   1.662  1.00  0.00     0.160 HD
ENDROOT
BRANCH  12  17
HETATM   17  N3  UNL     1      -2.328   1.203   1.388  1.00  0.00    -0.338 N 
HETATM   18  H8  UNL     1      -2.400   1.543   2.361  1.00  0.00     0.167 HD
BRANCH  17  19
HETATM   19  C11 UNL     1      -3.405   0.261   1.212  1.00  0.00     0.047 A 
HETATM   20  C12 UNL     1      -3.948  -0.651   2.022  1.00  0.00     0.019 A 
HETATM   21 BR1  UNL     1      -3.524  -1.121   3.827  1.00  0.00    -0.053 Br
HETATM   22  C13 UNL     1      -5.052  -1.388   1.392  1.00  0.00     0.082 A 
HETATM   23  C14 UNL     1      -5.146  -0.817   0.047  1.00  0.00    -0.077 A 
HETATM   24  C15 UNL     1      -6.079  -1.138  -1.080  1.00  0.00     0.044 C 
HETATM   25  C16 UNL     1      -4.208   0.104  -0.021  1.00  0.00     0.033 A 
ENDBRANCH  17  19
ENDBRANCH  12  17
BRANCH   1  26
HETATM   26  O1  UNL     1       5.979  -0.526  -1.853  1.00  0.00    -0.356 OA
HETATM   27  C1  UNL     1       7.248  -0.986  -1.417  1.00  0.00     0.210 C 
ENDBRANCH   1  26
TORSDOF 3
