REMARK  5 active torsions:
REMARK  status: ('A' for Active; 'I' for Inactive)
REMARK    1  A    between atoms: N1_1  and  C1_2 
REMARK    2  A    between atoms: N2_8  and  C6_9 
REMARK       I    between atoms: N4_15  and  C11_16 
REMARK       I    between atoms: C11_16  and  N5_18 
REMARK    3  A    between atoms: N5_18  and  C12_19 
REMARK    4  A    between atoms: C12_19  and  C13_20 
REMARK    5  A    between atoms: C13_20  and  N6_21 
ROOT
HETATM    1  C6  UNL     1       3.714  -0.775   0.528  1.00  0.00     0.158 C 
HETATM    2  C7  UNL     1       4.965  -1.723   0.481  1.00  0.00     0.118 C 
HETATM    3  N3  UNL     1       4.075  -2.733   0.600  1.00  0.00    -0.263 NA
HETATM    4  C8  UNL     1       3.287  -2.711  -0.689  1.00  0.00     0.055 C 
HETATM    5  C9  UNL     1       3.653  -1.801  -1.578  1.00  0.00     0.033 C 
HETATM    6  C10 UNL     1       2.902  -0.828  -0.695  1.00  0.00     0.147 C 
HETATM    7  N4  UNL     1       1.528  -1.319  -0.771  1.00  0.00    -0.299 N 
HETATM    8  C11 UNL     1       0.434  -0.357  -0.715  1.00  0.00     0.323 C 
HETATM    9  O1  UNL     1       0.868   0.812  -0.606  1.00  0.00    -0.247 OA
HETATM   10  N5  UNL     1      -0.927  -0.708  -0.778  1.00  0.00    -0.341 N 
HETATM   11  C19 UNL     1       1.123  -2.777  -0.968  1.00  0.00     0.099 C 
HETATM   12  C20 UNL     1       2.058  -3.418  -0.182  1.00  0.00     0.048 C 
HETATM   13  H9  UNL     1      -1.107  -1.725  -0.865  1.00  0.00     0.164 HD
ENDROOT
BRANCH   1  14
HETATM   14  N2  UNL     1       4.345   0.564   0.528  1.00  0.00    -0.330 N 
HETATM   15  C1  UNL     1       5.551   1.130   0.068  1.00  0.00     0.119 C 
HETATM   16  C2  UNL     1       5.800   2.410   0.220  1.00  0.00     0.055 C 
HETATM   17 BR1  UNL     1       7.446   2.985  -0.542  1.00  0.00    -0.047 Br
HETATM   18  C3  UNL     1       4.923   3.344   0.907  1.00  0.00     0.036 C 
HETATM   19  C4  UNL     1       3.723   2.854   1.049  1.00  0.00    -0.007 C 
HETATM   20  C5  UNL     1       3.506   1.577   1.138  1.00  0.00     0.106 C 
BRANCH  15  21
HETATM   21  N1  UNL     1       6.428   0.252  -0.603  1.00  0.00    -0.384 N 
HETATM   22  H1  UNL     1       6.287  -0.424  -1.414  1.00  0.00     0.157 HD
HETATM   23  H2  UNL     1       7.397  -0.166  -0.739  1.00  0.00     0.157 HD
ENDBRANCH  15  21
ENDBRANCH   1  14
BRANCH  10  24
HETATM   24  C12 UNL     1      -1.933   0.369  -0.712  1.00  0.00     0.154 C 
BRANCH  24  25
HETATM   25  C13 UNL     1      -3.267  -0.311  -0.810  1.00  0.00     0.292 C 
BRANCH  25  26
HETATM   26  N6  UNL     1      -4.354   0.641  -0.781  1.00  0.00     0.090 N 
HETATM   27  C14 UNL     1      -5.627  -0.044  -1.065  1.00  0.00     0.272 C 
HETATM   28  C15 UNL     1      -6.736   0.893  -0.701  1.00  0.00     0.030 C 
HETATM   29  C16 UNL     1      -6.879   0.790   0.822  1.00  0.00     0.003 C 
HETATM   30  C17 UNL     1      -5.490   0.605   1.401  1.00  0.00     0.030 C 
HETATM   31  C18 UNL     1      -4.449   1.282   0.508  1.00  0.00     0.272 C 
ENDBRANCH  25  26
ENDBRANCH  24  25
ENDBRANCH  10  24
TORSDOF 5
