REMARK  4 active torsions:
REMARK  status: ('A' for Active; 'I' for Inactive)
REMARK    1  A    between atoms: C2_4  and  N3_5 
REMARK    2  A    between atoms: N3_5  and  C3_6 
REMARK    3  A    between atoms: C11_15  and  C12_16 
REMARK    4  A    between atoms: C13_17  and  N4_18 
ROOT
HETATM    1  C1  UNL     1       1.331   1.227  -1.595  1.00  0.00     0.180 C 
HETATM    2  N1  UNL     1       1.511   0.164  -0.619  1.00  0.00    -0.273 N 
HETATM    3  N2  UNL     1       2.773  -0.435  -0.561  1.00  0.00    -0.159 NA
HETATM    4  C2  UNL     1       2.991  -1.398   0.301  1.00  0.00     0.128 A 
HETATM    5  C9  UNL     1       1.994  -1.936   1.256  1.00  0.00     0.110 A 
HETATM    6  C10 UNL     1       0.721  -1.201   1.068  1.00  0.00     0.012 A 
HETATM    7  C11 UNL     1       0.436  -0.226   0.223  1.00  0.00     0.050 A 
ENDROOT
BRANCH   7   8
HETATM    8  C12 UNL     1      -0.858   0.393   0.159  1.00  0.00     0.048 C 
HETATM    9  C13 UNL     1      -1.856   0.025   0.945  1.00  0.00     0.100 C 
BRANCH   9  10
HETATM   10  N4  UNL     1      -3.156   0.648   0.878  1.00  0.00    -0.288 N 
HETATM   11  C14 UNL     1      -3.689   1.959   1.048  1.00  0.00     0.327 A 
HETATM   12  O1  UNL     1      -3.204   3.084   1.350  1.00  0.00    -0.247 OA
HETATM   13  N5  UNL     1      -5.007   1.520   0.744  1.00  0.00    -0.312 N 
HETATM   14  C15 UNL     1      -6.408   1.672   0.528  1.00  0.00     0.130 C 
HETATM   15  C19 UNL     1      -4.481   0.175   0.601  1.00  0.00     0.200 A 
HETATM   16  C16 UNL     1      -7.003   0.815  -0.524  1.00  0.00     0.020 C 
HETATM   17  C17 UNL     1      -6.226  -0.369  -0.965  1.00  0.00     0.005 C 
HETATM   18  C18 UNL     1      -4.730  -0.179  -0.864  1.00  0.00     0.048 C 
ENDBRANCH   9  10
ENDBRANCH   7   8
BRANCH   4  19
HETATM   19  N3  UNL     1       4.303  -1.933   0.274  1.00  0.00    -0.343 N 
HETATM   20  H4  UNL     1       4.419  -2.985   0.377  1.00  0.00     0.167 HD
BRANCH  19  21
HETATM   21  C3  UNL     1       5.491  -1.176   0.124  1.00  0.00     0.034 A 
HETATM   22  C4  UNL     1       6.731  -1.794   0.071  1.00  0.00     0.029 A 
HETATM   23  C5  UNL     1       7.918  -1.115  -0.069  1.00  0.00     0.004 A 
HETATM   24  C6  UNL     1       7.923   0.259  -0.166  1.00  0.00     0.019 A 
HETATM   25  C7  UNL     1       6.723   0.916  -0.120  1.00  0.00     0.013 A 
HETATM   26 BR1  UNL     1       6.703   2.815  -0.253  1.00  0.00    -0.051 Br
HETATM   27  C8  UNL     1       5.562   0.194   0.021  1.00  0.00     0.048 A 
ENDBRANCH  19  21
ENDBRANCH   4  19
TORSDOF 4
