REMARK  6 active torsions:
REMARK  status: ('A' for Active; 'I' for Inactive)
REMARK       I    between atoms: C1_2  and  N1_3 
REMARK       I    between atoms: C1_2  and  N3_12 
REMARK    1  A    between atoms: N1_3  and  C2_4 
REMARK    2  A    between atoms: C2_4  and  C3_5 
REMARK    3  A    between atoms: C3_5  and  N2_6 
REMARK    4  A    between atoms: N3_12  and  C9_13 
REMARK    5  A    between atoms: C14_20  and  N6_21 
REMARK    6  A    between atoms: N6_21  and  C15_22 
ROOT
HETATM    1  C9  UNL     1      -1.393   1.594  -1.102  1.00  0.00     0.037 A 
HETATM    2  C10 UNL     1      -1.410   2.955  -1.383  1.00  0.00     0.032 A 
HETATM    3  C11 UNL     1      -2.577   3.707  -1.241  1.00  0.00     0.035 A 
HETATM    4  C12 UNL     1      -3.748   3.077  -0.809  1.00  0.00     0.072 A 
HETATM    5  N4  UNL     1      -4.892   3.786  -0.664  1.00  0.00    -0.241 NA
HETATM    6  C13 UNL     1      -5.995   3.125  -0.243  1.00  0.00     0.236 A 
HETATM    7  N5  UNL     1      -5.948   1.799   0.023  1.00  0.00    -0.224 NA
HETATM    8  C14 UNL     1      -4.840   1.077  -0.110  1.00  0.00     0.141 A 
HETATM    9  C20 UNL     1      -3.699   1.708  -0.535  1.00  0.00     0.041 A 
HETATM   10  C21 UNL     1      -2.543   1.002  -0.683  1.00  0.00     0.047 A 
ENDROOT
BRANCH   1  11
HETATM   11  N3  UNL     1      -0.199   0.836  -1.249  1.00  0.00    -0.309 N 
HETATM   12  C1  UNL     1       0.844   0.555  -0.320  1.00  0.00     0.320 C 
HETATM   13  O1  UNL     1       0.936   0.933   0.877  1.00  0.00    -0.247 OA
HETATM   14  N1  UNL     1       1.925  -0.234  -0.738  1.00  0.00    -0.341 N 
HETATM   15  H1  UNL     1       2.047  -0.650  -1.690  1.00  0.00     0.164 HD
HETATM   16  H16 UNL     1      -0.122   0.440  -2.219  1.00  0.00     0.170 HD
BRANCH  14  17
HETATM   17  C2  UNL     1       2.938  -0.456   0.307  1.00  0.00     0.143 C 
BRANCH  17  18
HETATM   18  C3  UNL     1       4.032  -1.306  -0.259  1.00  0.00     0.136 C 
BRANCH  18  19
HETATM   19  N2  UNL     1       5.095  -1.617   0.628  1.00  0.00    -0.411 N 
HETATM   20  C4  UNL     1       6.132  -2.427   0.075  1.00  0.00     0.117 C 
HETATM   21  C5  UNL     1       7.361  -1.680  -0.338  1.00  0.00     0.019 C 
HETATM   22  C6  UNL     1       7.677  -0.453   0.433  1.00  0.00     0.003 C 
HETATM   23  C7  UNL     1       6.400   0.355   0.694  1.00  0.00     0.019 C 
HETATM   24  C8  UNL     1       5.535  -0.587   1.506  1.00  0.00     0.117 C 
ENDBRANCH  18  19
ENDBRANCH  17  18
ENDBRANCH  14  17
ENDBRANCH   1  11
BRANCH   8  25
HETATM   25  N6  UNL     1      -4.917  -0.288   0.196  1.00  0.00    -0.342 N 
HETATM   26  H20 UNL     1      -4.189  -1.033   0.165  1.00  0.00     0.167 HD
BRANCH  25  27
HETATM   27  C15 UNL     1      -6.145  -0.848   0.628  1.00  0.00     0.029 A 
HETATM   28  C16 UNL     1      -6.781  -0.365   1.684  1.00  0.00     0.026 A 
HETATM   29  C17 UNL     1      -8.015  -1.122   1.910  1.00  0.00    -0.001 A 
HETATM   30  C18 UNL     1      -8.078  -2.050   0.967  1.00  0.00    -0.005 A 
HETATM   31  C19 UNL     1      -6.905  -1.992   0.041  1.00  0.00     0.130 A 
HETATM   32 BR1  UNL     1      -5.890  -3.613   0.040  1.00  0.00    -0.080 Br
ENDBRANCH  25  27
ENDBRANCH   8  25
TORSDOF 6
