REMARK  6 active torsions:
REMARK  status: ('A' for Active; 'I' for Inactive)
REMARK    1  A    between atoms: N1_8  and  C8_9 
REMARK    2  A    between atoms: C9_10  and  N2_11 
REMARK    3  A    between atoms: N2_11  and  C10_12 
REMARK    4  A    between atoms: C10_12  and  C11_13 
REMARK    5  A    between atoms: C13_16  and  O1_17 
REMARK    6  A    between atoms: C16_20  and  O2_21 
ROOT
HETATM    1  C8  UNL     1      -1.462  -0.393   1.353  1.00  0.00     0.073 A 
HETATM    2  C9  UNL     1      -0.179   0.152   1.270  1.00  0.00     0.074 A 
HETATM    3  C17 UNL     1       0.718  -0.101   2.294  1.00  0.00     0.147 A 
HETATM    4  N3  UNL     1       0.660  -0.791   3.436  1.00  0.00    -0.269 NA
HETATM    5  C18 UNL     1      -0.449  -1.466   3.855  1.00  0.00     0.134 A 
HETATM    6  P1  UNL     1      -1.786  -1.344   2.764  1.00  0.00     0.018 P 
ENDROOT
BRANCH   2   7
HETATM    7  N2  UNL     1       0.226   0.982   0.173  1.00  0.00    -0.382 N 
HETATM    8  H13 UNL     1      -0.483   1.163  -0.567  1.00  0.00     0.160 HD
BRANCH   7   9
HETATM    9  C10 UNL     1       1.550   1.515   0.137  1.00  0.00     0.169 C 
BRANCH   9  10
HETATM   10  C11 UNL     1       2.619   0.530  -0.023  1.00  0.00     0.034 A 
HETATM   11  S1  UNL     1       2.518  -1.075  -0.391  1.00  0.00    -0.086 SA
HETATM   12  C12 UNL     1       3.947  -1.790  -0.580  1.00  0.00     0.058 A 
HETATM   13  C13 UNL     1       5.006  -1.061  -0.295  1.00  0.00     0.089 A 
HETATM   14  C15 UNL     1       5.047   0.368   0.034  1.00  0.00     0.075 A 
HETATM   15  C16 UNL     1       3.962   1.120   0.164  1.00  0.00     0.083 A 
BRANCH  13  16
HETATM   16  O1  UNL     1       6.175  -1.795  -0.331  1.00  0.00    -0.354 OA
HETATM   17  C14 UNL     1       7.382  -1.226  -0.782  1.00  0.00     0.210 C 
ENDBRANCH  13  16
BRANCH  15  18
HETATM   18  O2  UNL     1       4.205   2.463   0.479  1.00  0.00    -0.359 OA
HETATM   19  H20 UNL     1       4.273   3.204  -0.180  1.00  0.00     0.217 HD
ENDBRANCH  15  18
ENDBRANCH   9  10
ENDBRANCH   7   9
ENDBRANCH   2   7
BRANCH   1  20
HETATM   20  N1  UNL     1      -2.384  -0.142   0.309  1.00  0.00    -0.370 N 
HETATM   21  C2  UNL     1      -2.947  -0.947  -0.753  1.00  0.00     0.084 C 
HETATM   22  C1  UNL     1      -1.968  -1.167  -1.880  1.00  0.00     0.032 C 
HETATM   23  C3  UNL     1      -4.231  -0.373  -1.295  1.00  0.00     0.058 C 
HETATM   24  C4  UNL     1      -4.930   0.331  -0.187  1.00  0.00    -0.084 C 
HETATM   25  C5  UNL     1      -6.416   0.114  -0.014  1.00  0.00     0.043 C 
HETATM   26  C6  UNL     1      -4.360   1.154   0.684  1.00  0.00    -0.005 C 
HETATM   27  C7  UNL     1      -2.896   1.214   0.313  1.00  0.00     0.151 C 
ENDBRANCH   1  20
TORSDOF 6
