REMARK  5 active torsions:
REMARK  status: ('A' for Active; 'I' for Inactive)
REMARK       I    between atoms: C1_2  and  N1_3 
REMARK       I    between atoms: C1_2  and  N3_11 
REMARK    1  A    between atoms: N1_3  and  C2_4 
REMARK    2  A    between atoms: C2_4  and  C3_5 
REMARK    3  A    between atoms: N3_11  and  C8_12 
REMARK    4  A    between atoms: C13_19  and  N6_20 
REMARK    5  A    between atoms: N6_20  and  C14_21 
ROOT
HETATM    1  C8  UNL     1       0.545  -0.273  -0.504  1.00  0.00     0.037 A 
HETATM    2  C9  UNL     1       0.487   0.359  -1.723  1.00  0.00     0.032 A 
HETATM    3  C10 UNL     1       1.545   0.938  -2.385  1.00  0.00     0.035 A 
HETATM    4  C11 UNL     1       2.784   0.889  -1.784  1.00  0.00     0.072 A 
HETATM    5  N4  UNL     1       3.832   1.449  -2.414  1.00  0.00    -0.241 NA
HETATM    6  C12 UNL     1       5.051   1.414  -1.848  1.00  0.00     0.235 A 
HETATM    7  N5  UNL     1       5.171   0.810  -0.656  1.00  0.00    -0.224 NA
HETATM    8  C13 UNL     1       4.153   0.240   0.006  1.00  0.00     0.138 A 
HETATM    9  C19 UNL     1       2.890   0.265  -0.560  1.00  0.00     0.041 A 
HETATM   10  C20 UNL     1       1.809  -0.288   0.043  1.00  0.00     0.047 A 
ENDROOT
BRANCH   1  11
HETATM   11  N3  UNL     1      -0.509  -0.878   0.210  1.00  0.00    -0.309 N 
HETATM   12  C1  UNL     1      -1.872  -0.984  -0.145  1.00  0.00     0.320 C 
HETATM   13  O1  UNL     1      -2.224  -0.483  -1.238  1.00  0.00    -0.247 OA
HETATM   14  N1  UNL     1      -2.878  -1.606   0.620  1.00  0.00    -0.341 N 
HETATM   15  H1  UNL     1      -2.458  -2.026   1.511  1.00  0.00     0.164 HD
HETATM   16  H14 UNL     1      -0.295  -1.314   1.123  1.00  0.00     0.170 HD
BRANCH  14  17
HETATM   17  C2  UNL     1      -4.261  -1.774   0.451  1.00  0.00     0.160 C 
BRANCH  17  18
HETATM   18  C3  UNL     1      -5.178  -0.606   0.466  1.00  0.00     0.238 C 
HETATM   19  C4  UNL     1      -4.967   0.472  -0.539  1.00  0.00     0.037 C 
HETATM   20  C5  UNL     1      -6.056   1.510  -0.410  1.00  0.00     0.004 C 
HETATM   21  C6  UNL     1      -7.439   1.031  -0.285  1.00  0.00     0.030 C 
HETATM   22  C7  UNL     1      -7.585  -0.298   0.407  1.00  0.00     0.270 C 
HETATM   23  N2  UNL     1      -6.511  -1.188   0.154  1.00  0.00     0.089 N 
HETATM   24  H13 UNL     1      -6.635  -2.026   0.758  1.00  0.00     0.316 HD
ENDBRANCH  17  18
ENDBRANCH  14  17
ENDBRANCH   1  11
BRANCH   8  25
HETATM   25  N6  UNL     1       4.402  -0.367   1.256  1.00  0.00    -0.357 N 
HETATM   26  H18 UNL     1       3.723  -0.845   1.882  1.00  0.00     0.162 HD
BRANCH  25  27
HETATM   27  C14 UNL     1       5.734  -0.366   1.801  1.00  0.00     0.174 A 
HETATM   28  C15 UNL     1       6.705  -1.071   0.894  1.00  0.00     0.036 A 
HETATM   29  C16 UNL     1       7.781  -0.716   0.232  1.00  0.00     0.072 A 
HETATM   30 CL1  UNL     1       8.679  -1.858  -0.754  1.00  0.00    -0.081 Cl
HETATM   31  C17 UNL     1       8.341   0.648   0.244  1.00  0.00     0.144 A 
HETATM   32  F1  UNL     1       9.454   1.002  -0.444  1.00  0.00    -0.204 F 
HETATM   33  C18 UNL     1       7.720   1.572   0.968  1.00  0.00     0.091 A 
HETATM   34  S1  UNL     1       6.245   1.382   1.963  1.00  0.00    -0.109 SA
ENDBRANCH  25  27
ENDBRANCH   8  25
TORSDOF 5
