REMARK  2 active torsions:
REMARK  status: ('A' for Active; 'I' for Inactive)
REMARK    1  A    between atoms: C5_6  and  N1_7 
REMARK    2  A    between atoms: N1_7  and  C6_8 
ROOT
HETATM    1  C6  UNL     1       1.113   0.021   0.514  1.00  0.00     0.117 C 
HETATM    2  C7  UNL     1       0.175  -0.953   0.199  1.00  0.00     0.045 A 
HETATM    3  C8  UNL     1      -1.224  -0.980  -0.125  1.00  0.00     0.076 A 
HETATM    4  N2  UNL     1      -1.949  -2.028  -0.575  1.00  0.00    -0.262 NA
HETATM    5  C9  UNL     1      -1.320  -3.233  -0.748  1.00  0.00     0.118 A 
HETATM    6  C10 UNL     1       0.041  -3.457  -0.481  1.00  0.00     0.031 A 
HETATM    7  C11 UNL     1       0.670  -2.282  -0.020  1.00  0.00    -0.021 A 
HETATM    8  C12 UNL     1       1.909  -2.437   0.609  1.00  0.00     0.005 C 
HETATM    9  C13 UNL     1       1.928  -1.670   1.981  1.00  0.00     0.152 C 
HETATM   10  N3  UNL     1       0.976  -0.574   1.832  1.00  0.00    -0.361 N 
HETATM   11  C14 UNL     1      -0.025  -0.212   2.864  1.00  0.00     0.144 C 
HETATM   12  C15 UNL     1      -1.118   0.677   2.390  1.00  0.00     0.135 C 
HETATM   13  N4  UNL     1      -2.235   0.219   1.712  1.00  0.00    -0.406 N 
HETATM   14  C16 UNL     1      -2.237   0.103   0.264  1.00  0.00     0.071 C 
HETATM   15  C17 UNL     1      -3.593  -0.428  -0.121  1.00  0.00     0.037 C 
HETATM   16  C18 UNL     1      -3.967  -0.015  -1.536  1.00  0.00     0.003 C 
HETATM   17  C19 UNL     1      -4.299   1.464  -1.451  1.00  0.00     0.000 C 
HETATM   18  C20 UNL     1      -3.185   2.185  -0.775  1.00  0.00     0.003 C 
HETATM   19  C21 UNL     1      -1.963   1.333  -0.498  1.00  0.00     0.037 C 
HETATM   20  H14 UNL     1      -3.164   0.294   2.139  1.00  0.00     0.154 HD
ENDROOT
BRANCH   1  21
HETATM   21  N1  UNL     1       1.794   1.073  -0.348  1.00  0.00    -0.342 N 
HETATM   22  H4  UNL     1       1.260   1.952  -0.518  1.00  0.00     0.167 HD
BRANCH  21  23
HETATM   23  C5  UNL     1       3.070   1.016  -0.951  1.00  0.00     0.034 A 
HETATM   24  C4  UNL     1       3.461   0.463  -2.135  1.00  0.00     0.029 A 
HETATM   25  C3  UNL     1       4.784   0.526  -2.536  1.00  0.00     0.004 A 
HETATM   26  C2  UNL     1       5.715   1.160  -1.717  1.00  0.00     0.019 A 
HETATM   27  C1  UNL     1       5.354   1.734  -0.505  1.00  0.00     0.013 A 
HETATM   28 BR1  UNL     1       6.668   2.598   0.588  1.00  0.00    -0.051 Br
HETATM   29  C22 UNL     1       4.013   1.652  -0.132  1.00  0.00     0.048 A 
ENDBRANCH  21  23
ENDBRANCH   1  21
TORSDOF 2
