REMARK  4 active torsions:
REMARK  status: ('A' for Active; 'I' for Inactive)
REMARK       I    between atoms: C1_2  and  N1_3 
REMARK       I    between atoms: C1_2  and  N3_12 
REMARK    1  A    between atoms: N1_3  and  C2_4 
REMARK    2  A    between atoms: C2_4  and  C3_5 
REMARK    3  A    between atoms: C3_5  and  N2_6 
REMARK    4  A    between atoms: N3_12  and  C8_13 
ROOT
HETATM    1  C8  UNL     1      -2.419   0.024  -0.603  1.00  0.00     0.079 C 
HETATM    2  C9  UNL     1      -3.441   0.842  -1.047  1.00  0.00     0.012 C 
HETATM    3  C10 UNL     1      -4.882   1.270  -0.957  1.00  0.00     0.055 C 
HETATM    4  C11 UNL     1      -5.913   0.894  -0.213  1.00  0.00     0.029 C 
HETATM    5  C12 UNL     1      -6.634   0.094   0.844  1.00  0.00     0.150 C 
HETATM    6 CL1  UNL     1      -8.261   0.683   1.101  1.00  0.00    -0.089 Cl
HETATM    7  C13 UNL     1      -6.629  -1.374   0.557  1.00  0.00     0.039 C 
HETATM    8  C14 UNL     1      -5.526  -2.172   0.487  1.00  0.00     0.089 C 
HETATM    9  N4  UNL     1      -4.111  -1.901   0.141  1.00  0.00    -0.349 N 
HETATM   10  C15 UNL     1      -3.319  -0.677   0.392  1.00  0.00     0.155 C 
HETATM   11  N5  UNL     1      -3.341  -0.041   1.571  1.00  0.00    -0.222 NA
HETATM   12  C16 UNL     1      -4.540   0.473   2.238  1.00  0.00     0.232 C 
HETATM   13  N6  UNL     1      -5.847   0.388   2.060  1.00  0.00    -0.252 NA
HETATM   14  H20 UNL     1      -3.652  -2.690  -0.335  1.00  0.00     0.167 HD
ENDROOT
BRANCH   1  15
HETATM   15  N3  UNL     1      -1.110   0.058  -1.100  1.00  0.00    -0.306 N 
HETATM   16  C1  UNL     1      -0.072   0.354  -0.195  1.00  0.00     0.320 C 
HETATM   17  O1  UNL     1      -0.373   0.569   1.001  1.00  0.00    -0.247 OA
HETATM   18  N1  UNL     1       1.261   0.387  -0.711  1.00  0.00    -0.341 N 
HETATM   19  H1  UNL     1       1.421   0.190  -1.744  1.00  0.00     0.164 HD
HETATM   20  H14 UNL     1      -1.025  -0.143  -2.119  1.00  0.00     0.171 HD
BRANCH  18  21
HETATM   21  C2  UNL     1       2.345   0.696   0.235  1.00  0.00     0.154 C 
BRANCH  21  22
HETATM   22  C3  UNL     1       3.614   0.662  -0.570  1.00  0.00     0.292 C 
BRANCH  22  23
HETATM   23  N2  UNL     1       4.808   0.940   0.169  1.00  0.00     0.094 N 
HETATM   24  C4  UNL     1       5.905   0.857  -0.787  1.00  0.00     0.298 C 
HETATM   25  C5  UNL     1       6.300  -0.594  -0.940  1.00  0.00     0.198 C 
HETATM   26  O2  UNL     1       6.920  -1.017   0.221  1.00  0.00    -0.388 OA
HETATM   27  C6  UNL     1       6.402  -0.481   1.375  1.00  0.00     0.198 C 
HETATM   28  C7  UNL     1       4.967  -0.023   1.219  1.00  0.00     0.298 C 
ENDBRANCH  22  23
ENDBRANCH  21  22
ENDBRANCH  18  21
ENDBRANCH   1  15
TORSDOF 4
