REMARK  9 active torsions:
REMARK  status: ('A' for Active; 'I' for Inactive)
REMARK    1  A    between atoms: C3_4  and  C4_5 
REMARK    2  A    between atoms: C4_5  and  N1_6 
REMARK    3  A    between atoms: N1_6  and  C5_7 
REMARK    4  A    between atoms: C10_14  and  C11_15 
REMARK    5  A    between atoms: C11_15  and  N4_16 
REMARK    6  A    between atoms: C12_17  and  N5_19 
REMARK    7  A    between atoms: N5_19  and  C13_20 
REMARK    8  A    between atoms: C13_20  and  C14_21 
REMARK    9  A    between atoms: C14_21  and  N6_22 
ROOT
HETATM    1  C5  UNL     1       4.768   0.057   0.496  1.00  0.00     0.150 A 
HETATM    2  N2  UNL     1       5.883  -0.399   0.058  1.00  0.00    -0.240 NA
HETATM    3  C6  UNL     1       6.052  -1.512  -0.779  1.00  0.00     0.136 A 
HETATM    4  C7  UNL     1       4.989  -2.162  -1.162  1.00  0.00     0.116 A 
HETATM    5  N3  UNL     1       3.667  -1.789  -0.766  1.00  0.00    -0.328 N 
HETATM    6  C8  UNL     1       2.606  -2.583  -1.255  1.00  0.00     0.097 A 
HETATM    7  C9  UNL     1       1.400  -2.169  -0.839  1.00  0.00     0.030 A 
HETATM    8  C10 UNL     1       1.187  -1.000   0.045  1.00  0.00    -0.022 A 
HETATM    9  C19 UNL     1       2.386  -0.289   0.461  1.00  0.00     0.046 A 
HETATM   10  C20 UNL     1       3.585  -0.658   0.077  1.00  0.00     0.085 A 
ENDROOT
BRANCH   8  11
HETATM   11  C11 UNL     1      -0.080  -0.676   0.403  1.00  0.00     0.073 C 
BRANCH  11  12
HETATM   12  N4  UNL     1      -1.047  -1.650  -0.228  1.00  0.00    -0.246 N 
HETATM   13  C12 UNL     1      -2.312  -1.063   0.327  1.00  0.00     0.231 A 
HETATM   14  O1  UNL     1      -2.954  -0.164   1.054  1.00  0.00    -0.189 OA
HETATM   15  H13 UNL     1      -1.107  -0.920   0.318  1.00  0.00     0.214 HD
BRANCH  13  16
HETATM   16  N5  UNL     1      -3.499  -1.787  -0.100  1.00  0.00    -0.377 N 
HETATM   17  H14 UNL     1      -3.205  -2.601  -0.728  1.00  0.00     0.157 HD
BRANCH  16  18
HETATM   18  C13 UNL     1      -4.948  -1.718   0.083  1.00  0.00     0.148 C 
BRANCH  18  19
HETATM   19  C14 UNL     1      -5.434  -0.416  -0.443  1.00  0.00     0.291 C 
BRANCH  19  20
HETATM   20  N6  UNL     1      -6.853  -0.224  -0.330  1.00  0.00     0.094 N 
HETATM   21  C15 UNL     1      -7.372  -0.078   0.982  1.00  0.00     0.298 C 
HETATM   22  C16 UNL     1      -7.961   1.285   1.277  1.00  0.00     0.198 C 
HETATM   23  O2  UNL     1      -6.986   2.213   0.889  1.00  0.00    -0.388 OA
HETATM   24  C17 UNL     1      -6.969   2.241  -0.503  1.00  0.00     0.198 C 
HETATM   25  C18 UNL     1      -7.225   0.916  -1.136  1.00  0.00     0.298 C 
ENDBRANCH  19  20
ENDBRANCH  18  19
ENDBRANCH  16  18
ENDBRANCH  13  16
ENDBRANCH  11  12
ENDBRANCH   8  11
BRANCH   1  26
HETATM   26  N1  UNL     1       4.718   1.195   1.340  1.00  0.00    -0.369 N 
HETATM   27  H7  UNL     1       3.825   1.722   1.424  1.00  0.00     0.161 HD
BRANCH  26  28
HETATM   28  C4  UNL     1       5.977   1.520   2.027  1.00  0.00     0.150 C 
BRANCH  28  29
HETATM   29  C3  UNL     1       6.991   1.984   1.020  1.00  0.00     0.011 C 
HETATM   30  C2  UNL     1       8.203   1.522   0.664  1.00  0.00     0.005 C 
HETATM   31  C1  UNL     1       9.113   2.095  -0.371  1.00  0.00     0.061 C 
HETATM   32 CL1  UNL     1       9.019   0.120   1.334  1.00  0.00    -0.090 Cl
ENDBRANCH  28  29
ENDBRANCH  26  28
ENDBRANCH   1  26
TORSDOF 9
