REMARK  5 active torsions:
REMARK  status: ('A' for Active; 'I' for Inactive)
REMARK       I    between atoms: C1_2  and  N1_3 
REMARK       I    between atoms: C1_2  and  N3_12 
REMARK    1  A    between atoms: N1_3  and  C2_4 
REMARK    2  A    between atoms: C2_4  and  C3_5 
REMARK    3  A    between atoms: C3_5  and  N2_6 
REMARK    4  A    between atoms: N3_12  and  C8_13 
REMARK    5  A    between atoms: C13_20  and  N6_21 
ROOT
HETATM    1  C8  UNL     1      -1.342  -1.855   0.496  1.00  0.00     0.021 C 
HETATM    2  C9  UNL     1      -2.333  -2.427  -0.104  1.00  0.00     0.027 C 
HETATM    3  C10 UNL     1      -3.115  -2.352  -1.281  1.00  0.00     0.021 C 
HETATM    4  C11 UNL     1      -4.113  -2.998  -1.624  1.00  0.00     0.118 C 
HETATM    5  N4  UNL     1      -4.197  -3.802  -0.406  1.00  0.00    -0.254 NA
HETATM    6  C12 UNL     1      -4.436  -2.934   0.630  1.00  0.00     0.234 C 
HETATM    7  N5  UNL     1      -4.521  -1.554   0.229  1.00  0.00    -0.228 NA
HETATM    8  C13 UNL     1      -3.472  -0.788   0.017  1.00  0.00     0.113 C 
HETATM    9  C19 UNL     1      -1.926  -0.569  -0.026  1.00  0.00     0.135 C 
ENDROOT
BRANCH   1  10
HETATM   10  N3  UNL     1      -0.319  -1.416   1.301  1.00  0.00    -0.312 N 
HETATM   11  C1  UNL     1       1.048  -1.263   0.943  1.00  0.00     0.320 C 
HETATM   12  O1  UNL     1       1.481  -1.514  -0.197  1.00  0.00    -0.247 OA
HETATM   13  N1  UNL     1       1.861  -0.799   2.010  1.00  0.00    -0.341 N 
HETATM   14  H1  UNL     1       1.447  -0.605   2.975  1.00  0.00     0.164 HD
HETATM   15  H14 UNL     1      -0.718  -1.210   2.265  1.00  0.00     0.170 HD
BRANCH  13  16
HETATM   16  C2  UNL     1       3.281  -0.557   1.883  1.00  0.00     0.154 C 
BRANCH  16  17
HETATM   17  C3  UNL     1       3.491   0.513   0.846  1.00  0.00     0.292 C 
BRANCH  17  18
HETATM   18  N2  UNL     1       4.863   0.846   0.641  1.00  0.00     0.094 N 
HETATM   19  C4  UNL     1       5.677  -0.144   0.026  1.00  0.00     0.298 C 
HETATM   20  C5  UNL     1       6.989   0.492  -0.347  1.00  0.00     0.198 C 
HETATM   21  O2  UNL     1       6.902   1.468  -1.316  1.00  0.00    -0.388 OA
HETATM   22  C6  UNL     1       5.591   1.881  -1.469  1.00  0.00     0.198 C 
HETATM   23  C7  UNL     1       4.958   2.080  -0.101  1.00  0.00     0.298 C 
ENDBRANCH  17  18
ENDBRANCH  16  17
ENDBRANCH  13  16
ENDBRANCH   1  10
BRANCH   8  24
HETATM   24  N6  UNL     1      -4.129   0.439  -0.346  1.00  0.00    -0.340 N 
HETATM   25  C14 UNL     1      -4.237   0.973  -1.651  1.00  0.00     0.119 A 
HETATM   26  C15 UNL     1      -4.849   2.109  -1.936  1.00  0.00     0.087 A 
HETATM   27 CL1  UNL     1      -4.934   2.694  -3.574  1.00  0.00    -0.080 Cl
HETATM   28  C16 UNL     1      -5.460   2.883  -0.874  1.00  0.00     0.137 A 
HETATM   29  F1  UNL     1      -6.091   4.043  -1.135  1.00  0.00    -0.205 F 
HETATM   30  C17 UNL     1      -5.381   2.419   0.346  1.00  0.00     0.037 A 
HETATM   31  C18 UNL     1      -4.719   1.160   0.770  1.00  0.00     0.160 A 
ENDBRANCH   8  24
TORSDOF 5
