REMARK  8 active torsions:
REMARK  status: ('A' for Active; 'I' for Inactive)
REMARK    1  A    between atoms: N1_7  and  C7_8 
REMARK    2  A    between atoms: C7_8  and  C8_9 
REMARK    3  A    between atoms: C8_9  and  N2_10 
REMARK    4  A    between atoms: N2_10  and  N3_11 
REMARK    5  A    between atoms: N3_11  and  O1_12 
REMARK    6  A    between atoms: N3_11  and  C9_13 
REMARK    7  A    between atoms: C14_20  and  N6_21 
REMARK    8  A    between atoms: N6_21  and  C15_22 
ROOT
HETATM    1  C9  UNL     1      -0.590  -1.358  -0.478  1.00  0.00     0.076 A 
HETATM    2  C10 UNL     1      -0.214  -2.241   0.502  1.00  0.00     0.036 A 
HETATM    3  C11 UNL     1      -1.083  -2.740   1.446  1.00  0.00     0.035 A 
HETATM    4  C12 UNL     1      -2.390  -2.310   1.373  1.00  0.00     0.072 A 
HETATM    5  N4  UNL     1      -3.277  -2.760   2.280  1.00  0.00    -0.241 NA
HETATM    6  C13 UNL     1      -4.575  -2.342   2.237  1.00  0.00     0.235 A 
HETATM    7  N5  UNL     1      -4.973  -1.464   1.272  1.00  0.00    -0.224 NA
HETATM    8  C14 UNL     1      -4.140  -0.975   0.337  1.00  0.00     0.138 A 
HETATM    9  C20 UNL     1      -2.840  -1.424   0.416  1.00  0.00     0.041 A 
HETATM   10  C21 UNL     1      -1.927  -0.974  -0.482  1.00  0.00     0.051 A 
ENDROOT
BRANCH   1  11
HETATM   11  N3  UNL     1       0.232  -0.763  -1.478  1.00  0.00    -0.187 N 
BRANCH  11  12
HETATM   12  N2  UNL     1       0.430   0.570  -1.245  1.00  0.00    -0.211 NA
HETATM   13  H15 UNL     1      -0.035   1.004  -0.449  1.00  0.00     0.149 HD
BRANCH  12  14
HETATM   14  C8  UNL     1       1.839   0.867  -1.196  1.00  0.00     0.132 C 
BRANCH  14  15
HETATM   15  C7  UNL     1       2.574   0.123  -0.111  1.00  0.00     0.138 C 
BRANCH  15  16
HETATM   16  N1  UNL     1       3.994   0.474  -0.098  1.00  0.00    -0.384 N 
HETATM   17  C2  UNL     1       4.999  -0.452  -0.470  1.00  0.00    -0.003 C 
HETATM   18  C1  UNL     1       4.661  -1.395  -1.331  1.00  0.00     0.038 C 
HETATM   19  C3  UNL     1       6.329  -0.243   0.159  1.00  0.00     0.056 C 
HETATM   20  C4  UNL     1       6.659   1.225  -0.024  1.00  0.00     0.007 C 
HETATM   21  C5  UNL     1       5.681   1.993   0.866  1.00  0.00     0.020 C 
HETATM   22  C6  UNL     1       4.306   1.826   0.313  1.00  0.00     0.122 C 
ENDBRANCH  15  16
ENDBRANCH  14  15
ENDBRANCH  12  14
ENDBRANCH  11  12
BRANCH  11  23
HETATM   23  O1  UNL     1       0.859  -1.213  -2.602  1.00  0.00    -0.272 OA
HETATM   24  H16 UNL     1       0.177  -1.174  -3.319  1.00  0.00     0.246 HD
ENDBRANCH  11  23
ENDBRANCH   1  11
BRANCH   8  25
HETATM   25  N6  UNL     1      -4.629  -0.059  -0.631  1.00  0.00    -0.363 N 
HETATM   26  H20 UNL     1      -4.119   0.371  -1.401  1.00  0.00     0.162 HD
BRANCH  25  27
HETATM   27  C15 UNL     1      -6.034   0.300  -0.495  1.00  0.00     0.131 A 
HETATM   28  C16 UNL     1      -6.289   0.996   0.792  1.00  0.00     0.003 A 
HETATM   29  C17 UNL     1      -6.741   2.238   0.551  1.00  0.00     0.017 A 
HETATM   30  C18 UNL     1      -6.808   2.426  -0.903  1.00  0.00     0.009 A 
HETATM   31 BR1  UNL     1      -7.311   3.811  -2.115  1.00  0.00    -0.051 Br
HETATM   32  C19 UNL     1      -6.401   1.312  -1.502  1.00  0.00     0.021 A 
ENDBRANCH  25  27
ENDBRANCH   8  25
TORSDOF 8
