REMARK  5 active torsions:
REMARK  status: ('A' for Active; 'I' for Inactive)
REMARK    1  A    between atoms: N1_4  and  N2_5 
REMARK    2  A    between atoms: C8_12  and  N4_13 
REMARK    3  A    between atoms: N4_13  and  P1_14 
REMARK    4  A    between atoms: P1_14  and  C9_15 
REMARK    5  A    between atoms: C9_15  and  N5_16 
ROOT
HETATM    1  N2  UNL     1       4.439  -0.424   1.291  1.00  0.00    -0.246 N 
HETATM    2  C3  UNL     1       4.674  -1.108   2.541  1.00  0.00     0.232 A 
HETATM    3  N3  UNL     1       3.756  -1.821   3.083  1.00  0.00    -0.253 NA
HETATM    4  C4  UNL     1       2.448  -2.010   2.533  1.00  0.00     0.131 A 
HETATM    5  C5  UNL     1       2.143  -1.430   1.406  1.00  0.00     0.011 A 
HETATM    6  C6  UNL     1       0.753  -1.760   1.029  1.00  0.00     0.013 C 
HETATM    7  C7  UNL     1      -0.111  -1.229   0.153  1.00  0.00    -0.005 C 
HETATM    8  C8  UNL     1      -0.063  -0.097  -0.810  1.00  0.00     0.100 C 
HETATM    9  C15 UNL     1       1.055  -0.233  -1.822  1.00  0.00     0.142 C 
HETATM   10  N6  UNL     1       2.295   0.376  -1.388  1.00  0.00    -0.395 N 
HETATM   11  C16 UNL     1       3.233   0.115  -0.358  1.00  0.00     0.115 C 
HETATM   12  C17 UNL     1       3.142  -0.605   0.736  1.00  0.00     0.084 A 
HETATM   13  H23 UNL     1       2.586   1.210  -1.958  1.00  0.00     0.159 HD
ENDROOT
BRANCH   8  14
HETATM   14  N4  UNL     1      -1.317  -0.131  -1.566  1.00  0.00    -0.291 NA
HETATM   15  H7  UNL     1      -1.304  -0.994  -2.150  1.00  0.00     0.127 HD
BRANCH  14  16
HETATM   16  P1  UNL     1      -2.748   0.043  -0.529  1.00  0.00    -0.027 P 
HETATM   17  H8  UNL     1      -3.358  -1.290  -0.393  1.00  0.00     0.075 HD
BRANCH  16  18
HETATM   18  C9  UNL     1      -4.004   1.073  -1.436  1.00  0.00     0.318 C 
BRANCH  18  19
HETATM   19  N5  UNL     1      -5.335   0.877  -0.905  1.00  0.00     0.093 N 
HETATM   20  C10 UNL     1      -5.447   1.229   0.487  1.00  0.00     0.273 C 
HETATM   21  C11 UNL     1      -6.296   0.227   1.228  1.00  0.00     0.030 C 
HETATM   22  C12 UNL     1      -7.583  -0.101   0.509  1.00  0.00     0.003 C 
HETATM   23  C13 UNL     1      -7.400  -0.303  -0.970  1.00  0.00     0.030 C 
HETATM   24  C14 UNL     1      -5.909  -0.389  -1.242  1.00  0.00     0.273 C 
ENDBRANCH  18  19
ENDBRANCH  16  18
ENDBRANCH  14  16
ENDBRANCH   8  14
BRANCH   1  25
HETATM   25  N1  UNL     1       5.497   0.330   0.775  1.00  0.00    -0.291 N 
HETATM   26  C2  UNL     1       5.731   1.742   0.961  1.00  0.00     0.130 A 
HETATM   27  C1  UNL     1       6.785   2.311   0.399  1.00  0.00     0.027 A 
HETATM   28 BR1  UNL     1       7.010   4.188   0.703  1.00  0.00    -0.050 Br
HETATM   29  C20 UNL     1       7.759   1.595  -0.415  1.00  0.00     0.018 A 
HETATM   30  C19 UNL     1       7.539   0.303  -0.577  1.00  0.00    -0.004 A 
HETATM   31  C18 UNL     1       6.417  -0.493  -0.024  1.00  0.00     0.176 A 
ENDBRANCH   1  25
TORSDOF 5
