REMARK  4 active torsions:
REMARK  status: ('A' for Active; 'I' for Inactive)
REMARK    1  A    between atoms: N4_11  and  C7_12 
REMARK    2  A    between atoms: C7_12  and  C8_13 
REMARK    3  A    between atoms: C8_13  and  C9_14 
REMARK    4  A    between atoms: C10_16  and  C11_17 
ROOT
HETATM    1  O1  UNL     1      -2.103   2.112  -0.341  1.00  0.00    -0.101 OA
HETATM    2  C1  UNL     1      -3.349   2.249  -0.417  1.00  0.00     0.383 A 
HETATM    3  N1  UNL     1      -2.640   3.385   0.029  1.00  0.00     0.146 N 
HETATM    4  C2  UNL     1      -1.347   3.611   0.571  1.00  0.00     0.274 C 
HETATM    5  C3  UNL     1      -0.293   2.866   0.996  1.00  0.00     0.069 C 
HETATM    6  C4  UNL     1       0.233   1.521   1.225  1.00  0.00     0.139 C 
HETATM    7  C5  UNL     1       1.206   0.985   0.372  1.00  0.00     0.109 C 
HETATM    8  N2  UNL     1       1.994   1.828  -0.166  1.00  0.00    -0.228 NA
HETATM    9  C6  UNL     1       1.935   3.224   0.225  1.00  0.00     0.235 C 
HETATM   10  N3  UNL     1       1.000   3.526   1.168  1.00  0.00    -0.245 NA
HETATM   11  N4  UNL     1       1.679  -0.263  -0.119  1.00  0.00    -0.357 N 
HETATM   12  C13 UNL     1       0.622  -0.949  -0.782  1.00  0.00     0.163 C 
HETATM   13  C14 UNL     1      -0.485  -1.555  -0.023  1.00  0.00     0.264 C 
HETATM   14  C15 UNL     1      -0.121  -2.107   1.333  1.00  0.00     0.205 C 
HETATM   15  O2  UNL     1      -0.984  -3.181   1.629  1.00  0.00    -0.387 OA
HETATM   16  C16 UNL     1      -2.218  -3.049   1.036  1.00  0.00     0.198 C 
HETATM   17  C17 UNL     1      -2.612  -1.592   0.940  1.00  0.00     0.299 C 
HETATM   18  N5  UNL     1      -1.763  -0.882   0.049  1.00  0.00     0.100 NA
HETATM   19  C18 UNL     1      -2.219  -0.515  -1.202  1.00  0.00     0.292 C 
HETATM   20  C19 UNL     1      -3.532  -0.032  -1.560  1.00  0.00     0.153 C 
HETATM   21  N6  UNL     1      -4.063   1.112  -0.863  1.00  0.00    -0.344 N 
HETATM   22  H1  UNL     1      -3.373   4.129  -0.143  1.00  0.00     0.336 HD
HETATM   23  H24 UNL     1      -4.739   1.744  -0.401  1.00  0.00     0.163 HD
ENDROOT
BRANCH  11  24
HETATM   24  C7  UNL     1       3.091  -0.622   0.113  1.00  0.00     0.044 C 
HETATM   25  C10 UNL     1       3.280  -0.482  -1.189  1.00  0.00     0.119 C 
BRANCH  24  26
HETATM   26  C8  UNL     1       3.048  -0.817   1.578  1.00  0.00     0.011 C 
BRANCH  26  27
HETATM   27  C9  UNL     1       2.932  -0.969   2.843  1.00  0.00     0.082 C 
HETATM   28 CL1  UNL     1       4.310  -1.421   3.861  1.00  0.00    -0.097 Cl
ENDBRANCH  26  27
ENDBRANCH  24  26
BRANCH  25  29
HETATM   29  C11 UNL     1       4.537  -0.674  -1.891  1.00  0.00     0.011 C 
HETATM   30  C12 UNL     1       3.983  -0.375  -3.079  1.00  0.00     0.184 C 
HETATM   31  F1  UNL     1       2.762  -0.021  -3.567  1.00  0.00    -0.220 F 
ENDBRANCH  25  29
ENDBRANCH  11  24
TORSDOF 4
