REMARK  2 active torsions:
REMARK  status: ('A' for Active; 'I' for Inactive)
REMARK    1  A    between atoms: O1_2  and  C2_3 
REMARK    2  A    between atoms: C4_5  and  O2_6 
ROOT
HETATM    1  C2  UNL     1       2.372   1.241  -0.477  1.00  0.00     0.071 A 
HETATM    2  C3  UNL     1       2.303   0.281  -1.424  1.00  0.00     0.073 A 
HETATM    3  C4  UNL     1       1.313  -0.670  -1.197  1.00  0.00     0.075 A 
HETATM    4  C5  UNL     1       0.361  -0.798  -0.133  1.00  0.00    -0.012 A 
HETATM    5  C6  UNL     1       0.628   0.255   0.664  1.00  0.00    -0.003 A 
HETATM    6  C7  UNL     1       1.539   1.266   0.600  1.00  0.00     0.048 A 
HETATM    7  C8  UNL     1      -0.290   0.327   1.901  1.00  0.00     0.242 C 
HETATM    8  N1  UNL     1      -0.058  -0.788   2.605  1.00  0.00    -0.251 N 
HETATM    9  C9  UNL     1       0.236  -1.657   3.372  1.00  0.00     0.228 A 
HETATM   10  N2  UNL     1      -0.404  -1.789   2.158  1.00  0.00    -0.258 N 
HETATM   11  C10 UNL     1      -0.979  -2.816   1.636  1.00  0.00     0.113 C 
HETATM   12  C11 UNL     1      -1.523  -2.494   0.343  1.00  0.00     0.065 A 
HETATM   13  C12 UNL     1      -2.074  -2.366  -0.817  1.00  0.00     0.038 A 
HETATM   14 BR1  UNL     1      -2.655  -4.159  -0.724  1.00  0.00    -0.138 Br
HETATM   15  C13 UNL     1      -2.519  -1.290  -1.732  1.00  0.00     0.001 C 
HETATM   16  C14 UNL     1      -2.670   0.047  -1.885  1.00  0.00     0.048 C 
HETATM   17  C15 UNL     1      -2.360   1.110  -0.872  1.00  0.00     0.003 C 
HETATM   18  C16 UNL     1      -1.936   1.497   0.374  1.00  0.00    -0.001 C 
HETATM   19  C17 UNL     1      -1.786   2.837   0.954  1.00  0.00     0.067 C 
HETATM   20  N3  UNL     1      -1.642   0.507   1.373  1.00  0.00    -0.367 N 
HETATM   21  C18 UNL     1      -0.379  -1.964  -0.431  1.00  0.00     0.084 A 
HETATM   22  H16 UNL     1      -2.611   0.140   1.470  1.00  0.00     0.161 HD
ENDROOT
BRANCH   1  23
HETATM   23  O1  UNL     1       3.274   2.285  -0.491  1.00  0.00    -0.356 OA
HETATM   24  C1  UNL     1       4.237   2.517  -1.453  1.00  0.00     0.210 C 
ENDBRANCH   1  23
BRANCH   3  25
HETATM   25  O2  UNL     1       1.417  -1.578  -2.305  1.00  0.00    -0.360 OA
HETATM   26  H5  UNL     1       1.911  -2.425  -2.045  1.00  0.00     0.217 HD
ENDBRANCH   3  25
TORSDOF 2
