REMARK  5 active torsions:
REMARK  status: ('A' for Active; 'I' for Inactive)
REMARK       I    between atoms: C1_2  and  N1_3 
REMARK       I    between atoms: C1_2  and  N3_12 
REMARK    1  A    between atoms: N1_3  and  C2_4 
REMARK    2  A    between atoms: C2_4  and  C3_5 
REMARK    3  A    between atoms: C3_5  and  N2_6 
REMARK    4  A    between atoms: N3_12  and  C8_13 
REMARK    5  A    between atoms: C13_20  and  C14_21 
ROOT
HETATM    1  C8  UNL     1      -1.554  -0.836   0.541  1.00  0.00     0.037 A 
HETATM    2  C9  UNL     1      -1.559  -2.199   0.362  1.00  0.00     0.032 A 
HETATM    3  C10 UNL     1      -2.663  -2.944   0.010  1.00  0.00     0.035 A 
HETATM    4  C11 UNL     1      -3.870  -2.306  -0.185  1.00  0.00     0.070 A 
HETATM    5  N4  UNL     1      -4.965  -2.985  -0.527  1.00  0.00    -0.241 NA
HETATM    6  C12 UNL     1      -6.122  -2.322  -0.708  1.00  0.00     0.234 A 
HETATM    7  N5  UNL     1      -6.145  -0.988  -0.539  1.00  0.00    -0.245 NA
HETATM    8  C13 UNL     1      -5.070  -0.256  -0.195  1.00  0.00     0.059 A 
HETATM    9  C18 UNL     1      -3.886  -0.938  -0.010  1.00  0.00     0.020 A 
HETATM   10  C19 UNL     1      -2.759  -0.241   0.341  1.00  0.00     0.045 A 
ENDROOT
BRANCH   1  11
HETATM   11  N3  UNL     1      -0.453  -0.027   0.901  1.00  0.00    -0.309 N 
HETATM   12  C1  UNL     1       0.887  -0.406   1.162  1.00  0.00     0.320 C 
HETATM   13  O1  UNL     1       1.215  -1.614   1.080  1.00  0.00    -0.247 OA
HETATM   14  N1  UNL     1       1.915   0.487   1.516  1.00  0.00    -0.341 N 
HETATM   15  H1  UNL     1       1.669   1.517   1.595  1.00  0.00     0.164 HD
HETATM   16  H14 UNL     1      -0.578   0.993   1.006  1.00  0.00     0.170 HD
BRANCH  14  17
HETATM   17  C2  UNL     1       3.278   0.083   1.776  1.00  0.00     0.154 C 
BRANCH  17  18
HETATM   18  C3  UNL     1       3.957  -0.576   0.634  1.00  0.00     0.292 C 
BRANCH  18  19
HETATM   19  N2  UNL     1       4.071   0.200  -0.558  1.00  0.00     0.094 N 
HETATM   20  C4  UNL     1       4.744  -0.491  -1.647  1.00  0.00     0.298 C 
HETATM   21  C5  UNL     1       6.178   0.007  -1.729  1.00  0.00     0.198 C 
HETATM   22  O2  UNL     1       6.679   0.312  -0.465  1.00  0.00    -0.388 OA
HETATM   23  C6  UNL     1       6.051   1.410   0.120  1.00  0.00     0.198 C 
HETATM   24  C7  UNL     1       4.646   1.484  -0.422  1.00  0.00     0.298 C 
ENDBRANCH  18  19
ENDBRANCH  17  18
ENDBRANCH  14  17
ENDBRANCH   1  11
BRANCH   8  25
HETATM   25  C14 UNL     1      -5.184   1.230  -0.027  1.00  0.00     0.104 A 
HETATM   26  C15 UNL     1      -4.926   2.025  -1.251  1.00  0.00     0.048 A 
HETATM   27  C16 UNL     1      -6.357   2.390  -1.292  1.00  0.00     0.013 A 
HETATM   28  C17 UNL     1      -6.573   1.679  -0.204  1.00  0.00     0.100 A 
HETATM   29  F1  UNL     1      -7.616   1.346   0.621  1.00  0.00    -0.210 F 
ENDBRANCH   8  25
TORSDOF 5
