REMARK  6 active torsions:
REMARK  status: ('A' for Active; 'I' for Inactive)
REMARK    1  A    between atoms: C5_7  and  C6_8 
REMARK    2  A    between atoms: C6_8  and  N2_9 
REMARK    3  A    between atoms: N2_9  and  C7_10 
REMARK    4  A    between atoms: C7_10  and  N3_11 
REMARK    5  A    between atoms: N3_11  and  C8_12 
REMARK    6  A    between atoms: C8_12  and  C9_13 
ROOT
HETATM    1  C8  UNL     1       1.555   0.788  -0.281  1.00  0.00     0.243 A 
HETATM    2  C17 UNL     1       1.229   2.139   0.287  1.00  0.00     0.028 A 
HETATM    3  C18 UNL     1       1.323   3.010  -0.738  1.00  0.00     0.041 A 
HETATM    4  C19 UNL     1       1.708   2.347  -2.007  1.00  0.00     0.115 A 
HETATM    5  F1  UNL     1       1.859   3.036  -3.163  1.00  0.00    -0.206 F 
HETATM    6  C20 UNL     1       1.834   1.042  -1.675  1.00  0.00     0.067 A 
ENDROOT
BRANCH   1   7
HETATM    7  N3  UNL     1       0.239   0.104  -0.222  1.00  0.00     0.134 N 
HETATM    8  H14 UNL     1      -0.106   0.013   0.750  1.00  0.00     0.320 HD
BRANCH   7   9
HETATM    9  C7  UNL     1       0.152  -1.103  -0.940  1.00  0.00     0.539 C 
BRANCH   9  10
HETATM   10  N2  UNL     1      -1.211  -1.594  -0.747  1.00  0.00     0.114 N 
HETATM   11  H11 UNL     1      -1.341  -1.989   0.206  1.00  0.00     0.318 HD
BRANCH  10  12
HETATM   12  C6  UNL     1      -2.225  -0.709  -1.210  1.00  0.00     0.315 C 
BRANCH  12  13
HETATM   13  C5  UNL     1      -3.610  -1.320  -0.959  1.00  0.00     0.317 C 
HETATM   14  C1  UNL     1      -3.789  -1.552   0.500  1.00  0.00     0.161 C 
HETATM   15  O1  UNL     1      -3.398  -2.464   1.209  1.00  0.00    -0.296 OA
HETATM   16  C2  UNL     1      -4.579  -0.484   1.202  1.00  0.00     0.082 C 
HETATM   17  C3  UNL     1      -5.995  -0.605   0.629  1.00  0.00     0.037 C 
HETATM   18  C4  UNL     1      -5.911  -0.638  -0.878  1.00  0.00     0.271 C 
HETATM   19  N1  UNL     1      -4.594  -0.286  -1.315  1.00  0.00     0.097 N 
HETATM   20  H7  UNL     1      -4.552  -0.039  -2.324  1.00  0.00     0.316 HD
ENDBRANCH  12  13
ENDBRANCH  10  12
ENDBRANCH   9  10
ENDBRANCH   7   9
ENDBRANCH   1   7
BRANCH   1  21
HETATM   21  C9  UNL     1       2.431  -0.020   0.543  1.00  0.00     0.095 A 
HETATM   22  N4  UNL     1       1.996  -1.109   1.208  1.00  0.00    -0.242 NA
HETATM   23  C10 UNL     1       2.726  -1.889   2.001  1.00  0.00     0.234 A 
HETATM   24  N5  UNL     1       4.030  -1.679   2.243  1.00  0.00    -0.241 NA
HETATM   25  C11 UNL     1       4.578  -0.602   1.621  1.00  0.00     0.070 A 
HETATM   26  C12 UNL     1       5.912  -0.334   1.830  1.00  0.00     0.032 A 
HETATM   27  C16 UNL     1       3.769   0.159   0.818  1.00  0.00     0.021 A 
HETATM   28  C13 UNL     1       6.516   0.746   1.221  1.00  0.00     0.002 A 
HETATM   29  C14 UNL     1       5.736   1.559   0.389  1.00  0.00     0.001 A 
HETATM   30  C15 UNL     1       4.420   1.220   0.238  1.00  0.00     0.016 A 
ENDBRANCH   1  21
TORSDOF 6
