REMARK  4 active torsions:
REMARK  status: ('A' for Active; 'I' for Inactive)
REMARK    1  A    between atoms: C1_3  and  N2_5 
REMARK    2  A    between atoms: N2_5  and  C2_6 
REMARK    3  A    between atoms: C6_10  and  C7_11 
REMARK    4  A    between atoms: C7_11  and  N3_12 
ROOT
HETATM    1  C2  UNL     1      -1.421  -0.930   1.451  1.00  0.00     0.021 A 
HETATM    2  C3  UNL     1      -1.870  -2.024   2.013  1.00  0.00     0.025 A 
HETATM    3  C4  UNL     1      -0.890  -3.007   1.457  1.00  0.00    -0.001 A 
HETATM    4  C5  UNL     1       0.032  -2.452   0.645  1.00  0.00    -0.014 A 
HETATM    5  C6  UNL     1      -0.236  -0.916   0.578  1.00  0.00     0.076 A 
ENDROOT
BRANCH   5   6
HETATM    6  C7  UNL     1       1.028  -0.412   1.299  1.00  0.00     0.134 C 
BRANCH   6   7
HETATM    7  N3  UNL     1       2.134  -0.377   0.332  1.00  0.00    -0.386 N 
HETATM    8  C8  UNL     1       1.528   0.527  -0.216  1.00  0.00     0.068 A 
HETATM    9  C9  UNL     1       2.542   0.420  -1.339  1.00  0.00     0.032 A 
HETATM   10  C13 UNL     1       0.841   1.629  -0.930  1.00  0.00     0.164 A 
HETATM   11  C10 UNL     1       2.745   1.115  -2.595  1.00  0.00     0.004 A 
HETATM   12  C11 UNL     1       1.859   2.128  -2.935  1.00  0.00     0.027 A 
HETATM   13  C12 UNL     1       0.857   2.392  -2.050  1.00  0.00     0.074 A 
HETATM   14 CL1  UNL     1      -0.478   3.515  -2.008  1.00  0.00    -0.081 Cl
HETATM   15  F1  UNL     1      -0.003   1.753   0.191  1.00  0.00    -0.202 F 
HETATM   16  H8  UNL     1       2.851  -1.068   0.534  1.00  0.00     0.159 HD
ENDBRANCH   6   7
ENDBRANCH   5   6
BRANCH   1  17
HETATM   17  N2  UNL     1      -2.286   0.101   1.905  1.00  0.00    -0.325 N 
HETATM   18  H1  UNL     1      -2.852   0.806   2.375  1.00  0.00     0.169 HD
BRANCH  17  19
HETATM   19  C1  UNL     1      -2.981   0.625   0.751  1.00  0.00     0.274 A 
HETATM   20  N1  UNL     1      -3.790   1.294  -0.249  1.00  0.00     0.054 NA
HETATM   21  O1  UNL     1      -4.929   1.758   0.053  1.00  0.00    -0.082 OA
HETATM   22  O2  UNL     1      -2.894   0.277  -0.536  1.00  0.00    -0.190 OA
ENDBRANCH  17  19
ENDBRANCH   1  17
TORSDOF 4
