REMARK  4 active torsions:
REMARK  status: ('A' for Active; 'I' for Inactive)
REMARK       I    between atoms: C1_2  and  N1_3 
REMARK       I    between atoms: C1_2  and  N3_12 
REMARK    1  A    between atoms: N1_3  and  C2_4 
REMARK    2  A    between atoms: C2_4  and  C3_5 
REMARK    3  A    between atoms: C3_5  and  N2_6 
REMARK    4  A    between atoms: N3_12  and  C8_13 
ROOT
HETATM    1  C8  UNL     1       1.166  -0.707   0.199  1.00  0.00     0.046 A 
HETATM    2  C9  UNL     1       0.770  -1.849   0.831  1.00  0.00     0.032 A 
HETATM    3  C10 UNL     1       1.697  -2.488   1.619  1.00  0.00     0.035 A 
HETATM    4  C11 UNL     1       2.990  -1.956   1.745  1.00  0.00     0.073 A 
HETATM    5  N4  UNL     1       3.722  -2.725   2.576  1.00  0.00    -0.241 NA
HETATM    6  C12 UNL     1       4.980  -2.418   2.872  1.00  0.00     0.235 A 
HETATM    7  N5  UNL     1       5.396  -1.300   2.262  1.00  0.00    -0.224 NA
HETATM    8  C13 UNL     1       4.662  -0.534   1.432  1.00  0.00     0.138 A 
HETATM    9  C14 UNL     1       3.403  -0.799   1.109  1.00  0.00     0.050 A 
HETATM   10  C15 UNL     1       2.442  -0.198   0.334  1.00  0.00     0.019 A 
HETATM   11  C16 UNL     1       2.555   1.064  -0.448  1.00  0.00     0.210 C 
HETATM   12  F1  UNL     1       1.937   2.095   0.204  1.00  0.00    -0.244 F 
HETATM   13  C17 UNL     1       3.939   1.244  -0.730  1.00  0.00     0.069 C 
HETATM   14  C18 UNL     1       4.819   2.266  -1.191  1.00  0.00    -0.026 C 
HETATM   15  C19 UNL     1       5.975   2.471  -0.470  1.00  0.00    -0.011 C 
HETATM   16  C20 UNL     1       6.340   1.640   0.746  1.00  0.00     0.148 C 
HETATM   17  N6  UNL     1       5.553   0.520   1.049  1.00  0.00    -0.371 N 
HETATM   18  H25 UNL     1       6.179  -0.033   0.360  1.00  0.00     0.161 HD
ENDROOT
BRANCH   1  19
HETATM   19  N3  UNL     1       0.179  -0.077  -0.607  1.00  0.00    -0.308 N 
HETATM   20  C1  UNL     1      -1.023  -0.602  -1.062  1.00  0.00     0.320 C 
HETATM   21  O1  UNL     1      -1.385  -1.758  -0.810  1.00  0.00    -0.247 OA
HETATM   22  N1  UNL     1      -1.991   0.066  -1.854  1.00  0.00    -0.341 N 
HETATM   23  H1  UNL     1      -1.792   1.060  -2.143  1.00  0.00     0.164 HD
HETATM   24  H14 UNL     1       0.240   0.925  -0.948  1.00  0.00     0.170 HD
BRANCH  22  25
HETATM   25  C2  UNL     1      -3.232  -0.525  -2.291  1.00  0.00     0.154 C 
BRANCH  25  26
HETATM   26  C3  UNL     1      -4.136  -0.935  -1.170  1.00  0.00     0.292 C 
BRANCH  26  27
HETATM   27  N2  UNL     1      -4.493   0.219  -0.338  1.00  0.00     0.094 N 
HETATM   28  C4  UNL     1      -5.334   1.162  -1.009  1.00  0.00     0.298 C 
HETATM   29  C5  UNL     1      -6.614   1.386  -0.209  1.00  0.00     0.198 C 
HETATM   30  O2  UNL     1      -7.212   0.125  -0.059  1.00  0.00    -0.388 OA
HETATM   31  C6  UNL     1      -6.468  -0.670   0.794  1.00  0.00     0.198 C 
HETATM   32  C7  UNL     1      -5.037  -0.252   0.895  1.00  0.00     0.298 C 
ENDBRANCH  26  27
ENDBRANCH  25  26
ENDBRANCH  22  25
ENDBRANCH   1  19
TORSDOF 4
