REMARK  5 active torsions:
REMARK  status: ('A' for Active; 'I' for Inactive)
REMARK       I    between atoms: C1_2  and  N1_3 
REMARK       I    between atoms: C1_2  and  N3_12 
REMARK    1  A    between atoms: N1_3  and  C2_4 
REMARK    2  A    between atoms: C2_4  and  C3_5 
REMARK    3  A    between atoms: C3_5  and  N2_6 
REMARK    4  A    between atoms: C12_16  and  N4_17 
REMARK    5  A    between atoms: N4_17  and  C13_18 
ROOT
HETATM    1  O1  UNL     1       0.314  -0.486   1.583  1.00  0.00    -0.246 OA
HETATM    2  C1  UNL     1       0.586  -0.052   0.408  1.00  0.00     0.326 C 
HETATM    3  N1  UNL     1       1.950   0.314   0.279  1.00  0.00    -0.341 N 
HETATM    4  N3  UNL     1      -0.528  -0.042  -0.468  1.00  0.00    -0.285 N 
HETATM    5  C9  UNL     1      -1.711  -0.529   0.186  1.00  0.00     0.114 C 
HETATM    6  C10 UNL     1      -3.006  -0.525  -0.049  1.00  0.00     0.009 C 
HETATM    7  C11 UNL     1      -3.571  -0.980  -1.116  1.00  0.00     0.051 A 
HETATM    8  C12 UNL     1      -4.732  -1.586  -0.624  1.00  0.00     0.143 A 
HETATM    9  N5  UNL     1      -5.557  -2.166  -1.533  1.00  0.00    -0.223 NA
HETATM   10  C19 UNL     1      -5.235  -2.137  -2.844  1.00  0.00     0.236 A 
HETATM   11  N6  UNL     1      -4.120  -1.555  -3.324  1.00  0.00    -0.241 NA
HETATM   12  C20 UNL     1      -3.255  -0.958  -2.460  1.00  0.00     0.073 A 
HETATM   13  C21 UNL     1      -2.283  -0.491  -3.227  1.00  0.00     0.034 C 
HETATM   14  C22 UNL     1      -1.040   0.257  -2.939  1.00  0.00     0.020 C 
HETATM   15  C23 UNL     1      -0.353   0.418  -1.800  1.00  0.00     0.101 C 
HETATM   16  H1  UNL     1       2.118   0.659  -0.694  1.00  0.00     0.164 HD
ENDROOT
BRANCH   3  17
HETATM   17  C2  UNL     1       2.570   0.064   1.555  1.00  0.00     0.154 C 
BRANCH  17  18
HETATM   18  C3  UNL     1       4.019   0.365   1.656  1.00  0.00     0.292 C 
BRANCH  18  19
HETATM   19  N2  UNL     1       4.855  -0.376   0.769  1.00  0.00     0.090 N 
HETATM   20  C4  UNL     1       4.737  -0.032  -0.601  1.00  0.00     0.272 C 
HETATM   21  C5  UNL     1       6.067  -0.129  -1.341  1.00  0.00     0.030 C 
HETATM   22  C6  UNL     1       7.070   0.841  -0.721  1.00  0.00     0.003 C 
HETATM   23  C7  UNL     1       7.047   0.675   0.764  1.00  0.00     0.030 C 
HETATM   24  C8  UNL     1       6.203  -0.507   1.226  1.00  0.00     0.272 C 
ENDBRANCH  18  19
ENDBRANCH  17  18
ENDBRANCH   3  17
BRANCH   8  25
HETATM   25  N4  UNL     1      -4.936  -1.541   0.803  1.00  0.00    -0.340 N 
HETATM   26  H17 UNL     1      -4.698  -2.264   1.540  1.00  0.00     0.167 HD
BRANCH  25  27
HETATM   27  C13 UNL     1      -5.554  -0.330   1.280  1.00  0.00     0.035 A 
HETATM   28  C14 UNL     1      -5.909   0.662   0.398  1.00  0.00     0.032 A 
HETATM   29  C15 UNL     1      -6.503   1.873   0.745  1.00  0.00     0.046 A 
HETATM   30  C16 UNL     1      -6.735   2.041   2.111  1.00  0.00     0.138 A 
HETATM   31  F1  UNL     1      -7.314   3.207   2.496  1.00  0.00    -0.204 F 
HETATM   32  C17 UNL     1      -6.395   1.072   3.029  1.00  0.00     0.074 A 
HETATM   33 CL1  UNL     1      -6.714   1.347   4.736  1.00  0.00    -0.081 Cl
HETATM   34  C18 UNL     1      -5.801  -0.121   2.616  1.00  0.00     0.056 A 
ENDBRANCH  25  27
ENDBRANCH   8  25
TORSDOF 5
