REMARK  3 active torsions:
REMARK  status: ('A' for Active; 'I' for Inactive)
REMARK    1  A    between atoms: C6_6  and  N1_7 
REMARK    2  A    between atoms: N1_7  and  C7_8 
REMARK    3  A    between atoms: C16_21  and  C17_22 
ROOT
HETATM    1  C1  UNL     1       2.256   3.242  -2.166  1.00  0.00     0.018 C 
HETATM    2  C2  UNL     1       2.200   2.221  -1.531  1.00  0.00    -0.077 C 
HETATM    3  C3  UNL     1       2.157   0.993  -0.759  1.00  0.00     0.031 A 
HETATM    4  C4  UNL     1       0.980   0.236  -0.788  1.00  0.00     0.039 A 
HETATM    5  C5  UNL     1       1.075  -0.899  -0.011  1.00  0.00     0.040 A 
HETATM    6  C6  UNL     1      -0.072  -1.683   0.000  1.00  0.00     0.142 A 
HETATM    7  N2  UNL     1      -0.101  -2.809   0.723  1.00  0.00    -0.224 NA
HETATM    8  C13 UNL     1       0.944  -3.238   1.462  1.00  0.00     0.236 A 
HETATM    9  N3  UNL     1       2.073  -2.474   1.456  1.00  0.00    -0.241 NA
HETATM   10  C14 UNL     1       2.141  -1.338   0.744  1.00  0.00     0.073 A 
HETATM   11  C15 UNL     1       3.263  -0.521   0.709  1.00  0.00     0.048 A 
HETATM   12  C16 UNL     1       3.265   0.636  -0.039  1.00  0.00     0.022 A 
ENDROOT
BRANCH  12  13
HETATM   13  C17 UNL     1       4.462   1.466  -0.045  1.00  0.00     0.271 C 
HETATM   14  O1  UNL     1       4.528   2.543  -0.707  1.00  0.00    -0.301 OA
ENDBRANCH  12  13
BRANCH   6  15
HETATM   15  N1  UNL     1      -1.298  -1.483  -0.683  1.00  0.00    -0.340 N 
HETATM   16  H3  UNL     1      -1.419  -2.006  -1.589  1.00  0.00     0.167 HD
BRANCH  15  17
HETATM   17  C7  UNL     1      -2.347  -0.647  -0.241  1.00  0.00     0.035 A 
HETATM   18  C8  UNL     1      -3.602  -0.654  -0.831  1.00  0.00     0.032 A 
HETATM   19  C9  UNL     1      -4.650   0.153  -0.440  1.00  0.00     0.046 A 
HETATM   20  C10 UNL     1      -4.432   1.030   0.616  1.00  0.00     0.138 A 
HETATM   21  F1  UNL     1      -5.424   1.844   1.039  1.00  0.00    -0.204 F 
HETATM   22  C11 UNL     1      -3.188   1.077   1.243  1.00  0.00     0.074 A 
HETATM   23 CL1  UNL     1      -2.851   2.150   2.562  1.00  0.00    -0.081 Cl
HETATM   24  C12 UNL     1      -2.181   0.241   0.802  1.00  0.00     0.056 A 
ENDBRANCH  15  17
ENDBRANCH   6  15
TORSDOF 3
