REMARK  8 active torsions:
REMARK  status: ('A' for Active; 'I' for Inactive)
REMARK    1  A    between atoms: C2_2  and  C3_3 
REMARK    2  A    between atoms: C3_3  and  N1_4 
REMARK    3  A    between atoms: C3_3  and  C12_16 
REMARK       I    between atoms: N1_4  and  C4_5 
REMARK       I    between atoms: C4_5  and  N2_7 
REMARK    4  A    between atoms: N2_7  and  C5_8 
REMARK    5  A    between atoms: C5_8  and  C6_9 
REMARK    6  A    between atoms: C6_9  and  N3_10 
REMARK    7  A    between atoms: C15_21  and  N6_22 
REMARK    8  A    between atoms: N6_22  and  C16_23 
ROOT
HETATM    1  C3  UNL     1       1.390  -0.717   0.252  1.00  0.00     0.025 C 
ENDROOT
BRANCH   1   2
HETATM    2  C2  UNL     1       1.022   0.676  -0.067  1.00  0.00     0.053 C 
HETATM    3  C1  UNL     1       0.795   1.474   1.231  1.00  0.00     0.011 C 
ENDBRANCH   1   2
BRANCH   1   4
HETATM    4  N1  UNL     1       0.269  -1.506   0.710  1.00  0.00    -0.312 N 
HETATM    5  C4  UNL     1      -1.049  -1.127   0.921  1.00  0.00     0.320 C 
HETATM    6  O1  UNL     1      -1.415   0.026   0.699  1.00  0.00    -0.247 OA
HETATM    7  N2  UNL     1      -2.135  -1.878   1.378  1.00  0.00    -0.341 N 
HETATM    8  H7  UNL     1      -1.873  -2.899   1.603  1.00  0.00     0.164 HD
HETATM    9  H6  UNL     1       0.292  -2.549   0.960  1.00  0.00     0.170 HD
BRANCH   7  10
HETATM   10  C5  UNL     1      -3.522  -1.567   1.607  1.00  0.00     0.154 C 
BRANCH  10  11
HETATM   11  C6  UNL     1      -4.293  -1.107   0.427  1.00  0.00     0.292 C 
BRANCH  11  12
HETATM   12  N3  UNL     1      -3.943   0.109  -0.198  1.00  0.00     0.090 N 
HETATM   13  C7  UNL     1      -4.258   1.306   0.556  1.00  0.00     0.272 C 
HETATM   14  C8  UNL     1      -5.710   1.324   0.986  1.00  0.00     0.030 C 
HETATM   15  C9  UNL     1      -6.569   1.126  -0.219  1.00  0.00     0.003 C 
HETATM   16  C10 UNL     1      -5.736   1.182  -1.479  1.00  0.00     0.030 C 
HETATM   17  C11 UNL     1      -4.600   0.205  -1.480  1.00  0.00     0.272 C 
ENDBRANCH  11  12
ENDBRANCH  10  11
ENDBRANCH   7  10
ENDBRANCH   1   4
BRANCH   1  18
HETATM   18  C12 UNL     1       2.421  -1.579   0.197  1.00  0.00     0.030 A 
HETATM   19  C13 UNL     1       2.405  -3.005   0.666  1.00  0.00     0.194 A 
HETATM   20  N4  UNL     1       3.687  -3.612   0.597  1.00  0.00    -0.278 NA
HETATM   21  C14 UNL     1       4.780  -3.171   0.135  1.00  0.00     0.229 A 
HETATM   22  N5  UNL     1       4.770  -1.862  -0.397  1.00  0.00    -0.224 NA
HETATM   23  C15 UNL     1       3.677  -1.151  -0.372  1.00  0.00     0.139 A 
BRANCH  23  24
HETATM   24  N6  UNL     1       3.827   0.094  -1.088  1.00  0.00    -0.340 N 
HETATM   25  H25 UNL     1       3.019   0.191  -1.803  1.00  0.00     0.167 HD
BRANCH  24  26
HETATM   26  C16 UNL     1       4.954   0.961  -0.795  1.00  0.00     0.035 A 
HETATM   27  C17 UNL     1       5.120   2.033   0.033  1.00  0.00     0.032 A 
HETATM   28  C18 UNL     1       6.335   2.642   0.094  1.00  0.00     0.046 A 
HETATM   29  C19 UNL     1       7.403   2.203  -0.658  1.00  0.00     0.138 A 
HETATM   30  F1  UNL     1       8.591   2.845  -0.557  1.00  0.00    -0.204 F 
HETATM   31  C20 UNL     1       7.270   1.125  -1.504  1.00  0.00     0.074 A 
HETATM   32 CL1  UNL     1       8.673   0.627  -2.423  1.00  0.00    -0.081 Cl
HETATM   33  C21 UNL     1       6.024   0.495  -1.572  1.00  0.00     0.056 A 
ENDBRANCH  24  26
ENDBRANCH  23  24
ENDBRANCH   1  18
TORSDOF 8
