REMARK  7 active torsions:
REMARK  status: ('A' for Active; 'I' for Inactive)
REMARK    1  A    between atoms: C1_2  and  B1_3 
REMARK       I    between atoms: C1_2  and  N4_23 
REMARK    2  A    between atoms: B1_3  and  C2_4 
REMARK    3  A    between atoms: C7_11  and  N3_12 
REMARK    4  A    between atoms: N3_12  and  C8_13 
REMARK    5  A    between atoms: N4_23  and  C16_24 
REMARK    6  A    between atoms: C16_24  and  C17_25 
REMARK    7  A    between atoms: C17_25  and  N5_26 
ROOT
HETATM    1  C2  UNL     1      -0.834  -0.544   0.636  1.00  0.00    -0.089 A 
HETATM    2  C3  UNL     1      -0.290   0.008   1.777  1.00  0.00    -0.002 A 
HETATM    3  C4  UNL     1      -1.135   0.633   2.661  1.00  0.00     0.032 A 
HETATM    4  C5  UNL     1      -2.484   0.702   2.408  1.00  0.00     0.072 A 
HETATM    5  N1  UNL     1      -3.218   1.336   3.338  1.00  0.00    -0.241 NA
HETATM    6  C6  UNL     1      -4.546   1.445   3.163  1.00  0.00     0.236 A 
HETATM    7  N2  UNL     1      -5.060   0.915   2.069  1.00  0.00    -0.224 NA
HETATM    8  C7  UNL     1      -4.431   0.271   1.091  1.00  0.00     0.142 A 
HETATM    9  C14 UNL     1      -3.080   0.178   1.301  1.00  0.00     0.038 A 
HETATM   10  C15 UNL     1      -2.196  -0.438   0.444  1.00  0.00     0.013 A 
ENDROOT
BRANCH   1  11
HETATM   11  B1  UNL     1       0.096  -1.260  -0.388  1.00  0.00     0.304 B 
HETATM   12  H1  UNL     1      -0.374  -2.214  -0.917  1.00  0.00    -0.010 HD
BRANCH  11  13
HETATM   13  C1  UNL     1       1.298  -0.550  -1.087  1.00  0.00     0.163 C 
HETATM   14  O1  UNL     1       1.204   0.654  -1.390  1.00  0.00    -0.289 OA
HETATM   15  N4  UNL     1       2.452  -1.324  -1.345  1.00  0.00    -0.370 N 
HETATM   16  H10 UNL     1       2.482  -2.333  -1.071  1.00  0.00     0.161 HD
BRANCH  15  17
HETATM   17  C16 UNL     1       3.565  -0.711  -1.981  1.00  0.00     0.151 C 
BRANCH  17  18
HETATM   18  C17 UNL     1       4.189   0.450  -1.277  1.00  0.00     0.292 C 
BRANCH  18  19
HETATM   19  N5  UNL     1       4.707   0.169   0.036  1.00  0.00     0.090 N 
HETATM   20  C18 UNL     1       5.275   1.348   0.602  1.00  0.00     0.272 C 
HETATM   21  C19 UNL     1       6.704   1.575   0.182  1.00  0.00     0.030 C 
HETATM   22  C20 UNL     1       7.495   0.388   0.712  1.00  0.00     0.003 C 
HETATM   23  C21 UNL     1       6.971  -0.818  -0.030  1.00  0.00     0.030 C 
HETATM   24  C22 UNL     1       5.488  -0.998   0.144  1.00  0.00     0.272 C 
ENDBRANCH  18  19
ENDBRANCH  17  18
ENDBRANCH  15  17
ENDBRANCH  11  13
ENDBRANCH   1  11
BRANCH   8  25
HETATM   25  N3  UNL     1      -4.996  -0.292  -0.076  1.00  0.00    -0.340 N 
HETATM   26  H5  UNL     1      -4.420  -0.779  -0.787  1.00  0.00     0.167 HD
BRANCH  25  27
HETATM   27  C8  UNL     1      -6.350  -0.313  -0.492  1.00  0.00     0.035 A 
HETATM   28  C9  UNL     1      -6.829  -0.887  -1.649  1.00  0.00     0.032 A 
HETATM   29  C10 UNL     1      -8.147  -0.892  -2.028  1.00  0.00     0.046 A 
HETATM   30  C11 UNL     1      -9.094  -0.303  -1.241  1.00  0.00     0.138 A 
HETATM   31  F1  UNL     1     -10.364  -0.357  -1.692  1.00  0.00    -0.204 F 
HETATM   32  C12 UNL     1      -8.665   0.284  -0.072  1.00  0.00     0.074 A 
HETATM   33 CL1  UNL     1      -9.923   1.028   0.905  1.00  0.00    -0.081 Cl
HETATM   34  C13 UNL     1      -7.341   0.267   0.268  1.00  0.00     0.056 A 
ENDBRANCH  25  27
ENDBRANCH   8  25
TORSDOF 7
