REMARK  9 active torsions:
REMARK  status: ('A' for Active; 'I' for Inactive)
REMARK    1  A    between atoms: C2_2  and  C3_3 
REMARK    2  A    between atoms: C3_3  and  C4_4 
REMARK    3  A    between atoms: C4_4  and  B1_5 
REMARK    4  A    between atoms: B1_5  and  N1_6 
REMARK    5  A    between atoms: N1_6  and  C5_7 
REMARK    6  A    between atoms: C5_7  and  C6_8 
REMARK    7  A    between atoms: C6_8  and  N2_9 
REMARK       I    between atoms: N2_9  and  C7_10 
REMARK       I    between atoms: C7_10  and  N3_12 
REMARK    8  A    between atoms: N3_12  and  C8_13 
REMARK    9  A    between atoms: C13_20  and  C14_21 
ROOT
HETATM    1  C8  UNL     1      -2.042   1.724  -0.932  1.00  0.00     0.037 A 
HETATM    2  C9  UNL     1      -1.868   3.107  -0.956  1.00  0.00     0.032 A 
HETATM    3  C10 UNL     1      -2.864   3.892  -0.418  1.00  0.00     0.035 A 
HETATM    4  C11 UNL     1      -3.992   3.322   0.124  1.00  0.00     0.070 A 
HETATM    5  N4  UNL     1      -4.921   4.142   0.625  1.00  0.00    -0.241 NA
HETATM    6  C12 UNL     1      -6.032   3.619   1.157  1.00  0.00     0.234 A 
HETATM    7  N5  UNL     1      -6.196   2.295   1.179  1.00  0.00    -0.241 NA
HETATM    8  C13 UNL     1      -5.337   1.382   0.709  1.00  0.00     0.077 A 
HETATM    9  C20 UNL     1      -4.209   1.951   0.170  1.00  0.00     0.024 A 
HETATM   10  C21 UNL     1      -3.193   1.232  -0.376  1.00  0.00     0.045 A 
ENDROOT
BRANCH   1  11
HETATM   11  N3  UNL     1      -1.007   0.927  -1.491  1.00  0.00    -0.309 N 
HETATM   12  C7  UNL     1       0.144   0.376  -0.866  1.00  0.00     0.320 C 
HETATM   13  N2  UNL     1       1.034  -0.389  -1.649  1.00  0.00    -0.341 N 
HETATM   14  O1  UNL     1       0.266   0.629   0.358  1.00  0.00    -0.247 OA
HETATM   15  H14 UNL     1       0.819  -0.529  -2.669  1.00  0.00     0.164 HD
HETATM   16  H15 UNL     1      -1.247   0.805  -2.506  1.00  0.00     0.170 HD
BRANCH  13  17
HETATM   17  C6  UNL     1       2.213  -0.959  -1.029  1.00  0.00     0.144 C 
BRANCH  17  18
HETATM   18  C5  UNL     1       3.124   0.097  -0.437  1.00  0.00     0.139 C 
BRANCH  18  19
HETATM   19  N1  UNL     1       4.263  -0.592   0.151  1.00  0.00    -0.398 NA
BRANCH  19  20
HETATM   20  B1  UNL     1       5.857   0.006  -0.157  1.00  0.00     0.297 B 
BRANCH  20  21
HETATM   21  C4  UNL     1       7.392   0.676  -0.522  1.00  0.00    -0.029 C 
BRANCH  21  22
HETATM   22  C3  UNL     1       8.446  -0.385  -0.657  1.00  0.00    -0.009 C 
BRANCH  22  23
HETATM   23  C2  UNL     1       8.671  -1.212   0.560  1.00  0.00    -0.005 C 
HETATM   24  C1  UNL     1       7.456  -1.962   0.991  1.00  0.00     0.005 C 
ENDBRANCH  22  23
ENDBRANCH  21  22
ENDBRANCH  20  21
ENDBRANCH  19  20
ENDBRANCH  18  19
ENDBRANCH  17  18
ENDBRANCH  13  17
ENDBRANCH   1  11
BRANCH   8  25
HETATM   25  C14 UNL     1      -5.537  -0.055   0.740  1.00  0.00    -0.025 A 
HETATM   26  C15 UNL     1      -6.705  -0.386   1.266  1.00  0.00     0.010 A 
HETATM   27  C16 UNL     1      -6.973  -1.807   1.328  1.00  0.00     0.003 A 
HETATM   28  C17 UNL     1      -5.920  -2.403   0.816  1.00  0.00    -0.080 A 
HETATM   29  C18 UNL     1      -5.555  -3.848   0.584  1.00  0.00     0.043 C 
HETATM   30  C19 UNL     1      -4.940  -1.332   0.419  1.00  0.00     0.074 A 
ENDBRANCH   8  25
TORSDOF 9
