REMARK  6 active torsions:
REMARK  status: ('A' for Active; 'I' for Inactive)
REMARK    1  A    between atoms: C2_2  and  C3_3 
REMARK    2  A    between atoms: C4_4  and  C5_5 
REMARK    3  A    between atoms: C4_4  and  N2_15 
REMARK       I    between atoms: N2_15  and  C13_16 
REMARK       I    between atoms: C13_16  and  N3_18 
REMARK    4  A    between atoms: N3_18  and  C14_19 
REMARK    5  A    between atoms: C14_19  and  C15_20 
REMARK    6  A    between atoms: C15_20  and  N4_21 
ROOT
HETATM    1  C3  UNL     1      -0.444   1.523  -0.630  1.00  0.00     0.025 C 
HETATM    2  C4  UNL     1      -1.203   0.555  -0.104  1.00  0.00     0.038 C 
ENDROOT
BRANCH   2   3
HETATM    3  C5  UNL     1      -2.605   0.548  -0.427  1.00  0.00     0.058 C 
HETATM    4  C6  UNL     1      -3.757  -0.062  -0.286  1.00  0.00     0.049 C 
HETATM    5  N1  UNL     1      -3.796  -1.265   0.508  1.00  0.00    -0.367 N 
HETATM    6  C12 UNL     1      -5.030   0.431  -0.885  1.00  0.00     0.248 C 
HETATM    7  C7  UNL     1      -4.629  -1.719   1.560  1.00  0.00     0.088 C 
HETATM    8  H6  UNL     1      -3.044  -1.981   0.266  1.00  0.00     0.165 HD
HETATM    9  C8  UNL     1      -5.832  -1.209   1.816  1.00  0.00     0.017 C 
HETATM   10  C9  UNL     1      -6.571  -0.147   1.164  1.00  0.00     0.007 C 
HETATM   11  C10 UNL     1      -6.157   0.469   0.053  1.00  0.00    -0.044 C 
HETATM   12  C11 UNL     1      -7.164   1.515  -0.349  1.00  0.00     0.046 C 
HETATM   13  F1  UNL     1      -4.749   1.766  -1.236  1.00  0.00    -0.238 F 
ENDBRANCH   2   3
BRANCH   2  14
HETATM   14  N2  UNL     1      -0.609  -0.411   0.742  1.00  0.00    -0.309 N 
HETATM   15  C13 UNL     1       0.756  -0.449   1.044  1.00  0.00     0.320 C 
HETATM   16  O1  UNL     1       1.456   0.441   0.518  1.00  0.00    -0.247 OA
HETATM   17  N3  UNL     1       1.414  -1.378   1.871  1.00  0.00    -0.341 N 
HETATM   18  H15 UNL     1       0.708  -2.081   2.260  1.00  0.00     0.164 HD
HETATM   19  H14 UNL     1      -1.149  -1.158   1.210  1.00  0.00     0.170 HD
BRANCH  17  20
HETATM   20  C14 UNL     1       2.784  -1.555   2.270  1.00  0.00     0.143 C 
BRANCH  20  21
HETATM   21  C15 UNL     1       3.751  -1.797   1.166  1.00  0.00     0.136 C 
BRANCH  21  22
HETATM   22  N4  UNL     1       3.948  -0.809   0.198  1.00  0.00    -0.411 N 
HETATM   23  C16 UNL     1       4.611   0.393   0.546  1.00  0.00     0.117 C 
HETATM   24  C17 UNL     1       6.115   0.094   0.463  1.00  0.00     0.019 C 
HETATM   25  C18 UNL     1       6.479  -0.607  -0.806  1.00  0.00     0.003 C 
HETATM   26  C19 UNL     1       5.284  -0.500  -1.754  1.00  0.00     0.019 C 
HETATM   27  C20 UNL     1       4.046  -1.169  -1.165  1.00  0.00     0.117 C 
ENDBRANCH  21  22
ENDBRANCH  20  21
ENDBRANCH  17  20
ENDBRANCH   2  14
BRANCH   1  28
HETATM   28  C2  UNL     1      -1.276   2.416  -1.474  1.00  0.00    -0.007 C 
HETATM   29  C1  UNL     1      -0.990   3.512  -2.200  1.00  0.00     0.013 C 
ENDBRANCH   1  28
TORSDOF 6
