REMARK  1 active torsions:
REMARK  status: ('A' for Active; 'I' for Inactive)
REMARK    1  A    between atoms: N1_9  and  C7_10 
ROOT
HETATM    1  C7  UNL     1       0.888   0.868   0.433  1.00  0.00     0.118 C 
HETATM    2  N2  UNL     1       0.103   1.885   0.477  1.00  0.00    -0.230 N 
HETATM    3  C8  UNL     1       0.321   3.110  -0.155  1.00  0.00     0.234 A 
HETATM    4  N3  UNL     1      -0.627   2.701   0.585  1.00  0.00    -0.252 N 
HETATM    5  C9  UNL     1      -1.737   3.429   0.961  1.00  0.00     0.120 C 
HETATM    6  C10 UNL     1      -2.417   2.297   0.883  1.00  0.00     0.050 C 
HETATM    7  C11 UNL     1      -2.282   0.883   0.576  1.00  0.00     0.052 C 
HETATM    8  C12 UNL     1      -1.363  -0.095   0.708  1.00  0.00     0.045 C 
HETATM    9  C13 UNL     1       0.005   0.007   1.304  1.00  0.00     0.107 C 
HETATM   10  C14 UNL     1       0.541  -1.433   1.286  1.00  0.00     0.020 C 
HETATM   11  C15 UNL     1      -0.507  -2.273   1.991  1.00  0.00     0.021 C 
HETATM   12  C16 UNL     1      -1.590  -2.616   0.979  1.00  0.00     0.123 C 
HETATM   13  N4  UNL     1      -1.788  -1.365   0.215  1.00  0.00    -0.380 N 
HETATM   14  C17 UNL     1      -2.467  -1.603  -1.068  1.00  0.00     0.142 C 
HETATM   15  C18 UNL     1      -3.633  -0.624  -1.138  1.00  0.00     0.139 C 
HETATM   16  N5  UNL     1      -3.482   0.379  -0.074  1.00  0.00    -0.387 N 
HETATM   17  H21 UNL     1      -4.445   0.745   0.207  1.00  0.00     0.159 HD
ENDROOT
BRANCH   1  18
HETATM   18  N1  UNL     1       2.131   0.536  -0.164  1.00  0.00    -0.333 N 
HETATM   19  C2  UNL     1       2.244  -0.028  -1.468  1.00  0.00     0.034 A 
HETATM   20  C1  UNL     1       1.016  -0.291  -2.262  1.00  0.00     0.070 C 
HETATM   21  C3  UNL     1       3.466  -0.278  -1.876  1.00  0.00     0.094 A 
HETATM   22 CL1  UNL     1       3.746  -0.975  -3.468  1.00  0.00    -0.079 Cl
HETATM   23  C4  UNL     1       4.646  -0.002  -1.060  1.00  0.00     0.137 A 
HETATM   24  F1  UNL     1       5.901  -0.259  -1.480  1.00  0.00    -0.204 F 
HETATM   25  C5  UNL     1       4.535   0.529   0.165  1.00  0.00     0.037 A 
HETATM   26  C6  UNL     1       3.227   0.856   0.742  1.00  0.00     0.160 A 
ENDBRANCH   1  18
TORSDOF 1
