REMARK  8 active torsions:
REMARK  status: ('A' for Active; 'I' for Inactive)
REMARK    1  A    between atoms: O1_1  and  C1_2 
REMARK    2  A    between atoms: C6_7  and  N1_8 
REMARK    3  A    between atoms: N1_8  and  C7_9 
REMARK    4  A    between atoms: C15_21  and  O2_22 
REMARK    5  A    between atoms: O2_22  and  C16_23 
REMARK    6  A    between atoms: C16_23  and  C17_24 
REMARK    7  A    between atoms: C17_24  and  C18_25 
REMARK    8  A    between atoms: C18_25  and  N4_26 
ROOT
HETATM    1  C1  UNL     1      -0.013   0.084  -2.086  1.00  0.00     0.071 C 
HETATM    2  C2  UNL     1      -1.025  -0.611  -1.611  1.00  0.00     0.040 C 
HETATM    3  C3  UNL     1      -1.152  -1.194  -0.189  1.00  0.00     0.072 C 
HETATM    4  C4  UNL     1      -1.790   0.104   0.444  1.00  0.00     0.042 C 
HETATM    5  C5  UNL     1      -3.066  -0.271   0.866  1.00  0.00     0.033 C 
HETATM    6  C6  UNL     1      -4.038  -0.767   0.020  1.00  0.00     0.126 C 
HETATM    7  N2  UNL     1      -4.187  -1.121  -1.398  1.00  0.00    -0.227 NA
HETATM    8  C13 UNL     1      -3.468  -0.774  -2.458  1.00  0.00     0.209 C 
HETATM    9  N3  UNL     1      -2.029  -0.640  -2.631  1.00  0.00    -0.352 N 
HETATM   10  C14 UNL     1      -0.701   0.770   1.008  1.00  0.00     0.015 C 
HETATM   11  C15 UNL     1       0.427   0.979   0.224  1.00  0.00     0.049 C 
HETATM   12  C23 UNL     1       0.950   0.731  -1.164  1.00  0.00     0.130 C 
HETATM   13  H11 UNL     1      -1.490  -0.526  -3.509  1.00  0.00     0.166 HD
ENDROOT
BRANCH   6  14
HETATM   14  N1  UNL     1      -5.223  -0.979   0.800  1.00  0.00    -0.341 N 
HETATM   15  H6  UNL     1      -5.079  -1.439   1.709  1.00  0.00     0.167 HD
BRANCH  14  16
HETATM   16  C7  UNL     1      -6.521  -0.567   0.319  1.00  0.00     0.035 A 
HETATM   17  C8  UNL     1      -7.120  -1.591  -0.419  1.00  0.00     0.032 A 
HETATM   18  C9  UNL     1      -8.385  -1.329  -0.948  1.00  0.00     0.046 A 
HETATM   19  C10 UNL     1      -9.029  -0.123  -0.761  1.00  0.00     0.138 A 
HETATM   20  F1  UNL     1     -10.243   0.105  -1.278  1.00  0.00    -0.204 F 
HETATM   21  C11 UNL     1      -8.387   0.848  -0.023  1.00  0.00     0.074 A 
HETATM   22 CL1  UNL     1      -9.112   2.420   0.279  1.00  0.00    -0.081 Cl
HETATM   23  C12 UNL     1      -7.141   0.647   0.522  1.00  0.00     0.056 A 
ENDBRANCH  14  16
ENDBRANCH   6  14
BRANCH  11  24
HETATM   24  O2  UNL     1       1.412   1.645   0.980  1.00  0.00    -0.355 OA
BRANCH  24  25
HETATM   25  C16 UNL     1       2.773   1.219   0.820  1.00  0.00     0.176 C 
BRANCH  25  26
HETATM   26  C17 UNL     1       3.676   1.879   1.785  1.00  0.00     0.046 C 
BRANCH  26  27
HETATM   27  C18 UNL     1       5.101   1.520   1.644  1.00  0.00     0.119 C 
BRANCH  27  28
HETATM   28  N4  UNL     1       5.462   0.168   1.797  1.00  0.00    -0.408 N 
HETATM   29  C19 UNL     1       5.110  -0.735   0.768  1.00  0.00     0.143 C 
HETATM   30  C20 UNL     1       6.418  -1.403   0.307  1.00  0.00     0.187 C 
HETATM   31  O3  UNL     1       7.300  -0.363  -0.003  1.00  0.00    -0.388 OA
HETATM   32  C21 UNL     1       7.822   0.188   1.177  1.00  0.00     0.187 C 
HETATM   33  C22 UNL     1       6.809   0.041   2.312  1.00  0.00     0.143 C 
ENDBRANCH  27  28
ENDBRANCH  26  27
ENDBRANCH  25  26
ENDBRANCH  24  25
ENDBRANCH  11  24
BRANCH   1  34
HETATM   34  O1  UNL     1      -0.182  -0.014  -3.451  1.00  0.00    -0.363 OA
HETATM   35  H1  UNL     1       0.464  -0.462  -4.081  1.00  0.00     0.217 HD
ENDBRANCH   1  34
TORSDOF 8
