REMARK  7 active torsions:
REMARK  status: ('A' for Active; 'I' for Inactive)
REMARK    1  A    between atoms: C6_8  and  N3_9 
REMARK    2  A    between atoms: N3_9  and  C7_10 
REMARK    3  A    between atoms: C15_20  and  O1_21 
REMARK    4  A    between atoms: O1_21  and  C16_22 
REMARK    5  A    between atoms: C16_22  and  C17_23 
REMARK    6  A    between atoms: C17_23  and  C18_24 
REMARK    7  A    between atoms: C22_29  and  O3_30 
ROOT
HETATM    1  C1  UNL     1      -1.972   3.089  -0.250  1.00  0.00     0.051 C 
HETATM    2  C2  UNL     1      -0.577   2.573  -0.228  1.00  0.00    -0.026 A 
HETATM    3  C3  UNL     1       0.517   3.405  -0.102  1.00  0.00     0.042 A 
HETATM    4  C4  UNL     1       1.788   2.872  -0.087  1.00  0.00     0.072 A 
HETATM    5  N1  UNL     1       2.809   3.739   0.037  1.00  0.00    -0.241 NA
HETATM    6  C5  UNL     1       4.076   3.287   0.058  1.00  0.00     0.236 A 
HETATM    7  N2  UNL     1       4.307   1.974  -0.044  1.00  0.00    -0.224 NA
HETATM    8  C6  UNL     1       3.348   1.051  -0.171  1.00  0.00     0.142 A 
HETATM    9  C13 UNL     1       2.059   1.526  -0.191  1.00  0.00     0.041 A 
HETATM   10  C14 UNL     1       0.929   0.752  -0.313  1.00  0.00     0.055 A 
HETATM   11  C15 UNL     1      -0.370   1.212  -0.336  1.00  0.00     0.075 A 
ENDROOT
BRANCH  11  12
HETATM   12  O1  UNL     1      -1.455   0.386  -0.460  1.00  0.00    -0.351 OA
BRANCH  12  13
HETATM   13  C16 UNL     1      -1.434  -1.012  -0.581  1.00  0.00     0.176 C 
BRANCH  13  14
HETATM   14  C17 UNL     1      -2.799  -1.623  -0.701  1.00  0.00     0.034 C 
BRANCH  14  15
HETATM   15  C18 UNL     1      -3.668  -1.328   0.497  1.00  0.00     0.020 C 
HETATM   16  C19 UNL     1      -3.841   0.165   0.646  1.00  0.00     0.033 C 
HETATM   17  C20 UNL     1      -5.114   0.506   1.392  1.00  0.00     0.168 C 
HETATM   18  O2  UNL     1      -6.260   0.070   0.763  1.00  0.00    -0.389 OA
HETATM   19  C21 UNL     1      -5.935  -0.807  -0.251  1.00  0.00     0.199 C 
HETATM   20  C22 UNL     1      -5.055  -1.902   0.306  1.00  0.00     0.146 C 
BRANCH  20  21
HETATM   21  O3  UNL     1      -5.056  -3.035  -0.488  1.00  0.00    -0.393 OA
HETATM   22  H23 UNL     1      -5.919  -3.498  -0.355  1.00  0.00     0.210 HD
ENDBRANCH  20  21
ENDBRANCH  14  15
ENDBRANCH  13  14
ENDBRANCH  12  13
ENDBRANCH  11  12
BRANCH   8  23
HETATM   23  N3  UNL     1       3.568  -0.343  -0.282  1.00  0.00    -0.340 N 
HETATM   24  H6  UNL     1       2.779  -1.010  -0.361  1.00  0.00     0.167 HD
BRANCH  23  25
HETATM   25  C7  UNL     1       4.771  -1.055  -0.308  1.00  0.00     0.035 A 
HETATM   26  C8  UNL     1       4.885  -2.449  -0.318  1.00  0.00     0.032 A 
HETATM   27  C9  UNL     1       6.077  -3.131  -0.348  1.00  0.00     0.046 A 
HETATM   28  C10 UNL     1       7.268  -2.442  -0.369  1.00  0.00     0.138 A 
HETATM   29  F1  UNL     1       8.381  -3.209  -0.397  1.00  0.00    -0.204 F 
HETATM   30  C11 UNL     1       7.216  -1.069  -0.360  1.00  0.00     0.074 A 
HETATM   31 CL1  UNL     1       8.758  -0.259  -0.388  1.00  0.00    -0.081 Cl
HETATM   32  C12 UNL     1       5.991  -0.437  -0.330  1.00  0.00     0.056 A 
ENDBRANCH  23  25
ENDBRANCH   8  23
TORSDOF 7
