REMARK  7 active torsions:
REMARK  status: ('A' for Active; 'I' for Inactive)
REMARK    1  A    between atoms: N1_1  and  C1_2 
REMARK    2  A    between atoms: N2_4  and  C3_5 
REMARK    3  A    between atoms: C8_11  and  O1_12 
REMARK    4  A    between atoms: O1_12  and  O2_13 
REMARK    5  A    between atoms: C9_14  and  C10_15 
REMARK    6  A    between atoms: C10_15  and  C11_16 
REMARK    7  A    between atoms: C11_16  and  N4_17 
ROOT
HETATM    1  C3  UNL     1      -2.534  -1.335  -0.889  1.00  0.00     0.034 C 
HETATM    2  C4  UNL     1      -1.227  -1.258  -0.681  1.00  0.00    -0.046 C 
HETATM    3  C5  UNL     1      -0.588  -2.211  -1.711  1.00  0.00     0.075 C 
HETATM    4  C6  UNL     1      -0.761  -3.188  -0.549  1.00  0.00     0.111 C 
HETATM    5  N3  UNL     1      -1.887  -3.594  -1.075  1.00  0.00    -0.307 NA
HETATM    6  C7  UNL     1      -2.996  -2.690  -1.402  1.00  0.00     0.201 C 
HETATM    7  C8  UNL     1       0.578  -2.563  -0.089  1.00  0.00     0.201 C 
HETATM    8  C9  UNL     1       0.200  -1.029  -0.257  1.00  0.00     0.053 C 
ENDROOT
BRANCH   1   9
HETATM    9  N2  UNL     1      -2.940  -0.003  -0.462  1.00  0.00    -0.353 N 
HETATM   10  C2  UNL     1      -3.005   0.269   0.940  1.00  0.00     0.122 A 
HETATM   11  C1  UNL     1      -3.399   1.457   1.347  1.00  0.00     0.063 A 
HETATM   12  C18 UNL     1      -3.767   2.525   0.406  1.00  0.00     0.059 A 
HETATM   13  C17 UNL     1      -3.691   2.260  -0.881  1.00  0.00     0.019 A 
HETATM   14 CL1  UNL     1      -4.287   4.093   0.990  1.00  0.00    -0.082 Cl
HETATM   15  C16 UNL     1      -3.273   0.997  -1.492  1.00  0.00     0.157 A 
BRANCH  11  16
HETATM   16  N1  UNL     1      -3.463   1.722   2.743  1.00  0.00    -0.397 N 
HETATM   17  H1  UNL     1      -2.923   1.273   3.492  1.00  0.00     0.156 HD
HETATM   18  H2  UNL     1      -4.072   2.417   3.228  1.00  0.00     0.156 HD
ENDBRANCH  11  16
ENDBRANCH   1   9
BRANCH   8  19
HETATM   19  C10 UNL     1       0.348  -0.295   1.016  1.00  0.00     0.031 C 
BRANCH  19  20
HETATM   20  C11 UNL     1       1.776  -0.087   1.401  1.00  0.00     0.117 C 
BRANCH  20  21
HETATM   21  N4  UNL     1       2.549   0.650   0.474  1.00  0.00    -0.408 N 
HETATM   22  C12 UNL     1       2.261   2.021   0.294  1.00  0.00     0.143 C 
HETATM   23  C13 UNL     1       3.510   2.855   0.447  1.00  0.00     0.187 C 
HETATM   24  O3  UNL     1       4.548   2.465  -0.368  1.00  0.00    -0.388 OA
HETATM   25  C14 UNL     1       4.651   1.115  -0.582  1.00  0.00     0.187 C 
HETATM   26  C15 UNL     1       3.923   0.266   0.410  1.00  0.00     0.143 C 
ENDBRANCH  20  21
ENDBRANCH  19  20
ENDBRANCH   8  19
BRANCH   7  27
HETATM   27  O1  UNL     1       1.509  -2.989  -0.949  1.00  0.00    -0.234 OA
BRANCH  27  28
HETATM   28  O2  UNL     1       2.536  -3.637  -0.497  1.00  0.00    -0.250 OA
HETATM   29  H9  UNL     1       3.364  -3.513  -0.986  1.00  0.00     0.253 HD
ENDBRANCH  27  28
ENDBRANCH   7  27
TORSDOF 7
