REMARK  3 active torsions:
REMARK  status: ('A' for Active; 'I' for Inactive)
REMARK    1  A    between atoms: N1_1  and  C1_2 
REMARK    2  A    between atoms: C1_2  and  O1_3 
REMARK    3  A    between atoms: N2_8  and  C6_9 
ROOT
HETATM    1  C6  UNL     1      -0.406   0.661  -0.077  1.00  0.00     0.374 C 
HETATM    2  C7  UNL     1       0.433  -0.433   0.245  1.00  0.00     0.091 C 
HETATM    3  C8  UNL     1       1.192  -1.486   0.095  1.00  0.00    -0.048 A 
HETATM    4  C9  UNL     1       1.738  -2.061   1.308  1.00  0.00     0.009 A 
HETATM    5  C10 UNL     1       2.569  -3.051   1.079  1.00  0.00     0.021 A 
HETATM    6  C11 UNL     1       2.618  -3.187  -0.369  1.00  0.00     0.022 A 
HETATM    7  C12 UNL     1       1.828  -2.302  -0.900  1.00  0.00     0.027 A 
HETATM    8  S1  UNL     1       3.247  -3.906  -1.888  1.00  0.00    -0.015 SA
HETATM    9  N3  UNL     1       3.472  -2.617  -3.133  1.00  0.00    -0.337 N 
HETATM   10  C13 UNL     1       3.679  -1.198  -3.100  1.00  0.00     0.092 C 
HETATM   11  C14 UNL     1       3.331   0.037  -2.755  1.00  0.00    -0.001 C 
HETATM   12  C15 UNL     1       2.605   1.182  -2.193  1.00  0.00     0.051 C 
HETATM   13  C16 UNL     1       1.490   1.492  -1.484  1.00  0.00     0.162 C 
HETATM   14  O2  UNL     1       0.336   1.694  -0.762  1.00  0.00    -0.348 OA
HETATM   15  H17 UNL     1       3.417  -3.067  -4.068  1.00  0.00     0.173 HD
ENDROOT
BRANCH   1  16
HETATM   16  N2  UNL     1      -0.932   1.379   1.084  1.00  0.00     0.184 N 
HETATM   17  C1  UNL     1      -1.701   0.553   1.960  1.00  0.00     0.456 C 
HETATM   18  C2  UNL     1      -2.986   1.279   2.308  1.00  0.00     0.107 C 
HETATM   19  C3  UNL     1      -3.894   1.472   1.115  1.00  0.00     0.009 C 
HETATM   20  C4  UNL     1      -3.061   2.104   0.042  1.00  0.00     0.031 C 
HETATM   21  C5  UNL     1      -1.689   2.473   0.532  1.00  0.00     0.282 C 
BRANCH  17  22
HETATM   22  N1  UNL     1      -2.103  -0.698   1.332  1.00  0.00     0.145 N 
HETATM   23  H1  UNL     1      -2.477  -1.388   1.981  1.00  0.00     0.319 HD
HETATM   24  H2  UNL     1      -2.626  -0.543   0.467  1.00  0.00     0.319 HD
ENDBRANCH  17  22
BRANCH  17  25
HETATM   25  O1  UNL     1      -1.105   0.329   3.200  1.00  0.00    -0.340 OA
HETATM   26  H3  UNL     1      -1.758  -0.274   3.684  1.00  0.00     0.214 HD
ENDBRANCH  17  25
ENDBRANCH   1  16
TORSDOF 3
