REMARK  2 active torsions:
REMARK  status: ('A' for Active; 'I' for Inactive)
REMARK    1  A    between atoms: C6_6  and  N1_7 
REMARK    2  A    between atoms: N1_7  and  C7_8 
ROOT
HETATM    1  C7  UNL     1      -0.393   0.038  -0.051  1.00  0.00     0.427 C 
HETATM    2  N2  UNL     1      -0.390  -1.379   0.011  1.00  0.00     0.136 N 
HETATM    3  C8  UNL     1      -0.876  -1.921   1.277  1.00  0.00     0.302 C 
HETATM    4  C9  UNL     1      -2.231  -1.484   1.593  1.00  0.00     0.016 C 
HETATM    5  C10 UNL     1      -2.422  -0.360   1.000  1.00  0.00     0.015 C 
HETATM    6  C11 UNL     1      -3.671   0.253   0.426  1.00  0.00     0.137 C 
HETATM    7  N3  UNL     1      -3.964   1.296   1.119  1.00  0.00    -0.224 NA
HETATM    8  C12 UNL     1      -2.864   1.973   1.842  1.00  0.00     0.230 C 
HETATM    9  N4  UNL     1      -1.587   1.525   1.783  1.00  0.00    -0.268 NA
HETATM   10  C13 UNL     1      -1.399   0.729   0.678  1.00  0.00     0.223 C 
HETATM   11  N5  UNL     1      -4.699   0.190  -0.583  1.00  0.00    -0.350 N 
HETATM   12  C14 UNL     1      -4.409   0.573  -1.917  1.00  0.00     0.090 C 
HETATM   13  C15 UNL     1      -3.254   0.760  -2.611  1.00  0.00     0.020 C 
HETATM   14  C16 UNL     1      -1.806   0.662  -2.314  1.00  0.00     0.044 C 
HETATM   15  C17 UNL     1      -0.734   0.434  -1.523  1.00  0.00     0.166 C 
HETATM   16  F1  UNL     1       0.434   0.602  -2.197  1.00  0.00    -0.206 F 
HETATM   17  H13 UNL     1      -1.006  -1.765  -0.763  1.00  0.00     0.320 HD
HETATM   18  H19 UNL     1      -5.625  -0.149  -0.262  1.00  0.00     0.166 HD
ENDROOT
BRANCH   1  19
HETATM   19  N1  UNL     1       0.892   0.590   0.261  1.00  0.00     0.138 N 
HETATM   20  H12 UNL     1       0.862   1.609   0.132  1.00  0.00     0.320 HD
BRANCH  19  21
HETATM   21  C6  UNL     1       2.000  -0.089  -0.238  1.00  0.00     0.228 C 
HETATM   22  C2  UNL     1       3.295   0.745  -0.093  1.00  0.00     0.015 C 
HETATM   23  C1  UNL     1       3.652   0.974   1.352  1.00  0.00     0.012 C 
HETATM   24  C3  UNL     1       4.284  -0.260  -0.649  1.00  0.00     0.006 C 
HETATM   25  C4  UNL     1       3.799  -1.594  -0.117  1.00  0.00     0.002 C 
HETATM   26  C5  UNL     1       2.477  -1.285   0.621  1.00  0.00     0.036 C 
ENDBRANCH  19  21
ENDBRANCH   1  19
TORSDOF 2
