REMARK  5 active torsions:
REMARK  status: ('A' for Active; 'I' for Inactive)
REMARK    1  A    between atoms: C2_2  and  C3_4 
REMARK    2  A    between atoms: C4_5  and  C5_6 
REMARK    3  A    between atoms: C6_7  and  N1_8 
REMARK    4  A    between atoms: N1_8  and  C7_9 
REMARK    5  A    between atoms: C15_20  and  O1_21 
ROOT
HETATM    1  C7  UNL     1       1.089  -1.610   0.881  1.00  0.00     0.159 A 
HETATM    2  N2  UNL     1       1.571  -1.535   2.158  1.00  0.00    -0.222 NA
HETATM    3  C8  UNL     1       0.951  -0.715   3.043  1.00  0.00     0.238 A 
HETATM    4  N3  UNL     1      -0.139   0.045   2.723  1.00  0.00    -0.215 NA
HETATM    5  C9  UNL     1      -0.641  -0.004   1.470  1.00  0.00     0.202 A 
HETATM    6  C10 UNL     1      -0.008  -0.846   0.550  1.00  0.00     0.129 A 
HETATM    7  N4  UNL     1      -0.377  -1.044  -0.805  1.00  0.00    -0.379 N 
HETATM    8  C11 UNL     1      -1.215  -0.158  -1.613  1.00  0.00     0.161 C 
HETATM    9  C12 UNL     1      -2.526   0.038  -0.950  1.00  0.00    -0.006 A 
HETATM   10  C13 UNL     1      -3.582  -0.278  -1.791  1.00  0.00     0.014 A 
HETATM   11  C14 UNL     1      -4.861  -0.147  -1.332  1.00  0.00     0.037 A 
HETATM   12  C15 UNL     1      -5.123   0.289  -0.065  1.00  0.00     0.070 A 
HETATM   13  C17 UNL     1      -4.094   0.616   0.805  1.00  0.00     0.074 A 
HETATM   14  C18 UNL     1      -2.799   0.484   0.348  1.00  0.00     0.088 A 
HETATM   15  O2  UNL     1      -1.767   0.822   1.255  1.00  0.00    -0.289 OA
HETATM   16  H9  UNL     1       0.037  -1.945  -1.192  1.00  0.00     0.160 HD
ENDROOT
BRANCH   1  17
HETATM   17  N1  UNL     1       1.750  -2.484  -0.015  1.00  0.00    -0.349 N 
HETATM   18  H7  UNL     1       1.453  -3.383  -0.453  1.00  0.00     0.167 HD
BRANCH  17  19
HETATM   19  C6  UNL     1       3.069  -2.022  -0.362  1.00  0.00     0.090 C 
HETATM   20  C5  UNL     1       3.580  -0.818  -0.242  1.00  0.00     0.017 C 
BRANCH  20  21
HETATM   21  C4  UNL     1       4.900  -0.293  -0.572  1.00  0.00     0.003 C 
HETATM   22  C3  UNL     1       5.126   0.983  -0.339  1.00  0.00     0.018 C 
BRANCH  22  23
HETATM   23  C2  UNL     1       6.422   1.512  -0.659  1.00  0.00     0.001 C 
HETATM   24  C1  UNL     1       6.705   2.761  -0.447  1.00  0.00     0.032 C 
HETATM   25 BR1  UNL     1       8.090   0.975  -1.366  1.00  0.00    -0.052 Br
ENDBRANCH  22  23
ENDBRANCH  20  21
ENDBRANCH  17  19
ENDBRANCH   1  17
BRANCH  12  26
HETATM   26  O1  UNL     1      -6.438   0.406   0.352  1.00  0.00    -0.356 OA
HETATM   27  C16 UNL     1      -6.694   0.860   1.657  1.00  0.00     0.210 C 
ENDBRANCH  12  26
TORSDOF 5
