REMARK  2 active torsions:
REMARK  status: ('A' for Active; 'I' for Inactive)
REMARK    1  A    between atoms: C6_6  and  O1_7 
REMARK    2  A    between atoms: C8_9  and  O2_10 
ROOT
HETATM    1  C1  UNL     1       5.309   0.947  -1.496  1.00  0.00     0.017 C 
HETATM    2  C2  UNL     1       4.254   0.808  -0.934  1.00  0.00    -0.082 C 
HETATM    3  C3  UNL     1       2.988   0.658  -0.281  1.00  0.00     0.003 C 
HETATM    4  C4  UNL     1       2.949  -0.638  -0.501  1.00  0.00     0.065 C 
HETATM    5  C5  UNL     1       2.425  -1.955  -0.462  1.00  0.00     0.019 C 
HETATM    6  C6  UNL     1       1.811  -3.090  -0.336  1.00  0.00     0.071 C 
HETATM    7  C8  UNL     1       0.592  -3.547   0.280  1.00  0.00     0.174 C 
HETATM    8  C9  UNL     1      -0.691  -3.365  -0.428  1.00  0.00     0.040 C 
HETATM    9  C10 UNL     1      -1.199  -1.975  -0.584  1.00  0.00     0.023 C 
HETATM   10  C11 UNL     1      -1.432  -1.284   0.731  1.00  0.00     0.123 C 
HETATM   11  N1  UNL     1      -2.151  -0.052   0.520  1.00  0.00    -0.381 N 
HETATM   12  C12 UNL     1      -2.262   0.736   1.758  1.00  0.00     0.149 C 
HETATM   13  C13 UNL     1      -3.746   0.667   2.110  1.00  0.00     0.187 C 
HETATM   14  O3  UNL     1      -4.580   1.084   1.113  1.00  0.00    -0.384 OA
HETATM   15  C14 UNL     1      -4.336   0.514  -0.125  1.00  0.00     0.224 C 
HETATM   16  C15 UNL     1      -2.882   0.778  -0.431  1.00  0.00     0.027 C 
HETATM   17  C16 UNL     1      -2.156   1.533  -1.297  1.00  0.00     0.004 C 
HETATM   18  C17 UNL     1      -1.471   2.364  -2.249  1.00  0.00     0.061 C 
HETATM   19  C18 UNL     1      -0.749   3.424  -1.468  1.00  0.00     0.038 C 
HETATM   20  C19 UNL     1      -0.127   4.341  -0.714  1.00  0.00     0.180 C 
HETATM   21  F1  UNL     1       0.674   5.462  -0.625  1.00  0.00    -0.187 F 
HETATM   22  N2  UNL     1      -0.356   4.103   0.706  1.00  0.00    -0.364 N 
HETATM   23  C20 UNL     1       0.868   3.618   1.345  1.00  0.00     0.149 C 
HETATM   24  C21 UNL     1       1.269   2.278   0.891  1.00  0.00    -0.006 C 
HETATM   25  C22 UNL     1       2.328   1.827   0.271  1.00  0.00     0.014 C 
HETATM   26  H25 UNL     1      -1.355   4.362   0.851  1.00  0.00     0.162 HD
ENDROOT
BRANCH   6  27
HETATM   27  O1  UNL     1       2.520  -4.151  -0.957  1.00  0.00    -0.358 OA
HETATM   28  C7  UNL     1       3.694  -4.698  -0.440  1.00  0.00     0.209 C 
ENDBRANCH   6  27
BRANCH   7  29
HETATM   29  O2  UNL     1       0.553  -2.926   1.564  1.00  0.00    -0.389 OA
HETATM   30  H8  UNL     1       1.076  -3.421   2.221  1.00  0.00     0.210 HD
ENDBRANCH   7  29
TORSDOF 2
