REMARK  7 active torsions:
REMARK  status: ('A' for Active; 'I' for Inactive)
REMARK    1  A    between atoms: O1_2  and  C2_3 
REMARK    2  A    between atoms: C2_3  and  O2_5 
REMARK    3  A    between atoms: C2_3  and  C11_15 
REMARK    4  A    between atoms: O2_5  and  C4_6 
REMARK    5  A    between atoms: C4_6  and  C5_7 
REMARK    6  A    between atoms: C5_7  and  C6_8 
REMARK    7  A    between atoms: C6_8  and  N1_9 
ROOT
HETATM    1  C11 UNL     1       2.558  -0.304  -1.202  1.00  0.00     0.056 C 
HETATM    2  C12 UNL     1       2.803  -1.493  -0.597  1.00  0.00     0.043 C 
HETATM    3  C13 UNL     1       3.764  -2.244  -1.462  1.00  0.00     0.207 C 
HETATM    4  N2  UNL     1       4.658  -1.058  -1.715  1.00  0.00    -0.283 NA
HETATM    5  C14 UNL     1       3.798  -0.054  -1.911  1.00  0.00     0.068 C 
HETATM    6  C15 UNL     1       4.506   0.948  -2.735  1.00  0.00     0.077 C 
HETATM    7  C16 UNL     1       5.112   1.737  -1.814  1.00  0.00     0.157 C 
HETATM    8  F1  UNL     1       5.770   2.652  -2.548  1.00  0.00    -0.203 F 
HETATM    9  C17 UNL     1       5.052   1.737  -0.340  1.00  0.00     0.154 C 
HETATM   10  F2  UNL     1       5.929   2.767  -0.041  1.00  0.00    -0.203 F 
HETATM   11  C18 UNL     1       4.588   1.248   0.794  1.00  0.00     0.047 C 
HETATM   12  C19 UNL     1       3.711   0.260   1.324  1.00  0.00     0.020 C 
HETATM   13  C20 UNL     1       2.866  -0.701   1.452  1.00  0.00     0.088 C 
HETATM   14  N3  UNL     1       2.111  -1.578   0.634  1.00  0.00    -0.367 N 
HETATM   15  H27 UNL     1       1.468  -2.233   0.170  1.00  0.00     0.165 HD
ENDROOT
BRANCH   1  16
HETATM   16  C2  UNL     1       1.292   0.464  -1.149  1.00  0.00     0.192 C 
HETATM   17  C3  UNL     1       1.511   1.892  -0.700  1.00  0.00     0.085 C 
BRANCH  16  18
HETATM   18  O1  UNL     1       0.612   0.526  -2.350  1.00  0.00    -0.356 OA
HETATM   19  C1  UNL     1       0.283  -0.776  -2.787  1.00  0.00     0.206 C 
ENDBRANCH  16  18
BRANCH  16  20
HETATM   20  O2  UNL     1       0.391  -0.175  -0.254  1.00  0.00    -0.351 OA
BRANCH  20  21
HETATM   21  C4  UNL     1      -0.757   0.555  -0.137  1.00  0.00     0.173 C 
BRANCH  21  22
HETATM   22  C5  UNL     1      -1.667  -0.187   0.854  1.00  0.00     0.056 C 
BRANCH  22  23
HETATM   23  C6  UNL     1      -2.955   0.546   1.050  1.00  0.00     0.274 C 
BRANCH  23  24
HETATM   24  N1  UNL     1      -3.875  -0.049   1.966  1.00  0.00     0.092 N 
HETATM   25  C7  UNL     1      -5.054   0.828   2.012  1.00  0.00     0.298 C 
HETATM   26  C8  UNL     1      -6.267   0.079   2.477  1.00  0.00     0.198 C 
HETATM   27  O3  UNL     1      -6.664  -0.768   1.447  1.00  0.00    -0.388 OA
HETATM   28  C9  UNL     1      -5.598  -1.311   0.744  1.00  0.00     0.198 C 
HETATM   29  C10 UNL     1      -4.345  -1.352   1.626  1.00  0.00     0.298 C 
ENDBRANCH  23  24
ENDBRANCH  22  23
ENDBRANCH  21  22
ENDBRANCH  20  21
ENDBRANCH  16  20
ENDBRANCH   1  16
TORSDOF 7
