REMARK  4 active torsions:
REMARK  status: ('A' for Active; 'I' for Inactive)
REMARK    1  A    between atoms: C4_5  and  N1_6 
REMARK    2  A    between atoms: N1_6  and  C5_7 
REMARK    3  A    between atoms: C11_14  and  C12_15 
REMARK    4  A    between atoms: C12_15  and  N2_16 
ROOT
HETATM    1  C5  UNL     1       1.105  -0.613  -0.809  1.00  0.00     0.015 C 
HETATM    2  C6  UNL     1       1.707  -1.456  -1.636  1.00  0.00     0.027 C 
HETATM    3  C7  UNL     1       1.404  -2.838  -1.988  1.00  0.00     0.026 C 
HETATM    4  C8  UNL     1       0.343  -3.626  -1.824  1.00  0.00     0.134 C 
HETATM    5  O1  UNL     1      -0.883  -3.359  -1.229  1.00  0.00    -0.363 OA
HETATM    6  C9  UNL     1      -1.383  -2.686  -0.086  1.00  0.00     0.175 C 
HETATM    7  C10 UNL     1      -0.329  -1.912   0.638  1.00  0.00     0.039 C 
HETATM    8  C11 UNL     1      -0.058  -0.542   0.128  1.00  0.00     0.066 C 
ENDROOT
BRANCH   1   9
HETATM    9  N1  UNL     1       1.789   0.630  -0.815  1.00  0.00    -0.359 N 
HETATM   10  H3  UNL     1       1.302   1.192  -1.516  1.00  0.00     0.166 HD
BRANCH   9  11
HETATM   11  C4  UNL     1       2.903   1.025  -0.032  1.00  0.00     0.034 A 
HETATM   12  C3  UNL     1       3.423   0.114   0.867  1.00  0.00     0.032 A 
HETATM   13  C2  UNL     1       4.516   0.593   1.593  1.00  0.00     0.046 A 
HETATM   14  C1  UNL     1       5.024   1.871   1.414  1.00  0.00     0.138 A 
HETATM   15  F1  UNL     1       6.078   2.325   2.117  1.00  0.00    -0.204 F 
HETATM   16  C18 UNL     1       4.451   2.720   0.498  1.00  0.00     0.074 A 
HETATM   17  C17 UNL     1       3.356   2.295  -0.254  1.00  0.00     0.056 A 
HETATM   18 CL1  UNL     1       5.082   4.324   0.269  1.00  0.00    -0.081 Cl
ENDBRANCH   9  11
ENDBRANCH   1   9
BRANCH   8  19
HETATM   19  C12 UNL     1      -1.160   0.100  -0.620  1.00  0.00     0.283 C 
BRANCH  19  20
HETATM   20  N2  UNL     1      -2.401   0.281   0.077  1.00  0.00     0.093 N 
HETATM   21  C13 UNL     1      -3.306   0.921  -0.859  1.00  0.00     0.298 C 
HETATM   22  C14 UNL     1      -4.560   1.416  -0.246  1.00  0.00     0.198 C 
HETATM   23  O2  UNL     1      -4.470   1.921   1.024  1.00  0.00    -0.388 OA
HETATM   24  C15 UNL     1      -3.716   1.091   1.876  1.00  0.00     0.198 C 
HETATM   25  C16 UNL     1      -2.318   1.095   1.241  1.00  0.00     0.298 C 
ENDBRANCH  19  20
ENDBRANCH   8  19
TORSDOF 4
