REMARK  0 active torsions:
REMARK  status: ('A' for Active; 'I' for Inactive)
ROOT
HETATM    1  C1  UNL     1      -1.534   3.277  -0.900  1.00  0.00     0.004 C 
HETATM    2  C2  UNL     1      -2.855   3.619  -0.621  1.00  0.00     0.132 C 
HETATM    3  N1  UNL     1      -3.767   2.648   0.032  1.00  0.00    -0.385 N 
HETATM    4  C3  UNL     1      -3.635   1.168   0.230  1.00  0.00     0.025 C 
HETATM    5  C4  UNL     1      -4.154   0.491  -0.826  1.00  0.00     0.028 C 
HETATM    6  C5  UNL     1      -4.360  -0.873  -1.371  1.00  0.00     0.026 C 
HETATM    7  C6  UNL     1      -3.884  -2.008  -0.882  1.00  0.00     0.134 C 
HETATM    8  O1  UNL     1      -3.105  -1.507   0.231  1.00  0.00    -0.362 OA
HETATM    9  C7  UNL     1      -1.746  -1.273  -0.154  1.00  0.00     0.186 C 
HETATM   10  C8  UNL     1      -0.718  -0.679   0.591  1.00  0.00     0.077 C 
HETATM   11  C9  UNL     1      -0.899   0.495   1.467  1.00  0.00     0.039 C 
HETATM   12  N2  UNL     1      -1.853   1.200   1.909  1.00  0.00    -0.288 NA
HETATM   13  C10 UNL     1      -3.212   1.023   1.643  1.00  0.00     0.205 C 
HETATM   14  C11 UNL     1       0.528   0.762   1.808  1.00  0.00     0.060 C 
HETATM   15  C12 UNL     1       1.362   0.090   0.976  1.00  0.00     0.060 C 
HETATM   16  O2  UNL     1       2.639  -0.232   1.308  1.00  0.00    -0.336 OA
HETATM   17  C13 UNL     1       3.821   0.456   1.122  1.00  0.00     0.292 C 
HETATM   18  N3  UNL     1       4.906  -0.462   1.146  1.00  0.00    -0.399 N 
HETATM   19  C14 UNL     1       4.994  -1.404   0.106  1.00  0.00     0.142 C 
HETATM   20  C15 UNL     1       3.963  -2.478   0.038  1.00  0.00     0.186 C 
HETATM   21  O3  UNL     1       2.667  -2.092  -0.132  1.00  0.00    -0.390 OA
HETATM   22  C16 UNL     1       2.368  -1.404  -1.276  1.00  0.00     0.168 C 
HETATM   23  C17 UNL     1       0.900  -1.024  -1.244  1.00  0.00     0.044 C 
HETATM   24  C18 UNL     1       0.466  -0.104  -0.207  1.00  0.00     0.026 C 
HETATM   25  C19 UNL     1       0.234   1.283  -0.676  1.00  0.00     0.012 C 
HETATM   26  C20 UNL     1      -0.206   2.525  -1.023  1.00  0.00    -0.002 C 
HETATM   27  H3  UNL     1      -4.658   2.865   0.429  1.00  0.00     0.160 HD
HETATM   28  H15 UNL     1       5.158  -0.784   2.085  1.00  0.00     0.155 HD
ENDROOT
TORSDOF 0
