REMARK  7 active torsions:
REMARK  status: ('A' for Active; 'I' for Inactive)
REMARK    1  A    between atoms: O1_2  and  C2_3 
REMARK    2  A    between atoms: C7_8  and  O2_9 
REMARK    3  A    between atoms: O2_9  and  C8_10 
REMARK    4  A    between atoms: C8_10  and  C9_11 
REMARK    5  A    between atoms: C9_11  and  C10_12 
REMARK    6  A    between atoms: C10_12  and  N1_13 
REMARK    7  A    between atoms: C15_19  and  S1_20 
ROOT
HETATM    1  C2  UNL     1      -0.885  -2.293  -0.465  1.00  0.00     0.103 A 
HETATM    2  C3  UNL     1      -1.879  -2.040   0.491  1.00  0.00     0.072 A 
HETATM    3  C4  UNL     1      -2.312  -0.785   0.852  1.00  0.00     0.074 A 
HETATM    4  C5  UNL     1      -1.725   0.319   0.226  1.00  0.00     0.029 A 
HETATM    5  C6  UNL     1      -0.757   0.013  -0.703  1.00  0.00     0.056 A 
HETATM    6  C7  UNL     1      -0.273  -1.209  -1.114  1.00  0.00     0.103 A 
HETATM    7  C15 UNL     1      -1.828   1.637   0.230  1.00  0.00     0.080 C 
HETATM    8  N2  UNL     1      -2.725   2.484   0.981  1.00  0.00    -0.350 N 
HETATM    9  C16 UNL     1      -4.052   1.984   1.135  1.00  0.00     0.034 A 
HETATM   10  C17 UNL     1      -4.579   2.299   2.406  1.00  0.00     0.031 A 
HETATM   11  C18 UNL     1      -5.792   1.782   2.926  1.00  0.00     0.033 A 
HETATM   12  C19 UNL     1      -5.805   1.150   1.717  1.00  0.00     0.081 A 
HETATM   13  C20 UNL     1      -5.663   0.576   0.429  1.00  0.00     0.247 A 
HETATM   14  F1  UNL     1      -6.655  -0.276  -0.043  1.00  0.00    -0.207 F 
HETATM   15  C21 UNL     1      -4.413   1.180   0.020  1.00  0.00     0.075 A 
HETATM   16  N3  UNL     1      -4.736   0.136   1.423  1.00  0.00    -0.294 N 
HETATM   17  C22 UNL     1      -4.000  -0.208   2.466  1.00  0.00     0.214 C 
HETATM   18  N4  UNL     1      -3.214  -1.072   1.741  1.00  0.00    -0.243 NA
HETATM   19  H21 UNL     1      -2.490   3.391   1.417  1.00  0.00     0.166 HD
ENDROOT
BRANCH   6  20
HETATM   20  O2  UNL     1       0.672  -1.534  -2.016  1.00  0.00    -0.348 OA
BRANCH  20  21
HETATM   21  C8  UNL     1       1.521  -0.850  -2.834  1.00  0.00     0.177 C 
BRANCH  21  22
HETATM   22  C9  UNL     1       2.529  -0.019  -2.087  1.00  0.00     0.046 C 
BRANCH  22  23
HETATM   23  C10 UNL     1       3.336  -0.977  -1.240  1.00  0.00     0.119 C 
BRANCH  23  24
HETATM   24  N1  UNL     1       4.345  -0.327  -0.464  1.00  0.00    -0.408 N 
HETATM   25  C11 UNL     1       5.422   0.259  -1.180  1.00  0.00     0.143 C 
HETATM   26  C12 UNL     1       5.548   1.707  -0.700  1.00  0.00     0.187 C 
HETATM   27  O3  UNL     1       5.862   1.733   0.635  1.00  0.00    -0.388 OA
HETATM   28  C13 UNL     1       5.064   0.942   1.426  1.00  0.00     0.187 C 
HETATM   29  C14 UNL     1       3.880   0.353   0.690  1.00  0.00     0.143 C 
ENDBRANCH  23  24
ENDBRANCH  22  23
ENDBRANCH  21  22
ENDBRANCH  20  21
ENDBRANCH   6  20
BRANCH   1  30
HETATM   30  O1  UNL     1      -0.460  -3.579  -0.818  1.00  0.00    -0.353 OA
HETATM   31  C1  UNL     1      -1.064  -4.672  -0.172  1.00  0.00     0.210 C 
ENDBRANCH   1  30
BRANCH   7  32
HETATM   32  S1  UNL     1      -0.903   2.870  -0.721  1.00  0.00    -0.124 SA
HETATM   33  H20 UNL     1      -1.729   3.568  -1.610  1.00  0.00     0.108 HD
ENDBRANCH   7  32
TORSDOF 7
