REMARK  4 active torsions:
REMARK  status: ('A' for Active; 'I' for Inactive)
REMARK    1  A    between atoms: C4_5  and  C5_6 
REMARK    2  A    between atoms: C6_7  and  N1_8 
REMARK    3  A    between atoms: N1_8  and  C7_9 
REMARK    4  A    between atoms: C12_16  and  N4_17 
ROOT
HETATM    1  C1  UNL     1       2.224  -0.151   1.393  1.00  0.00     0.019 C 
HETATM    2  C2  UNL     1       3.092  -0.128   0.532  1.00  0.00    -0.066 C 
HETATM    3  C3  UNL     1       4.127  -0.116  -0.480  1.00  0.00     0.083 C 
HETATM    4 CL1  UNL     1       5.636   0.486   0.189  1.00  0.00    -0.075 Cl
HETATM    5  C4  UNL     1       3.890  -0.527  -1.747  1.00  0.00     0.014 C 
ENDROOT
BRANCH   5   6
HETATM    6  C5  UNL     1       2.494  -0.841  -1.473  1.00  0.00     0.095 C 
HETATM    7  C6  UNL     1       1.492  -1.316  -2.192  1.00  0.00     0.072 C 
BRANCH   7   8
HETATM    8  N1  UNL     1       0.527  -1.296  -1.132  1.00  0.00    -0.373 N 
HETATM    9  H5  UNL     1       0.461  -2.147  -0.503  1.00  0.00     0.161 HD
BRANCH   8  10
HETATM   10  C7  UNL     1      -0.269  -0.109  -1.012  1.00  0.00     0.137 A 
HETATM   11  N2  UNL     1      -0.040   0.872  -1.899  1.00  0.00    -0.224 NA
HETATM   12  C8  UNL     1      -0.763   2.030  -1.842  1.00  0.00     0.235 A 
HETATM   13  N3  UNL     1      -1.714   2.224  -0.910  1.00  0.00    -0.241 NA
HETATM   14  C9  UNL     1      -1.979   1.268   0.001  1.00  0.00     0.072 A 
HETATM   15  C10 UNL     1      -2.949   1.437   0.969  1.00  0.00     0.035 A 
HETATM   16  C14 UNL     1      -1.245   0.109  -0.067  1.00  0.00     0.041 A 
HETATM   17  C11 UNL     1      -3.232   0.457   1.916  1.00  0.00     0.034 A 
HETATM   18  C12 UNL     1      -2.463  -0.687   1.799  1.00  0.00     0.060 A 
HETATM   19  C13 UNL     1      -1.494  -0.866   0.837  1.00  0.00     0.049 A 
BRANCH  18  20
HETATM   20  N4  UNL     1      -2.716  -1.725   2.749  1.00  0.00    -0.225 N 
HETATM   21  F1  UNL     1      -3.667  -1.548   3.691  1.00  0.00    -0.101 F 
HETATM   22  H9  UNL     1      -2.162  -2.628   2.715  1.00  0.00     0.199 HD
ENDBRANCH  18  20
ENDBRANCH   8  10
ENDBRANCH   7   8
ENDBRANCH   5   6
TORSDOF 4
