REMARK  7 active torsions:
REMARK  status: ('A' for Active; 'I' for Inactive)
REMARK    1  A    between atoms: N1_9  and  C7_10 
REMARK    2  A    between atoms: C12_18  and  C13_19 
REMARK    3  A    between atoms: C13_19  and  N4_20 
REMARK    4  A    between atoms: C14_21  and  N5_23 
REMARK    5  A    between atoms: N5_23  and  C15_24 
REMARK    6  A    between atoms: C15_24  and  C16_25 
REMARK    7  A    between atoms: C16_25  and  N6_26 
ROOT
HETATM    1  C7  UNL     1      -3.351   1.399   0.236  1.00  0.00     0.141 A 
HETATM    2  N2  UNL     1      -3.531   2.682   0.243  1.00  0.00    -0.224 NA
HETATM    3  C8  UNL     1      -2.674   3.412   1.022  1.00  0.00     0.236 A 
HETATM    4  N3  UNL     1      -1.691   2.746   1.741  1.00  0.00    -0.240 NA
HETATM    5  C9  UNL     1      -1.697   1.333   1.576  1.00  0.00     0.082 A 
HETATM    6  C10 UNL     1      -0.637   1.036   2.383  1.00  0.00     0.117 C 
HETATM    7 CL2  UNL     1       0.411   2.080   3.348  1.00  0.00    -0.095 Cl
HETATM    8  C11 UNL     1      -2.582   0.500   0.751  1.00  0.00     0.037 A 
HETATM    9  C12 UNL     1      -1.863  -0.531   1.006  1.00  0.00     0.020 C 
ENDROOT
BRANCH   1  10
HETATM   10  N1  UNL     1      -4.408   0.747  -0.348  1.00  0.00    -0.339 N 
HETATM   11  C2  UNL     1      -5.378   0.347  -1.273  1.00  0.00     0.093 A 
HETATM   12  C1  UNL     1      -5.566  -0.062  -2.426  1.00  0.00     0.175 A 
HETATM   13  C3  UNL     1      -6.870   0.243  -0.886  1.00  0.00     0.029 C 
HETATM   14  C6  UNL     1      -5.408  -1.063  -1.292  1.00  0.00     0.112 A 
HETATM   15  C5  UNL     1      -5.288  -0.305  -0.011  1.00  0.00     0.144 A 
HETATM   16  F1  UNL     1      -5.757  -0.702  -3.588  1.00  0.00    -0.236 F 
HETATM   17  C4  UNL     1      -6.489   0.578   0.283  1.00  0.00     0.034 C 
HETATM   18 CL1  UNL     1      -6.728   1.463   1.811  1.00  0.00    -0.087 Cl
ENDBRANCH   1  10
BRANCH   9  19
HETATM   19  C13 UNL     1      -1.508  -1.772   0.232  1.00  0.00     0.287 C 
BRANCH  19  20
HETATM   20  N4  UNL     1      -0.059  -1.598  -0.136  1.00  0.00     0.043 N 
HETATM   21  C14 UNL     1       1.311  -1.460  -0.492  1.00  0.00     0.281 A 
HETATM   22  S1  UNL     1       1.107  -3.024  -0.851  1.00  0.00     0.144 SA
HETATM   23  H10 UNL     1       0.142  -0.618   0.124  1.00  0.00     0.305 HD
BRANCH  21  24
HETATM   24  N5  UNL     1       2.353  -0.521  -0.534  1.00  0.00    -0.361 N 
HETATM   25  H11 UNL     1       2.009   0.460  -0.212  1.00  0.00     0.161 HD
BRANCH  24  26
HETATM   26  C15 UNL     1       3.445  -1.298  -1.036  1.00  0.00     0.152 C 
BRANCH  26  27
HETATM   27  C16 UNL     1       4.665  -0.453  -1.313  1.00  0.00     0.294 C 
BRANCH  27  28
HETATM   28  N6  UNL     1       5.253   0.307  -0.278  1.00  0.00     0.115 N 
HETATM   29  C17 UNL     1       5.875  -0.430   0.771  1.00  0.00     0.301 C 
HETATM   30  C18 UNL     1       7.184   0.351   1.024  1.00  0.00     0.200 C 
HETATM   31  O1  UNL     1       7.395   1.106  -0.054  1.00  0.00    -0.361 OA
HETATM   32  C19 UNL     1       6.274   1.129  -0.855  1.00  0.00     0.440 C 
ENDBRANCH  27  28
ENDBRANCH  26  27
ENDBRANCH  24  26
ENDBRANCH  21  24
ENDBRANCH  19  20
ENDBRANCH   9  19
TORSDOF 7
