REMARK  7 active torsions:
REMARK  status: ('A' for Active; 'I' for Inactive)
REMARK    1  A    between atoms: C4_5  and  N1_6 
REMARK    2  A    between atoms: N1_6  and  C5_7 
REMARK    3  A    between atoms: C10_14  and  C11_15 
REMARK    4  A    between atoms: C11_15  and  N4_17 
REMARK    5  A    between atoms: N4_17  and  C12_18 
REMARK    6  A    between atoms: C12_18  and  C13_19 
REMARK    7  A    between atoms: C13_19  and  N5_20 
ROOT
HETATM    1  C5  UNL     1       3.817  -0.591   0.904  1.00  0.00     0.142 A 
HETATM    2  N2  UNL     1       4.866  -1.108   1.540  1.00  0.00    -0.224 NA
HETATM    3  C6  UNL     1       4.663  -2.157   2.399  1.00  0.00     0.236 A 
HETATM    4  N3  UNL     1       3.428  -2.684   2.622  1.00  0.00    -0.241 NA
HETATM    5  C7  UNL     1       2.370  -2.173   1.990  1.00  0.00     0.072 A 
HETATM    6  C8  UNL     1       1.055  -2.592   2.129  1.00  0.00     0.033 A 
HETATM    7  C9  UNL     1      -0.000  -2.015   1.464  1.00  0.00     0.017 A 
HETATM    8  C10 UNL     1       0.189  -0.962   0.601  1.00  0.00     0.003 A 
HETATM    9  C18 UNL     1       1.489  -0.542   0.456  1.00  0.00     0.032 A 
HETATM   10  C19 UNL     1       2.550  -1.101   1.106  1.00  0.00     0.040 A 
ENDROOT
BRANCH   8  11
HETATM   11  C11 UNL     1      -0.887  -0.243  -0.119  1.00  0.00     0.106 C 
HETATM   12  S1  UNL     1      -0.412   1.113  -0.971  1.00  0.00    -0.060 SA
BRANCH  11  13
HETATM   13  N4  UNL     1      -2.247  -0.628  -0.116  1.00  0.00    -0.379 N 
HETATM   14  H7  UNL     1      -2.718   0.075  -0.679  1.00  0.00     0.160 HD
BRANCH  13  15
HETATM   15  C12 UNL     1      -3.348  -1.452   0.223  1.00  0.00     0.151 C 
BRANCH  15  16
HETATM   16  C13 UNL     1      -4.730  -0.980   0.042  1.00  0.00     0.292 C 
BRANCH  16  17
HETATM   17  N5  UNL     1      -5.296  -0.589  -1.163  1.00  0.00     0.094 N 
HETATM   18  C14 UNL     1      -4.897   0.616  -1.816  1.00  0.00     0.298 C 
HETATM   19  C15 UNL     1      -4.880   1.808  -0.896  1.00  0.00     0.198 C 
HETATM   20  O1  UNL     1      -5.895   1.664   0.051  1.00  0.00    -0.388 OA
HETATM   21  C16 UNL     1      -7.012   1.028  -0.449  1.00  0.00     0.198 C 
HETATM   22  C17 UNL     1      -6.750  -0.394  -0.905  1.00  0.00     0.298 C 
ENDBRANCH  16  17
ENDBRANCH  15  16
ENDBRANCH  13  15
ENDBRANCH  11  13
ENDBRANCH   8  11
BRANCH   1  23
HETATM   23  N1  UNL     1       4.053   0.495   0.023  1.00  0.00    -0.340 N 
HETATM   24  H3  UNL     1       3.466   1.064  -0.618  1.00  0.00     0.167 HD
BRANCH  23  25
HETATM   25  C4  UNL     1       5.305   1.086  -0.176  1.00  0.00     0.035 A 
HETATM   26  C3  UNL     1       6.048   0.678  -1.258  1.00  0.00     0.032 A 
HETATM   27  C2  UNL     1       7.299   1.212  -1.540  1.00  0.00     0.046 A 
HETATM   28  C1  UNL     1       7.849   2.199  -0.717  1.00  0.00     0.138 A 
HETATM   29  F1  UNL     1       9.064   2.712  -1.004  1.00  0.00    -0.204 F 
HETATM   30  C21 UNL     1       7.098   2.588   0.346  1.00  0.00     0.074 A 
HETATM   31  C20 UNL     1       5.838   2.063   0.649  1.00  0.00     0.056 A 
HETATM   32 CL1  UNL     1       7.795   3.838   1.380  1.00  0.00    -0.081 Cl
ENDBRANCH  23  25
ENDBRANCH   1  23
TORSDOF 7
