REMARK  7 active torsions:
REMARK  status: ('A' for Active; 'I' for Inactive)
REMARK    1  A    between atoms: O1_2  and  C2_3 
REMARK    2  A    between atoms: C6_7  and  C7_8 
REMARK    3  A    between atoms: C7_8  and  C8_9 
REMARK    4  A    between atoms: C8_9  and  N1_10 
REMARK    5  A    between atoms: C8_9  and  C9_11 
REMARK    6  A    between atoms: C10_12  and  N2_13 
REMARK    7  A    between atoms: C10_12  and  C11_14 
ROOT
HETATM    1  C8  UNL     1       1.139  -1.419   0.560  1.00  0.00     0.246 C 
ENDROOT
BRANCH   1   2
HETATM    2  C7  UNL     1       2.112  -1.449  -0.599  1.00  0.00     0.078 C 
BRANCH   2   3
HETATM    3  C6  UNL     1       2.792  -0.119  -0.758  1.00  0.00    -0.053 A 
HETATM    4  C5  UNL     1       2.314   0.909  -1.546  1.00  0.00     0.007 A 
HETATM    5  C4  UNL     1       3.046   2.093  -1.604  1.00  0.00     0.003 A 
HETATM    6  C3  UNL     1       4.219   2.217  -0.884  1.00  0.00     0.037 A 
HETATM    7  C2  UNL     1       4.710   1.192  -0.090  1.00  0.00     0.068 A 
HETATM    8  C17 UNL     1       3.981   0.045  -0.047  1.00  0.00     0.044 A 
BRANCH   7   9
HETATM    9  O1  UNL     1       5.898   1.412   0.596  1.00  0.00    -0.356 OA
HETATM   10  C1  UNL     1       6.348   0.320   1.394  1.00  0.00     0.210 C 
ENDBRANCH   7   9
ENDBRANCH   2   3
ENDBRANCH   1   2
BRANCH   1  11
HETATM   11  N1  UNL     1       0.470  -2.690   0.736  1.00  0.00     0.086 N 
HETATM   12  H10 UNL     1       0.572  -3.283  -0.093  1.00  0.00     0.313 HD
HETATM   13  H11 UNL     1       0.601  -3.136   1.649  1.00  0.00     0.313 HD
ENDBRANCH   1  11
BRANCH   1  14
HETATM   14  C9  UNL     1       0.110  -0.374   0.398  1.00  0.00     0.031 C 
HETATM   15  C10 UNL     1      -1.197  -0.539   0.288  1.00  0.00     0.006 C 
BRANCH  15  16
HETATM   16  N2  UNL     1      -1.564  -1.909   0.342  1.00  0.00    -0.303 NA
HETATM   17  H13 UNL     1      -1.775  -2.777  -0.231  1.00  0.00     0.124 HD
HETATM   18  H14 UNL     1      -1.765  -2.743  -0.264  1.00  0.00     0.124 HD
ENDBRANCH  15  16
BRANCH  15  19
HETATM   19  C11 UNL     1      -2.049   0.627   0.136  1.00  0.00     0.052 C 
HETATM   20  C12 UNL     1      -3.362   0.632   0.012  1.00  0.00     0.029 C 
HETATM   21  C13 UNL     1      -4.101   1.905  -0.136  1.00  0.00     0.025 C 
HETATM   22  N3  UNL     1      -4.187  -0.528   0.005  1.00  0.00    -0.390 N 
HETATM   23  C14 UNL     1      -5.397   1.943  -0.260  1.00  0.00    -0.023 C 
HETATM   24  C15 UNL     1      -6.266   0.737  -0.267  1.00  0.00     0.047 C 
HETATM   25  C16 UNL     1      -5.581  -0.436   0.402  1.00  0.00     0.123 C 
HETATM   26  H22 UNL     1      -3.768  -1.424  -0.289  1.00  0.00     0.159 HD
ENDBRANCH  15  19
ENDBRANCH   1  14
TORSDOF 7
