REMARK  8 active torsions:
REMARK  status: ('A' for Active; 'I' for Inactive)
REMARK    1  A    between atoms: N1_8  and  C7_9 
REMARK    2  A    between atoms: C12_16  and  C13_17 
REMARK    3  A    between atoms: C13_17  and  N4_18 
REMARK    4  A    between atoms: N4_18  and  C14_19 
REMARK    5  A    between atoms: C14_19  and  N5_21 
REMARK    6  A    between atoms: N5_21  and  C15_22 
REMARK    7  A    between atoms: C15_22  and  C16_23 
REMARK    8  A    between atoms: C16_23  and  N6_24 
ROOT
HETATM    1  C7  UNL     1      -4.813   1.253  -0.550  1.00  0.00     0.145 C 
HETATM    2  N2  UNL     1      -5.752   2.082  -0.941  1.00  0.00    -0.223 NA
HETATM    3  C8  UNL     1      -5.598   3.349  -1.594  1.00  0.00     0.234 C 
HETATM    4  N3  UNL     1      -4.598   3.843  -2.234  1.00  0.00    -0.254 NA
HETATM    5  C9  UNL     1      -3.313   3.270  -2.493  1.00  0.00     0.119 C 
HETATM    6  C10 UNL     1      -2.796   2.243  -1.820  1.00  0.00     0.034 C 
HETATM    7  C11 UNL     1      -3.350   1.455  -0.697  1.00  0.00     0.010 C 
HETATM    8  C12 UNL     1      -2.515   0.928   0.176  1.00  0.00     0.008 C 
ENDROOT
BRANCH   8   9
HETATM    9  C13 UNL     1      -1.175   0.664   0.711  1.00  0.00     0.150 C 
BRANCH   9  10
HETATM   10  N4  UNL     1      -0.095   1.270  -0.052  1.00  0.00    -0.364 N 
HETATM   11  H12 UNL     1       0.100   1.859  -0.871  1.00  0.00     0.162 HD
BRANCH  10  12
HETATM   12  C14 UNL     1       1.153   0.905   0.588  1.00  0.00     0.167 C 
HETATM   13  S1  UNL     1       1.361  -0.012   1.951  1.00  0.00    -0.041 SA
BRANCH  12  14
HETATM   14  N5  UNL     1       2.427   1.311   0.123  1.00  0.00    -0.366 N 
HETATM   15  H13 UNL     1       2.375   1.925  -0.748  1.00  0.00     0.161 HD
BRANCH  14  16
HETATM   16  C15 UNL     1       3.766   1.056   0.598  1.00  0.00     0.152 C 
BRANCH  16  17
HETATM   17  C16 UNL     1       4.103  -0.377   0.366  1.00  0.00     0.292 C 
BRANCH  17  18
HETATM   18  N6  UNL     1       5.436  -0.734   0.801  1.00  0.00     0.094 N 
HETATM   19  C17 UNL     1       6.484  -0.129   0.012  1.00  0.00     0.298 C 
HETATM   20  C18 UNL     1       6.703  -0.800  -1.320  1.00  0.00     0.198 C 
HETATM   21  O1  UNL     1       5.780  -1.790  -1.581  1.00  0.00    -0.388 OA
HETATM   22  C19 UNL     1       5.859  -2.738  -0.559  1.00  0.00     0.198 C 
HETATM   23  C20 UNL     1       5.554  -2.159   0.787  1.00  0.00     0.298 C 
ENDBRANCH  17  18
ENDBRANCH  16  17
ENDBRANCH  14  16
ENDBRANCH  12  14
ENDBRANCH  10  12
ENDBRANCH   9  10
ENDBRANCH   8   9
BRANCH   1  24
HETATM   24  N1  UNL     1      -5.097  -0.006   0.103  1.00  0.00    -0.304 N 
HETATM   25  C2  UNL     1      -4.830  -1.259  -0.527  1.00  0.00     0.069 A 
HETATM   26  C1  UNL     1      -4.317  -1.287  -1.729  1.00  0.00     0.047 C 
HETATM   27  C3  UNL     1      -5.124  -2.508   0.159  1.00  0.00     0.142 A 
HETATM   28  F1  UNL     1      -4.893  -3.717  -0.383  1.00  0.00    -0.204 F 
HETATM   29  C4  UNL     1      -5.643  -2.389   1.377  1.00  0.00     0.046 A 
HETATM   30  C5  UNL     1      -5.928  -1.109   2.048  1.00  0.00     0.021 A 
HETATM   31  C6  UNL     1      -5.653   0.022   1.408  1.00  0.00     0.099 A 
ENDBRANCH   1  24
TORSDOF 8
