REMARK  0 active torsions:
REMARK  status: ('A' for Active; 'I' for Inactive)
ROOT
HETATM    1  C1  UNL     1       3.675   0.190   1.672  1.00  0.00     0.045 C 
HETATM    2  C2  UNL     1       2.681   0.885   1.215  1.00  0.00     0.051 C 
HETATM    3  C3  UNL     1       1.877   1.825   0.511  1.00  0.00     0.050 C 
HETATM    4  C4  UNL     1       0.686   2.357   0.247  1.00  0.00     0.014 C 
HETATM    5 BR1  UNL     1       0.738   3.762  -1.039  1.00  0.00    -0.051 Br
HETATM    6  C5  UNL     1      -0.691   2.330   0.643  1.00  0.00     0.034 C 
HETATM    7  C6  UNL     1      -1.724   2.216  -0.130  1.00  0.00     0.012 C 
HETATM    8  C7  UNL     1      -1.712   1.277  -1.028  1.00  0.00     0.080 C 
HETATM    9  C8  UNL     1      -0.399   0.906  -1.545  1.00  0.00     0.036 C 
HETATM   10  C9  UNL     1      -0.285  -0.247  -2.253  1.00  0.00     0.007 C 
HETATM   11  C10 UNL     1      -0.361  -1.701  -1.821  1.00  0.00     0.161 C 
HETATM   12  N1  UNL     1       0.962  -1.833  -1.234  1.00  0.00    -0.383 N 
HETATM   13  C11 UNL     1       1.406  -0.872  -0.261  1.00  0.00     0.120 C 
HETATM   14  C12 UNL     1       0.836  -0.640   0.940  1.00  0.00     0.127 A 
HETATM   15  C13 UNL     1      -0.405  -1.279   1.462  1.00  0.00     0.201 A 
HETATM   16  N2  UNL     1      -0.813  -1.046   2.656  1.00  0.00    -0.214 NA
HETATM   17  C14 UNL     1      -0.053  -0.159   3.464  1.00  0.00     0.258 A 
HETATM   18  N3  UNL     1       1.054   0.456   3.082  1.00  0.00    -0.160 NA
HETATM   19  N4  UNL     1       1.572   0.259   1.794  1.00  0.00    -0.228 N 
HETATM   20  O1  UNL     1      -1.168  -2.165   0.593  1.00  0.00    -0.292 OA
HETATM   21  C15 UNL     1      -1.464  -1.777  -0.778  1.00  0.00     0.080 C 
HETATM   22  C16 UNL     1      -2.805  -1.545  -0.817  1.00  0.00     0.035 C 
HETATM   23  C17 UNL     1      -3.496  -0.501  -1.651  1.00  0.00     0.205 C 
HETATM   24  O2  UNL     1      -3.034   0.834  -1.288  1.00  0.00    -0.347 OA
HETATM   25  H8  UNL     1       1.559  -2.626  -1.534  1.00  0.00     0.160 HD
ENDROOT
TORSDOF 0
