REMARK  6 active torsions:
REMARK  status: ('A' for Active; 'I' for Inactive)
REMARK    1  A    between atoms: C4_5  and  N2_6 
REMARK    2  A    between atoms: N2_6  and  C5_7 
REMARK    3  A    between atoms: C5_7  and  N3_9 
REMARK    4  A    between atoms: N3_9  and  C6_10 
REMARK    5  A    between atoms: C6_10  and  C7_11 
REMARK    6  A    between atoms: C7_11  and  N4_12 
ROOT
HETATM    1  C1  UNL     1       2.202   2.157   2.013  1.00  0.00     0.021 C 
HETATM    2  C2  UNL     1       3.398   1.924   1.071  1.00  0.00     0.090 C 
HETATM    3  C3  UNL     1       2.811   1.775  -0.290  1.00  0.00     0.130 C 
HETATM    4  N1  UNL     1       1.511   1.621  -0.214  1.00  0.00    -0.248 NA
HETATM    5  C4  UNL     1       0.749   1.459  -1.429  1.00  0.00     0.218 C 
HETATM    6  C12 UNL     1       1.285   0.551  -2.438  1.00  0.00     0.064 C 
HETATM    7  C13 UNL     1       2.013  -0.225  -3.243  1.00  0.00    -0.017 C 
HETATM    8  C14 UNL     1       3.417  -0.654  -3.477  1.00  0.00    -0.001 C 
HETATM    9  C15 UNL     1       4.433  -0.236  -2.743  1.00  0.00     0.031 C 
HETATM   10  C16 UNL     1       4.484   0.688  -1.587  1.00  0.00     0.058 C 
HETATM   11  N5  UNL     1       3.898   1.846  -1.281  1.00  0.00    -0.234 NA
HETATM   12  C17 UNL     1       5.392   0.132  -0.550  1.00  0.00     0.030 C 
HETATM   13  C18 UNL     1       5.215   0.200   0.790  1.00  0.00     0.013 C 
HETATM   14  C19 UNL     1       4.099   0.726   1.596  1.00  0.00     0.204 C 
HETATM   15  F1  UNL     1       4.558   1.032   2.859  1.00  0.00    -0.244 F 
ENDROOT
BRANCH   5  16
HETATM   16  N2  UNL     1      -0.644   1.159  -1.133  1.00  0.00    -0.344 N 
HETATM   17  H6  UNL     1      -0.833   0.873  -0.132  1.00  0.00     0.164 HD
BRANCH  16  18
HETATM   18  C5  UNL     1      -1.669   1.253  -2.112  1.00  0.00     0.169 C 
HETATM   19  S1  UNL     1      -1.191   1.734  -3.618  1.00  0.00    -0.041 SA
BRANCH  18  20
HETATM   20  N3  UNL     1      -3.039   0.970  -1.892  1.00  0.00    -0.366 N 
HETATM   21  H7  UNL     1      -3.706   1.086  -2.683  1.00  0.00     0.161 HD
BRANCH  20  22
HETATM   22  C6  UNL     1      -3.667   0.527  -0.687  1.00  0.00     0.152 C 
BRANCH  22  23
HETATM   23  C7  UNL     1      -3.274  -0.914  -0.394  1.00  0.00     0.292 C 
BRANCH  23  24
HETATM   24  N4  UNL     1      -3.861  -1.413   0.801  1.00  0.00     0.094 N 
HETATM   25  C8  UNL     1      -3.331  -0.799   1.969  1.00  0.00     0.298 C 
HETATM   26  C9  UNL     1      -3.889  -1.389   3.248  1.00  0.00     0.198 C 
HETATM   27  O1  UNL     1      -4.074  -2.767   3.175  1.00  0.00    -0.388 OA
HETATM   28  C10 UNL     1      -4.819  -3.149   2.085  1.00  0.00     0.198 C 
HETATM   29  C11 UNL     1      -3.949  -2.837   0.856  1.00  0.00     0.298 C 
ENDBRANCH  23  24
ENDBRANCH  22  23
ENDBRANCH  20  22
ENDBRANCH  18  20
ENDBRANCH  16  18
ENDBRANCH   5  16
TORSDOF 6
