REMARK  5 active torsions:
REMARK  status: ('A' for Active; 'I' for Inactive)
REMARK    1  A    between atoms: N2_5  and  C4_6 
REMARK    2  A    between atoms: C5_7  and  C6_8 
REMARK    3  A    between atoms: C7_9  and  N3_10 
REMARK    4  A    between atoms: N3_10  and  C8_11 
REMARK    5  A    between atoms: C16_21  and  N6_23 
ROOT
HETATM    1  C8  UNL     1      -1.010  -0.103  -0.318  1.00  0.00     0.099 C 
HETATM    2  N4  UNL     1      -1.427  -1.293  -0.596  1.00  0.00    -0.271 NA
HETATM    3  C9  UNL     1      -2.859  -1.395  -0.426  1.00  0.00     0.121 C 
HETATM    4  C10 UNL     1      -3.563  -2.143  -1.531  1.00  0.00     0.068 C 
HETATM    5  C11 UNL     1      -4.985  -1.674  -1.565  1.00  0.00    -0.029 C 
HETATM    6  C12 UNL     1      -5.779  -2.252  -2.456  1.00  0.00     0.125 C 
HETATM    7  N5  UNL     1      -7.151  -1.810  -2.500  1.00  0.00    -0.257 NA
HETATM    8  C13 UNL     1      -7.469  -0.731  -1.869  1.00  0.00     0.098 C 
HETATM    9  C14 UNL     1      -6.876  -0.534  -0.728  1.00  0.00     0.018 C 
HETATM   10  C15 UNL     1      -5.558  -0.644  -0.704  1.00  0.00     0.001 C 
HETATM   11  C16 UNL     1      -4.609   0.180   0.115  1.00  0.00     0.186 C 
HETATM   12  C17 UNL     1      -5.024   1.630   0.136  1.00  0.00     0.054 C 
HETATM   13  C18 UNL     1      -3.291   0.050  -0.580  1.00  0.00     0.060 C 
HETATM   14  C19 UNL     1      -2.165   0.772   0.089  1.00  0.00     0.087 C 
ENDROOT
BRANCH   1  15
HETATM   15  N3  UNL     1       0.352   0.302  -0.392  1.00  0.00    -0.355 N 
HETATM   16  H12 UNL     1       0.600   1.199   0.080  1.00  0.00     0.166 HD
BRANCH  15  17
HETATM   17  C7  UNL     1       1.368  -0.437  -1.062  1.00  0.00     0.089 C 
HETATM   18  C6  UNL     1       2.644  -0.235  -0.697  1.00  0.00     0.018 C 
BRANCH  18  19
HETATM   19  C5  UNL     1       3.732  -0.959  -1.342  1.00  0.00     0.018 C 
HETATM   20  C4  UNL     1       5.003  -0.753  -0.973  1.00  0.00     0.087 C 
BRANCH  20  21
HETATM   21  N2  UNL     1       5.225   0.198   0.068  1.00  0.00    -0.363 N 
HETATM   22  C3  UNL     1       5.380   1.639   0.081  1.00  0.00     0.154 C 
HETATM   23  C2  UNL     1       5.033   1.990   1.507  1.00  0.00     0.293 C 
HETATM   24  N1  UNL     1       5.569   0.879   2.253  1.00  0.00     0.103 N 
HETATM   25  C1  UNL     1       6.982   1.109   2.476  1.00  0.00     0.312 C 
HETATM   26  C20 UNL     1       5.333  -0.302   1.445  1.00  0.00     0.396 C 
ENDBRANCH  20  21
ENDBRANCH  18  19
ENDBRANCH  15  17
ENDBRANCH   1  15
BRANCH  11  27
HETATM   27  N6  UNL     1      -4.596  -0.370   1.435  1.00  0.00     0.092 N 
HETATM   28  H20 UNL     1      -3.846  -0.029   2.057  1.00  0.00     0.314 HD
HETATM   29  H21 UNL     1      -5.555  -0.229   1.826  1.00  0.00     0.314 HD
ENDBRANCH  11  27
TORSDOF 5
