REMARK  5 active torsions:
REMARK  status: ('A' for Active; 'I' for Inactive)
REMARK    1  A    between atoms: C2_2  and  O1_3 
REMARK    2  A    between atoms: O1_3  and  C3_4 
REMARK    3  A    between atoms: C4_5  and  O2_6 
REMARK    4  A    between atoms: C7_9  and  C8_10 
REMARK    5  A    between atoms: C19_26  and  O4_27 
ROOT
HETATM    1  C8  UNL     1       0.168   0.304  -1.216  1.00  0.00     0.131 C 
HETATM    2  N1  UNL     1       1.334   0.398  -0.700  1.00  0.00    -0.259 NA
HETATM    3  C9  UNL     1       2.242   1.418  -1.078  1.00  0.00     0.137 C 
HETATM    4  C10 UNL     1       2.085   1.989  -2.440  1.00  0.00     0.168 C 
HETATM    5  N2  UNL     1       0.655   2.261  -2.646  1.00  0.00    -0.352 N 
HETATM    6  C11 UNL     1      -0.278   1.232  -2.240  1.00  0.00     0.270 C 
HETATM    7  O3  UNL     1      -1.372   1.238  -2.802  1.00  0.00    -0.266 OA
HETATM    8  P1  UNL     1       4.034   0.841  -0.894  1.00  0.00     0.008 P 
HETATM    9  N3  UNL     1       4.084   1.240   0.892  1.00  0.00    -0.364 N 
HETATM   10  C12 UNL     1       3.260   2.398   0.986  1.00  0.00     0.040 A 
HETATM   11  C13 UNL     1       3.227   3.434   1.891  1.00  0.00     0.030 A 
HETATM   12  C14 UNL     1       2.398   4.532   1.919  1.00  0.00     0.002 A 
HETATM   13  C15 UNL     1       1.468   4.582   0.870  1.00  0.00     0.001 A 
HETATM   14  C16 UNL     1       1.455   3.571  -0.067  1.00  0.00     0.012 A 
HETATM   15  C17 UNL     1       2.322   2.498  -0.024  1.00  0.00     0.006 A 
HETATM   16  H10 UNL     1       0.256   3.133  -3.063  1.00  0.00     0.162 HD
HETATM   17  H11 UNL     1       4.914   1.746  -1.613  1.00  0.00     0.083 HD
HETATM   18  H12 UNL     1       4.548   0.827   1.755  1.00  0.00     0.164 HD
ENDROOT
BRANCH   1  19
HETATM   19  C7  UNL     1      -0.702  -0.771  -0.771  1.00  0.00     0.003 A 
HETATM   20  C6  UNL     1      -1.987  -1.091  -1.142  1.00  0.00     0.053 A 
HETATM   21  C4  UNL     1      -2.700  -2.145  -0.644  1.00  0.00     0.105 A 
HETATM   22  C3  UNL     1      -2.173  -2.995   0.296  1.00  0.00     0.141 A 
HETATM   23  C19 UNL     1      -0.890  -2.732   0.710  1.00  0.00     0.105 A 
HETATM   24  C18 UNL     1      -0.210  -1.668   0.190  1.00  0.00     0.053 A 
BRANCH  21  25
HETATM   25  O2  UNL     1      -3.990  -2.373  -1.093  1.00  0.00    -0.353 OA
HETATM   26  C5  UNL     1      -4.538  -1.507  -2.062  1.00  0.00     0.210 C 
ENDBRANCH  21  25
BRANCH  22  27
HETATM   27  O1  UNL     1      -2.891  -4.061   0.803  1.00  0.00    -0.318 OA
BRANCH  27  28
HETATM   28  C2  UNL     1      -3.673  -3.852   1.947  1.00  0.00     0.132 C 
HETATM   29  C1  UNL     1      -3.672  -3.042   3.018  1.00  0.00     0.037 C 
ENDBRANCH  27  28
ENDBRANCH  22  27
BRANCH  23  30
HETATM   30  O4  UNL     1      -0.307  -3.548   1.647  1.00  0.00    -0.353 OA
HETATM   31  C20 UNL     1       1.004  -3.372   2.141  1.00  0.00     0.210 C 
ENDBRANCH  23  30
ENDBRANCH   1  19
TORSDOF 5
