REMARK  9 active torsions:
REMARK  status: ('A' for Active; 'I' for Inactive)
REMARK    1  A    between atoms: O1_2  and  C2_3 
REMARK    2  A    between atoms: C2_3  and  C3_4 
REMARK    3  A    between atoms: C4_5  and  C5_6 
REMARK    4  A    between atoms: C5_6  and  C6_7 
REMARK    5  A    between atoms: C8_11  and  C9_12 
REMARK    6  A    between atoms: C10_13  and  N3_14 
REMARK    7  A    between atoms: N3_14  and  C11_15 
REMARK    8  A    between atoms: C18_24  and  O3_25 
REMARK    9  A    between atoms: C20_27  and  O4_28 
ROOT
HETATM    1  C6  UNL     1      -0.667   1.496  -1.759  1.00  0.00     0.155 A 
HETATM    2  N1  UNL     1      -0.825   1.085  -3.025  1.00  0.00    -0.135 NA
HETATM    3  N2  UNL     1       0.232   0.684  -3.756  1.00  0.00    -0.159 NA
HETATM    4  C7  UNL     1       1.469   0.707  -3.175  1.00  0.00     0.172 A 
HETATM    5  C8  UNL     1       1.646   1.127  -1.874  1.00  0.00     0.079 A 
HETATM    6  N4  UNL     1       0.546   1.514  -1.203  1.00  0.00    -0.230 NA
ENDROOT
BRANCH   1   7
HETATM    7  C5  UNL     1      -1.946   1.916  -1.064  1.00  0.00     0.148 C 
BRANCH   7   8
HETATM    8  C4  UNL     1      -2.610   0.681  -0.507  1.00  0.00     0.067 A 
HETATM    9  C3  UNL     1      -2.947   0.514   0.753  1.00  0.00     0.009 A 
HETATM   10  C20 UNL     1      -3.590  -0.815   1.064  1.00  0.00     0.213 A 
HETATM   11  C18 UNL     1      -3.674  -1.576  -0.196  1.00  0.00     0.101 A 
HETATM   12  C17 UNL     1      -3.336  -1.392  -1.452  1.00  0.00     0.177 A 
HETATM   13  O2  UNL     1      -2.753  -0.148  -1.596  1.00  0.00    -0.324 OA
BRANCH   9  14
HETATM   14  C2  UNL     1      -2.913   1.203   2.013  1.00  0.00     0.207 C 
BRANCH  14  15
HETATM   15  O1  UNL     1      -2.434   2.465   2.160  1.00  0.00    -0.392 OA
HETATM   16  C1  UNL     1      -3.211   3.504   1.734  1.00  0.00     0.201 C 
ENDBRANCH  14  15
ENDBRANCH   9  14
BRANCH  10  17
HETATM   17  O4  UNL     1      -4.821  -0.647   1.671  1.00  0.00    -0.379 OA
HETATM   18  C21 UNL     1      -4.822  -1.204   2.923  1.00  0.00     0.202 C 
ENDBRANCH  10  17
BRANCH  11  19
HETATM   19  O3  UNL     1      -4.291  -2.785   0.183  1.00  0.00    -0.355 OA
HETATM   20  C19 UNL     1      -5.702  -2.892  -0.058  1.00  0.00     0.209 C 
ENDBRANCH  11  19
ENDBRANCH   7   8
ENDBRANCH   1   7
BRANCH   5  21
HETATM   21  C9  UNL     1       2.949   1.165  -1.225  1.00  0.00     0.050 C 
HETATM   22  C10 UNL     1       4.042   0.799  -1.835  1.00  0.00     0.090 C 
BRANCH  22  23
HETATM   23  N3  UNL     1       5.320   0.842  -1.180  1.00  0.00    -0.368 N 
HETATM   24  H11 UNL     1       5.676   1.834  -1.125  1.00  0.00     0.165 HD
BRANCH  23  25
HETATM   25  C11 UNL     1       6.034  -0.274  -0.664  1.00  0.00     0.023 C 
HETATM   26  C12 UNL     1       6.415  -1.300  -1.362  1.00  0.00    -0.001 C 
HETATM   27  C13 UNL     1       7.491  -1.980  -1.105  1.00  0.00     0.014 C 
HETATM   28  C14 UNL     1       8.179  -1.736   0.150  1.00  0.00    -0.003 C 
HETATM   29  C15 UNL     1       7.658  -0.914   1.068  1.00  0.00    -0.021 C 
HETATM   30  C16 UNL     1       6.361  -0.240   0.803  1.00  0.00     0.085 C 
ENDBRANCH  23  25
ENDBRANCH  22  23
ENDBRANCH   5  21
TORSDOF 9
