REMARK  4 active torsions:
REMARK  status: ('A' for Active; 'I' for Inactive)
REMARK    1  A    between atoms: C14_17  and  O1_18 
REMARK    2  A    between atoms: O1_18  and  C15_19 
REMARK    3  A    between atoms: C15_19  and  C16_20 
REMARK    4  A    between atoms: C16_20  and  C17_21 
ROOT
HETATM    1  C1  UNL     1       2.239  -3.728   2.600  1.00  0.00     0.143 C 
HETATM    2  N1  UNL     1       0.954  -3.183   2.249  1.00  0.00    -0.413 N 
HETATM    3  C2  UNL     1       0.232  -2.608   3.296  1.00  0.00     0.136 C 
HETATM    4  C3  UNL     1      -0.742  -1.529   3.056  1.00  0.00     0.137 C 
HETATM    5  N2  UNL     1      -1.070  -1.541   1.590  1.00  0.00    -0.393 N 
HETATM    6  C4  UNL     1      -2.205  -1.712   0.705  1.00  0.00     0.129 C 
HETATM    7  C5  UNL     1      -3.236  -2.537   0.549  1.00  0.00     0.001 C 
HETATM    8  C6  UNL     1      -3.881  -1.911  -0.661  1.00  0.00     0.015 C 
HETATM    9  C7  UNL     1      -4.044  -1.042  -1.653  1.00  0.00     0.085 C 
HETATM   10  N3  UNL     1      -4.137  -0.045  -2.702  1.00  0.00    -0.365 N 
HETATM   11  C8  UNL     1      -3.289   1.138  -2.829  1.00  0.00     0.226 C 
HETATM   12  C9  UNL     1      -4.166   2.355  -2.677  1.00  0.00     0.073 C 
HETATM   13  C10 UNL     1      -2.444   1.166  -4.064  1.00  0.00     0.066 C 
HETATM   14  C11 UNL     1      -0.991   1.054  -3.529  1.00  0.00     0.040 C 
HETATM   15  C12 UNL     1      -1.339   0.131  -2.336  1.00  0.00     0.231 C 
HETATM   16  C13 UNL     1      -0.193  -0.100  -1.495  1.00  0.00     0.138 C 
HETATM   17  C14 UNL     1       0.186  -0.638  -0.348  1.00  0.00     0.070 C 
HETATM   18  C22 UNL     1       0.238  -1.311   0.938  1.00  0.00     0.127 C 
HETATM   19  C23 UNL     1       0.859  -2.690   0.927  1.00  0.00     0.144 C 
HETATM   20  N5  UNL     1      -2.344   1.012  -1.713  1.00  0.00     0.117 N 
HETATM   21  H12 UNL     1      -4.879  -0.714  -2.938  1.00  0.00     0.161 HD
HETATM   22  H31 UNL     1      -1.884   1.955  -1.629  1.00  0.00     0.319 HD
ENDROOT
BRANCH  17  23
HETATM   23  O1  UNL     1       1.451  -0.162  -0.797  1.00  0.00    -0.383 OA
BRANCH  23  24
HETATM   24  C15 UNL     1       2.088   0.815  -0.011  1.00  0.00     0.173 C 
BRANCH  24  25
HETATM   25  C16 UNL     1       3.305   1.379  -0.741  1.00  0.00     0.068 C 
BRANCH  25  26
HETATM   26  C17 UNL     1       3.928   2.404   0.146  1.00  0.00    -0.010 A 
HETATM   27  C18 UNL     1       3.413   3.686   0.323  1.00  0.00     0.059 A 
HETATM   28 CL1  UNL     1       1.967   4.106  -0.549  1.00  0.00    -0.082 Cl
HETATM   29  C19 UNL     1       4.041   4.589   1.171  1.00  0.00     0.140 A 
HETATM   30  N4  UNL     1       5.159   4.257   1.844  1.00  0.00    -0.270 NA
HETATM   31  C20 UNL     1       5.698   3.043   1.714  1.00  0.00     0.140 A 
HETATM   32  C21 UNL     1       5.070   2.132   0.862  1.00  0.00     0.059 A 
HETATM   33 CL2  UNL     1       5.815   0.531   0.717  1.00  0.00    -0.082 Cl
ENDBRANCH  25  26
ENDBRANCH  24  25
ENDBRANCH  23  24
ENDBRANCH  17  23
TORSDOF 4
