REMARK  5 active torsions:
REMARK  status: ('A' for Active; 'I' for Inactive)
REMARK    1  A    between atoms: C2_2  and  O1_3 
REMARK    2  A    between atoms: C2_2  and  C11_15 
REMARK    3  A    between atoms: O1_3  and  C3_4 
REMARK    4  A    between atoms: C6_7  and  N1_8 
REMARK    5  A    between atoms: N1_8  and  N2_9 
ROOT
HETATM    1  C3  UNL     1      -0.243  -1.121   0.195  1.00  0.00     0.069 A 
HETATM    2  C4  UNL     1       0.477  -1.816   1.160  1.00  0.00     0.039 A 
HETATM    3  C5  UNL     1       1.870  -1.809   1.149  1.00  0.00     0.034 A 
HETATM    4  C6  UNL     1       2.576  -1.119   0.189  1.00  0.00     0.050 A 
HETATM    5  C9  UNL     1       1.886  -0.418  -0.782  1.00  0.00     0.034 A 
HETATM    6  C10 UNL     1       0.507  -0.453  -0.733  1.00  0.00     0.039 A 
ENDROOT
BRANCH   1   7
HETATM    7  O1  UNL     1      -1.608  -1.159   0.249  1.00  0.00    -0.342 OA
BRANCH   7   8
HETATM    8  C2  UNL     1      -2.523  -0.547  -0.599  1.00  0.00     0.161 C 
HETATM    9  C1  UNL     1      -3.375  -1.603  -1.272  1.00  0.00     0.045 C 
BRANCH   8  10
HETATM   10  C11 UNL     1      -3.390   0.448   0.126  1.00  0.00     0.017 A 
HETATM   11  C12 UNL     1      -3.861   1.600  -0.511  1.00  0.00     0.062 A 
HETATM   12 CL1  UNL     1      -3.366   1.784  -2.192  1.00  0.00    -0.082 Cl
HETATM   13  C13 UNL     1      -4.653   2.523   0.127  1.00  0.00     0.140 A 
HETATM   14  N4  UNL     1      -4.976   2.289   1.419  1.00  0.00    -0.270 NA
HETATM   15  C14 UNL     1      -4.519   1.171   2.037  1.00  0.00     0.140 A 
HETATM   16  C15 UNL     1      -3.726   0.220   1.442  1.00  0.00     0.062 A 
HETATM   17 CL2  UNL     1      -3.180  -1.201   2.324  1.00  0.00    -0.082 Cl
ENDBRANCH   8  10
ENDBRANCH   7   8
ENDBRANCH   1   7
BRANCH   4  18
HETATM   18  N1  UNL     1       4.006  -1.131   0.205  1.00  0.00    -0.277 N 
HETATM   19  H7  UNL     1       4.510  -1.653   0.930  1.00  0.00     0.189 HD
BRANCH  18  20
HETATM   20  N2  UNL     1       4.702  -0.431  -0.766  1.00  0.00    -0.159 NA
HETATM   21  C7  UNL     1       5.393   0.645  -0.488  1.00  0.00     0.138 A 
HETATM   22  C8  UNL     1       6.030   1.770   0.205  1.00  0.00     0.201 A 
HETATM   23  N3  UNL     1       6.189   1.553  -1.244  1.00  0.00    -0.368 N 
HETATM   24  H10 UNL     1       6.687   2.027  -2.030  1.00  0.00     0.161 HD
ENDBRANCH  18  20
ENDBRANCH   4  18
TORSDOF 5
