REMARK  2 active torsions:
REMARK  status: ('A' for Active; 'I' for Inactive)
REMARK    1  A    between atoms: C9_9  and  O1_10 
REMARK    2  A    between atoms: O1_10  and  C10_11 
ROOT
HETATM    1  C1  UNL     1      -3.707  -0.418   1.909  1.00  0.00     0.038 C 
HETATM    2  C2  UNL     1      -3.849   0.565   0.808  1.00  0.00    -0.006 C 
HETATM    3  C3  UNL     1      -3.049   0.728  -0.226  1.00  0.00     0.012 C 
HETATM    4  C4  UNL     1      -2.090  -0.315   0.108  1.00  0.00     0.052 C 
HETATM    5  C5  UNL     1      -0.968  -0.909  -0.300  1.00  0.00     0.041 C 
HETATM    6  C6  UNL     1       0.231  -1.243  -1.122  1.00  0.00     0.259 C 
HETATM    7  C7  UNL     1       1.480  -1.203  -0.376  1.00  0.00    -0.009 C 
HETATM    8  C8  UNL     1       2.118  -0.223   0.224  1.00  0.00     0.044 C 
HETATM    9  C9  UNL     1       1.736   1.156   0.318  1.00  0.00     0.068 C 
HETATM   10  C12 UNL     1       1.041   2.258   0.166  1.00  0.00     0.035 C 
HETATM   11  C13 UNL     1       0.420   3.566   0.104  1.00  0.00     0.005 C 
HETATM   12  C14 UNL     1      -0.725   3.677  -0.532  1.00  0.00     0.159 C 
HETATM   13  N1  UNL     1      -1.615   4.690  -0.812  1.00  0.00    -0.286 NA
HETATM   14  C15 UNL     1      -2.854   4.312  -1.072  1.00  0.00     0.161 C 
HETATM   15  C16 UNL     1      -3.716   3.124  -1.190  1.00  0.00     0.137 C 
HETATM   16  N2  UNL     1      -4.878   2.609  -1.400  1.00  0.00    -0.283 NA
HETATM   17  N3  UNL     1      -3.402   1.753  -1.148  1.00  0.00    -0.344 N 
HETATM   18  C17 UNL     1       1.916  -2.621  -0.428  1.00  0.00     0.282 C 
HETATM   19  C18 UNL     1       1.498  -2.969  -1.856  1.00  0.00     0.313 C 
HETATM   20  N4  UNL     1       0.115  -2.499  -1.811  1.00  0.00     0.101 N 
HETATM   21  C19 UNL     1      -0.635  -3.509  -1.132  1.00  0.00     0.303 C 
HETATM   22  C20 UNL     1       0.186  -4.295  -0.146  1.00  0.00     0.303 C 
HETATM   23  N5  UNL     1       1.143  -3.446   0.486  1.00  0.00     0.096 N 
HETATM   24  C21 UNL     1       1.977  -4.238   1.367  1.00  0.00     0.310 C 
HETATM   25  H18 UNL     1      -5.662   3.260  -1.589  1.00  0.00     0.188 HD
HETATM   26  H19 UNL     1      -3.290   0.931  -1.828  1.00  0.00     0.167 HD
ENDROOT
BRANCH   9  27
HETATM   27  O1  UNL     1       2.500   2.097   0.979  1.00  0.00    -0.352 OA
BRANCH  27  28
HETATM   28  C10 UNL     1       3.832   2.410   0.713  1.00  0.00     0.171 C 
HETATM   29  C11 UNL     1       4.455   3.460   1.554  1.00  0.00     0.034 C 
ENDBRANCH  27  28
ENDBRANCH   9  27
TORSDOF 2
