REMARK  6 active torsions:
REMARK  status: ('A' for Active; 'I' for Inactive)
REMARK    1  A    between atoms: C2_2  and  C3_3 
REMARK    2  A    between atoms: C4_4  and  C5_5 
REMARK    3  A    between atoms: C6_6  and  C7_7 
REMARK    4  A    between atoms: C7_7  and  C8_8 
REMARK    5  A    between atoms: C8_8  and  C9_9 
REMARK    6  A    between atoms: C15_15  and  C16_16 
ROOT
HETATM    1  C9  UNL     1      -1.206  -0.228  -0.322  1.00  0.00     0.040 C 
HETATM    2  C10 UNL     1      -1.549  -1.386  -1.168  1.00  0.00    -0.018 C 
HETATM    3  C11 UNL     1      -2.157  -2.549  -0.909  1.00  0.00    -0.003 C 
HETATM    4  C12 UNL     1      -2.644  -2.906   0.437  1.00  0.00    -0.000 C 
HETATM    5  C13 UNL     1      -3.038  -2.088   1.428  1.00  0.00     0.000 C 
HETATM    6  C14 UNL     1      -3.062  -0.612   1.360  1.00  0.00     0.006 C 
HETATM    7  C15 UNL     1      -2.278   0.181   0.612  1.00  0.00    -0.041 C 
ENDROOT
BRANCH   7   8
HETATM    8  C16 UNL     1      -2.575   1.633   0.789  1.00  0.00     0.209 C 
HETATM    9  N1  UNL     1      -3.105   2.188  -0.464  1.00  0.00    -0.326 N 
HETATM   10  C17 UNL     1      -4.520   1.981  -0.398  1.00  0.00     0.323 C 
HETATM   11  H19 UNL     1      -2.689   2.652  -1.301  1.00  0.00     0.165 HD
HETATM   12  O1  UNL     1      -5.441   1.954  -1.255  1.00  0.00    -0.247 OA
HETATM   13  N2  UNL     1      -4.880   1.769   0.973  1.00  0.00    -0.277 N 
HETATM   14  C18 UNL     1      -3.688   1.842   1.771  1.00  0.00     0.252 C 
HETATM   15  H20 UNL     1      -5.816   1.583   1.436  1.00  0.00     0.173 HD
HETATM   16  O2  UNL     1      -3.576   2.037   3.023  1.00  0.00    -0.270 OA
ENDBRANCH   7   8
BRANCH   1  17
HETATM   17  C8  UNL     1       0.081  -0.572   0.403  1.00  0.00     0.017 C 
BRANCH  17  18
HETATM   18  C7  UNL     1       1.107  -0.818  -0.711  1.00  0.00     0.028 C 
BRANCH  18  19
HETATM   19  C6  UNL     1       2.426  -1.167  -0.153  1.00  0.00    -0.027 C 
HETATM   20  C5  UNL     1       3.616  -0.599  -0.255  1.00  0.00    -0.004 C 
BRANCH  20  21
HETATM   21  C4  UNL     1       3.814   0.611  -1.037  1.00  0.00    -0.000 C 
HETATM   22  C3  UNL     1       5.024   1.175  -1.131  1.00  0.00    -0.001 C 
BRANCH  22  23
HETATM   23  C2  UNL     1       6.208   0.657  -0.490  1.00  0.00    -0.010 C 
HETATM   24  C1  UNL     1       7.373   1.240  -0.608  1.00  0.00     0.011 C 
ENDBRANCH  22  23
ENDBRANCH  20  21
ENDBRANCH  18  19
ENDBRANCH  17  18
ENDBRANCH   1  17
TORSDOF 6
