REMARK  6 active torsions:
REMARK  status: ('A' for Active; 'I' for Inactive)
REMARK    1  A    between atoms: C3_3  and  C4_4 
REMARK    2  A    between atoms: C3_3  and  C16_21 
REMARK    3  A    between atoms: C4_4  and  C5_5 
REMARK    4  A    between atoms: C5_5  and  N1_6 
REMARK    5  A    between atoms: C9_13  and  C10_14 
REMARK    6  A    between atoms: C13_17  and  O3_18 
ROOT
HETATM    1  N1  UNL     1      -0.420  -1.077  -0.583  1.00  0.00    -0.294 N 
HETATM    2  C6  UNL     1      -1.012  -1.011  -1.870  1.00  0.00     0.330 A 
HETATM    3  O1  UNL     1      -2.162  -1.455  -2.118  1.00  0.00    -0.246 OA
HETATM    4  N2  UNL     1      -0.181  -0.397  -2.846  1.00  0.00    -0.273 N 
HETATM    5  C7  UNL     1       1.011  -0.047  -2.155  1.00  0.00     0.276 A 
HETATM    6  O2  UNL     1       1.929   0.522  -2.797  1.00  0.00    -0.266 OA
HETATM    7  C8  UNL     1       0.863  -0.466  -0.767  1.00  0.00     0.108 A 
HETATM    8  C9  UNL     1       1.772  -0.280   0.162  1.00  0.00     0.047 C 
HETATM    9  H9  UNL     1      -0.449  -0.259  -3.854  1.00  0.00     0.173 HD
ENDROOT
BRANCH   1  10
HETATM   10  C5  UNL     1      -0.878  -1.598   0.679  1.00  0.00     0.139 C 
BRANCH  10  11
HETATM   11  C4  UNL     1      -1.608  -0.597   1.529  1.00  0.00     0.059 C 
BRANCH  11  12
HETATM   12  C3  UNL     1      -2.825  -0.052   0.901  1.00  0.00    -0.054 C 
HETATM   13  C2  UNL     1      -2.952   1.264   0.661  1.00  0.00    -0.023 C 
HETATM   14  C1  UNL     1      -4.124   1.925   0.037  1.00  0.00     0.036 C 
BRANCH  12  15
HETATM   15  C16 UNL     1      -3.952  -0.925   0.519  1.00  0.00    -0.052 A 
HETATM   16  C17 UNL     1      -4.412  -2.211   0.494  1.00  0.00    -0.014 A 
HETATM   17  C18 UNL     1      -5.272  -1.163  -0.038  1.00  0.00     0.066 A 
ENDBRANCH  12  15
ENDBRANCH  11  12
ENDBRANCH  10  11
ENDBRANCH   1  10
BRANCH   8  18
HETATM   18  C10 UNL     1       3.107   0.285   0.261  1.00  0.00    -0.034 A 
HETATM   19  C11 UNL     1       3.515   1.170   1.266  1.00  0.00     0.014 A 
HETATM   20  C12 UNL     1       4.805   1.643   1.298  1.00  0.00     0.037 A 
HETATM   21  C13 UNL     1       5.697   1.239   0.330  1.00  0.00     0.065 A 
HETATM   22  C14 UNL     1       5.323   0.369  -0.671  1.00  0.00     0.037 A 
HETATM   23  C15 UNL     1       4.006  -0.102  -0.686  1.00  0.00     0.014 A 
BRANCH  21  24
HETATM   24  O3  UNL     1       6.980   1.754   0.422  1.00  0.00    -0.361 OA
HETATM   25  H13 UNL     1       7.658   1.246   0.968  1.00  0.00     0.217 HD
ENDBRANCH  21  24
ENDBRANCH   8  18
TORSDOF 6
