REMARK  9 active torsions:
REMARK  status: ('A' for Active; 'I' for Inactive)
REMARK    1  A    between atoms: N1_1  and  C1_2 
REMARK    2  A    between atoms: C1_2  and  C2_3 
REMARK    3  A    between atoms: C2_3  and  N2_12 
REMARK    4  A    between atoms: C3_4  and  C4_5 
REMARK    5  A    between atoms: C7_8  and  O1_9 
REMARK    6  A    between atoms: N2_12  and  C10_13 
REMARK    7  A    between atoms: N2_12  and  C11_15 
REMARK    8  A    between atoms: C11_15  and  C12_16 
REMARK    9  A    between atoms: C12_16  and  C13_17 
ROOT
HETATM    1  C2  UNL     1      -1.072   0.290   0.597  1.00  0.00     0.041 C 
HETATM    2  C3  UNL     1      -1.550   1.157  -0.272  1.00  0.00     0.038 C 
ENDROOT
BRANCH   1   3
HETATM    3  C1  UNL     1      -1.788  -0.802   1.297  1.00  0.00     0.323 C 
BRANCH   3   4
HETATM    4  N1  UNL     1      -1.188  -2.083   0.934  1.00  0.00     0.083 N 
HETATM    5  H1  UNL     1      -1.977  -2.721   0.603  1.00  0.00     0.313 HD
HETATM    6  H2  UNL     1      -0.617  -1.948   0.044  1.00  0.00     0.313 HD
ENDBRANCH   3   4
ENDBRANCH   1   3
BRANCH   1   7
HETATM    7  N2  UNL     1       0.294   0.382   0.941  1.00  0.00    -0.338 N 
BRANCH   7   8
HETATM    8  C10 UNL     1       0.324   1.702   1.466  1.00  0.00     0.476 C 
HETATM    9  O2  UNL     1       0.640   2.818   1.975  1.00  0.00    -0.392 OA
ENDBRANCH   7   8
BRANCH   7  10
HETATM   10  C11 UNL     1       1.569  -0.280   0.979  1.00  0.00     0.135 C 
BRANCH  10  11
HETATM   11  C12 UNL     1       2.421  -0.076  -0.243  1.00  0.00     0.058 C 
BRANCH  11  12
HETATM   12  C13 UNL     1       3.716  -0.828  -0.059  1.00  0.00    -0.057 A 
HETATM   13  C14 UNL     1       4.790  -0.186   0.541  1.00  0.00     0.007 A 
HETATM   14  C15 UNL     1       5.998  -0.845   0.731  1.00  0.00     0.001 A 
HETATM   15  C16 UNL     1       6.164  -2.149   0.330  1.00  0.00     0.000 A 
HETATM   16  C17 UNL     1       5.107  -2.783  -0.262  1.00  0.00     0.001 A 
HETATM   17  C18 UNL     1       3.896  -2.136  -0.457  1.00  0.00     0.007 A 
ENDBRANCH  11  12
ENDBRANCH  10  11
ENDBRANCH   7  10
ENDBRANCH   1   7
BRANCH   2  18
HETATM   18  C4  UNL     1      -2.880   1.308  -0.801  1.00  0.00    -0.034 A 
HETATM   19  C5  UNL     1      -3.577   0.162  -1.180  1.00  0.00     0.014 A 
HETATM   20  C6  UNL     1      -4.859   0.191  -1.683  1.00  0.00     0.037 A 
HETATM   21  C7  UNL     1      -5.497   1.401  -1.827  1.00  0.00     0.065 A 
HETATM   22  C8  UNL     1      -4.807   2.530  -1.453  1.00  0.00     0.037 A 
HETATM   23  C9  UNL     1      -3.507   2.554  -0.937  1.00  0.00     0.014 A 
BRANCH  21  24
HETATM   24  O1  UNL     1      -6.801   1.538  -2.329  1.00  0.00    -0.361 OA
HETATM   25  H8  UNL     1      -7.471   1.954  -1.661  1.00  0.00     0.217 HD
ENDBRANCH  21  24
ENDBRANCH   2  18
TORSDOF 9
