REMARK  7 active torsions:
REMARK  status: ('A' for Active; 'I' for Inactive)
REMARK    1  A    between atoms: C3_3  and  O1_4 
REMARK    2  A    between atoms: C8_9  and  C9_10 
REMARK    3  A    between atoms: C8_9  and  N1_12 
REMARK    4  A    between atoms: N1_12  and  C10_13 
REMARK    5  A    between atoms: N1_12  and  C11_15 
REMARK    6  A    between atoms: C11_15  and  C12_16 
REMARK    7  A    between atoms: C12_16  and  C13_17 
ROOT
HETATM    1  C1  UNL     1      -2.273   0.795  -2.245  1.00  0.00     0.022 C 
HETATM    2  C2  UNL     1      -2.886   1.097  -0.861  1.00  0.00     0.073 A 
HETATM    3  C3  UNL     1      -4.239   0.477  -0.931  1.00  0.00     0.051 A 
HETATM    4  C4  UNL     1      -4.892  -0.567  -0.379  1.00  0.00     0.033 A 
HETATM    5  C5  UNL     1      -3.983  -1.244   0.535  1.00  0.00     0.003 A 
HETATM    6  C6  UNL     1      -2.744  -0.845   0.740  1.00  0.00     0.010 A 
HETATM    7  C7  UNL     1      -2.099   0.295   0.115  1.00  0.00    -0.018 A 
HETATM    8  C8  UNL     1      -0.894   0.555   0.531  1.00  0.00     0.081 C 
ENDROOT
BRANCH   8   9
HETATM    9  C9  UNL     1      -0.535   1.841  -0.200  1.00  0.00     0.288 C 
HETATM   10  O2  UNL     1       0.478   2.547  -0.200  1.00  0.00    -0.300 OA
ENDBRANCH   8   9
BRANCH   8  11
HETATM   11  N1  UNL     1       0.301   0.164   1.184  1.00  0.00    -0.322 N 
BRANCH  11  12
HETATM   12  C10 UNL     1       1.318   1.077   1.559  1.00  0.00     0.355 C 
HETATM   13  O3  UNL     1       2.037   2.053   1.780  1.00  0.00    -0.283 OA
ENDBRANCH  11  12
BRANCH  11  14
HETATM   14  C11 UNL     1       0.666  -1.221   1.423  1.00  0.00     0.136 C 
BRANCH  14  15
HETATM   15  C12 UNL     1       1.406  -1.747   0.185  1.00  0.00     0.058 C 
BRANCH  15  16
HETATM   16  C13 UNL     1       2.698  -1.036  -0.047  1.00  0.00    -0.057 A 
HETATM   17  C14 UNL     1       3.759  -1.708   0.601  1.00  0.00     0.007 A 
HETATM   18  C15 UNL     1       4.974  -1.048   0.363  1.00  0.00     0.001 A 
HETATM   19  C16 UNL     1       5.269   0.073  -0.354  1.00  0.00     0.000 A 
HETATM   20  C17 UNL     1       4.141   0.654  -0.952  1.00  0.00     0.001 A 
HETATM   21  C18 UNL     1       2.862   0.095  -0.795  1.00  0.00     0.007 A 
ENDBRANCH  15  16
ENDBRANCH  14  15
ENDBRANCH  11  14
ENDBRANCH   8  11
BRANCH   3  22
HETATM   22  O1  UNL     1      -4.947   1.271  -1.850  1.00  0.00    -0.364 OA
HETATM   23  H5  UNL     1      -5.082   2.254  -1.721  1.00  0.00     0.217 HD
ENDBRANCH   3  22
TORSDOF 7
