REMARK  9 active torsions:
REMARK  status: ('A' for Active; 'I' for Inactive)
REMARK    1  A    between atoms: N1_2  and  C2_3 
REMARK    2  A    between atoms: N1_2  and  C13_18 
REMARK    3  A    between atoms: C2_3  and  B1_4 
REMARK    4  A    between atoms: B1_4  and  C3_5 
REMARK    5  A    between atoms: C3_5  and  N2_6 
REMARK       I    between atoms: N2_6  and  C4_7 
REMARK    6  A    between atoms: C4_7  and  C5_9 
REMARK    7  A    between atoms: C6_10  and  C7_11 
REMARK    8  A    between atoms: C10_14  and  O2_15 
REMARK    9  A    between atoms: C18_23  and  O3_24 
ROOT
HETATM    1  N2  UNL     1       0.939  -2.569   0.538  1.00  0.00    -0.366 N 
HETATM    2  C4  UNL     1       1.609  -1.322   0.305  1.00  0.00     0.240 C 
HETATM    3  O1  UNL     1       1.498  -0.944   1.526  1.00  0.00    -0.269 OA
HETATM    4  H7  UNL     1       0.788  -3.268  -0.264  1.00  0.00     0.161 HD
ENDROOT
BRANCH   1   5
HETATM    5  C3  UNL     1       0.484  -2.817   1.909  1.00  0.00     0.067 C 
BRANCH   5   6
HETATM    6  B1  UNL     1      -0.645  -1.508   2.359  1.00  0.00     0.214 B 
BRANCH   6   7
HETATM    7  C2  UNL     1      -2.018  -0.417   2.632  1.00  0.00     0.000 C 
BRANCH   7   8
HETATM    8  N1  UNL     1      -3.140  -1.065   2.014  1.00  0.00    -0.374 N 
HETATM    9  C1  UNL     1      -4.018  -1.922   2.790  1.00  0.00     0.154 C 
BRANCH   8  10
HETATM   10  C13 UNL     1      -3.280  -0.779   0.611  1.00  0.00     0.066 A 
HETATM   11  C14 UNL     1      -4.354  -1.403   0.021  1.00  0.00     0.032 A 
HETATM   12  C15 UNL     1      -4.600  -1.206  -1.340  1.00  0.00     0.002 A 
HETATM   13  C16 UNL     1      -3.747  -0.385  -2.047  1.00  0.00     0.003 A 
HETATM   14  C17 UNL     1      -2.658   0.249  -1.454  1.00  0.00     0.039 A 
HETATM   15  C18 UNL     1      -2.442   0.039  -0.122  1.00  0.00     0.092 A 
BRANCH  15  16
HETATM   16  O3  UNL     1      -1.405   0.599   0.602  1.00  0.00    -0.358 OA
HETATM   17  H19 UNL     1      -0.504   0.813   0.201  1.00  0.00     0.217 HD
ENDBRANCH  15  16
ENDBRANCH   8  10
ENDBRANCH   7   8
ENDBRANCH   6   7
ENDBRANCH   5   6
ENDBRANCH   1   5
BRANCH   2  18
HETATM   18  C5  UNL     1       2.096  -0.995  -1.029  1.00  0.00     0.075 C 
HETATM   19  C6  UNL     1       2.725  -0.008  -1.622  1.00  0.00     0.017 C 
BRANCH  19  20
HETATM   20  C7  UNL     1       3.250   1.266  -1.199  1.00  0.00    -0.036 A 
HETATM   21  C8  UNL     1       3.882   2.107  -2.095  1.00  0.00     0.014 A 
HETATM   22  C9  UNL     1       4.406   3.332  -1.771  1.00  0.00     0.037 A 
HETATM   23  C10 UNL     1       4.314   3.784  -0.477  1.00  0.00     0.065 A 
HETATM   24  C11 UNL     1       3.702   3.016   0.481  1.00  0.00     0.037 A 
HETATM   25  C12 UNL     1       3.207   1.803   0.063  1.00  0.00     0.014 A 
BRANCH  23  26
HETATM   26  O2  UNL     1       4.850   5.026  -0.172  1.00  0.00    -0.361 OA
HETATM   27  H12 UNL     1       4.605   5.771  -0.843  1.00  0.00     0.217 HD
ENDBRANCH  23  26
ENDBRANCH  19  20
ENDBRANCH   2  18
TORSDOF 9
