REMARK  2 active torsions:
REMARK  status: ('A' for Active; 'I' for Inactive)
REMARK    1  A    between atoms: C10_15  and  C11_16 
REMARK    2  A    between atoms: C11_16  and  C12_17 
ROOT
HETATM    1  C1  UNL     1      -0.073   3.419   0.578  1.00  0.00     0.319 C 
HETATM    2  N1  UNL     1      -0.534   2.090   0.162  1.00  0.00     0.128 N 
HETATM    3  C2  UNL     1      -1.594   2.736  -0.740  1.00  0.00     0.581 A 
HETATM    4  O1  UNL     1      -1.368   1.691  -0.370  1.00  0.00    -0.114 OA
HETATM    5  N2  UNL     1      -2.741   1.968  -1.406  1.00  0.00     0.174 N 
HETATM    6  C3  UNL     1      -3.867   1.141  -2.037  1.00  0.00     0.431 A 
HETATM    7  O2  UNL     1      -3.506   2.267  -2.212  1.00  0.00    -0.130 OA
HETATM    8  C4  UNL     1      -3.839  -0.086  -1.455  1.00  0.00    -0.025 C 
HETATM    9  C5  UNL     1      -3.799  -1.056  -0.980  1.00  0.00    -0.087 C 
HETATM   10  C6  UNL     1      -3.728  -2.244  -0.385  1.00  0.00     0.073 A 
HETATM   11  O3  UNL     1      -3.077  -3.115   0.424  1.00  0.00     0.000 OA
HETATM   12  C7  UNL     1      -2.542  -1.727   0.117  1.00  0.00     0.041 A 
HETATM   13  C8  UNL     1      -1.239  -1.290   0.728  1.00  0.00    -0.021 C 
HETATM   14  C9  UNL     1      -0.298  -0.334   0.885  1.00  0.00     0.006 C 
HETATM   15  C10 UNL     1       0.289   0.936   0.689  1.00  0.00     0.256 C 
HETATM   16  H4  UNL     1      -2.694   2.979  -1.688  1.00  0.00     0.330 HD
HETATM   17  H5  UNL     1      -3.421  -4.088   0.389  1.00  0.00     0.000 HD
ENDROOT
BRANCH  15  18
HETATM   18  C11 UNL     1       1.458   0.787  -0.338  1.00  0.00     0.079 C 
BRANCH  18  19
HETATM   19  C12 UNL     1       2.303  -0.312   0.109  1.00  0.00    -0.056 A 
HETATM   20  C13 UNL     1       2.025  -1.569  -0.325  1.00  0.00     0.007 A 
HETATM   21  C14 UNL     1       2.775  -2.655   0.055  1.00  0.00     0.001 A 
HETATM   22  C15 UNL     1       3.859  -2.490   0.910  1.00  0.00     0.000 A 
HETATM   23  C16 UNL     1       4.159  -1.206   1.366  1.00  0.00     0.001 A 
HETATM   24  C17 UNL     1       3.378  -0.136   0.959  1.00  0.00     0.007 A 
ENDBRANCH  18  19
ENDBRANCH  15  18
TORSDOF 2
