REMARK  6 active torsions:
REMARK  status: ('A' for Active; 'I' for Inactive)
REMARK    1  A    between atoms: C2_2  and  C3_3 
REMARK    2  A    between atoms: C5_7  and  N3_8 
REMARK    3  A    between atoms: N3_8  and  C6_9 
REMARK    4  A    between atoms: C12_17  and  C13_18 
REMARK    5  A    between atoms: C13_18  and  C14_19 
REMARK    6  A    between atoms: C14_19  and  C15_20 
ROOT
HETATM    1  C3  UNL     1      -0.066   3.294  -0.457  1.00  0.00     0.067 A 
HETATM    2  N1  UNL     1      -1.130   4.092  -0.694  1.00  0.00    -0.241 NA
HETATM    3  C4  UNL     1      -2.343   3.786  -0.254  1.00  0.00     0.235 A 
HETATM    4  N2  UNL     1      -2.584   2.678   0.447  1.00  0.00    -0.224 NA
HETATM    5  C5  UNL     1      -1.593   1.833   0.728  1.00  0.00     0.141 A 
HETATM    6  C12 UNL     1      -0.316   2.157   0.264  1.00  0.00     0.035 A 
ENDROOT
BRANCH   5   7
HETATM    7  N3  UNL     1      -1.879   0.662   1.473  1.00  0.00    -0.340 N 
HETATM    8  H6  UNL     1      -1.782   0.948   2.476  1.00  0.00     0.167 HD
BRANCH   7   9
HETATM    9  C6  UNL     1      -2.227  -0.644   1.027  1.00  0.00     0.035 A 
HETATM   10  C7  UNL     1      -2.459  -1.648   1.929  1.00  0.00     0.032 A 
HETATM   11  C8  UNL     1      -2.790  -2.889   1.410  1.00  0.00     0.046 A 
HETATM   12  C9  UNL     1      -2.872  -3.068   0.043  1.00  0.00     0.138 A 
HETATM   13  F1  UNL     1      -3.200  -4.308  -0.392  1.00  0.00    -0.204 F 
HETATM   14  C10 UNL     1      -2.632  -2.032  -0.858  1.00  0.00     0.074 A 
HETATM   15 CL1  UNL     1      -2.769  -2.399  -2.556  1.00  0.00    -0.081 Cl
HETATM   16  C11 UNL     1      -2.304  -0.801  -0.334  1.00  0.00     0.056 A 
ENDBRANCH   7   9
ENDBRANCH   5   7
BRANCH   6  17
HETATM   17  C13 UNL     1       0.728   1.379   0.562  1.00  0.00    -0.004 C 
BRANCH  17  18
HETATM   18  C14 UNL     1       1.987   0.718   0.756  1.00  0.00     0.069 C 
BRANCH  18  19
HETATM   19  C15 UNL     1       2.173  -0.527  -0.077  1.00  0.00    -0.018 A 
HETATM   20  C16 UNL     1       2.731  -0.754  -1.315  1.00  0.00     0.147 A 
HETATM   21  N4  UNL     1       2.623  -2.063  -1.574  1.00  0.00    -0.185 NA
HETATM   22  N5  UNL     1       2.017  -2.676  -0.547  1.00  0.00    -0.285 N 
HETATM   23  C17 UNL     1       1.728  -4.102  -0.475  1.00  0.00     0.179 C 
HETATM   24  C18 UNL     1       1.717  -1.754   0.414  1.00  0.00     0.120 A 
ENDBRANCH  18  19
ENDBRANCH  17  18
ENDBRANCH   6  17
BRANCH   1  25
HETATM   25  C2  UNL     1       1.047   3.745  -0.987  1.00  0.00     0.002 C 
HETATM   26  C1  UNL     1       2.479   3.423  -1.125  1.00  0.00     0.038 C 
ENDBRANCH   1  25
TORSDOF 6
