REMARK  6 active torsions:
REMARK  status: ('A' for Active; 'I' for Inactive)
REMARK    1  A    between atoms: N1_2  and  C2_3 
REMARK    2  A    between atoms: C5_6  and  O1_7 
REMARK    3  A    between atoms: O1_7  and  C6_8 
REMARK    4  A    between atoms: N3_14  and  C9_15 
REMARK    5  A    between atoms: C9_15  and  C10_16 
REMARK    6  A    between atoms: C10_16  and  C11_17 
ROOT
HETATM    1  C6  UNL     1       0.210  -1.970  -0.883  1.00  0.00     0.327 C 
HETATM    2  C7  UNL     1       0.224  -3.327  -0.228  1.00  0.00     0.275 C 
HETATM    3  O2  UNL     1       1.277  -4.024  -0.281  1.00  0.00    -0.268 OA
HETATM    4  N2  UNL     1      -1.058  -3.588   0.377  1.00  0.00    -0.275 N 
HETATM    5  C8  UNL     1      -1.974  -2.616  -0.169  1.00  0.00     0.327 C 
HETATM    6  O3  UNL     1      -3.142  -2.680   0.235  1.00  0.00    -0.247 OA
HETATM    7  N3  UNL     1      -1.232  -1.793  -1.087  1.00  0.00    -0.298 N 
HETATM    8  H8  UNL     1      -1.175  -4.365   1.068  1.00  0.00     0.173 HD
ENDROOT
BRANCH   1   9
HETATM    9  O1  UNL     1       0.679  -1.079   0.088  1.00  0.00    -0.317 OA
BRANCH   9  10
HETATM   10  C5  UNL     1       1.755  -0.244  -0.088  1.00  0.00     0.072 A 
HETATM   11  C4  UNL     1       2.597  -0.061  -1.164  1.00  0.00     0.039 A 
HETATM   12  C3  UNL     1       3.625   0.854  -1.097  1.00  0.00     0.032 A 
HETATM   13  C2  UNL     1       3.835   1.607   0.041  1.00  0.00     0.027 A 
HETATM   14  C18 UNL     1       3.010   1.451   1.140  1.00  0.00     0.032 A 
HETATM   15  C17 UNL     1       1.970   0.519   1.064  1.00  0.00     0.039 A 
BRANCH  13  16
HETATM   16  N1  UNL     1       4.909   2.541   0.066  1.00  0.00    -0.394 N 
HETATM   17  C1  UNL     1       5.757   2.689  -1.088  1.00  0.00     0.146 C 
HETATM   18  H4  UNL     1       5.069   3.116   0.937  1.00  0.00     0.159 HD
ENDBRANCH  13  16
ENDBRANCH   9  10
ENDBRANCH   1   9
BRANCH   7  19
HETATM   19  C9  UNL     1      -2.011  -0.979  -2.002  1.00  0.00     0.135 C 
BRANCH  19  20
HETATM   20  C10 UNL     1      -2.309   0.357  -1.428  1.00  0.00     0.058 C 
BRANCH  20  21
HETATM   21  C11 UNL     1      -3.064   0.404  -0.187  1.00  0.00    -0.057 A 
HETATM   22  C12 UNL     1      -2.490   0.390   1.075  1.00  0.00     0.007 A 
HETATM   23  C13 UNL     1      -3.217   0.435   2.247  1.00  0.00     0.001 A 
HETATM   24  C14 UNL     1      -4.593   0.497   2.193  1.00  0.00     0.000 A 
HETATM   25  C15 UNL     1      -5.210   0.512   0.953  1.00  0.00     0.001 A 
HETATM   26  C16 UNL     1      -4.452   0.466  -0.192  1.00  0.00     0.007 A 
ENDBRANCH  20  21
ENDBRANCH  19  20
ENDBRANCH   7  19
TORSDOF 6
