REMARK  1 active torsions:
REMARK  status: ('A' for Active; 'I' for Inactive)
REMARK    1  A    between atoms: C3_4  and  C4_5 
ROOT
HETATM    1  C4  UNL     1       0.700   0.061  -0.473  1.00  0.00    -0.043 C 
HETATM    2  C5  UNL     1       0.346  -1.177  -0.115  1.00  0.00     0.009 C 
HETATM    3  C6  UNL     1      -0.562  -2.277  -0.483  1.00  0.00     0.138 C 
HETATM    4  C7  UNL     1      -1.629  -1.826  -1.474  1.00  0.00     0.091 C 
HETATM    5  C8  UNL     1      -2.406  -0.878  -0.566  1.00  0.00     0.049 C 
HETATM    6  N2  UNL     1      -3.272  -1.537   0.180  1.00  0.00    -0.246 NA
HETATM    7  C9  UNL     1      -2.570  -2.674   0.849  1.00  0.00     0.227 C 
HETATM    8  N3  UNL     1      -1.280  -2.860   0.632  1.00  0.00    -0.273 NA
HETATM    9  C10 UNL     1      -2.351   0.561  -0.333  1.00  0.00    -0.003 A 
HETATM   10  C11 UNL     1      -3.628   0.731   0.156  1.00  0.00     0.041 A 
HETATM   11  C12 UNL     1      -3.882   2.062   0.485  1.00  0.00     0.073 A 
HETATM   12 CL1  UNL     1      -5.461   2.459   1.126  1.00  0.00    -0.081 Cl
HETATM   13  C13 UNL     1      -2.923   3.052   0.318  1.00  0.00     0.138 A 
HETATM   14  F1  UNL     1      -3.156   4.347   0.632  1.00  0.00    -0.204 F 
HETATM   15  C14 UNL     1      -1.671   2.786  -0.179  1.00  0.00     0.052 A 
HETATM   16  C15 UNL     1      -1.328   1.505  -0.530  1.00  0.00    -0.039 A 
HETATM   17  C16 UNL     1       0.026   1.242  -1.020  1.00  0.00     0.078 C 
ENDROOT
BRANCH   1  18
HETATM   18  C3  UNL     1       2.138   0.265  -0.245  1.00  0.00     0.006 A 
HETATM   19  C2  UNL     1       3.088  -0.598   0.266  1.00  0.00     0.125 A 
HETATM   20  N1  UNL     1       4.316  -0.055   0.321  1.00  0.00    -0.285 N 
HETATM   21  C1  UNL     1       5.530  -0.684   0.801  1.00  0.00     0.179 C 
HETATM   22  N4  UNL     1       4.188   1.173  -0.155  1.00  0.00    -0.185 NA
HETATM   23  C17 UNL     1       2.898   1.390  -0.500  1.00  0.00     0.152 A 
ENDBRANCH   1  18
TORSDOF 1
