REMARK  5 active torsions:
REMARK  status: ('A' for Active; 'I' for Inactive)
REMARK    1  A    between atoms: O1_2  and  C2_3 
REMARK    2  A    between atoms: C7_9  and  N1_10 
REMARK    3  A    between atoms: C10_13  and  C11_14 
REMARK    4  A    between atoms: C11_14  and  N2_15 
REMARK    5  A    between atoms: C12_16  and  C13_17 
ROOT
HETATM    1  N1  UNL     1       1.677   0.781   0.520  1.00  0.00    -0.356 N 
HETATM    2  C8  UNL     1       1.484   1.869   1.403  1.00  0.00     0.089 A 
HETATM    3  C9  UNL     1       0.214   1.516   1.531  1.00  0.00     0.017 A 
HETATM    4  C10 UNL     1       0.314   0.335   0.606  1.00  0.00     0.132 A 
ENDROOT
BRANCH   4   5
HETATM    5  C11 UNL     1      -0.467   0.636  -0.646  1.00  0.00     0.177 C 
BRANCH   5   6
HETATM    6  N2  UNL     1      -1.823   0.146  -0.452  1.00  0.00    -0.298 NA
HETATM    7  C12 UNL     1      -2.788   1.014  -0.360  1.00  0.00     0.123 C 
BRANCH   7   8
HETATM    8  C13 UNL     1      -4.145   0.525  -0.167  1.00  0.00    -0.001 A 
HETATM    9  C14 UNL     1      -4.417  -0.767  -0.083  1.00  0.00     0.027 A 
HETATM   10 CL1  UNL     1      -3.348  -2.145  -0.169  1.00  0.00    -0.088 Cl
HETATM   11  C15 UNL     1      -5.883  -0.954   0.114  1.00  0.00     0.086 A 
HETATM   12  C16 UNL     1      -6.371   0.467   0.123  1.00  0.00    -0.078 A 
HETATM   13  C17 UNL     1      -7.804   0.880   0.292  1.00  0.00     0.044 C 
HETATM   14  C18 UNL     1      -5.365   1.296  -0.038  1.00  0.00     0.017 A 
ENDBRANCH   7   8
ENDBRANCH   5   6
ENDBRANCH   4   5
BRANCH   1  15
HETATM   15  C7  UNL     1       2.927   0.504  -0.077  1.00  0.00     0.103 C 
HETATM   16  C6  UNL     1       3.786  -0.411   0.326  1.00  0.00     0.014 C 
HETATM   17  C2  UNL     1       5.067  -0.604  -0.389  1.00  0.00     0.076 C 
HETATM   18  C5  UNL     1       3.441  -1.241   1.509  1.00  0.00     0.211 C 
HETATM   19  C3  UNL     1       5.564  -1.845  -0.381  1.00  0.00     0.036 C 
HETATM   20  C4  UNL     1       4.722  -2.788   0.352  1.00  0.00     0.198 C 
HETATM   21  O2  UNL     1       4.223  -2.359   1.553  1.00  0.00    -0.383 OA
BRANCH  17  22
HETATM   22  O1  UNL     1       5.643   0.488  -0.999  1.00  0.00    -0.356 OA
HETATM   23  C1  UNL     1       5.664   0.584  -2.425  1.00  0.00     0.210 C 
ENDBRANCH  17  22
ENDBRANCH   1  15
TORSDOF 5
