REMARK  4 active torsions:
REMARK  status: ('A' for Active; 'I' for Inactive)
REMARK    1  A    between atoms: C4_4  and  C5_5 
REMARK    2  A    between atoms: C5_5  and  C6_6 
REMARK    3  A    between atoms: C10_12  and  N3_13 
REMARK    4  A    between atoms: N3_13  and  C11_14 
ROOT
HETATM    1  C1  UNL     1      -1.171   4.221  -0.236  1.00  0.00     0.039 C 
HETATM    2  C2  UNL     1      -0.014   3.244  -0.073  1.00  0.00     0.128 C 
HETATM    3  C3  UNL     1      -0.438   1.999  -0.806  1.00  0.00     0.009 C 
HETATM    4  C4  UNL     1      -0.235   0.779  -0.278  1.00  0.00    -0.026 C 
HETATM    5  C10 UNL     1       0.410   0.734   1.029  1.00  0.00     0.070 C 
HETATM    6  C17 UNL     1       0.239   1.790   1.806  1.00  0.00     0.109 C 
HETATM    7  N4  UNL     1       0.232   2.964   1.326  1.00  0.00    -0.276 NA
ENDROOT
BRANCH   5   8
HETATM    8  N3  UNL     1       1.170  -0.428   1.373  1.00  0.00    -0.354 N 
HETATM    9  H13 UNL     1       0.892  -1.113   2.086  1.00  0.00     0.166 HD
BRANCH   8  10
HETATM   10  C11 UNL     1       2.397  -0.645   0.677  1.00  0.00     0.034 A 
HETATM   11  C12 UNL     1       2.865   0.211  -0.298  1.00  0.00     0.032 A 
HETATM   12  C13 UNL     1       4.036   0.040  -0.990  1.00  0.00     0.046 A 
HETATM   13  C14 UNL     1       4.813  -1.071  -0.696  1.00  0.00     0.138 A 
HETATM   14  F1  UNL     1       5.981  -1.227  -1.398  1.00  0.00    -0.204 F 
HETATM   15  C15 UNL     1       4.395  -1.959   0.268  1.00  0.00     0.074 A 
HETATM   16 CL1  UNL     1       5.445  -3.306   0.549  1.00  0.00    -0.081 Cl
HETATM   17  C16 UNL     1       3.197  -1.731   0.936  1.00  0.00     0.056 A 
ENDBRANCH   8  10
ENDBRANCH   5   8
BRANCH   4  18
HETATM   18  C5  UNL     1      -0.643  -0.439  -0.982  1.00  0.00     0.082 C 
BRANCH  18  19
HETATM   19  C6  UNL     1      -1.617  -1.275  -0.267  1.00  0.00    -0.018 A 
HETATM   20  C7  UNL     1      -1.479  -2.314   0.625  1.00  0.00     0.147 A 
HETATM   21  N1  UNL     1      -2.713  -2.745   0.991  1.00  0.00    -0.185 NA
HETATM   22  N2  UNL     1      -3.634  -2.026   0.371  1.00  0.00    -0.285 N 
HETATM   23  C8  UNL     1      -5.093  -2.142   0.467  1.00  0.00     0.179 C 
HETATM   24  C9  UNL     1      -2.989  -1.128  -0.397  1.00  0.00     0.120 A 
ENDBRANCH  18  19
ENDBRANCH   4  18
TORSDOF 4
