REMARK  5 active torsions:
REMARK  status: ('A' for Active; 'I' for Inactive)
REMARK    1  A    between atoms: C2_3  and  C3_4 
REMARK    2  A    between atoms: C2_3  and  N5_18 
REMARK    3  A    between atoms: C5_6  and  N2_7 
REMARK    4  A    between atoms: C12_16  and  O1_17 
REMARK    5  A    between atoms: N5_18  and  C13_19 
ROOT
HETATM    1  C3  UNL     1       0.152  -0.326  -0.485  1.00  0.00     0.062 C 
HETATM    2  C4  UNL     1      -1.133  -0.274  -0.254  1.00  0.00     0.004 C 
HETATM    3  C5  UNL     1      -1.823  -1.603  -0.469  1.00  0.00     0.031 C 
HETATM    4  C6  UNL     1      -3.040  -2.180  -0.409  1.00  0.00     0.005 C 
HETATM    5  C7  UNL     1      -4.433  -2.555  -0.271  1.00  0.00     0.051 C 
HETATM    6  C8  UNL     1      -5.273  -1.389   0.296  1.00  0.00     0.154 C 
HETATM    7  N3  UNL     1      -4.956  -0.232  -0.499  1.00  0.00    -0.280 N 
HETATM    8  C9  UNL     1      -3.730  -0.014   0.070  1.00  0.00     0.123 A 
HETATM    9  C10 UNL     1      -3.114   1.078  -0.569  1.00  0.00     0.011 A 
HETATM   10  C11 UNL     1      -4.031   1.485  -1.509  1.00  0.00     0.150 A 
HETATM   11  N4  UNL     1      -5.120   0.679  -1.438  1.00  0.00    -0.185 NA
HETATM   12  C12 UNL     1      -1.831   1.010   0.208  1.00  0.00     0.189 C 
ENDROOT
BRANCH   1  13
HETATM   13  C2  UNL     1       1.259   0.580  -0.442  1.00  0.00     0.122 C 
HETATM   14  N1  UNL     1       1.259   1.789  -0.127  1.00  0.00    -0.278 NA
HETATM   15  C1  UNL     1       2.180   2.842  -0.022  1.00  0.00     0.179 C 
BRANCH  13  16
HETATM   16  N5  UNL     1       2.617   0.179  -0.739  1.00  0.00    -0.341 N 
HETATM   17  H16 UNL     1       2.726  -0.328  -1.685  1.00  0.00     0.167 HD
BRANCH  16  18
HETATM   18  C13 UNL     1       3.813   0.327   0.061  1.00  0.00     0.035 A 
HETATM   19  C14 UNL     1       5.037   0.045  -0.545  1.00  0.00     0.032 A 
HETATM   20  C15 UNL     1       6.165   0.143   0.208  1.00  0.00     0.046 A 
HETATM   21  C16 UNL     1       6.194   0.501   1.536  1.00  0.00     0.138 A 
HETATM   22  F1  UNL     1       7.357   0.585   2.250  1.00  0.00    -0.204 F 
HETATM   23  C17 UNL     1       4.983   0.778   2.129  1.00  0.00     0.074 A 
HETATM   24 CL1  UNL     1       4.893   1.247   3.812  1.00  0.00    -0.081 Cl
HETATM   25  C18 UNL     1       3.832   0.683   1.380  1.00  0.00     0.056 A 
ENDBRANCH  16  18
ENDBRANCH  13  16
ENDBRANCH   1  13
BRANCH   3  26
HETATM   26  N2  UNL     1      -0.902  -2.669  -0.873  1.00  0.00    -0.399 N 
HETATM   27  H5  UNL     1      -0.343  -3.162  -1.588  1.00  0.00     0.156 HD
HETATM   28  H6  UNL     1      -0.434  -3.446  -0.355  1.00  0.00     0.156 HD
ENDBRANCH   3  26
BRANCH  12  29
HETATM   29  O1  UNL     1      -1.114   2.125  -0.093  1.00  0.00    -0.386 OA
HETATM   30  H15 UNL     1      -1.633   2.847  -0.552  1.00  0.00     0.210 HD
ENDBRANCH  12  29
TORSDOF 5
