REMARK  3 active torsions:
REMARK  status: ('A' for Active; 'I' for Inactive)
REMARK    1  A    between atoms: C3_4  and  C4_5 
REMARK    2  A    between atoms: C9_12  and  N4_13 
REMARK    3  A    between atoms: N4_13  and  C10_14 
ROOT
HETATM    1  C4  UNL     1       1.983  -0.888   0.162  1.00  0.00    -0.022 A 
HETATM    2  C5  UNL     1       2.364  -2.083   0.745  1.00  0.00     0.014 A 
HETATM    3  C6  UNL     1       1.447  -3.110   0.948  1.00  0.00     0.033 A 
HETATM    4  C7  UNL     1       0.138  -2.929   0.561  1.00  0.00     0.072 A 
HETATM    5  N2  UNL     1      -0.728  -3.934   0.776  1.00  0.00    -0.241 NA
HETATM    6  C8  UNL     1      -2.008  -3.714   0.389  1.00  0.00     0.236 A 
HETATM    7  N3  UNL     1      -2.482  -2.576  -0.191  1.00  0.00    -0.224 NA
HETATM    8  C9  UNL     1      -1.614  -1.562  -0.409  1.00  0.00     0.142 A 
HETATM    9  C16 UNL     1      -0.282  -1.743  -0.027  1.00  0.00     0.040 A 
HETATM   10  C17 UNL     1       0.643  -0.735  -0.221  1.00  0.00     0.030 A 
ENDROOT
BRANCH   8  11
HETATM   11  N4  UNL     1      -1.917  -0.288  -0.980  1.00  0.00    -0.340 N 
HETATM   12  H8  UNL     1      -1.307   0.020  -1.770  1.00  0.00     0.167 HD
BRANCH  11  13
HETATM   13  C10 UNL     1      -2.979   0.540  -0.530  1.00  0.00     0.033 A 
HETATM   14  C11 UNL     1      -3.144   1.792  -1.088  1.00  0.00     0.032 A 
HETATM   15  C12 UNL     1      -4.187   2.600  -0.644  1.00  0.00     0.044 A 
HETATM   16  C13 UNL     1      -5.059   2.171   0.345  1.00  0.00     0.116 A 
HETATM   17  F1  UNL     1      -6.063   2.937   0.777  1.00  0.00    -0.206 F 
HETATM   18  C14 UNL     1      -4.865   0.902   0.888  1.00  0.00     0.044 A 
HETATM   19  C15 UNL     1      -3.834   0.095   0.454  1.00  0.00     0.032 A 
ENDBRANCH  11  13
ENDBRANCH   8  11
BRANCH   1  20
HETATM   20  C3  UNL     1       2.887   0.252  -0.050  1.00  0.00     0.010 A 
HETATM   21  C2  UNL     1       3.961   0.726   0.693  1.00  0.00     0.125 A 
HETATM   22  N1  UNL     1       4.435   1.788   0.011  1.00  0.00    -0.285 N 
HETATM   23  C1  UNL     1       5.574   2.516   0.544  1.00  0.00     0.179 C 
HETATM   24  N5  UNL     1       3.727   1.994  -1.091  1.00  0.00    -0.185 NA
HETATM   25  C18 UNL     1       2.748   1.066  -1.183  1.00  0.00     0.152 A 
ENDBRANCH   1  20
TORSDOF 3
