REMARK  5 active torsions:
REMARK  status: ('A' for Active; 'I' for Inactive)
REMARK    1  A    between atoms: C3_4  and  C4_5 
REMARK    2  A    between atoms: C7_8  and  N2_9 
REMARK    3  A    between atoms: C8_10  and  N3_11 
REMARK    4  A    between atoms: C9_12  and  C10_13 
REMARK    5  A    between atoms: C10_13  and  C11_14 
ROOT
HETATM    1  C4  UNL     1       1.145  -0.451   0.145  1.00  0.00    -0.022 A 
HETATM    2  C5  UNL     1       0.566  -1.631  -0.242  1.00  0.00     0.014 A 
HETATM    3  C6  UNL     1      -0.806  -1.809  -0.136  1.00  0.00     0.033 A 
HETATM    4  C7  UNL     1      -1.610  -0.787   0.367  1.00  0.00     0.064 A 
HETATM    5  C9  UNL     1      -1.033   0.402   0.759  1.00  0.00    -0.024 A 
HETATM    6  C15 UNL     1       0.349   0.564   0.644  1.00  0.00     0.022 A 
ENDROOT
BRANCH   5   7
HETATM    7  C10 UNL     1      -1.808   1.549   1.302  1.00  0.00     0.082 C 
BRANCH   7   8
HETATM    8  C11 UNL     1      -2.490   2.240   0.151  1.00  0.00    -0.012 A 
HETATM    9  C12 UNL     1      -2.519   1.999  -1.143  1.00  0.00     0.144 A 
HETATM   10  F1  UNL     1      -2.148   1.251  -2.234  1.00  0.00    -0.204 F 
HETATM   11  C13 UNL     1      -3.400   3.164  -1.374  1.00  0.00     0.073 A 
HETATM   12 CL1  UNL     1      -4.279   4.111  -2.587  1.00  0.00    -0.081 Cl
HETATM   13  C14 UNL     1      -3.356   3.386  -0.069  1.00  0.00     0.037 A 
ENDBRANCH   7   8
ENDBRANCH   5   7
BRANCH   4  14
HETATM   14  N2  UNL     1      -3.010  -0.800   0.537  1.00  0.00    -0.244 NA
HETATM   15  C8  UNL     1      -3.678  -1.867   0.269  1.00  0.00     0.200 C 
BRANCH  15  16
HETATM   16  N3  UNL     1      -3.666  -3.205  -0.175  1.00  0.00    -0.394 N 
HETATM   17  H8  UNL     1      -3.590  -4.009   0.481  1.00  0.00     0.156 HD
HETATM   18  H9  UNL     1      -3.747  -3.089  -1.197  1.00  0.00     0.156 HD
ENDBRANCH  15  16
ENDBRANCH   4  14
BRANCH   1  19
HETATM   19  C3  UNL     1       2.604  -0.231   0.040  1.00  0.00     0.010 A 
HETATM   20  C2  UNL     1       3.710  -1.047   0.144  1.00  0.00     0.125 A 
HETATM   21  N1  UNL     1       4.821  -0.285  -0.052  1.00  0.00    -0.285 N 
HETATM   22  C1  UNL     1       6.173  -0.799  -0.016  1.00  0.00     0.179 C 
HETATM   23  N4  UNL     1       4.462   0.968  -0.274  1.00  0.00    -0.185 NA
HETATM   24  C16 UNL     1       3.120   1.044  -0.226  1.00  0.00     0.152 A 
ENDBRANCH   1  19
TORSDOF 5
