REMARK  2 active torsions:
REMARK  status: ('A' for Active; 'I' for Inactive)
REMARK    1  A    between atoms: C10_14  and  N5_15 
REMARK    2  A    between atoms: N5_15  and  C11_16 
ROOT
HETATM    1  C1  UNL     1      -3.786  -0.911   1.740  1.00  0.00     0.179 C 
HETATM    2  N1  UNL     1      -3.257   0.362   1.370  1.00  0.00    -0.279 N 
HETATM    3  N2  UNL     1      -2.133   0.625   2.213  1.00  0.00    -0.188 NA
HETATM    4  C2  UNL     1      -1.508   1.738   2.036  1.00  0.00     0.124 C 
HETATM    5  C3  UNL     1      -1.518   2.007   0.534  1.00  0.00     0.076 C 
HETATM    6  C4  UNL     1      -2.895   2.513   0.296  1.00  0.00     0.014 C 
HETATM    7  C5  UNL     1      -3.581   1.399   0.394  1.00  0.00     0.030 C 
HETATM    8  C6  UNL     1      -4.695   0.586  -0.222  1.00  0.00     0.088 C 
HETATM    9  C7  UNL     1      -3.954  -0.533  -0.939  1.00  0.00     0.012 C 
HETATM   10  C8  UNL     1      -2.679  -0.709  -1.330  1.00  0.00     0.068 A 
HETATM   11  N3  UNL     1      -2.738  -1.724  -2.208  1.00  0.00    -0.241 NA
HETATM   12  C9  UNL     1      -1.617  -2.168  -2.804  1.00  0.00     0.235 A 
HETATM   13  N4  UNL     1      -0.426  -1.599  -2.525  1.00  0.00    -0.224 NA
HETATM   14  C10 UNL     1      -0.319  -0.580  -1.652  1.00  0.00     0.141 A 
HETATM   15  C20 UNL     1      -1.466  -0.122  -1.040  1.00  0.00     0.036 A 
HETATM   16  C21 UNL     1      -1.104   0.859  -0.251  1.00  0.00     0.005 C 
ENDROOT
BRANCH  14  17
HETATM   17  N5  UNL     1       0.976  -0.046  -1.426  1.00  0.00    -0.340 N 
HETATM   18  H11 UNL     1       0.944   0.733  -2.119  1.00  0.00     0.167 HD
BRANCH  17  19
HETATM   19  C11 UNL     1       2.084  -0.364  -0.559  1.00  0.00     0.034 A 
HETATM   20  C12 UNL     1       1.905  -1.436   0.288  1.00  0.00     0.032 A 
HETATM   21  C13 UNL     1       2.999  -1.704   1.101  1.00  0.00     0.035 A 
HETATM   22  C14 UNL     1       4.154  -0.933   1.035  1.00  0.00     0.066 A 
HETATM   23  N6  UNL     1       5.204  -1.217   1.837  1.00  0.00    -0.260 NA
HETATM   24  C18 UNL     1       4.231   0.133   0.139  1.00  0.00    -0.005 A 
HETATM   25  C15 UNL     1       6.353  -0.483   1.800  1.00  0.00     0.117 A 
HETATM   26  C16 UNL     1       6.449   0.574   0.921  1.00  0.00     0.020 A 
HETATM   27  C17 UNL     1       5.396   0.898   0.081  1.00  0.00     0.015 A 
HETATM   28  C19 UNL     1       3.168   0.460  -0.711  1.00  0.00     0.043 A 
ENDBRANCH  17  19
ENDBRANCH  14  17
TORSDOF 2
