REMARK  3 active torsions:
REMARK  status: ('A' for Active; 'I' for Inactive)
REMARK    1  A    between atoms: N1_1  and  C1_2 
REMARK    2  A    between atoms: C6_11  and  N4_12 
REMARK    3  A    between atoms: N4_12  and  C7_13 
ROOT
HETATM    1  C1  UNL     1      -4.747   1.152  -0.068  1.00  0.00     0.022 A 
HETATM    2  C2  UNL     1      -5.079   0.162  -0.879  1.00  0.00    -0.005 A 
HETATM    3  C3  UNL     1      -4.265  -0.810  -1.655  1.00  0.00     0.021 A 
HETATM    4  B1  UNL     1      -2.693  -0.562  -1.445  1.00  0.00     0.393 B 
HETATM    5  O1  UNL     1      -1.808  -0.858  -2.627  1.00  0.00    -0.404 OA
HETATM    6  C4  UNL     1      -0.584  -1.474  -2.406  1.00  0.00     0.234 C 
HETATM    7  N2  UNL     1      -0.234  -1.904  -1.237  1.00  0.00    -0.232 NA
HETATM    8  C5  UNL     1       1.009  -2.533  -0.991  1.00  0.00     0.237 C 
HETATM    9  N3  UNL     1       1.543  -1.795  -0.103  1.00  0.00    -0.223 NA
HETATM   10  C6  UNL     1       0.963  -0.632   0.457  1.00  0.00     0.144 C 
HETATM   11  C13 UNL     1       0.115   0.373   0.518  1.00  0.00     0.138 C 
HETATM   12  N5  UNL     1      -0.974   0.963  -0.168  1.00  0.00    -0.373 N 
HETATM   13  C14 UNL     1      -2.340   0.609  -0.476  1.00  0.00     0.004 A 
HETATM   14  C15 UNL     1      -3.292   1.351   0.115  1.00  0.00     0.044 A 
HETATM   15  H14 UNL     1      -0.889   1.906  -0.607  1.00  0.00     0.164 HD
ENDROOT
BRANCH  10  16
HETATM   16  N4  UNL     1       1.927  -0.759   1.494  1.00  0.00    -0.340 N 
HETATM   17  H8  UNL     1       2.058  -1.209   2.448  1.00  0.00     0.167 HD
BRANCH  16  18
HETATM   18  C7  UNL     1       3.238  -0.188   1.512  1.00  0.00     0.035 A 
HETATM   19  C8  UNL     1       3.522   1.065   2.030  1.00  0.00     0.029 A 
HETATM   20  C9  UNL     1       4.793   1.603   2.040  1.00  0.00     0.004 A 
HETATM   21  C10 UNL     1       5.822   0.847   1.505  1.00  0.00     0.019 A 
HETATM   22  C11 UNL     1       5.623  -0.418   0.966  1.00  0.00     0.013 A 
HETATM   23 BR1  UNL     1       7.006  -1.479   0.227  1.00  0.00    -0.051 Br
HETATM   24  C12 UNL     1       4.323  -0.879   0.996  1.00  0.00     0.048 A 
ENDBRANCH  16  18
ENDBRANCH  10  16
BRANCH   1  25
HETATM   25  N1  UNL     1      -5.673   1.995   0.602  1.00  0.00    -0.399 N 
HETATM   26  H1  UNL     1      -5.843   1.361   1.420  1.00  0.00     0.156 HD
HETATM   27  H2  UNL     1      -5.885   2.898   0.129  1.00  0.00     0.156 HD
ENDBRANCH   1  25
TORSDOF 3
