REMARK  1 active torsions:
REMARK  status: ('A' for Active; 'I' for Inactive)
REMARK    1  A    between atoms: C3_4  and  C4_5 
ROOT
HETATM    1  C4  UNL     1      -2.301   0.835   1.894  1.00  0.00    -0.022 A 
HETATM    2  C5  UNL     1      -2.590  -0.319   2.634  1.00  0.00     0.014 A 
HETATM    3  C6  UNL     1      -1.799  -1.471   2.526  1.00  0.00     0.034 A 
HETATM    4  C7  UNL     1      -0.731  -1.439   1.675  1.00  0.00     0.090 A 
HETATM    5  N2  UNL     1       0.064  -2.546   1.519  1.00  0.00    -0.062 NA
HETATM    6  C8  UNL     1       1.081  -2.551   0.697  1.00  0.00     0.725 A 
HETATM    7  N3  UNL     1       1.249  -1.425   0.069  1.00  0.00    -0.045 NA
HETATM    8  C9  UNL     1       0.550  -0.290   0.136  1.00  0.00     0.155 A 
HETATM    9  C10 UNL     1      -0.517  -0.267   0.987  1.00  0.00     0.040 A 
HETATM   10  C11 UNL     1      -1.218   0.904   1.015  1.00  0.00     0.030 A 
HETATM   11  N4  UNL     1       0.994   0.824  -0.771  1.00  0.00    -0.370 N 
HETATM   12  C12 UNL     1       1.803   0.131  -1.644  1.00  0.00     0.149 C 
HETATM   13  C13 UNL     1       2.558   0.130  -2.782  1.00  0.00     0.006 C 
HETATM   14  C14 UNL     1       3.202  -1.066  -3.011  1.00  0.00    -0.011 A 
HETATM   15  C15 UNL     1       3.950  -1.073  -4.143  1.00  0.00     0.014 A 
HETATM   16  C16 UNL     1       4.683  -2.132  -4.611  1.00  0.00     0.020 A 
HETATM   17  C17 UNL     1       4.692  -3.307  -3.907  1.00  0.00     0.117 A 
HETATM   18  N5  UNL     1       3.952  -3.297  -2.787  1.00  0.00    -0.262 NA
HETATM   19  C18 UNL     1       3.219  -2.298  -2.282  1.00  0.00     0.070 A 
HETATM   20  C19 UNL     1       2.885  -3.087  -1.209  1.00  0.00     0.181 C 
HETATM   21  N6  UNL     1       2.178  -3.006  -0.015  1.00  0.00    -0.210 N 
HETATM   22  H8  UNL     1       0.631   1.733  -0.544  1.00  0.00     0.161 HD
HETATM   23  H16 UNL     1       2.561  -3.492   0.832  1.00  0.00     0.178 HD
ENDROOT
BRANCH   1  24
HETATM   24  C3  UNL     1      -3.152   2.010   2.031  1.00  0.00     0.010 A 
HETATM   25  C2  UNL     1      -3.848   2.449   3.141  1.00  0.00     0.125 A 
HETATM   26  N1  UNL     1      -4.487   3.576   2.776  1.00  0.00    -0.285 N 
HETATM   27  C1  UNL     1      -5.351   4.405   3.605  1.00  0.00     0.179 C 
HETATM   28  N7  UNL     1      -4.232   3.870   1.503  1.00  0.00    -0.185 NA
HETATM   29  C20 UNL     1      -3.400   2.909   1.012  1.00  0.00     0.152 A 
ENDBRANCH   1  24
TORSDOF 1
