REMARK  3 active torsions:
REMARK  status: ('A' for Active; 'I' for Inactive)
REMARK    1  A    between atoms: N1_1  and  C1_2 
REMARK    2  A    between atoms: C1_2  and  N2_3 
REMARK    3  A    between atoms: N5_14  and  C10_15 
ROOT
HETATM    1  N2  UNL     1      -2.776   1.337  -0.873  1.00  0.00    -0.262 N 
HETATM    2  C2  UNL     1      -1.293   1.528  -0.725  1.00  0.00     0.291 C 
HETATM    3  N3  UNL     1      -0.623   0.387  -1.373  1.00  0.00    -0.276 N 
HETATM    4  C3  UNL     1      -1.240   0.511  -2.693  1.00  0.00     0.271 C 
HETATM    5  N4  UNL     1      -0.744  -0.617  -3.196  1.00  0.00    -0.259 NA
HETATM    6  C4  UNL     1      -1.132  -1.775  -2.496  1.00  0.00     0.071 C 
HETATM    7  C5  UNL     1      -2.126  -2.683  -2.331  1.00  0.00     0.012 C 
HETATM    8  C6  UNL     1      -2.555  -2.122  -1.093  1.00  0.00    -0.016 C 
HETATM    9  C7  UNL     1      -2.048  -3.315  -0.423  1.00  0.00     0.009 C 
HETATM   10  C8  UNL     1      -0.767  -2.816  -0.311  1.00  0.00     0.007 C 
HETATM   11  C9  UNL     1      -0.103  -1.990  -1.397  1.00  0.00     0.183 C 
HETATM   12  N5  UNL     1       0.248  -0.650  -0.891  1.00  0.00    -0.277 N 
HETATM   13  C19 UNL     1      -3.117  -0.849  -1.492  1.00  0.00     0.193 C 
HETATM   14  N6  UNL     1      -3.405   0.345  -1.624  1.00  0.00    -0.204 NA
ENDROOT
BRANCH  12  15
HETATM   15  C10 UNL     1       1.339  -0.424  -0.030  1.00  0.00     0.052 A 
HETATM   16  C11 UNL     1       1.980  -1.550   0.427  1.00  0.00     0.032 A 
HETATM   17  C12 UNL     1       3.076  -1.409   1.282  1.00  0.00     0.010 A 
HETATM   18  C13 UNL     1       3.511  -0.139   1.665  1.00  0.00    -0.044 A 
HETATM   19  C14 UNL     1       2.843   0.972   1.187  1.00  0.00    -0.028 A 
HETATM   20  C18 UNL     1       4.633   0.312   2.552  1.00  0.00     0.066 A 
HETATM   21  C15 UNL     1       1.759   0.831   0.342  1.00  0.00     0.043 A 
HETATM   22  C16 UNL     1       3.478   2.193   1.724  1.00  0.00     0.008 A 
HETATM   23  C17 UNL     1       4.481   1.789   2.487  1.00  0.00    -0.021 A 
ENDBRANCH  12  15
BRANCH   1  24
HETATM   24  C1  UNL     1      -3.573   2.328  -0.161  1.00  0.00     0.412 C 
BRANCH  24  25
HETATM   25  N1  UNL     1      -3.310   2.304   1.261  1.00  0.00     0.097 N 
HETATM   26  H1  UNL     1      -2.885   1.414   1.590  1.00  0.00     0.315 HD
HETATM   27  H2  UNL     1      -4.162   2.573   1.818  1.00  0.00     0.315 HD
ENDBRANCH  24  25
ENDBRANCH   1  24
TORSDOF 3
