REMARK  4 active torsions:
REMARK  status: ('A' for Active; 'I' for Inactive)
REMARK    1  A    between atoms: C6_6  and  N1_7 
REMARK    2  A    between atoms: N1_7  and  C7_8 
REMARK    3  A    between atoms: C12_16  and  C13_17 
REMARK    4  A    between atoms: C17_22  and  N5_23 
ROOT
HETATM    1  C7  UNL     1       1.814  -1.640  -0.068  1.00  0.00     0.147 A 
HETATM    2  N2  UNL     1       2.568  -2.644   0.225  1.00  0.00    -0.222 NA
HETATM    3  C8  UNL     1       2.179  -3.923   0.643  1.00  0.00     0.243 A 
HETATM    4  N3  UNL     1       0.991  -4.458   0.852  1.00  0.00    -0.211 NA
HETATM    5  S1  UNL     1      -0.287  -3.288   0.523  1.00  0.00    -0.026 SA
HETATM    6  C9  UNL     1      -1.881  -3.427   0.479  1.00  0.00     0.035 C 
HETATM    7  C10 UNL     1      -2.427  -2.231   0.257  1.00  0.00     0.032 C 
HETATM    8  C11 UNL     1      -1.897  -0.958  -0.163  1.00  0.00    -0.033 C 
HETATM    9  C12 UNL     1      -2.741   0.019  -0.448  1.00  0.00     0.027 C 
HETATM   10  C18 UNL     1      -0.447  -0.686  -0.296  1.00  0.00     0.035 C 
HETATM   11  C19 UNL     1       0.359  -1.693  -0.003  1.00  0.00     0.063 A 
ENDROOT
BRANCH   1  12
HETATM   12  N1  UNL     1       2.422  -0.421  -0.474  1.00  0.00    -0.340 N 
HETATM   13  H7  UNL     1       1.890   0.118  -1.190  1.00  0.00     0.167 HD
BRANCH  12  14
HETATM   14  C6  UNL     1       3.652   0.045   0.045  1.00  0.00     0.034 A 
HETATM   15  C5  UNL     1       4.438  -0.519   1.010  1.00  0.00     0.029 A 
HETATM   16  C4  UNL     1       5.636  -0.027   1.479  1.00  0.00     0.003 A 
HETATM   17  C3  UNL     1       6.104   1.163   0.923  1.00  0.00     0.007 A 
HETATM   18  C2  UNL     1       5.353   1.778  -0.055  1.00  0.00    -0.060 A 
HETATM   19  C1  UNL     1       5.782   3.053  -0.700  1.00  0.00     0.048 C 
HETATM   20  C20 UNL     1       4.146   1.232  -0.490  1.00  0.00     0.036 A 
ENDBRANCH  12  14
ENDBRANCH   1  12
BRANCH   9  21
HETATM   21  C13 UNL     1      -4.181   0.084  -0.426  1.00  0.00     0.023 C 
HETATM   22  C14 UNL     1      -5.100  -0.820  -0.120  1.00  0.00     0.006 C 
HETATM   23  C15 UNL     1      -6.247  -0.400   0.321  1.00  0.00     0.105 C 
HETATM   24  N4  UNL     1      -6.372   0.884  -0.274  1.00  0.00    -0.345 N 
HETATM   25  C16 UNL     1      -7.498   1.788  -0.436  1.00  0.00     0.157 C 
HETATM   26  C17 UNL     1      -5.080   1.216  -0.756  1.00  0.00     0.133 C 
BRANCH  26  27
HETATM   27  N5  UNL     1      -4.720   2.293  -1.369  1.00  0.00    -0.283 NA
HETATM   28  H15 UNL     1      -3.737   2.441  -1.683  1.00  0.00     0.188 HD
ENDBRANCH  26  27
ENDBRANCH   9  21
TORSDOF 4
