REMARK  2 active torsions:
REMARK  status: ('A' for Active; 'I' for Inactive)
REMARK    1  A    between atoms: N1_7  and  C7_8 
REMARK    2  A    between atoms: C12_15  and  C13_16 
ROOT
HETATM    1  C1  UNL     1       6.681  -1.219   1.519  1.00  0.00     0.017 C 
HETATM    2  C2  UNL     1       5.635  -0.688   1.224  1.00  0.00    -0.080 C 
HETATM    3  C3  UNL     1       4.386  -0.039   0.876  1.00  0.00     0.023 C 
HETATM    4  C4  UNL     1       4.449   1.260   0.713  1.00  0.00    -0.011 C 
HETATM    5  C5  UNL     1       3.319   1.917   0.917  1.00  0.00     0.006 C 
HETATM    6  C6  UNL     1       1.982   1.279   0.787  1.00  0.00     0.153 C 
HETATM    7  N1  UNL     1       2.200   0.068   0.001  1.00  0.00    -0.357 N 
HETATM    8  C19 UNL     1       3.117  -0.835   0.721  1.00  0.00     0.173 C 
ENDROOT
BRANCH   7   9
HETATM    9  C7  UNL     1       1.668  -0.303  -1.276  1.00  0.00     0.140 A 
HETATM   10  N2  UNL     1       2.591  -0.530  -2.255  1.00  0.00    -0.224 NA
HETATM   11  C8  UNL     1       2.170  -0.886  -3.493  1.00  0.00     0.236 A 
HETATM   12  N3  UNL     1       0.854  -1.025  -3.794  1.00  0.00    -0.241 NA
HETATM   13  C9  UNL     1      -0.076  -0.806  -2.844  1.00  0.00     0.072 A 
HETATM   14  C10 UNL     1      -1.411  -0.924  -3.065  1.00  0.00     0.033 A 
HETATM   15  C18 UNL     1       0.319  -0.442  -1.572  1.00  0.00     0.039 A 
HETATM   16  C11 UNL     1      -2.369  -0.702  -2.097  1.00  0.00     0.014 A 
HETATM   17  C12 UNL     1      -1.925  -0.336  -0.826  1.00  0.00    -0.022 A 
HETATM   18  C17 UNL     1      -0.579  -0.196  -0.528  1.00  0.00     0.030 A 
BRANCH  17  19
HETATM   19  C13 UNL     1      -2.858  -0.073   0.283  1.00  0.00     0.010 A 
HETATM   20  C14 UNL     1      -2.836  -0.210   1.654  1.00  0.00     0.152 A 
HETATM   21  N4  UNL     1      -4.016   0.206   2.150  1.00  0.00    -0.185 NA
HETATM   22  N5  UNL     1      -4.791   0.602   1.154  1.00  0.00    -0.285 N 
HETATM   23  C15 UNL     1      -6.149   1.123   1.280  1.00  0.00     0.179 C 
HETATM   24  C16 UNL     1      -4.123   0.449  -0.005  1.00  0.00     0.125 A 
ENDBRANCH  17  19
ENDBRANCH   7   9
TORSDOF 2
