REMARK  6 active torsions:
REMARK  status: ('A' for Active; 'I' for Inactive)
REMARK    1  A    between atoms: C7_7  and  N1_8 
REMARK    2  A    between atoms: N1_8  and  C8_9 
REMARK    3  A    between atoms: C11_15  and  C12_16 
REMARK    4  A    between atoms: C12_16  and  C13_17 
REMARK    5  A    between atoms: C12_16  and  C16_20 
REMARK    6  A    between atoms: C16_20  and  C17_21 
ROOT
HETATM    1  C1  UNL     1       6.332   3.132   0.569  1.00  0.00     0.018 C 
HETATM    2  C2  UNL     1       5.846   2.084   0.225  1.00  0.00    -0.078 C 
HETATM    3  C3  UNL     1       5.254   0.838  -0.168  1.00  0.00     0.019 A 
HETATM    4  C4  UNL     1       6.112  -0.191  -0.555  1.00  0.00     0.021 A 
HETATM    5  C5  UNL     1       5.619  -1.423  -0.937  1.00  0.00     0.004 A 
HETATM    6  C6  UNL     1       4.264  -1.677  -0.946  1.00  0.00     0.029 A 
HETATM    7  C7  UNL     1       3.422  -0.655  -0.562  1.00  0.00     0.035 A 
HETATM    8  C19 UNL     1       3.886   0.593  -0.174  1.00  0.00     0.050 A 
ENDROOT
BRANCH   7   9
HETATM    9  N1  UNL     1       2.004  -0.779  -0.506  1.00  0.00    -0.339 N 
HETATM   10  H5  UNL     1       1.371  -0.780  -1.330  1.00  0.00     0.167 HD
BRANCH   9  11
HETATM   11  C8  UNL     1       1.471  -0.911   0.801  1.00  0.00     0.165 A 
HETATM   12  N2  UNL     1       2.217  -1.238   1.803  1.00  0.00    -0.219 NA
HETATM   13  C9  UNL     1       1.634  -1.355   3.094  1.00  0.00     0.265 A 
HETATM   14  N3  UNL     1       0.370  -1.159   3.391  1.00  0.00    -0.121 NA
HETATM   15  O1  UNL     1      -0.497  -0.806   2.380  1.00  0.00    -0.209 OA
HETATM   16  C10 UNL     1       0.041  -0.683   1.108  1.00  0.00     0.144 A 
HETATM   17  C11 UNL     1      -0.770  -0.346   0.109  1.00  0.00     0.025 C 
BRANCH  17  18
HETATM   18  C12 UNL     1      -2.259  -0.065   0.181  1.00  0.00     0.038 C 
BRANCH  18  19
HETATM   19  C13 UNL     1      -3.039  -1.075  -0.515  1.00  0.00    -0.022 C 
HETATM   20  C14 UNL     1      -3.221  -2.189  -1.213  1.00  0.00    -0.034 C 
HETATM   21  C15 UNL     1      -2.015  -3.014  -1.595  1.00  0.00     0.036 C 
ENDBRANCH  18  19
BRANCH  18  22
HETATM   22  C16 UNL     1      -2.403   1.346  -0.347  1.00  0.00     0.070 C 
BRANCH  22  23
HETATM   23  C17 UNL     1      -3.788   1.814  -0.362  1.00  0.00     0.049 C 
HETATM   24  N4  UNL     1      -4.596   2.201  -1.302  1.00  0.00    -0.172 NA
HETATM   25  N5  UNL     1      -5.842   2.554  -0.774  1.00  0.00    -0.242 N 
HETATM   26  N6  UNL     1      -5.483   3.020   0.519  1.00  0.00    -0.218 NA
HETATM   27  H16 UNL     1      -6.843   2.559  -1.060  1.00  0.00     0.204 HD
HETATM   28  C18 UNL     1      -4.582   1.923   0.912  1.00  0.00     0.168 C 
HETATM   29  H17 UNL     1      -4.833   3.838   0.310  1.00  0.00     0.148 HD
ENDBRANCH  22  23
ENDBRANCH  18  22
ENDBRANCH  17  18
ENDBRANCH   9  11
ENDBRANCH   7   9
TORSDOF 6
