REMARK  3 active torsions:
REMARK  status: ('A' for Active; 'I' for Inactive)
REMARK    1  A    between atoms: N1_1  and  C1_2 
REMARK    2  A    between atoms: C9_11  and  N3_12 
REMARK    3  A    between atoms: N3_12  and  C10_13 
ROOT
HETATM    1  C1  UNL     1       4.995   0.257   0.446  1.00  0.00     0.026 A 
HETATM    2  C2  UNL     1       5.139   0.407  -0.915  1.00  0.00     0.032 A 
HETATM    3  C3  UNL     1       4.048   0.183  -1.730  1.00  0.00     0.040 A 
HETATM    4  C4  UNL     1       2.852  -0.183  -1.171  1.00  0.00     0.086 A 
HETATM    5  C5  UNL     1       2.664  -0.347   0.206  1.00  0.00    -0.004 A 
HETATM    6  C6  UNL     1       3.781  -0.115   1.012  1.00  0.00     0.040 A 
HETATM    7  C7  UNL     1       1.590  -0.711   1.133  1.00  0.00     0.161 C 
HETATM    8  N2  UNL     1       0.289  -0.839   0.541  1.00  0.00    -0.379 N 
HETATM    9  C8  UNL     1      -0.255  -0.342  -0.651  1.00  0.00     0.129 A 
HETATM   10  C9  UNL     1      -1.595  -0.061  -0.550  1.00  0.00     0.160 A 
HETATM   11  N4  UNL     1      -2.184   0.405  -1.657  1.00  0.00    -0.222 NA
HETATM   12  C15 UNL     1      -1.568   0.610  -2.829  1.00  0.00     0.238 A 
HETATM   13  N5  UNL     1      -0.238   0.336  -2.941  1.00  0.00    -0.215 NA
HETATM   14  C16 UNL     1       0.434  -0.143  -1.854  1.00  0.00     0.202 A 
HETATM   15  O1  UNL     1       1.804  -0.387  -2.097  1.00  0.00    -0.289 OA
HETATM   16  H8  UNL     1      -0.415  -1.419   1.088  1.00  0.00     0.160 HD
ENDROOT
BRANCH  10  17
HETATM   17  N3  UNL     1      -2.322  -0.212   0.658  1.00  0.00    -0.339 N 
HETATM   18  H9  UNL     1      -1.962  -0.449   1.593  1.00  0.00     0.167 HD
BRANCH  17  19
HETATM   19  C10 UNL     1      -3.732  -0.052   0.819  1.00  0.00     0.032 C 
HETATM   20  C11 UNL     1      -4.339  -0.370  -0.354  1.00  0.00     0.014 C 
HETATM   21  C12 UNL     1      -5.672  -0.354  -0.685  1.00  0.00    -0.077 C 
HETATM   22  B1  UNL     1      -6.754  -0.445   1.132  1.00  0.00     0.221 B 
HETATM   23  C13 UNL     1      -5.710   0.549   2.130  1.00  0.00    -0.054 C 
HETATM   24 BR1  UNL     1      -6.387   1.787   3.365  1.00  0.00    -0.069 Br
HETATM   25  C14 UNL     1      -4.373   0.370   1.955  1.00  0.00     0.031 C 
ENDBRANCH  17  19
ENDBRANCH  10  17
BRANCH   1  26
HETATM   26  N1  UNL     1       6.175   0.511   1.207  1.00  0.00    -0.399 N 
HETATM   27  H1  UNL     1       7.133   0.227   0.940  1.00  0.00     0.156 HD
HETATM   28  H2  UNL     1       5.916   1.033   2.083  1.00  0.00     0.156 HD
ENDBRANCH   1  26
TORSDOF 3
