REMARK  0 active torsions:
REMARK  status: ('A' for Active; 'I' for Inactive)
ROOT
HETATM    1  C1  UNL     1      -2.042  -1.232   1.265  1.00  0.00     0.045 C 
HETATM    2  C2  UNL     1      -0.980  -1.103   0.496  1.00  0.00    -0.027 C 
HETATM    3  C3  UNL     1       0.085  -1.937   0.337  1.00  0.00     0.146 C 
HETATM    4  N1  UNL     1       1.112  -2.773   0.151  1.00  0.00    -0.185 NA
HETATM    5  N2  UNL     1       2.233  -2.101  -0.191  1.00  0.00    -0.285 N 
HETATM    6  C4  UNL     1       3.259  -2.904  -0.795  1.00  0.00     0.179 C 
HETATM    7  C5  UNL     1       2.452  -0.785  -0.014  1.00  0.00     0.124 C 
HETATM    8  C6  UNL     1       2.077   0.268   0.752  1.00  0.00    -0.005 A 
HETATM    9  C7  UNL     1       0.969   1.060   0.785  1.00  0.00     0.002 A 
HETATM   10  C8  UNL     1      -0.183   1.073   0.026  1.00  0.00    -0.012 A 
HETATM   11  C9  UNL     1      -0.380   2.299  -0.643  1.00  0.00     0.015 A 
HETATM   12  C10 UNL     1      -1.479   2.565  -1.479  1.00  0.00     0.033 A 
HETATM   13  C11 UNL     1      -2.414   1.559  -1.647  1.00  0.00     0.067 A 
HETATM   14  N3  UNL     1      -3.484   1.750  -2.435  1.00  0.00    -0.260 NA
HETATM   15  C12 UNL     1      -4.359   0.728  -2.562  1.00  0.00     0.117 A 
HETATM   16  C13 UNL     1      -4.183  -0.499  -1.908  1.00  0.00     0.020 A 
HETATM   17  C14 UNL     1      -3.063  -0.690  -1.087  1.00  0.00     0.016 A 
HETATM   18  C15 UNL     1      -2.191   0.372  -0.979  1.00  0.00     0.004 A 
HETATM   19  C16 UNL     1      -1.127   0.086  -0.156  1.00  0.00    -0.005 A 
HETATM   20  C17 UNL     1       0.919   2.030   1.690  1.00  0.00     0.100 A 
HETATM   21  N4  UNL     1       1.923   2.322   2.640  1.00  0.00    -0.374 N 
HETATM   22  C18 UNL     1       3.105   1.537   2.663  1.00  0.00     0.088 A 
HETATM   23  C19 UNL     1       3.125   0.565   1.734  1.00  0.00     0.030 A 
HETATM   24  H14 UNL     1       1.865   3.091   3.346  1.00  0.00     0.164 HD
ENDROOT
TORSDOF 0
