REMARK  3 active torsions:
REMARK  status: ('A' for Active; 'I' for Inactive)
REMARK    1  A    between atoms: C3_4  and  C4_5 
REMARK    2  A    between atoms: C5_6  and  N2_7 
REMARK    3  A    between atoms: N2_7  and  C6_8 
ROOT
HETATM    1  C4  UNL     1      -1.353  -0.537  -0.381  1.00  0.00     0.016 A 
HETATM    2  C5  UNL     1      -0.014  -0.819  -0.544  1.00  0.00     0.045 A 
HETATM    3  C14 UNL     1       0.427  -2.110  -0.355  1.00  0.00     0.033 A 
HETATM    4  C15 UNL     1      -0.507  -3.081  -0.006  1.00  0.00     0.035 A 
HETATM    5  C16 UNL     1      -1.858  -2.831   0.165  1.00  0.00     0.067 A 
HETATM    6  N5  UNL     1      -2.714  -3.810   0.502  1.00  0.00    -0.260 NA
HETATM    7  C17 UNL     1      -4.034  -3.561   0.667  1.00  0.00     0.117 A 
HETATM    8  C18 UNL     1      -4.504  -2.274   0.483  1.00  0.00     0.020 A 
HETATM    9  C19 UNL     1      -3.609  -1.285   0.138  1.00  0.00     0.016 A 
HETATM   10  C20 UNL     1      -2.259  -1.519  -0.034  1.00  0.00     0.006 A 
ENDROOT
BRANCH   2  11
HETATM   11  N2  UNL     1       0.872   0.231  -0.906  1.00  0.00    -0.339 N 
HETATM   12  H5  UNL     1       0.522   1.203  -1.046  1.00  0.00     0.167 HD
BRANCH  11  13
HETATM   13  C6  UNL     1       2.250   0.099  -1.109  1.00  0.00     0.142 A 
HETATM   14  N3  UNL     1       2.548  -0.246  -2.374  1.00  0.00    -0.224 NA
HETATM   15  C7  UNL     1       3.844  -0.420  -2.766  1.00  0.00     0.236 A 
HETATM   16  N4  UNL     1       4.849  -0.248  -1.890  1.00  0.00    -0.241 NA
HETATM   17  C8  UNL     1       4.574   0.099  -0.618  1.00  0.00     0.072 A 
HETATM   18  C9  UNL     1       5.585   0.287   0.314  1.00  0.00     0.032 A 
HETATM   19  C13 UNL     1       3.272   0.280  -0.199  1.00  0.00     0.039 A 
HETATM   20  C10 UNL     1       5.227   0.642   1.597  1.00  0.00     0.002 A 
HETATM   21  C11 UNL     1       3.910   0.816   1.986  1.00  0.00     0.001 A 
HETATM   22  C12 UNL     1       2.883   0.630   1.059  1.00  0.00     0.018 A 
ENDBRANCH  11  13
ENDBRANCH   2  11
BRANCH   1  23
HETATM   23  C3  UNL     1      -1.949   0.787  -0.550  1.00  0.00     0.014 A 
HETATM   24  C2  UNL     1      -2.135   1.791   0.382  1.00  0.00     0.125 A 
HETATM   25  N1  UNL     1      -2.723   2.859  -0.168  1.00  0.00    -0.285 N 
HETATM   26  C1  UNL     1      -3.100   4.113   0.426  1.00  0.00     0.179 C 
HETATM   27  N6  UNL     1      -2.917   2.559  -1.436  1.00  0.00    -0.185 NA
HETATM   28  C21 UNL     1      -2.464   1.311  -1.717  1.00  0.00     0.152 A 
ENDBRANCH   1  23
TORSDOF 3
