REMARK  3 active torsions:
REMARK  status: ('A' for Active; 'I' for Inactive)
REMARK    1  A    between atoms: C3_3  and  C4_4 
REMARK    2  A    between atoms: C4_4  and  C5_5 
REMARK    3  A    between atoms: C9_9  and  C10_10 
ROOT
HETATM    1  C1  UNL     1      -7.028   1.017  -0.014  1.00  0.00     0.017 C 
HETATM    2  C2  UNL     1      -6.222   0.448   0.678  1.00  0.00    -0.088 C 
HETATM    3  C3  UNL     1      -5.306  -0.217   1.496  1.00  0.00     0.077 C 
ENDROOT
BRANCH   3   4
HETATM    4  C4  UNL     1      -3.996  -0.344   1.278  1.00  0.00     0.007 C 
BRANCH   4   5
HETATM    5  C5  UNL     1      -2.881  -0.136   0.580  1.00  0.00     0.021 C 
HETATM    6  C6  UNL     1      -2.623  -1.111  -0.566  1.00  0.00     0.091 C 
HETATM    7  C7  UNL     1      -1.314  -0.503  -1.033  1.00  0.00    -0.071 C 
HETATM    8  C8  UNL     1      -0.121  -1.040  -1.090  1.00  0.00     0.015 C 
HETATM    9  C17 UNL     1      -1.530   0.977  -1.367  1.00  0.00     0.063 C 
HETATM   10  C9  UNL     1       0.860  -0.203  -0.333  1.00  0.00    -0.024 C 
HETATM   11  C15 UNL     1       0.326   0.885   0.234  1.00  0.00     0.010 C 
HETATM   12  C16 UNL     1      -1.009   1.528   0.010  1.00  0.00     0.109 C 
HETATM   13  N3  UNL     1      -2.034   0.958   0.918  1.00  0.00    -0.384 N 
HETATM   14  H17 UNL     1      -2.153   1.382   1.879  1.00  0.00     0.160 HD
BRANCH  10  15
HETATM   15  C10 UNL     1       2.197  -0.699  -0.369  1.00  0.00     0.017 A 
HETATM   16  C11 UNL     1       2.635  -1.879  -0.947  1.00  0.00     0.153 A 
HETATM   17  N1  UNL     1       3.956  -2.007  -0.798  1.00  0.00    -0.184 NA
HETATM   18  N2  UNL     1       4.454  -0.985  -0.152  1.00  0.00    -0.278 N 
HETATM   19  C12 UNL     1       5.843  -0.771   0.197  1.00  0.00     0.179 C 
HETATM   20  C13 UNL     1       3.379  -0.184   0.110  1.00  0.00     0.038 A 
HETATM   21  C14 UNL     1       3.572   1.097   0.833  1.00  0.00     0.071 C 
ENDBRANCH  10  15
ENDBRANCH   4   5
ENDBRANCH   3   4
TORSDOF 3
