REMARK  4 active torsions:
REMARK  status: ('A' for Active; 'I' for Inactive)
REMARK    1  A    between atoms: C7_7  and  N1_8 
REMARK    2  A    between atoms: N1_8  and  C8_9 
REMARK    3  A    between atoms: C10_11  and  C11_12 
REMARK    4  A    between atoms: C11_12  and  C12_13 
ROOT
HETATM    1  C1  UNL     1       3.910   4.790   1.186  1.00  0.00     0.018 C 
HETATM    2  C2  UNL     1       3.613   3.759   0.663  1.00  0.00    -0.078 C 
HETATM    3  C3  UNL     1       3.276   2.518   0.051  1.00  0.00     0.019 A 
HETATM    4  C4  UNL     1       3.553   2.306  -1.278  1.00  0.00     0.021 A 
HETATM    5  C5  UNL     1       3.226   1.105  -1.867  1.00  0.00     0.004 A 
HETATM    6  C6  UNL     1       2.621   0.135  -1.094  1.00  0.00     0.029 A 
HETATM    7  C7  UNL     1       2.313   0.274   0.242  1.00  0.00     0.031 A 
HETATM    8  C20 UNL     1       2.668   1.500   0.762  1.00  0.00     0.049 A 
ENDROOT
BRANCH   7   9
HETATM    9  N1  UNL     1       1.689  -0.740   1.017  1.00  0.00    -0.355 N 
HETATM   10  H5  UNL     1       1.512  -0.501   2.031  1.00  0.00     0.163 HD
BRANCH   9  11
HETATM   11  C8  UNL     1       1.310  -2.011   0.492  1.00  0.00     0.170 C 
HETATM   12  C9  UNL     1       0.321  -1.958  -0.615  1.00  0.00     0.036 C 
HETATM   13  C10 UNL     1      -0.917  -1.737  -0.165  1.00  0.00    -0.070 C 
HETATM   14  C16 UNL     1      -1.107  -1.588   1.299  1.00  0.00     0.063 C 
HETATM   15  C17 UNL     1      -0.411  -2.679   2.049  1.00  0.00     0.009 C 
HETATM   16  C18 UNL     1       0.840  -2.880   1.613  1.00  0.00     0.085 C 
HETATM   17  N4  UNL     1       1.881  -3.779   1.991  1.00  0.00    -0.244 NA
HETATM   18  C19 UNL     1       2.835  -3.726   1.117  1.00  0.00     0.205 C 
HETATM   19  N5  UNL     1       2.495  -2.783   0.088  1.00  0.00    -0.350 N 
HETATM   20  H20 UNL     1       3.180  -2.869  -0.716  1.00  0.00     0.163 HD
BRANCH  13  21
HETATM   21  C11 UNL     1      -2.106  -1.639  -1.091  1.00  0.00     0.090 C 
BRANCH  21  22
HETATM   22  C12 UNL     1      -2.757  -0.307  -0.963  1.00  0.00     0.038 C 
HETATM   23  N2  UNL     1      -3.981  -0.101  -0.602  1.00  0.00    -0.186 NA
HETATM   24  N3  UNL     1      -4.276   1.251  -0.583  1.00  0.00    -0.309 N 
HETATM   25  C13 UNL     1      -5.427   1.713   0.200  1.00  0.00     0.173 C 
HETATM   26  C14 UNL     1      -3.285   1.910  -1.413  1.00  0.00     0.150 C 
HETATM   27  C15 UNL     1      -2.092   0.994  -1.233  1.00  0.00     0.078 C 
ENDBRANCH  21  22
ENDBRANCH  13  21
ENDBRANCH   9  11
ENDBRANCH   7   9
TORSDOF 4
