REMARK  3 active torsions:
REMARK  status: ('A' for Active; 'I' for Inactive)
REMARK    1  A    between atoms: C3_3  and  C4_4 
REMARK    2  A    between atoms: C8_8  and  C9_9 
REMARK    3  A    between atoms: C13_15  and  C14_16 
ROOT
HETATM    1  C1  UNL     1      -7.952   1.170   0.586  1.00  0.00     0.112 C 
HETATM    2  C2  UNL     1      -6.549   1.051   0.182  1.00  0.00    -0.105 C 
HETATM    3  C3  UNL     1      -5.395   0.937  -0.144  1.00  0.00    -0.067 C 
ENDROOT
BRANCH   3   4
HETATM    4  C4  UNL     1      -4.017   0.781  -0.517  1.00  0.00     0.018 A 
HETATM    5  C5  UNL     1      -3.534   1.661  -1.457  1.00  0.00     0.020 A 
HETATM    6  C6  UNL     1      -2.218   1.518  -1.820  1.00  0.00     0.002 A 
HETATM    7  C7  UNL     1      -1.348   0.578  -1.329  1.00  0.00     0.014 A 
HETATM    8  C8  UNL     1      -1.844  -0.290  -0.393  1.00  0.00    -0.005 A 
HETATM    9  C20 UNL     1      -3.162  -0.195   0.011  1.00  0.00     0.034 A 
BRANCH   8  10
HETATM   10  C9  UNL     1      -1.203  -1.374   0.337  1.00  0.00     0.077 C 
HETATM   11  N1  UNL     1      -1.522  -2.295   1.215  1.00  0.00    -0.241 NA
HETATM   12  C10 UNL     1      -0.553  -3.221   1.674  1.00  0.00     0.228 C 
HETATM   13  N2  UNL     1       0.728  -3.346   1.317  1.00  0.00    -0.269 NA
HETATM   14  C11 UNL     1       1.190  -2.427   0.311  1.00  0.00     0.168 A 
HETATM   15  C12 UNL     1       2.529  -1.890   0.373  1.00  0.00     0.017 A 
HETATM   16  C19 UNL     1       0.292  -1.268   0.343  1.00  0.00     0.001 A 
HETATM   17  C13 UNL     1       2.524  -0.567   0.376  1.00  0.00    -0.024 A 
HETATM   18  C18 UNL     1       1.115  -0.191   0.361  1.00  0.00     0.024 A 
BRANCH  17  19
HETATM   19  C14 UNL     1       3.683   0.314   0.427  1.00  0.00     0.010 A 
HETATM   20  C15 UNL     1       3.706   1.711   0.432  1.00  0.00     0.152 A 
HETATM   21  N3  UNL     1       5.008   2.085   0.487  1.00  0.00    -0.185 NA
HETATM   22  N4  UNL     1       5.771   1.000   0.515  1.00  0.00    -0.285 N 
HETATM   23  C16 UNL     1       7.217   0.944   0.575  1.00  0.00     0.179 C 
HETATM   24  C17 UNL     1       4.994  -0.111   0.480  1.00  0.00     0.125 A 
ENDBRANCH  17  19
ENDBRANCH   8  10
ENDBRANCH   3   4
TORSDOF 3
