REMARK  2 active torsions:
REMARK  status: ('A' for Active; 'I' for Inactive)
REMARK    1  A    between atoms: C7_7  and  C8_8 
REMARK    2  A    between atoms: C14_16  and  C15_17 
ROOT
HETATM    1  C1  UNL     1      -2.252   4.751  -0.524  1.00  0.00     0.018 C 
HETATM    2  C2  UNL     1      -2.563   3.589  -0.612  1.00  0.00    -0.078 C 
HETATM    3  C3  UNL     1      -2.961   2.194  -0.719  1.00  0.00     0.017 A 
HETATM    4  C4  UNL     1      -4.235   1.877  -1.134  1.00  0.00     0.020 A 
HETATM    5  C5  UNL     1      -4.538   0.539  -1.210  1.00  0.00     0.002 A 
HETATM    6  C6  UNL     1      -3.633  -0.459  -0.894  1.00  0.00     0.013 A 
HETATM    7  C7  UNL     1      -2.360  -0.142  -0.479  1.00  0.00    -0.010 A 
HETATM    8  C19 UNL     1      -2.060   1.199  -0.404  1.00  0.00     0.034 A 
ENDROOT
BRANCH   7   9
HETATM    9  C8  UNL     1      -1.450  -1.233  -0.157  1.00  0.00     0.051 C 
HETATM   10  N1  UNL     1      -2.040  -2.372  -0.322  1.00  0.00    -0.245 NA
HETATM   11  C9  UNL     1      -1.690  -3.768  -0.175  1.00  0.00     0.232 C 
HETATM   12  N2  UNL     1      -0.596  -4.400   0.095  1.00  0.00    -0.254 NA
HETATM   13  C10 UNL     1       0.735  -3.968   0.362  1.00  0.00     0.114 C 
HETATM   14  C11 UNL     1       1.363  -2.821   0.027  1.00  0.00    -0.001 C 
HETATM   15  C12 UNL     1       0.833  -1.686  -0.718  1.00  0.00     0.029 A 
HETATM   16  C13 UNL     1      -0.090  -0.935   0.279  1.00  0.00     0.056 A 
HETATM   17  C14 UNL     1       0.970  -0.270  -0.425  1.00  0.00     0.040 A 
BRANCH  17  18
HETATM   18  C15 UNL     1       2.138   0.192   0.333  1.00  0.00    -0.016 A 
HETATM   19  C16 UNL     1       2.671  -0.325   1.483  1.00  0.00     0.147 A 
HETATM   20  N3  UNL     1       3.747   0.384   1.862  1.00  0.00    -0.185 NA
HETATM   21  N4  UNL     1       3.967   1.370   1.006  1.00  0.00    -0.285 N 
HETATM   22  C17 UNL     1       5.008   2.382   1.012  1.00  0.00     0.179 C 
HETATM   23  C18 UNL     1       2.998   1.267   0.072  1.00  0.00     0.120 A 
ENDBRANCH  17  18
ENDBRANCH   7   9
TORSDOF 2
