REMARK  2 active torsions:
REMARK  status: ('A' for Active; 'I' for Inactive)
REMARK    1  A    between atoms: N1_1  and  C1_2 
REMARK    2  A    between atoms: C14_17  and  N3_18 
ROOT
HETATM    1  C1  UNL     1       3.713  -0.384   0.822  1.00  0.00     0.026 C 
HETATM    2  C2  UNL     1       3.815   0.688   0.056  1.00  0.00     0.034 C 
HETATM    3  C3  UNL     1       2.938   0.943  -1.110  1.00  0.00     0.160 C 
HETATM    4  C4  UNL     1       2.303  -0.320  -1.653  1.00  0.00     0.093 C 
HETATM    5  C5  UNL     1       1.819  -1.192  -0.539  1.00  0.00     0.010 C 
HETATM    6  C6  UNL     1       2.657  -1.370   0.499  1.00  0.00     0.053 C 
HETATM    7  N2  UNL     1       0.489  -1.756  -0.687  1.00  0.00    -0.389 N 
HETATM    8  C7  UNL     1      -0.467  -0.711  -0.383  1.00  0.00     0.160 C 
HETATM    9  C8  UNL     1      -1.874  -1.068  -0.484  1.00  0.00    -0.013 A 
HETATM   10  C9  UNL     1      -2.497  -2.240  -0.834  1.00  0.00     0.019 A 
HETATM   11 BR1  UNL     1      -1.332  -3.680  -1.276  1.00  0.00    -0.050 Br
HETATM   12  C10 UNL     1      -3.852  -2.463  -0.894  1.00  0.00     0.020 A 
HETATM   13  C11 UNL     1      -4.669  -1.401  -0.568  1.00  0.00     0.002 A 
HETATM   14  C12 UNL     1      -4.093  -0.195  -0.208  1.00  0.00     0.012 A 
HETATM   15  C13 UNL     1      -2.706   0.013  -0.153  1.00  0.00     0.005 A 
HETATM   16  C14 UNL     1      -2.433   1.389   0.260  1.00  0.00     0.374 C 
HETATM   17  N4  UNL     1      -1.076   1.820   0.156  1.00  0.00    -0.243 NA
HETATM   18  C15 UNL     1      -0.655   2.838   0.851  1.00  0.00     0.231 C 
HETATM   19  N5  UNL     1       0.475   2.401   0.109  1.00  0.00    -0.231 NA
HETATM   20  C16 UNL     1       1.641   2.185   0.569  1.00  0.00     0.253 C 
HETATM   21  O1  UNL     1       1.913   1.855  -0.774  1.00  0.00    -0.335 OA
HETATM   22  H8  UNL     1       1.009  -2.648  -0.945  1.00  0.00     0.159 HD
ENDROOT
BRANCH   1  23
HETATM   23  N1  UNL     1       4.525  -0.700   1.946  1.00  0.00    -0.399 N 
HETATM   24  H1  UNL     1       4.004  -0.476   2.815  1.00  0.00     0.156 HD
HETATM   25  H2  UNL     1       5.462  -1.084   1.744  1.00  0.00     0.156 HD
ENDBRANCH   1  23
BRANCH  16  26
HETATM   26  N3  UNL     1      -2.817   1.628   1.660  1.00  0.00     0.107 N 
HETATM   27  H15 UNL     1      -3.240   0.770   2.083  1.00  0.00     0.316 HD
HETATM   28  H16 UNL     1      -3.458   2.455   1.736  1.00  0.00     0.316 HD
ENDBRANCH  16  26
TORSDOF 2
