REMARK  2 active torsions:
REMARK  status: ('A' for Active; 'I' for Inactive)
REMARK    1  A    between atoms: C9_12  and  C10_13 
REMARK    2  A    between atoms: C10_13  and  C11_14 
ROOT
HETATM    1  C1  UNL     1      -4.962  -0.317   0.002  1.00  0.00     0.043 C 
HETATM    2  C2  UNL     1      -3.577  -0.425  -0.587  1.00  0.00    -0.081 C 
HETATM    3  C3  UNL     1      -3.563  -1.528  -1.359  1.00  0.00     0.004 C 
HETATM    4  C4  UNL     1      -2.331  -1.916  -2.085  1.00  0.00     0.017 C 
HETATM    5  C5  UNL     1      -1.105  -1.351  -2.059  1.00  0.00     0.084 C 
HETATM    6  N1  UNL     1      -0.703  -0.197  -1.286  1.00  0.00    -0.384 N 
HETATM    7  C6  UNL     1      -1.204   0.093   0.040  1.00  0.00     0.077 C 
HETATM    8  C7  UNL     1      -1.332  -1.131   0.910  1.00  0.00     0.059 C 
HETATM    9  C8  UNL     1      -1.375  -0.804   2.395  1.00  0.00     0.144 C 
HETATM   10  N2  UNL     1      -1.730   0.588   2.606  1.00  0.00    -0.314 N 
HETATM   11  N3  UNL     1      -0.725   1.344   2.001  1.00  0.00    -0.186 NA
HETATM   12  C9  UNL     1      -0.446   1.128   0.761  1.00  0.00     0.061 C 
HETATM   13  C19 UNL     1      -2.630   0.626  -0.212  1.00  0.00     0.071 C 
HETATM   14  H7  UNL     1      -0.013   0.330  -1.905  1.00  0.00     0.160 HD
HETATM   15  H12 UNL     1      -2.602   0.887   3.130  1.00  0.00     0.182 HD
ENDROOT
BRANCH  12  16
HETATM   16  C10 UNL     1       0.652   2.010   0.308  1.00  0.00     0.069 C 
BRANCH  16  17
HETATM   17  C11 UNL     1       1.951   1.259   0.079  1.00  0.00    -0.011 A 
HETATM   18  C12 UNL     1       1.466   0.043   0.468  1.00  0.00     0.129 A 
HETATM   19  C13 UNL     1       2.738  -0.488   0.202  1.00  0.00    -0.098 A 
HETATM   20  C14 UNL     1       3.811  -0.914  -0.027  1.00  0.00    -0.084 A 
HETATM   21  C15 UNL     1       5.109  -1.403  -0.310  1.00  0.00     0.241 A 
HETATM   22  N4  UNL     1       5.921  -0.252  -0.783  1.00  0.00    -0.290 NA
HETATM   23  C16 UNL     1       5.279   0.901  -0.828  1.00  0.00     0.111 A 
HETATM   24  C17 UNL     1       4.261   1.904  -0.732  1.00  0.00     0.015 A 
HETATM   25  C18 UNL     1       3.030   2.195  -0.429  1.00  0.00    -0.019 A 
ENDBRANCH  16  17
ENDBRANCH  12  16
TORSDOF 2
