REMARK  4 active torsions:
REMARK  status: ('A' for Active; 'I' for Inactive)
REMARK    1  A    between atoms: C4_5  and  N1_6 
REMARK    2  A    between atoms: N1_6  and  C5_7 
REMARK    3  A    between atoms: C10_14  and  C11_15 
REMARK    4  A    between atoms: N5_18  and  C13_19 
ROOT
HETATM    1  C5  UNL     1       2.641  -0.326   0.265  1.00  0.00     0.161 A 
HETATM    2  N2  UNL     1       3.444  -1.163   0.497  1.00  0.00    -0.386 NA
HETATM    3  C6  UNL     1       4.423  -2.022   0.739  1.00  0.00     0.295 A 
HETATM    4  N3  UNL     1       3.987  -3.205   1.010  1.00  0.00    -0.264 NA
HETATM    5  C7  UNL     1       2.588  -3.456   1.024  1.00  0.00     0.171 A 
HETATM    6  C8  UNL     1       1.241  -3.232   0.925  1.00  0.00     0.024 A 
HETATM    7  C9  UNL     1       0.085  -2.304   0.665  1.00  0.00    -0.016 A 
HETATM    8  C10 UNL     1       0.216  -1.024   0.362  1.00  0.00    -0.041 A 
HETATM    9  C19 UNL     1       1.232  -0.029   0.154  1.00  0.00     0.131 A 
ENDROOT
BRANCH   8  10
HETATM   10  C11 UNL     1      -1.140  -0.430   0.176  1.00  0.00     0.007 A 
HETATM   11  C12 UNL     1      -1.519   0.868  -0.146  1.00  0.00     0.152 A 
HETATM   12  N4  UNL     1      -2.844   0.993  -0.219  1.00  0.00    -0.184 NA
HETATM   13  N5  UNL     1      -3.409  -0.170   0.039  1.00  0.00    -0.276 N 
HETATM   14  C18 UNL     1      -2.399  -1.006   0.271  1.00  0.00     0.126 A 
BRANCH  13  15
HETATM   15  C13 UNL     1      -4.818  -0.479   0.066  1.00  0.00     0.113 C 
HETATM   16  C14 UNL     1      -5.540   0.480   0.989  1.00  0.00     0.057 C 
HETATM   17  C15 UNL     1      -6.701   1.075   0.254  1.00  0.00     0.271 C 
HETATM   18  N6  UNL     1      -6.168   1.868  -0.849  1.00  0.00     0.083 N 
HETATM   19  C16 UNL     1      -5.545   0.998  -1.812  1.00  0.00     0.271 C 
HETATM   20  H14 UNL     1      -5.475   2.543  -0.464  1.00  0.00     0.315 HD
HETATM   21  C17 UNL     1      -5.420  -0.412  -1.324  1.00  0.00     0.057 C 
ENDBRANCH  13  15
ENDBRANCH   8  10
BRANCH   1  22
HETATM   22  N1  UNL     1       3.358   0.900  -0.031  1.00  0.00    -0.334 N 
HETATM   23  H3  UNL     1       3.042   1.888  -0.281  1.00  0.00     0.168 HD
BRANCH  22  24
HETATM   24  C4  UNL     1       4.753   1.135  -0.074  1.00  0.00     0.035 A 
HETATM   25  C3  UNL     1       5.394   0.921  -1.300  1.00  0.00     0.032 A 
HETATM   26  C2  UNL     1       6.771   1.136  -1.421  1.00  0.00     0.046 A 
HETATM   27  C1  UNL     1       7.504   1.564  -0.314  1.00  0.00     0.138 A 
HETATM   28  F1  UNL     1       8.856   1.773  -0.439  1.00  0.00    -0.204 F 
HETATM   29  C21 UNL     1       6.889   1.774   0.881  1.00  0.00     0.074 A 
HETATM   30  C20 UNL     1       5.531   1.564   1.006  1.00  0.00     0.056 A 
HETATM   31 CL1  UNL     1       7.838   2.310   2.245  1.00  0.00    -0.081 Cl
ENDBRANCH  22  24
ENDBRANCH   1  22
TORSDOF 4
