REMARK  6 active torsions:
REMARK  status: ('A' for Active; 'I' for Inactive)
REMARK    1  A    between atoms: C4_4  and  C5_5 
REMARK    2  A    between atoms: C4_4  and  C7_7 
REMARK    3  A    between atoms: C7_7  and  C8_8 
REMARK    4  A    between atoms: C8_8  and  N1_9 
REMARK    5  A    between atoms: N1_9  and  C9_10 
REMARK    6  A    between atoms: C14_17  and  C15_18 
ROOT
HETATM    1  C1  UNL     1       6.653  -1.772   2.417  1.00  0.00     0.017 C 
HETATM    2  C2  UNL     1       5.718  -2.278   1.847  1.00  0.00    -0.089 C 
HETATM    3  C3  UNL     1       4.626  -2.884   1.165  1.00  0.00     0.074 C 
HETATM    4  C4  UNL     1       3.787  -2.054   0.604  1.00  0.00    -0.031 C 
ENDROOT
BRANCH   4   5
HETATM    5  C5  UNL     1       4.286  -0.707   0.890  1.00  0.00     0.003 C 
HETATM    6  C6  UNL     1       4.107   0.584   0.730  1.00  0.00     0.014 C 
ENDBRANCH   4   5
BRANCH   4   7
HETATM    7  C7  UNL     1       2.570  -1.902  -0.145  1.00  0.00     0.028 C 
BRANCH   7   8
HETATM    8  C8  UNL     1       1.544  -1.489  -0.796  1.00  0.00     0.088 C 
BRANCH   8   9
HETATM    9  N1  UNL     1       1.089  -0.200  -1.170  1.00  0.00    -0.379 N 
HETATM   10  H8  UNL     1       0.993  -0.054  -2.215  1.00  0.00     0.164 HD
BRANCH   9  11
HETATM   11  C9  UNL     1       0.643   1.133  -1.130  1.00  0.00    -0.025 A 
HETATM   12  B1  UNL     1       1.547   2.646  -1.559  1.00  0.00     0.259 B 
HETATM   13  C10 UNL     1       0.373   4.030  -1.381  1.00  0.00     0.033 A 
HETATM   14  N2  UNL     1      -0.801   3.697  -0.926  1.00  0.00    -0.276 NA
HETATM   15  C11 UNL     1      -1.335   2.552  -0.594  1.00  0.00     0.066 A 
HETATM   16  C12 UNL     1      -2.631   2.641  -0.138  1.00  0.00     0.033 A 
HETATM   17  C19 UNL     1      -0.644   1.401  -0.702  1.00  0.00     0.004 A 
HETATM   18  C13 UNL     1      -3.326   1.521   0.247  1.00  0.00     0.012 A 
HETATM   19  C14 UNL     1      -2.717   0.294   0.177  1.00  0.00    -0.028 A 
HETATM   20  C18 UNL     1      -1.399   0.292  -0.295  1.00  0.00     0.024 A 
BRANCH  19  21
HETATM   21  C15 UNL     1      -3.362  -0.971   0.547  1.00  0.00     0.178 A 
HETATM   22  C16 UNL     1      -4.347  -0.745   1.679  1.00  0.00     0.143 A 
HETATM   23  N3  UNL     1      -5.452  -1.048   1.046  1.00  0.00    -0.191 NA
HETATM   24  N4  UNL     1      -4.631  -1.279  -0.072  1.00  0.00    -0.296 N 
HETATM   25  C17 UNL     1      -4.930  -1.704  -1.442  1.00  0.00     0.174 C 
ENDBRANCH  19  21
ENDBRANCH   9  11
ENDBRANCH   8   9
ENDBRANCH   7   8
ENDBRANCH   4   7
TORSDOF 6
