REMARK  7 active torsions:
REMARK  status: ('A' for Active; 'I' for Inactive)
REMARK    1  A    between atoms: C2_2  and  C3_3 
REMARK    2  A    between atoms: C3_3  and  C4_4 
REMARK    3  A    between atoms: C4_4  and  C5_5 
REMARK    4  A    between atoms: C5_5  and  C6_6 
REMARK    5  A    between atoms: C6_6  and  N1_7 
REMARK    6  A    between atoms: N1_7  and  C7_8 
REMARK    7  A    between atoms: C12_15  and  C13_16 
ROOT
HETATM    1  C7  UNL     1       1.099  -0.341   0.048  1.00  0.00     0.137 A 
HETATM    2  N2  UNL     1       2.316  -0.340  -0.501  1.00  0.00    -0.224 NA
HETATM    3  C8  UNL     1       2.536  -0.030  -1.772  1.00  0.00     0.235 A 
HETATM    4  N3  UNL     1       1.538   0.311  -2.610  1.00  0.00    -0.241 NA
HETATM    5  C9  UNL     1       0.279   0.336  -2.141  1.00  0.00     0.072 A 
HETATM    6  C10 UNL     1      -0.761   0.680  -2.972  1.00  0.00     0.033 A 
HETATM    7  C11 UNL     1      -2.065   0.714  -2.511  1.00  0.00     0.014 A 
HETATM    8  C12 UNL     1      -2.254   0.385  -1.187  1.00  0.00    -0.022 A 
HETATM    9  C17 UNL     1      -1.206   0.041  -0.359  1.00  0.00     0.030 A 
HETATM   10  C18 UNL     1       0.083   0.007  -0.810  1.00  0.00     0.039 A 
ENDROOT
BRANCH   1  11
HETATM   11  N1  UNL     1       0.906  -0.679   1.411  1.00  0.00    -0.371 N 
HETATM   12  H8  UNL     1       0.016  -0.707   1.914  1.00  0.00     0.161 HD
BRANCH  11  13
HETATM   13  C6  UNL     1       2.084  -1.030   2.213  1.00  0.00     0.148 C 
BRANCH  13  14
HETATM   14  C5  UNL     1       3.052   0.095   2.252  1.00  0.00    -0.007 C 
BRANCH  14  15
HETATM   15  C4  UNL     1       4.312   0.176   1.863  1.00  0.00     0.005 C 
BRANCH  15  16
HETATM   16  C3  UNL     1       5.022  -0.923   1.282  1.00  0.00     0.050 C 
BRANCH  16  17
HETATM   17  C2  UNL     1       5.865  -0.729   0.278  1.00  0.00    -0.155 C 
HETATM   18  C1  UNL     1       6.670  -0.254  -0.658  1.00  0.00     0.096 C 
ENDBRANCH  16  17
ENDBRANCH  15  16
ENDBRANCH  14  15
ENDBRANCH  13  14
ENDBRANCH  11  13
ENDBRANCH   1  11
BRANCH   8  19
HETATM   19  C13 UNL     1      -3.626   0.420  -0.696  1.00  0.00     0.010 A 
HETATM   20  C14 UNL     1      -4.667   1.257  -1.103  1.00  0.00     0.152 A 
HETATM   21  N4  UNL     1      -5.795   0.967  -0.393  1.00  0.00    -0.185 NA
HETATM   22  N5  UNL     1      -5.508  -0.021   0.446  1.00  0.00    -0.285 N 
HETATM   23  C15 UNL     1      -6.480  -0.582   1.357  1.00  0.00     0.179 C 
HETATM   24  C16 UNL     1      -4.221  -0.357   0.278  1.00  0.00     0.125 A 
ENDBRANCH   8  19
TORSDOF 7
