REMARK  3 active torsions:
REMARK  status: ('A' for Active; 'I' for Inactive)
REMARK    1  A    between atoms: C7_7  and  N1_8 
REMARK    2  A    between atoms: N1_8  and  P1_9 
REMARK    3  A    between atoms: C11_16  and  C12_17 
ROOT
HETATM    1  C1  UNL     1       7.502  -2.456  -1.315  1.00  0.00     0.018 C 
HETATM    2  C2  UNL     1       6.633  -1.658  -1.058  1.00  0.00    -0.078 C 
HETATM    3  C3  UNL     1       5.602  -0.697  -0.773  1.00  0.00     0.019 A 
HETATM    4  C4  UNL     1       5.915   0.644  -0.699  1.00  0.00     0.021 A 
HETATM    5  C5  UNL     1       4.913   1.575  -0.426  1.00  0.00     0.004 A 
HETATM    6  C6  UNL     1       3.630   1.091  -0.239  1.00  0.00     0.029 A 
HETATM    7  C7  UNL     1       3.320  -0.255  -0.314  1.00  0.00     0.033 A 
HETATM    8  C18 UNL     1       4.320  -1.166  -0.584  1.00  0.00     0.050 A 
ENDROOT
BRANCH   7   9
HETATM    9  N1  UNL     1       1.945  -0.473  -0.087  1.00  0.00    -0.349 N 
HETATM   10  H5  UNL     1       1.450  -0.490  -1.023  1.00  0.00     0.166 HD
BRANCH   9  11
HETATM   11  P1  UNL     1       1.141  -0.686   1.479  1.00  0.00     0.101 P 
HETATM   12  N2  UNL     1       2.030   0.113   2.518  1.00  0.00    -0.128 NA
HETATM   13  N3  UNL     1       1.542   1.220   3.168  1.00  0.00    -0.043 NA
HETATM   14  N4  UNL     1       0.417   1.751   3.076  1.00  0.00    -0.130 NA
HETATM   15  C8  UNL     1      -0.630   1.289   2.234  1.00  0.00     0.094 A 
HETATM   16  C9  UNL     1      -1.857   1.909   2.161  1.00  0.00     0.035 A 
HETATM   17  C17 UNL     1      -0.447   0.176   1.439  1.00  0.00     0.034 A 
HETATM   18  C10 UNL     1      -2.858   1.443   1.335  1.00  0.00     0.015 A 
HETATM   19  C11 UNL     1      -2.675   0.320   0.531  1.00  0.00    -0.022 A 
HETATM   20  C16 UNL     1      -1.444  -0.296   0.609  1.00  0.00     0.030 A 
HETATM   21  H6  UNL     1       0.975  -2.023   1.810  1.00  0.00     0.105 HD
BRANCH  19  22
HETATM   22  C12 UNL     1      -3.774  -0.114  -0.319  1.00  0.00     0.010 A 
HETATM   23  C13 UNL     1      -3.642  -0.744  -1.546  1.00  0.00     0.152 A 
HETATM   24  N5  UNL     1      -4.893  -0.980  -2.018  1.00  0.00    -0.185 NA
HETATM   25  N6  UNL     1      -5.783  -0.530  -1.153  1.00  0.00    -0.285 N 
HETATM   26  C14 UNL     1      -7.247  -0.541  -1.193  1.00  0.00     0.179 C 
HETATM   27  C15 UNL     1      -5.131   0.003  -0.106  1.00  0.00     0.125 A 
ENDBRANCH  19  22
ENDBRANCH   9  11
ENDBRANCH   7   9
TORSDOF 3
