REMARK  1 active torsions:
REMARK  status: ('A' for Active; 'I' for Inactive)
REMARK    1  A    between atoms: C7_7  and  N1_8 
ROOT
HETATM    1  C1  UNL     1       4.288  -3.288  -1.712  1.00  0.00     0.018 C 
HETATM    2  C2  UNL     1       3.899  -2.197  -1.485  1.00  0.00    -0.078 C 
HETATM    3  C3  UNL     1       3.448  -0.862  -1.213  1.00  0.00     0.019 A 
HETATM    4  C4  UNL     1       4.259   0.257  -1.036  1.00  0.00     0.021 A 
HETATM    5  C5  UNL     1       3.764   1.517  -0.785  1.00  0.00     0.004 A 
HETATM    6  C6  UNL     1       2.394   1.660  -0.707  1.00  0.00     0.030 A 
HETATM    7  C7  UNL     1       1.484   0.607  -0.867  1.00  0.00     0.039 A 
HETATM    8  C20 UNL     1       2.107  -0.577  -1.109  1.00  0.00     0.050 A 
ENDROOT
BRANCH   7   9
HETATM    9  N1  UNL     1       0.096   0.864  -0.770  1.00  0.00    -0.313 N 
HETATM   10  C8  UNL     1      -0.541   2.036  -0.231  1.00  0.00     0.276 C 
HETATM   11  N2  UNL     1      -0.375   2.302   1.173  1.00  0.00    -0.292 N 
HETATM   12  C9  UNL     1       0.707   2.646   2.034  1.00  0.00     0.175 C 
HETATM   13  N3  UNL     1      -1.573   2.167   1.844  1.00  0.00    -0.192 NA
HETATM   14  C10 UNL     1      -2.172   1.175   2.339  1.00  0.00     0.116 C 
HETATM   15  C11 UNL     1      -2.674  -0.186   2.843  1.00  0.00     0.087 C 
HETATM   16  C12 UNL     1      -2.809  -1.039   1.605  1.00  0.00    -0.052 A 
HETATM   17  C13 UNL     1      -3.528  -2.092   1.091  1.00  0.00     0.010 A 
HETATM   18  C19 UNL     1      -1.945  -0.656   0.617  1.00  0.00     0.025 A 
HETATM   19  C14 UNL     1      -3.286  -2.530  -0.185  1.00  0.00     0.033 A 
HETATM   20  C15 UNL     1      -2.332  -1.980  -1.052  1.00  0.00     0.072 A 
HETATM   21  N4  UNL     1      -2.145  -2.449  -2.312  1.00  0.00    -0.241 NA
HETATM   22  C18 UNL     1      -1.547  -0.921  -0.655  1.00  0.00     0.039 A 
HETATM   23  C16 UNL     1      -1.196  -1.809  -3.035  1.00  0.00     0.236 A 
HETATM   24  N5  UNL     1      -0.438  -0.756  -2.602  1.00  0.00    -0.223 NA
HETATM   25  C17 UNL     1      -0.597  -0.266  -1.362  1.00  0.00     0.145 A 
ENDBRANCH   7   9
TORSDOF 1
