REMARK  3 active torsions:
REMARK  status: ('A' for Active; 'I' for Inactive)
REMARK    1  A    between atoms: C6_7  and  C7_8 
REMARK    2  A    between atoms: C7_8  and  N2_9 
REMARK    3  A    between atoms: N2_9  and  C8_10 
ROOT
HETATM    1  C8  UNL     1      -1.087   0.203  -0.785  1.00  0.00     0.136 A 
HETATM    2  N3  UNL     1      -1.062   0.006  -2.070  1.00  0.00    -0.224 NA
HETATM    3  C9  UNL     1       0.106   0.329  -2.808  1.00  0.00     0.232 A 
HETATM    4  N4  UNL     1       1.203   0.812  -2.395  1.00  0.00    -0.242 NA
HETATM    5  C10 UNL     1       1.385   1.110  -0.993  1.00  0.00     0.384 A 
HETATM    6  C11 UNL     1       0.166   0.742  -0.269  1.00  0.00     0.057 A 
HETATM    7  C12 UNL     1       0.319   0.963   1.025  1.00  0.00     0.102 C 
HETATM    8  N5  UNL     1       1.450   1.482   1.749  1.00  0.00    -0.373 N 
HETATM    9  C13 UNL     1       2.134   0.695   2.703  1.00  0.00     0.104 C 
HETATM   10  C14 UNL     1       3.301   0.076   2.722  1.00  0.00     0.100 C 
HETATM   11  N6  UNL     1       4.178   0.118   1.615  1.00  0.00    -0.393 N 
HETATM   12  C15 UNL     1       4.734  -0.471   0.440  1.00  0.00     0.084 C 
HETATM   13  C16 UNL     1       3.835  -1.486  -0.212  1.00  0.00     0.055 C 
HETATM   14  C17 UNL     1       2.714  -0.821  -0.981  1.00  0.00     0.277 C 
HETATM   15  N7  UNL     1       2.579   0.516  -0.439  1.00  0.00     0.118 N 
HETATM   16  C18 UNL     1       3.733   1.279  -0.935  1.00  0.00     0.277 C 
HETATM   17  C19 UNL     1       5.027   0.617  -0.592  1.00  0.00     0.055 C 
HETATM   18  H13 UNL     1       1.869   2.438   1.658  1.00  0.00     0.164 HD
HETATM   19  H16 UNL     1       4.570   1.076   1.847  1.00  0.00     0.159 HD
ENDROOT
BRANCH   1  20
HETATM   20  N2  UNL     1      -2.198  -0.082   0.048  1.00  0.00    -0.370 N 
HETATM   21  H9  UNL     1      -2.196   0.320   0.992  1.00  0.00     0.161 HD
BRANCH  20  22
HETATM   22  C7  UNL     1      -3.250  -0.915  -0.493  1.00  0.00     0.160 C 
BRANCH  22  23
HETATM   23  C6  UNL     1      -4.343  -1.136   0.470  1.00  0.00    -0.032 A 
HETATM   24  C2  UNL     1      -5.242  -0.119   0.695  1.00  0.00    -0.036 A 
HETATM   25  C1  UNL     1      -5.199   1.205   0.034  1.00  0.00     0.050 C 
HETATM   26  C3  UNL     1      -6.290  -0.255   1.583  1.00  0.00     0.123 A 
HETATM   27  N1  UNL     1      -6.468  -1.414   2.271  1.00  0.00    -0.273 NA
HETATM   28  C4  UNL     1      -5.609  -2.433   2.079  1.00  0.00     0.117 A 
HETATM   29  C5  UNL     1      -4.554  -2.309   1.191  1.00  0.00     0.028 A 
ENDBRANCH  22  23
ENDBRANCH  20  22
ENDBRANCH   1  20
TORSDOF 3
