REMARK  2 active torsions:
REMARK  status: ('A' for Active; 'I' for Inactive)
REMARK    1  A    between atoms: C2_2  and  N1_3 
REMARK    2  A    between atoms: C10_13  and  C11_14 
ROOT
HETATM    1  N1  UNL     1      -2.350  -1.791  -0.797  1.00  0.00    -0.390 N 
HETATM    2  C3  UNL     1      -1.050  -1.264  -0.664  1.00  0.00     0.086 C 
HETATM    3  C4  UNL     1       0.103  -0.702  -0.502  1.00  0.00     0.026 C 
HETATM    4  C5  UNL     1       0.273   0.630   0.120  1.00  0.00    -0.028 C 
HETATM    5  C6  UNL     1      -0.547   1.563  -0.360  1.00  0.00     0.018 C 
HETATM    6  C7  UNL     1      -1.174   2.538   0.511  1.00  0.00    -0.041 C 
HETATM    7  C8  UNL     1      -0.868   2.441   1.830  1.00  0.00     0.095 C 
HETATM    8  N2  UNL     1       0.123   1.496   2.237  1.00  0.00    -0.357 N 
HETATM    9  C9  UNL     1       0.463   0.678   3.368  1.00  0.00     0.274 A 
HETATM   10  N3  UNL     1       1.676   0.001   3.011  1.00  0.00    -0.271 NA
HETATM   11  C10 UNL     1       2.072   0.292   1.819  1.00  0.00     0.068 A 
HETATM   12  C20 UNL     1       1.142   1.223   1.195  1.00  0.00     0.171 A 
HETATM   13  C21 UNL     1      -2.165   3.621   0.323  1.00  0.00     0.059 C 
HETATM   14  C22 UNL     1      -3.344   3.084  -0.533  1.00  0.00     0.118 C 
HETATM   15  N5  UNL     1      -3.570   1.800  -0.040  1.00  0.00    -0.421 N 
HETATM   16  C23 UNL     1      -4.721   1.079  -0.463  1.00  0.00     0.115 C 
HETATM   17  C24 UNL     1      -4.291  -0.397  -0.076  1.00  0.00     0.039 C 
HETATM   18  C25 UNL     1      -3.212  -0.695  -1.127  1.00  0.00     0.123 C 
HETATM   19  H23 UNL     1      -3.144   1.519   0.847  1.00  0.00     0.153 HD
ENDROOT
BRANCH  11  20
HETATM   20  C11 UNL     1       3.286  -0.273   1.231  1.00  0.00    -0.009 A 
HETATM   21  C12 UNL     1       4.078  -1.176   1.904  1.00  0.00     0.016 A 
HETATM   22  C13 UNL     1       5.221  -1.661   1.336  1.00  0.00     0.033 A 
HETATM   23  C14 UNL     1       5.635  -1.278   0.077  1.00  0.00     0.066 A 
HETATM   24  N4  UNL     1       6.778  -1.768  -0.472  1.00  0.00    -0.260 NA
HETATM   25  C18 UNL     1       4.858  -0.379  -0.612  1.00  0.00    -0.006 A 
HETATM   26  C15 UNL     1       7.167  -1.380  -1.697  1.00  0.00     0.117 A 
HETATM   27  C16 UNL     1       6.412  -0.463  -2.444  1.00  0.00     0.020 A 
HETATM   28  C17 UNL     1       5.250   0.022  -1.863  1.00  0.00     0.015 A 
HETATM   29  C19 UNL     1       3.681   0.134  -0.049  1.00  0.00     0.027 A 
ENDBRANCH  11  20
BRANCH   1  30
HETATM   30  C2  UNL     1      -2.884  -3.131  -0.693  1.00  0.00     0.118 C 
HETATM   31  C1  UNL     1      -3.349  -3.690  -2.000  1.00  0.00     0.026 C 
ENDBRANCH   1  30
TORSDOF 2
