REMARK  3 active torsions:
REMARK  status: ('A' for Active; 'I' for Inactive)
REMARK    1  A    between atoms: C7_8  and  N1_9 
REMARK    2  A    between atoms: N1_9  and  C8_10 
REMARK    3  A    between atoms: C9_11  and  N2_12 
ROOT
HETATM    1  C8  UNL     1      -0.236   0.360   0.460  1.00  0.00     0.180 C 
HETATM    2  C9  UNL     1      -0.743  -1.087   0.423  1.00  0.00     0.081 C 
HETATM    3  C10 UNL     1      -1.942  -1.035  -0.195  1.00  0.00     0.164 C 
HETATM    4  N3  UNL     1      -3.265  -1.656  -0.101  1.00  0.00    -0.365 N 
HETATM    5  C11 UNL     1      -4.336  -0.596  -0.012  1.00  0.00     0.157 C 
HETATM    6  C12 UNL     1      -3.603   0.746   0.016  1.00  0.00    -0.043 C 
HETATM    7  C13 UNL     1      -2.535   1.030   0.830  1.00  0.00     0.025 C 
HETATM    8  C14 UNL     1      -1.361   1.001  -0.142  1.00  0.00     0.147 C 
HETATM    9  C15 UNL     1      -1.487   2.220  -0.853  1.00  0.00     0.128 C 
HETATM   10  N4  UNL     1      -2.656   2.562  -1.279  1.00  0.00    -0.298 NA
HETATM   11  C16 UNL     1      -3.897   1.913  -0.879  1.00  0.00     0.183 C 
HETATM   12  O1  UNL     1      -1.571  -0.016  -1.169  1.00  0.00    -0.311 OA
HETATM   13  H11 UNL     1      -2.970  -2.651  -0.124  1.00  0.00     0.162 HD
ENDROOT
BRANCH   1  14
HETATM   14  N1  UNL     1       1.019   0.503  -0.198  1.00  0.00    -0.376 N 
HETATM   15  H7  UNL     1       0.980   1.133  -1.051  1.00  0.00     0.160 HD
BRANCH  14  16
HETATM   16  C7  UNL     1       2.288  -0.056   0.104  1.00  0.00     0.036 A 
HETATM   17  C2  UNL     1       3.409   0.195  -0.688  1.00  0.00    -0.018 A 
HETATM   18  C1  UNL     1       3.233   1.073  -1.883  1.00  0.00     0.052 C 
HETATM   19  C3  UNL     1       4.622  -0.348  -0.374  1.00  0.00     0.019 A 
HETATM   20 BR1  UNL     1       6.078   0.069  -1.535  1.00  0.00    -0.051 Br
HETATM   21  C4  UNL     1       4.808  -1.158   0.718  1.00  0.00     0.020 A 
HETATM   22  C5  UNL     1       3.723  -1.429   1.526  1.00  0.00     0.004 A 
HETATM   23  C6  UNL     1       2.513  -0.870   1.188  1.00  0.00     0.030 A 
ENDBRANCH  14  16
ENDBRANCH   1  14
BRANCH   2  24
HETATM   24  N2  UNL     1      -0.461  -2.467   0.794  1.00  0.00    -0.397 N 
HETATM   25  H9  UNL     1      -1.019  -2.910   1.538  1.00  0.00     0.156 HD
HETATM   26  H10 UNL     1       0.246  -3.142   0.430  1.00  0.00     0.156 HD
ENDBRANCH   2  24
TORSDOF 3
