REMARK  5 active torsions:
REMARK  status: ('A' for Active; 'I' for Inactive)
REMARK    1  A    between atoms: N1_1  and  C1_2 
REMARK    2  A    between atoms: C2_3  and  C3_4 
REMARK    3  A    between atoms: N3_7  and  C5_8 
REMARK    4  A    between atoms: C15_20  and  N6_21 
REMARK    5  A    between atoms: N6_21  and  C16_22 
ROOT
HETATM    1  C1  UNL     1       0.406  -2.910   0.757  1.00  0.00     0.024 C 
HETATM    2  C2  UNL     1       0.690  -1.576   0.789  1.00  0.00     0.014 C 
HETATM    3  C11 UNL     1       1.950  -1.783   1.725  1.00  0.00     0.020 C 
HETATM    4  C12 UNL     1       2.103  -3.083   2.089  1.00  0.00     0.002 C 
HETATM    5  C13 UNL     1       1.871  -3.345   0.649  1.00  0.00     0.079 C 
HETATM    6  C14 UNL     1       3.020  -2.646   0.117  1.00  0.00     0.165 C 
HETATM    7  N5  UNL     1       3.651  -1.629   1.234  1.00  0.00    -0.271 NA
HETATM    8  C15 UNL     1       2.732  -0.584   1.200  1.00  0.00     0.134 C 
ENDROOT
BRANCH   2   9
HETATM    9  C3  UNL     1      -0.250  -0.683   0.059  1.00  0.00     0.013 A 
HETATM   10  C4  UNL     1       0.062   0.300  -0.842  1.00  0.00     0.152 A 
HETATM   11  N2  UNL     1      -1.130   0.799  -1.123  1.00  0.00    -0.184 NA
HETATM   12  N3  UNL     1      -2.093   0.201  -0.474  1.00  0.00    -0.276 N 
HETATM   13  C10 UNL     1      -1.617  -0.770   0.313  1.00  0.00     0.126 A 
BRANCH  12  14
HETATM   14  C5  UNL     1      -3.498   0.526  -0.574  1.00  0.00     0.113 C 
HETATM   15  C6  UNL     1      -4.234   0.188   0.692  1.00  0.00     0.057 C 
HETATM   16  C7  UNL     1      -5.724   0.368   0.365  1.00  0.00     0.271 C 
HETATM   17  N4  UNL     1      -5.926   1.769   0.083  1.00  0.00     0.083 N 
HETATM   18  C8  UNL     1      -5.189   2.154  -1.118  1.00  0.00     0.271 C 
HETATM   19  H9  UNL     1      -6.957   1.893  -0.142  1.00  0.00     0.315 HD
HETATM   20  C9  UNL     1      -3.705   1.999  -0.844  1.00  0.00     0.057 C 
ENDBRANCH  12  14
ENDBRANCH   2   9
BRANCH   1  21
HETATM   21  N1  UNL     1      -0.752  -3.743   0.774  1.00  0.00    -0.401 N 
HETATM   22  H1  UNL     1      -1.335  -3.769  -0.096  1.00  0.00     0.156 HD
HETATM   23  H2  UNL     1      -1.119  -4.346   1.539  1.00  0.00     0.156 HD
ENDBRANCH   1  21
BRANCH   8  24
HETATM   24  N6  UNL     1       2.580   0.790   0.990  1.00  0.00    -0.341 N 
HETATM   25  H19 UNL     1       1.663   1.062   1.370  1.00  0.00     0.167 HD
BRANCH  24  26
HETATM   26  C16 UNL     1       3.723   1.315   0.364  1.00  0.00     0.035 A 
HETATM   27  C17 UNL     1       3.631   2.676   0.417  1.00  0.00     0.032 A 
HETATM   28  C18 UNL     1       4.679   3.400  -0.173  1.00  0.00     0.046 A 
HETATM   29  C19 UNL     1       5.761   2.801  -0.784  1.00  0.00     0.138 A 
HETATM   30  F1  UNL     1       6.770   3.501  -1.353  1.00  0.00    -0.204 F 
HETATM   31  C20 UNL     1       5.783   1.430  -0.799  1.00  0.00     0.074 A 
HETATM   32 CL1  UNL     1       7.076   0.505  -1.530  1.00  0.00    -0.081 Cl
HETATM   33  C21 UNL     1       4.774   0.693  -0.231  1.00  0.00     0.056 A 
ENDBRANCH  24  26
ENDBRANCH   8  24
TORSDOF 5
