REMARK  2 active torsions:
REMARK  status: ('A' for Active; 'I' for Inactive)
REMARK    1  A    between atoms: C4_5  and  N1_6 
REMARK    2  A    between atoms: N1_6  and  C5_7 
ROOT
HETATM    1  C5  UNL     1      -2.930   0.749  -0.436  1.00  0.00     0.142 A 
HETATM    2  N2  UNL     1      -3.521   1.927  -0.481  1.00  0.00    -0.224 NA
HETATM    3  C6  UNL     1      -2.944   3.132  -0.524  1.00  0.00     0.235 A 
HETATM    4  N3  UNL     1      -1.605   3.117  -0.520  1.00  0.00    -0.241 NA
HETATM    5  C7  UNL     1      -0.927   1.945  -0.475  1.00  0.00     0.069 A 
HETATM    6  C8  UNL     1      -1.560   0.724  -0.431  1.00  0.00     0.039 A 
HETATM    7  C9  UNL     1      -0.937  -0.436  -0.384  1.00  0.00     0.025 A 
HETATM    8  C10 UNL     1       0.542  -0.475  -0.373  1.00  0.00    -0.048 A 
HETATM    9  C11 UNL     1       1.102  -1.674  -0.287  1.00  0.00     0.028 C 
HETATM   10  C12 UNL     1       2.377  -2.394  -0.226  1.00  0.00     0.139 C 
HETATM   11  N4  UNL     1       3.561  -1.977  -0.249  1.00  0.00    -0.192 NA
HETATM   12  N5  UNL     1       4.745  -2.667  -0.187  1.00  0.00    -0.314 N 
HETATM   13  C13 UNL     1       5.396  -1.853   0.786  1.00  0.00     0.143 C 
HETATM   14  C14 UNL     1       6.085  -0.675   0.203  1.00  0.00     0.051 C 
HETATM   15  C15 UNL     1       5.335   0.053  -0.850  1.00  0.00     0.271 C 
HETATM   16  N6  UNL     1       4.005   0.400  -0.583  1.00  0.00     0.083 N 
HETATM   17  C16 UNL     1       3.609   1.360   0.347  1.00  0.00     0.270 C 
HETATM   18  C17 UNL     1       2.171   1.001   0.762  1.00  0.00     0.043 C 
HETATM   19  C18 UNL     1       1.320   0.822  -0.433  1.00  0.00     0.045 A 
HETATM   20  C19 UNL     1       0.381   1.988  -0.479  1.00  0.00     0.015 A 
HETATM   21  H8  UNL     1       5.060  -3.519  -0.695  1.00  0.00     0.182 HD
HETATM   22  H15 UNL     1       3.636   0.758  -1.549  1.00  0.00     0.315 HD
ENDROOT
BRANCH   1  23
HETATM   23  N1  UNL     1      -3.775  -0.390  -0.364  1.00  0.00    -0.340 N 
HETATM   24  H3  UNL     1      -3.523  -1.386  -0.459  1.00  0.00     0.167 HD
BRANCH  23  25
HETATM   25  C4  UNL     1      -5.173  -0.296  -0.138  1.00  0.00     0.035 A 
HETATM   26  C3  UNL     1      -5.719   0.737   0.617  1.00  0.00     0.032 A 
HETATM   27  C2  UNL     1      -7.085   0.903   0.869  1.00  0.00     0.046 A 
HETATM   28  C1  UNL     1      -7.948  -0.023   0.330  1.00  0.00     0.138 A 
HETATM   29  F1  UNL     1      -9.280   0.132   0.570  1.00  0.00    -0.204 F 
HETATM   30  C21 UNL     1      -7.466  -1.068  -0.427  1.00  0.00     0.074 A 
HETATM   31  C20 UNL     1      -6.117  -1.188  -0.646  1.00  0.00     0.056 A 
HETATM   32 CL1  UNL     1      -8.633  -2.211  -1.081  1.00  0.00    -0.081 Cl
ENDBRANCH  23  25
ENDBRANCH   1  23
TORSDOF 2
