REMARK  3 active torsions:
REMARK  status: ('A' for Active; 'I' for Inactive)
REMARK    1  A    between atoms: C4_5  and  N1_6 
REMARK    2  A    between atoms: N1_6  and  N2_7 
REMARK    3  A    between atoms: N4_17  and  C13_18 
ROOT
HETATM    1  N2  UNL     1       3.066  -0.448   0.786  1.00  0.00    -0.253 N 
HETATM    2  C5  UNL     1       3.988  -1.398   1.461  1.00  0.00     0.232 C 
HETATM    3  N3  UNL     1       3.806  -2.748   1.346  1.00  0.00    -0.246 NA
HETATM    4  C6  UNL     1       2.562  -3.183   0.804  1.00  0.00     0.041 C 
HETATM    5  C7  UNL     1       1.655  -3.876   1.455  1.00  0.00     0.028 C 
HETATM    6  C8  UNL     1       0.168  -3.798   1.359  1.00  0.00     0.012 C 
HETATM    7  C9  UNL     1      -0.651  -2.805   1.011  1.00  0.00    -0.024 C 
HETATM    8  C10 UNL     1      -1.904  -3.473   1.287  1.00  0.00     0.069 C 
HETATM    9  C11 UNL     1      -2.999  -2.515   1.644  1.00  0.00    -0.003 C 
HETATM   10  C12 UNL     1      -3.263  -1.250   1.332  1.00  0.00     0.109 C 
HETATM   11  N4  UNL     1      -2.493  -0.355   0.480  1.00  0.00    -0.276 N 
HETATM   12  N6  UNL     1      -1.101  -0.385   0.297  1.00  0.00    -0.172 NA
HETATM   13  C18 UNL     1      -0.395  -1.430   0.535  1.00  0.00     0.085 C 
HETATM   14  C19 UNL     1       0.838  -0.655   0.181  1.00  0.00     0.061 C 
HETATM   15  C20 UNL     1       2.045  -1.180   0.054  1.00  0.00     0.043 C 
HETATM   16  C21 UNL     1       2.548  -2.503  -0.595  1.00  0.00     0.118 C 
ENDROOT
BRANCH   1  17
HETATM   17  N1  UNL     1       2.747   0.889   0.612  1.00  0.00    -0.293 N 
HETATM   18  H3  UNL     1       2.061   1.425   1.199  1.00  0.00     0.187 HD
BRANCH  17  19
HETATM   19  C4  UNL     1       3.421   1.623  -0.439  1.00  0.00     0.050 A 
HETATM   20  C3  UNL     1       3.254   1.710  -1.777  1.00  0.00     0.034 A 
HETATM   21  C2  UNL     1       4.082   2.542  -2.517  1.00  0.00     0.046 A 
HETATM   22  C1  UNL     1       5.067   3.275  -1.888  1.00  0.00     0.138 A 
HETATM   23  F1  UNL     1       5.830   4.069  -2.709  1.00  0.00    -0.204 F 
HETATM   24  C23 UNL     1       5.261   3.205  -0.521  1.00  0.00     0.074 A 
HETATM   25  C22 UNL     1       4.418   2.361   0.218  1.00  0.00     0.058 A 
HETATM   26 CL1  UNL     1       6.547   4.195   0.138  1.00  0.00    -0.081 Cl
ENDBRANCH  17  19
ENDBRANCH   1  17
BRANCH  11  27
HETATM   27  C13 UNL     1      -3.283   0.608  -0.204  1.00  0.00     0.112 C 
HETATM   28  C14 UNL     1      -2.479   1.482  -1.156  1.00  0.00     0.046 C 
HETATM   29  C15 UNL     1      -3.525   2.298  -1.903  1.00  0.00     0.115 C 
HETATM   30  N5  UNL     1      -4.871   1.962  -1.541  1.00  0.00    -0.421 N 
HETATM   31  C16 UNL     1      -5.193   2.077  -0.155  1.00  0.00     0.115 C 
HETATM   32  H16 UNL     1      -5.260   1.133  -2.025  1.00  0.00     0.153 HD
HETATM   33  C17 UNL     1      -4.032   1.567   0.695  1.00  0.00     0.046 C 
ENDBRANCH  11  27
TORSDOF 3
