REMARK  6 active torsions:
REMARK  status: ('A' for Active; 'I' for Inactive)
REMARK    1  A    between atoms: C5_6  and  N2_7 
REMARK    2  A    between atoms: N2_7  and  C6_8 
REMARK    3  A    between atoms: C7_9  and  C8_10 
REMARK    4  A    between atoms: C8_10  and  C9_11 
REMARK    5  A    between atoms: C11_13  and  N3_14 
REMARK    6  A    between atoms: N3_14  and  C12_15 
ROOT
HETATM    1  C9  UNL     1       1.084  -1.233  -0.219  1.00  0.00    -0.068 C 
HETATM    2  C10 UNL     1       2.296  -1.705  -0.038  1.00  0.00     0.039 A 
HETATM    3  C11 UNL     1       3.219  -0.807   0.443  1.00  0.00     0.142 A 
HETATM    4  N4  UNL     1       4.497  -1.140   0.679  1.00  0.00    -0.224 NA
HETATM    5  C18 UNL     1       4.980  -2.376   0.466  1.00  0.00     0.235 A 
HETATM    6  N5  UNL     1       4.107  -3.284  -0.004  1.00  0.00    -0.242 NA
HETATM    7  C19 UNL     1       2.833  -2.944  -0.238  1.00  0.00     0.058 A 
HETATM    8  C20 UNL     1       2.061  -3.901  -0.719  1.00  0.00    -0.051 C 
HETATM    9  B1  UNL     1       0.585  -3.563  -1.030  1.00  0.00     0.188 B 
HETATM   10  C21 UNL     1      -0.007  -2.186  -0.647  1.00  0.00    -0.014 C 
HETATM   11  H20 UNL     1      -0.193  -4.429  -1.325  1.00  0.00    -0.021 HD
ENDROOT
BRANCH   1  12
HETATM   12  C8  UNL     1       0.568   0.107   0.006  1.00  0.00     0.078 C 
BRANCH  12  13
HETATM   13  C7  UNL     1      -0.398   0.200   1.137  1.00  0.00     0.009 A 
HETATM   14  C6  UNL     1      -1.621   0.511   1.535  1.00  0.00     0.131 A 
HETATM   15  N6  UNL     1      -1.368   0.181   2.873  1.00  0.00    -0.242 NA
HETATM   16  C22 UNL     1      -0.160  -0.136   2.536  1.00  0.00     0.130 A 
BRANCH  14  17
HETATM   17  N2  UNL     1      -2.709   1.001   0.756  1.00  0.00    -0.368 N 
HETATM   18  H11 UNL     1      -2.645   2.012   0.502  1.00  0.00     0.161 HD
BRANCH  17  19
HETATM   19  C5  UNL     1      -3.778   0.063   0.399  1.00  0.00     0.117 C 
HETATM   20  C2  UNL     1      -4.822   0.757  -0.415  1.00  0.00     0.239 C 
HETATM   21  C1  UNL     1      -4.811   0.119  -1.799  1.00  0.00     0.045 C 
HETATM   22  N1  UNL     1      -6.115   0.466   0.188  1.00  0.00     0.089 N 
HETATM   23  C3  UNL     1      -5.863   0.399   1.600  1.00  0.00     0.272 C 
HETATM   24  H5  UNL     1      -6.399  -0.490  -0.127  1.00  0.00     0.316 HD
HETATM   25  C4  UNL     1      -4.529  -0.283   1.677  1.00  0.00     0.057 C 
ENDBRANCH  17  19
ENDBRANCH  14  17
ENDBRANCH  12  13
ENDBRANCH   1  12
BRANCH   3  26
HETATM   26  N3  UNL     1       3.064   0.565   0.784  1.00  0.00    -0.340 N 
HETATM   27  H14 UNL     1       2.458   0.764   1.612  1.00  0.00     0.167 HD
BRANCH  26  28
HETATM   28  C12 UNL     1       3.724   1.639   0.050  1.00  0.00     0.035 A 
HETATM   29  C13 UNL     1       3.356   2.931   0.372  1.00  0.00     0.032 A 
HETATM   30  C14 UNL     1       3.937   3.993  -0.284  1.00  0.00     0.046 A 
HETATM   31  C15 UNL     1       4.894   3.712  -1.268  1.00  0.00     0.138 A 
HETATM   32  F1  UNL     1       5.473   4.771  -1.922  1.00  0.00    -0.204 F 
HETATM   33  C16 UNL     1       5.268   2.413  -1.593  1.00  0.00     0.074 A 
HETATM   34 CL1  UNL     1       6.467   2.100  -2.826  1.00  0.00    -0.081 Cl
HETATM   35  C17 UNL     1       4.663   1.351  -0.912  1.00  0.00     0.056 A 
ENDBRANCH  26  28
ENDBRANCH   3  26
TORSDOF 6
