REMARK  2 active torsions:
REMARK  status: ('A' for Active; 'I' for Inactive)
REMARK    1  A    between atoms: C9_10  and  N2_11 
REMARK    2  A    between atoms: N2_11  and  C10_12 
ROOT
HETATM    1  C1  UNL     1      -1.498   1.463  -1.430  1.00  0.00    -0.005 C 
HETATM    2  C2  UNL     1      -0.563   2.311  -1.046  1.00  0.00     0.030 C 
HETATM    3  C3  UNL     1      -0.626   3.190   0.114  1.00  0.00     0.062 A 
HETATM    4  N1  UNL     1      -1.540   4.158  -0.013  1.00  0.00    -0.261 NA
HETATM    5  C4  UNL     1      -1.713   5.042   1.021  1.00  0.00     0.117 A 
HETATM    6  C5  UNL     1      -0.930   4.885   2.149  1.00  0.00     0.020 A 
HETATM    7  C6  UNL     1       0.014   3.886   2.280  1.00  0.00     0.011 A 
HETATM    8  C7  UNL     1       0.196   2.992   1.242  1.00  0.00    -0.024 A 
HETATM    9  C8  UNL     1       1.161   1.843   1.104  1.00  0.00     0.097 C 
HETATM   10  C9  UNL     1       0.604   0.525   1.318  1.00  0.00     0.006 C 
HETATM   11  C15 UNL     1      -0.319  -0.408   1.623  1.00  0.00     0.002 C 
HETATM   12  C16 UNL     1      -0.455  -1.909   1.719  1.00  0.00     0.057 C 
HETATM   13  C17 UNL     1      -1.534  -2.370   0.852  1.00  0.00    -0.010 C 
HETATM   14  C18 UNL     1      -2.578  -2.502   0.024  1.00  0.00     0.004 A 
HETATM   15  C19 UNL     1      -3.195  -3.736  -0.510  1.00  0.00     0.192 A 
HETATM   16  N4  UNL     1      -4.273  -3.448  -1.358  1.00  0.00    -0.278 NA
HETATM   17  C20 UNL     1      -4.765  -2.349  -1.685  1.00  0.00     0.229 A 
HETATM   18  N5  UNL     1      -4.212  -1.116  -1.167  1.00  0.00    -0.225 NA
HETATM   19  C21 UNL     1      -3.202  -1.253  -0.378  1.00  0.00     0.132 A 
HETATM   20  N6  UNL     1      -2.957   0.090  -0.048  1.00  0.00    -0.371 N 
HETATM   21  C22 UNL     1      -2.732   1.359  -0.666  1.00  0.00     0.148 C 
HETATM   22  H26 UNL     1      -3.021  -0.061   0.980  1.00  0.00     0.161 HD
ENDROOT
BRANCH  10  23
HETATM   23  N2  UNL     1       1.654  -0.397   1.044  1.00  0.00    -0.388 N 
HETATM   24  H8  UNL     1       2.211  -0.621   1.906  1.00  0.00     0.159 HD
BRANCH  23  25
HETATM   25  C10 UNL     1       2.091  -1.051  -0.148  1.00  0.00     0.084 C 
HETATM   26  C11 UNL     1       2.628  -0.109  -1.209  1.00  0.00     0.055 C 
HETATM   27  C12 UNL     1       3.347  -0.976  -2.257  1.00  0.00     0.271 C 
HETATM   28  N3  UNL     1       4.598  -1.474  -1.724  1.00  0.00     0.083 N 
HETATM   29  C13 UNL     1       4.544  -1.563  -0.296  1.00  0.00     0.271 C 
HETATM   30  H14 UNL     1       5.419  -0.934  -2.077  1.00  0.00     0.315 HD
HETATM   31  C14 UNL     1       3.177  -2.066   0.115  1.00  0.00     0.055 C 
ENDBRANCH  23  25
ENDBRANCH  10  23
TORSDOF 2
