REMARK  3 active torsions:
REMARK  status: ('A' for Active; 'I' for Inactive)
REMARK    1  A    between atoms: N1_2  and  C2_3 
REMARK    2  A    between atoms: C7_10  and  N3_11 
REMARK    3  A    between atoms: N3_11  and  C8_12 
ROOT
HETATM    1  C2  UNL     1      -1.992   0.381   0.159  1.00  0.00     0.121 C 
HETATM    2  C3  UNL     1      -3.095   0.413  -0.570  1.00  0.00     0.027 C 
HETATM    3  C4  UNL     1      -3.418  -0.795  -1.410  1.00  0.00     0.033 C 
HETATM    4  C5  UNL     1      -3.113  -2.052  -1.860  1.00  0.00     0.197 C 
HETATM    5  O1  UNL     1      -2.107  -3.053  -1.716  1.00  0.00    -0.310 OA
HETATM    6  C6  UNL     1      -1.311  -3.161  -0.550  1.00  0.00     0.268 C 
HETATM    7  N2  UNL     1      -0.650  -2.262  -1.251  1.00  0.00    -0.190 NA
HETATM    8  C7  UNL     1       0.019  -1.468  -0.239  1.00  0.00     0.246 C 
HETATM    9  C14 UNL     1       0.494  -2.538   0.641  1.00  0.00     0.173 C 
HETATM   10  N4  UNL     1      -0.546  -3.306   0.642  1.00  0.00    -0.217 NA
HETATM   11  N5  UNL     1      -1.014  -0.626   0.329  1.00  0.00    -0.325 N 
HETATM   12  H12 UNL     1      -1.150  -0.804   1.357  1.00  0.00     0.166 HD
ENDROOT
BRANCH   8  13
HETATM   13  N3  UNL     1       1.071  -0.655  -0.786  1.00  0.00    -0.340 N 
HETATM   14  H6  UNL     1       1.220  -0.723  -1.833  1.00  0.00     0.164 HD
BRANCH  13  15
HETATM   15  C8  UNL     1       1.897   0.202  -0.056  1.00  0.00     0.032 A 
HETATM   16  C9  UNL     1       1.809   0.361   1.309  1.00  0.00     0.029 A 
HETATM   17  C10 UNL     1       2.631   1.215   2.034  1.00  0.00     0.004 A 
HETATM   18  C11 UNL     1       3.592   1.952   1.363  1.00  0.00     0.019 A 
HETATM   19  C12 UNL     1       3.717   1.825  -0.007  1.00  0.00     0.013 A 
HETATM   20 BR1  UNL     1       5.036   2.832  -0.954  1.00  0.00    -0.051 Br
HETATM   21  C13 UNL     1       2.872   0.963  -0.658  1.00  0.00     0.048 A 
ENDBRANCH  13  15
ENDBRANCH   8  13
BRANCH   1  22
HETATM   22  N1  UNL     1      -1.891   1.622   0.863  1.00  0.00    -0.255 NA
HETATM   23  C1  UNL     1      -1.933   2.766   0.286  1.00  0.00     0.151 C 
ENDBRANCH   1  22
TORSDOF 3
