REMARK  2 active torsions:
REMARK  status: ('A' for Active; 'I' for Inactive)
REMARK    1  A    between atoms: C11_16  and  C12_17 
REMARK    2  A    between atoms: C12_17  and  C13_18 
ROOT
HETATM    1  C1  UNL     1       1.452  -2.571   0.297  1.00  0.00     0.053 C 
HETATM    2  C2  UNL     1       0.408  -1.555   0.061  1.00  0.00    -0.025 C 
HETATM    3  S1  UNL     1      -1.051  -1.785   0.649  1.00  0.00    -0.150 SA
HETATM    4  C3  UNL     1      -2.197  -0.520   0.307  1.00  0.00     0.091 A 
HETATM    5  N1  UNL     1      -2.733  -1.198  -0.648  1.00  0.00    -0.279 NA
HETATM    6  C4  UNL     1      -3.827  -0.765  -1.460  1.00  0.00     0.177 A 
HETATM    7  C5  UNL     1      -4.323   0.583  -1.103  1.00  0.00    -0.004 A 
HETATM    8  C6  UNL     1      -3.779   1.282  -0.126  1.00  0.00     0.013 A 
HETATM    9  C7  UNL     1      -2.669   0.785   0.660  1.00  0.00     0.017 A 
HETATM   10  C8  UNL     1      -2.167   1.535   1.625  1.00  0.00     0.155 C 
HETATM   11  N2  UNL     1      -1.092   1.227   2.493  1.00  0.00    -0.160 NA
HETATM   12  N3  UNL     1       0.116   1.154   2.211  1.00  0.00    -0.135 NA
HETATM   13  C9  UNL     1       0.643   1.372   0.935  1.00  0.00     0.147 C 
HETATM   14  N4  UNL     1       0.022   0.770  -0.044  1.00  0.00    -0.258 NA
HETATM   15  C10 UNL     1       0.720  -0.325  -0.720  1.00  0.00     0.177 C 
HETATM   16  C11 UNL     1       2.161  -0.010  -0.774  1.00  0.00    -0.035 C 
HETATM   17  C14 UNL     1       2.590   1.200  -0.464  1.00  0.00    -0.010 C 
HETATM   18  C15 UNL     1       1.765   2.128   0.349  1.00  0.00     0.109 C 
HETATM   19  H4  UNL     1      -0.986  -2.179   1.965  1.00  0.00     0.102 HD
ENDROOT
BRANCH  16  20
HETATM   20  C12 UNL     1       3.183  -0.960  -1.155  1.00  0.00    -0.000 C 
BRANCH  20  21
HETATM   21  C13 UNL     1       4.465  -0.655  -1.196  1.00  0.00     0.207 C 
HETATM   22 BR1  UNL     1       6.125   0.313  -1.082  1.00  0.00    -0.193 Br
ENDBRANCH  20  21
ENDBRANCH  16  20
TORSDOF 2
