REMARK  3 active torsions:
REMARK  status: ('A' for Active; 'I' for Inactive)
REMARK    1  A    between atoms: N2_6  and  C5_7 
REMARK    2  A    between atoms: C13_16  and  N4_17 
REMARK    3  A    between atoms: N4_17  and  C14_18 
ROOT
HETATM    1  C1  UNL     1       2.339   2.983   1.863  1.00  0.00     0.007 C 
HETATM    2  C2  UNL     1       2.677   1.744   2.117  1.00  0.00    -0.055 C 
HETATM    3  C3  UNL     1       1.995   0.610   2.932  1.00  0.00     0.097 C 
HETATM    4  C4  UNL     1       1.225   0.138   1.669  1.00  0.00     0.059 C 
HETATM    5  N1  UNL     1       1.968  -0.683   0.959  1.00  0.00    -0.181 NA
HETATM    6  N2  UNL     1       3.347  -0.122   0.771  1.00  0.00    -0.296 N 
HETATM    7  C10 UNL     1       3.863   1.151   1.431  1.00  0.00     0.179 C 
HETATM    8  C11 UNL     1      -0.040   0.539   1.100  1.00  0.00     0.046 C 
HETATM    9  C12 UNL     1      -0.688   1.730   1.154  1.00  0.00     0.041 A 
HETATM   10  C13 UNL     1      -1.949   1.330   0.840  1.00  0.00     0.142 A 
HETATM   11  N6  UNL     1      -2.809   2.329   0.771  1.00  0.00    -0.224 NA
HETATM   12  C23 UNL     1      -2.383   3.607   1.010  1.00  0.00     0.236 A 
HETATM   13  N7  UNL     1      -1.104   3.985   1.327  1.00  0.00    -0.241 NA
HETATM   14  C24 UNL     1      -0.208   3.012   1.405  1.00  0.00     0.072 A 
HETATM   15  C25 UNL     1       0.990   3.511   1.692  1.00  0.00     0.033 C 
ENDROOT
BRANCH  10  16
HETATM   16  N4  UNL     1      -2.256  -0.033   0.671  1.00  0.00    -0.340 N 
HETATM   17  H17 UNL     1      -1.973  -1.004   0.769  1.00  0.00     0.167 HD
BRANCH  16  18
HETATM   18  C14 UNL     1      -3.547  -0.314   0.136  1.00  0.00     0.034 A 
HETATM   19  C15 UNL     1      -4.003   0.596  -0.827  1.00  0.00     0.032 A 
HETATM   20  C16 UNL     1      -5.259   0.472  -1.432  1.00  0.00     0.035 A 
HETATM   21  C17 UNL     1      -6.102  -0.557  -1.104  1.00  0.00     0.066 A 
HETATM   22  N5  UNL     1      -7.323  -0.769  -1.621  1.00  0.00    -0.260 NA
HETATM   23  C21 UNL     1      -5.709  -1.484  -0.164  1.00  0.00    -0.005 A 
HETATM   24  C18 UNL     1      -8.117  -1.795  -1.267  1.00  0.00     0.117 A 
HETATM   25  C19 UNL     1      -7.698  -2.715  -0.319  1.00  0.00     0.020 A 
HETATM   26  C20 UNL     1      -6.440  -2.568   0.271  1.00  0.00     0.015 A 
HETATM   27  C22 UNL     1      -4.469  -1.335   0.414  1.00  0.00     0.043 A 
ENDBRANCH  16  18
ENDBRANCH  10  16
BRANCH   6  28
HETATM   28  C5  UNL     1       4.287  -0.776  -0.081  1.00  0.00     0.108 C 
HETATM   29  C6  UNL     1       4.757   0.133  -1.219  1.00  0.00     0.057 C 
HETATM   30  C7  UNL     1       5.445  -0.749  -2.231  1.00  0.00     0.271 C 
HETATM   31  N3  UNL     1       5.907  -2.007  -1.692  1.00  0.00     0.083 N 
HETATM   32  C8  UNL     1       4.816  -2.836  -1.224  1.00  0.00     0.271 C 
HETATM   33  H9  UNL     1       6.700  -1.918  -1.052  1.00  0.00     0.315 HD
HETATM   34  C9  UNL     1       3.627  -1.961  -0.800  1.00  0.00     0.057 C 
ENDBRANCH   6  28
TORSDOF 3
