REMARK  4 active torsions:
REMARK  status: ('A' for Active; 'I' for Inactive)
REMARK    1  A    between atoms: N1_1  and  C1_2 
REMARK    2  A    between atoms: N3_11  and  C9_12 
REMARK    3  A    between atoms: C14_18  and  C15_19 
REMARK    4  A    between atoms: N6_22  and  C17_23 
ROOT
HETATM    1  C9  UNL     1       2.749  -0.790  -1.755  1.00  0.00     0.145 C 
HETATM    2  C10 UNL     1       4.020  -1.615  -2.043  1.00  0.00     0.116 C 
HETATM    3  N4  UNL     1       3.674  -2.892  -2.059  1.00  0.00    -0.267 NA
HETATM    4  C11 UNL     1       2.255  -3.020  -1.809  1.00  0.00     0.044 A 
HETATM    5  C12 UNL     1       1.113  -3.654  -2.012  1.00  0.00     0.028 A 
HETATM    6  C13 UNL     1       0.161  -2.905  -1.216  1.00  0.00     0.011 A 
HETATM    7  C14 UNL     1       0.726  -1.862  -0.565  1.00  0.00    -0.033 A 
HETATM    8  C23 UNL     1       2.104  -1.811  -0.858  1.00  0.00     0.100 A 
ENDROOT
BRANCH   1   9
HETATM    9  N3  UNL     1       3.090   0.387  -1.029  1.00  0.00    -0.336 N 
HETATM   10  C1  UNL     1       4.302   0.624  -0.337  1.00  0.00     0.082 A 
HETATM   11  C2  UNL     1       4.607   1.720   0.339  1.00  0.00     0.074 A 
HETATM   12  C3  UNL     1       3.628   2.799   0.396  1.00  0.00     0.071 A 
HETATM   13  N2  UNL     1       3.784   3.914   1.010  1.00  0.00    -0.259 NA
HETATM   14  C7  UNL     1       2.363   2.612  -0.297  1.00  0.00     0.009 A 
HETATM   15  C4  UNL     1       2.754   4.913   1.004  1.00  0.00     0.129 C 
HETATM   16  C5  UNL     1       1.578   4.657   0.530  1.00  0.00    -0.006 C 
HETATM   17  C6  UNL     1       1.355   3.662  -0.269  1.00  0.00     0.029 C 
HETATM   18  C8  UNL     1       2.171   1.474  -0.940  1.00  0.00     0.107 A 
BRANCH  10  19
HETATM   19  N1  UNL     1       5.303  -0.356  -0.334  1.00  0.00    -0.288 NA
HETATM   20  H1  UNL     1       5.977  -0.653   0.417  1.00  0.00     0.125 HD
HETATM   21  H2  UNL     1       6.022  -0.755   0.298  1.00  0.00     0.125 HD
ENDBRANCH  10  19
ENDBRANCH   1   9
BRANCH   7  22
HETATM   22  C15 UNL     1      -0.239  -1.109   0.241  1.00  0.00     0.007 A 
HETATM   23  C16 UNL     1       0.061  -0.077   1.106  1.00  0.00     0.152 A 
HETATM   24  N5  UNL     1      -1.082   0.400   1.671  1.00  0.00    -0.184 NA
HETATM   25  N6  UNL     1      -2.113  -0.269   1.219  1.00  0.00    -0.276 N 
HETATM   26  C22 UNL     1      -1.611  -1.169   0.366  1.00  0.00     0.126 A 
BRANCH  25  27
HETATM   27  C17 UNL     1      -3.507  -0.078   1.565  1.00  0.00     0.113 C 
HETATM   28  C18 UNL     1      -4.003   1.253   1.059  1.00  0.00     0.057 C 
HETATM   29  C19 UNL     1      -5.122   1.085   0.050  1.00  0.00     0.271 C 
HETATM   30  N7  UNL     1      -6.188   0.256   0.518  1.00  0.00     0.083 N 
HETATM   31  C20 UNL     1      -5.788  -0.943   1.192  1.00  0.00     0.271 C 
HETATM   32  H17 UNL     1      -6.940   0.732   1.044  1.00  0.00     0.315 HD
HETATM   33  C21 UNL     1      -4.315  -1.175   0.904  1.00  0.00     0.057 C 
ENDBRANCH  25  27
ENDBRANCH   7  22
TORSDOF 4
