REMARK  1 active torsions:
REMARK  status: ('A' for Active; 'I' for Inactive)
REMARK    1  A    between atoms: N5_16  and  C12_17 
ROOT
HETATM    1  C1  UNL     1      -3.739   1.507  -0.323  1.00  0.00     0.030 A 
HETATM    2  C2  UNL     1      -3.586   0.214   0.028  1.00  0.00     0.094 A 
HETATM    3  N1  UNL     1      -2.442  -0.328   0.742  1.00  0.00    -0.330 N 
HETATM    4  C3  UNL     1      -2.827  -1.713   0.879  1.00  0.00     0.144 A 
HETATM    5  N2  UNL     1      -3.904  -2.095   1.589  1.00  0.00    -0.223 NA
HETATM    6  C4  UNL     1      -4.236  -3.401   1.752  1.00  0.00     0.236 A 
HETATM    7  N3  UNL     1      -3.538  -4.453   1.229  1.00  0.00    -0.241 NA
HETATM    8  C5  UNL     1      -2.441  -4.147   0.499  1.00  0.00     0.072 A 
HETATM    9  C6  UNL     1      -1.595  -5.099  -0.094  1.00  0.00     0.033 A 
HETATM   10  C7  UNL     1      -0.467  -4.779  -0.820  1.00  0.00     0.015 A 
HETATM   11  C8  UNL     1      -0.062  -3.456  -1.031  1.00  0.00    -0.016 A 
HETATM   12  C9  UNL     1      -1.066  -2.834  -0.350  1.00  0.00     0.030 A 
HETATM   13  C10 UNL     1      -2.189  -2.804   0.391  1.00  0.00     0.040 A 
HETATM   14  C11 UNL     1       1.054  -2.778  -1.677  1.00  0.00     0.150 C 
HETATM   15  N4  UNL     1       1.165  -1.833  -0.832  1.00  0.00    -0.184 NA
HETATM   16  N5  UNL     1       2.016  -0.781  -0.772  1.00  0.00    -0.280 N 
HETATM   17  C17 UNL     1       1.214  -0.384   0.376  1.00  0.00     0.093 C 
HETATM   18  C18 UNL     1       0.022   0.058   0.851  1.00  0.00     0.067 C 
HETATM   19  C19 UNL     1      -1.340   0.531   1.123  1.00  0.00     0.153 A 
HETATM   20  C20 UNL     1      -1.641   1.903   0.695  1.00  0.00     0.068 A 
HETATM   21  N7  UNL     1      -0.622   2.698   1.071  1.00  0.00    -0.262 NA
HETATM   22  C21 UNL     1      -0.696   4.014   0.765  1.00  0.00     0.117 A 
HETATM   23  C22 UNL     1      -1.743   4.606   0.091  1.00  0.00     0.020 A 
HETATM   24  C23 UNL     1      -2.787   3.793  -0.294  1.00  0.00     0.015 A 
HETATM   25  C24 UNL     1      -2.700   2.469   0.021  1.00  0.00    -0.008 A 
ENDROOT
BRANCH  16  26
HETATM   26  C12 UNL     1       3.058   0.208  -0.958  1.00  0.00     0.112 C 
HETATM   27  C13 UNL     1       2.571   1.588  -1.210  1.00  0.00     0.057 C 
HETATM   28  C14 UNL     1       2.943   2.595  -0.168  1.00  0.00     0.271 C 
HETATM   29  N6  UNL     1       4.246   2.461   0.391  1.00  0.00     0.083 N 
HETATM   30  C15 UNL     1       4.997   1.315  -0.050  1.00  0.00     0.271 C 
HETATM   31  H13 UNL     1       4.803   3.336   0.403  1.00  0.00     0.315 HD
HETATM   32  C16 UNL     1       4.075   0.116   0.157  1.00  0.00     0.057 C 
ENDBRANCH  16  26
TORSDOF 1
