REMARK  5 active torsions:
REMARK  status: ('A' for Active; 'I' for Inactive)
REMARK    1  A    between atoms: C12_14  and  O2_15 
REMARK    2  A    between atoms: O2_15  and  C13_16 
REMARK    3  A    between atoms: C13_16  and  C14_17 
REMARK    4  A    between atoms: C14_17  and  C15_18 
REMARK    5  A    between atoms: C15_18  and  N2_19 
ROOT
HETATM    1  C1  UNL     1      -7.740   2.288  -0.819  1.00  0.00     0.019 C 
HETATM    2  C2  UNL     1      -6.573   1.455  -0.229  1.00  0.00     0.068 C 
HETATM    3  C3  UNL     1      -6.482   0.223  -1.079  1.00  0.00     0.179 C 
HETATM    4  O1  UNL     1      -5.692  -0.725  -1.034  1.00  0.00    -0.387 OA
HETATM    5  C4  UNL     1      -4.891  -1.682  -0.990  1.00  0.00     0.195 C 
HETATM    6  C5  UNL     1      -3.633  -1.767  -0.259  1.00  0.00     0.000 C 
HETATM    7  C6  UNL     1      -2.826  -2.305   0.642  1.00  0.00     0.013 C 
HETATM    8  C7  UNL     1      -1.496  -1.761   0.838  1.00  0.00     0.007 C 
HETATM    9  C8  UNL     1      -1.896  -0.775   1.637  1.00  0.00     0.100 C 
HETATM   10  N1  UNL     1      -1.856   0.315   0.985  1.00  0.00    -0.228 NA
HETATM   11  C9  UNL     1      -0.781   0.460   0.010  1.00  0.00     0.129 C 
HETATM   12  C10 UNL     1       0.328  -0.277   0.229  1.00  0.00     0.064 C 
HETATM   13  C11 UNL     1      -0.056  -1.596   0.718  1.00  0.00     0.002 C 
HETATM   14  C12 UNL     1       0.806  -2.541   1.023  1.00  0.00     0.147 C 
HETATM   15  N3  UNL     1      -0.855   1.334  -1.144  1.00  0.00    -0.351 N 
HETATM   16  C20 UNL     1      -1.586   2.384  -0.465  1.00  0.00     0.090 C 
HETATM   17  C21 UNL     1      -2.874   2.254  -0.335  1.00  0.00     0.020 C 
HETATM   18  C22 UNL     1      -4.200   2.627   0.077  1.00  0.00     0.039 C 
HETATM   19  C23 UNL     1      -5.451   2.268   0.065  1.00  0.00     0.099 C 
HETATM   20  F1  UNL     1      -6.032   3.315   0.770  1.00  0.00    -0.210 F 
HETATM   21  H27 UNL     1      -0.882   1.918  -1.989  1.00  0.00     0.166 HD
ENDROOT
BRANCH  14  22
HETATM   22  O2  UNL     1       2.142  -2.264   0.866  1.00  0.00    -0.362 OA
BRANCH  22  23
HETATM   23  C13 UNL     1       2.828  -2.172  -0.370  1.00  0.00     0.176 C 
BRANCH  23  24
HETATM   24  C14 UNL     1       4.280  -1.793  -0.126  1.00  0.00     0.046 C 
BRANCH  24  25
HETATM   25  C15 UNL     1       4.262  -0.459   0.588  1.00  0.00     0.119 C 
BRANCH  25  26
HETATM   26  N2  UNL     1       5.538   0.049   0.894  1.00  0.00    -0.408 N 
HETATM   27  C16 UNL     1       6.322  -0.628   1.863  1.00  0.00     0.143 C 
HETATM   28  C17 UNL     1       7.783  -0.514   1.431  1.00  0.00     0.187 C 
HETATM   29  O3  UNL     1       8.174   0.795   1.244  1.00  0.00    -0.388 OA
HETATM   30  C18 UNL     1       7.340   1.510   0.412  1.00  0.00     0.187 C 
HETATM   31  C19 UNL     1       6.268   0.603  -0.197  1.00  0.00     0.143 C 
ENDBRANCH  25  26
ENDBRANCH  24  25
ENDBRANCH  23  24
ENDBRANCH  22  23
ENDBRANCH  14  22
TORSDOF 5
