REMARK  7 active torsions:
REMARK  status: ('A' for Active; 'I' for Inactive)
REMARK    1  A    between atoms: C2_2  and  C3_3 
REMARK    2  A    between atoms: C3_3  and  N1_4 
REMARK    3  A    between atoms: C3_3  and  N2_5 
REMARK    4  A    between atoms: N2_5  and  C5_7 
REMARK    5  A    between atoms: C5_7  and  C6_8 
REMARK    6  A    between atoms: C6_8  and  C7_9 
REMARK    7  A    between atoms: C11_16  and  N5_17 
ROOT
HETATM    1  C7  UNL     1       1.292  -0.355   2.016  1.00  0.00    -0.050 C 
HETATM    2  C8  UNL     1       1.789   0.048   3.164  1.00  0.00     0.054 C 
HETATM    3  S1  UNL     1       0.742   0.890   4.332  1.00  0.00    -0.108 SA
HETATM    4  C9  UNL     1      -0.715   1.418   3.458  1.00  0.00     0.211 C 
HETATM    5  N3  UNL     1      -1.906   1.623   4.209  1.00  0.00    -0.262 NA
HETATM    6  C10 UNL     1      -3.094   1.493   3.691  1.00  0.00     0.230 C 
HETATM    7  N4  UNL     1      -3.218   1.112   2.337  1.00  0.00    -0.224 NA
HETATM    8  C11 UNL     1      -2.211   0.846   1.565  1.00  0.00     0.137 C 
HETATM    9  C21 UNL     1      -0.897   0.675   2.205  1.00  0.00     0.023 C 
HETATM   10  C22 UNL     1      -0.042  -0.062   1.528  1.00  0.00     0.021 C 
ENDROOT
BRANCH   8  11
HETATM   11  N5  UNL     1      -2.374   0.485   0.175  1.00  0.00    -0.356 N 
HETATM   12  C12 UNL     1      -1.901   1.273  -0.954  1.00  0.00     0.131 C 
HETATM   13  C13 UNL     1      -2.970   1.523  -1.990  1.00  0.00     0.080 C 
HETATM   14  C14 UNL     1      -4.227   0.848  -1.547  1.00  0.00     0.044 A 
HETATM   15  N6  UNL     1      -5.355   1.420  -2.062  1.00  0.00    -0.265 NA
HETATM   16  C18 UNL     1      -4.388  -0.254  -0.706  1.00  0.00    -0.011 A 
HETATM   17  C15 UNL     1      -6.559   0.913  -1.749  1.00  0.00     0.117 A 
HETATM   18  C16 UNL     1      -6.779  -0.165  -0.932  1.00  0.00     0.020 A 
HETATM   19  C17 UNL     1      -5.641  -0.737  -0.416  1.00  0.00     0.012 A 
HETATM   20  C19 UNL     1      -3.062  -0.751  -0.239  1.00  0.00     0.117 C 
HETATM   21  C20 UNL     1      -3.129  -1.739   0.875  1.00  0.00     0.037 C 
ENDBRANCH   8  11
BRANCH   1  22
HETATM   22  C6  UNL     1       2.254  -1.069   1.104  1.00  0.00     0.058 C 
BRANCH  22  23
HETATM   23  C5  UNL     1       2.333  -0.271  -0.177  1.00  0.00     0.123 C 
BRANCH  23  24
HETATM   24  N2  UNL     1       3.232  -0.900  -1.087  1.00  0.00    -0.389 N 
HETATM   25  C4  UNL     1       2.973  -0.629  -2.466  1.00  0.00     0.145 C 
BRANCH  24  26
HETATM   26  C3  UNL     1       4.609  -0.883  -0.730  1.00  0.00     0.314 C 
BRANCH  26  27
HETATM   27  C2  UNL     1       5.292   0.453  -0.986  1.00  0.00     0.052 C 
HETATM   28  C1  UNL     1       6.762   0.243  -0.612  1.00  0.00     0.009 C 
ENDBRANCH  26  27
BRANCH  26  29
HETATM   29  N1  UNL     1       5.307  -1.832  -1.613  1.00  0.00     0.101 N 
HETATM   30  H7  UNL     1       6.131  -2.196  -1.069  1.00  0.00     0.315 HD
HETATM   31  H8  UNL     1       4.677  -2.624  -1.871  1.00  0.00     0.315 HD
ENDBRANCH  26  29
ENDBRANCH  24  26
ENDBRANCH  23  24
ENDBRANCH  22  23
ENDBRANCH   1  22
TORSDOF 7
