REMARK  6 active torsions:
REMARK  status: ('A' for Active; 'I' for Inactive)
REMARK    1  A    between atoms: C2_2  and  O1_3 
REMARK    2  A    between atoms: O1_3  and  C3_4 
REMARK    3  A    between atoms: C6_9  and  N3_10 
REMARK    4  A    between atoms: C15_22  and  C16_23 
REMARK    5  A    between atoms: C16_23  and  C17_24 
REMARK    6  A    between atoms: C17_24  and  N4_25 
ROOT
HETATM    1  C3  UNL     1      -0.583  -1.323   0.585  1.00  0.00     0.203 C 
HETATM    2  C4  UNL     1       0.800  -0.867   0.876  1.00  0.00     0.081 A 
HETATM    3  N1  UNL     1       1.223  -0.967   2.157  1.00  0.00    -0.243 NA
HETATM    4  C5  UNL     1       2.470  -0.572   2.514  1.00  0.00     0.235 A 
HETATM    5  N2  UNL     1       3.348  -0.062   1.607  1.00  0.00    -0.224 NA
HETATM    6  C6  UNL     1       2.947   0.049   0.310  1.00  0.00     0.139 A 
HETATM    7  C12 UNL     1       1.680  -0.352  -0.054  1.00  0.00     0.039 A 
HETATM    8  C13 UNL     1       1.526  -0.126  -1.486  1.00  0.00     0.041 C 
HETATM    9  C14 UNL     1       0.341  -0.137  -2.112  1.00  0.00     0.136 C 
HETATM   10  O2  UNL     1      -0.935  -0.348  -1.607  1.00  0.00    -0.355 OA
HETATM   11  C15 UNL     1      -1.285  -0.254  -0.239  1.00  0.00     0.164 C 
ENDROOT
BRANCH   6  12
HETATM   12  N3  UNL     1       3.949   0.600  -0.540  1.00  0.00    -0.360 N 
HETATM   13  C7  UNL     1       3.997   1.820  -1.364  1.00  0.00     0.154 C 
HETATM   14  C8  UNL     1       5.058   2.738  -0.860  1.00  0.00     0.032 C 
HETATM   15  C9  UNL     1       6.042   2.092  -0.245  1.00  0.00     0.111 C 
HETATM   16  F1  UNL     1       7.109   2.749   0.288  1.00  0.00    -0.209 F 
HETATM   17  C10 UNL     1       6.275   0.653   0.028  1.00  0.00     0.162 C 
HETATM   18 CL1  UNL     1       7.894   0.180  -0.567  1.00  0.00    -0.116 Cl
HETATM   19  C11 UNL     1       5.192  -0.168  -0.643  1.00  0.00     0.152 C 
ENDBRANCH   6  12
BRANCH   1  20
HETATM   20  O1  UNL     1      -0.628  -2.543  -0.045  1.00  0.00    -0.377 OA
BRANCH  20  21
HETATM   21  C2  UNL     1      -1.329  -3.489   0.731  1.00  0.00     0.164 C 
HETATM   22  C1  UNL     1      -1.389  -4.842   0.053  1.00  0.00     0.033 C 
ENDBRANCH  20  21
ENDBRANCH   1  20
BRANCH  11  23
HETATM   23  C16 UNL     1      -2.782  -0.260  -0.026  1.00  0.00     0.066 C 
BRANCH  23  24
HETATM   24  C17 UNL     1      -3.484   0.785  -0.830  1.00  0.00     0.278 C 
BRANCH  24  25
HETATM   25  N4  UNL     1      -4.910   0.737  -0.588  1.00  0.00     0.113 N 
HETATM   26  C18 UNL     1      -5.624   1.722  -1.376  1.00  0.00     0.301 C 
HETATM   27  C19 UNL     1      -5.555   2.937  -0.439  1.00  0.00     0.200 C 
HETATM   28  O3  UNL     1      -5.900   2.315   0.757  1.00  0.00    -0.361 OA
HETATM   29  C20 UNL     1      -5.264   1.076   0.753  1.00  0.00     0.440 C 
ENDBRANCH  24  25
ENDBRANCH  23  24
ENDBRANCH  11  23
TORSDOF 6
