REMARK  3 active torsions:
REMARK  status: ('A' for Active; 'I' for Inactive)
REMARK    1  A    between atoms: N2_11  and  C10_12 
REMARK    2  A    between atoms: C13_15  and  C14_16 
REMARK    3  A    between atoms: N4_19  and  C16_20 
ROOT
HETATM    1  C10 UNL     1      -0.676  -1.094   0.248  1.00  0.00     0.156 A 
HETATM    2  C11 UNL     1      -0.143  -0.237   1.337  1.00  0.00     0.005 A 
HETATM    3  C12 UNL     1       1.150  -0.033   1.146  1.00  0.00     0.010 A 
HETATM    4  C13 UNL     1       1.586  -0.722  -0.066  1.00  0.00    -0.025 A 
HETATM    5  C21 UNL     1       0.532  -1.333  -0.581  1.00  0.00     0.016 A 
ENDROOT
BRANCH   1   6
HETATM    6  N2  UNL     1      -1.730  -0.454  -0.503  1.00  0.00    -0.262 NA
HETATM    7  C9  UNL     1      -2.873  -0.281   0.090  1.00  0.00     0.127 C 
HETATM    8  C8  UNL     1      -3.620  -0.500   1.374  1.00  0.00     0.121 C 
HETATM    9  N6  UNL     1      -3.998   0.330  -0.516  1.00  0.00    -0.229 NA
HETATM   10  C7  UNL     1      -4.892  -1.182   1.039  1.00  0.00    -0.022 A 
HETATM   11  C3  UNL     1      -6.064  -0.491   0.857  1.00  0.00     0.062 A 
HETATM   12  C6  UNL     1      -4.889  -2.547   0.898  1.00  0.00     0.011 A 
HETATM   13  C2  UNL     1      -6.262   0.947   0.962  1.00  0.00     0.030 C 
HETATM   14  N1  UNL     1      -7.194  -1.153   0.543  1.00  0.00    -0.261 NA
HETATM   15  C1  UNL     1      -6.146   2.072   0.293  1.00  0.00    -0.005 C 
HETATM   16  C23 UNL     1      -5.757   2.712  -0.977  1.00  0.00     0.147 C 
HETATM   17  N7  UNL     1      -5.267   1.696  -1.918  1.00  0.00    -0.381 N 
HETATM   18  C22 UNL     1      -4.004   1.194  -1.434  1.00  0.00     0.204 C 
HETATM   19  H23 UNL     1      -5.503   1.206  -2.810  1.00  0.00     0.160 HD
HETATM   20  C4  UNL     1      -7.207  -2.495   0.400  1.00  0.00     0.117 A 
HETATM   21  C5  UNL     1      -6.044  -3.205   0.579  1.00  0.00     0.020 A 
ENDBRANCH   1   6
BRANCH   4  22
HETATM   22  C14 UNL     1       2.940  -0.721  -0.584  1.00  0.00     0.010 A 
HETATM   23  C15 UNL     1       3.426  -1.340  -1.706  1.00  0.00     0.152 A 
HETATM   24  N3  UNL     1       4.737  -1.082  -1.819  1.00  0.00    -0.184 NA
HETATM   25  N4  UNL     1       5.136  -0.311  -0.807  1.00  0.00    -0.275 N 
HETATM   26  C20 UNL     1       4.036  -0.093  -0.056  1.00  0.00     0.126 A 
BRANCH  25  27
HETATM   27  C16 UNL     1       6.501   0.155  -0.626  1.00  0.00     0.121 C 
HETATM   28  C17 UNL     1       6.511   1.394   0.264  1.00  0.00     0.043 C 
HETATM   29  C18 UNL     1       7.690   2.237  -0.082  1.00  0.00     0.101 C 
HETATM   30  N5  UNL     1       8.948   1.552  -0.133  1.00  0.00    -0.268 NA
HETATM   31  S1  UNL     1       8.911  -0.080   0.512  1.00  0.00    -0.083 SA
HETATM   32  H17 UNL     1       9.742   2.069   0.280  1.00  0.00     0.135 HD
HETATM   33  C19 UNL     1       7.309  -0.883   0.164  1.00  0.00     0.118 C 
ENDBRANCH  25  27
ENDBRANCH   4  22
TORSDOF 3
