REMARK  7 active torsions:
REMARK  status: ('A' for Active; 'I' for Inactive)
REMARK    1  A    between atoms: O1_2  and  C2_3 
REMARK    2  A    between atoms: C6_9  and  N3_10 
REMARK    3  A    between atoms: N3_10  and  C7_11 
REMARK    4  A    between atoms: C15_21  and  O2_22 
REMARK    5  A    between atoms: O2_22  and  C16_23 
REMARK    6  A    between atoms: C16_23  and  C17_24 
REMARK    7  A    between atoms: C17_24  and  N4_25 
ROOT
HETATM    1  C2  UNL     1      -0.136  -3.196  -0.939  1.00  0.00     0.103 A 
HETATM    2  C3  UNL     1      -1.457  -3.635  -0.941  1.00  0.00     0.072 A 
HETATM    3  C4  UNL     1      -2.439  -2.719  -0.656  1.00  0.00     0.075 A 
HETATM    4  N1  UNL     1      -3.703  -3.224  -0.674  1.00  0.00    -0.241 NA
HETATM    5  C5  UNL     1      -4.695  -2.360  -0.396  1.00  0.00     0.236 A 
HETATM    6  N2  UNL     1      -4.448  -1.080  -0.119  1.00  0.00    -0.224 NA
HETATM    7  C6  UNL     1      -3.244  -0.521  -0.085  1.00  0.00     0.142 A 
HETATM    8  C13 UNL     1      -2.222  -1.390  -0.366  1.00  0.00     0.042 A 
HETATM    9  C14 UNL     1      -0.896  -1.023  -0.381  1.00  0.00     0.057 A 
HETATM   10  C15 UNL     1       0.162  -1.861  -0.654  1.00  0.00     0.103 A 
ENDROOT
BRANCH   7  11
HETATM   11  N3  UNL     1      -2.973   0.823   0.212  1.00  0.00    -0.340 N 
HETATM   12  H6  UNL     1      -2.018   1.208   0.172  1.00  0.00     0.167 HD
BRANCH  11  13
HETATM   13  C7  UNL     1      -3.891   1.830   0.591  1.00  0.00     0.035 A 
HETATM   14  C8  UNL     1      -5.219   1.583   0.851  1.00  0.00     0.032 A 
HETATM   15  C9  UNL     1      -6.147   2.531   1.222  1.00  0.00     0.046 A 
HETATM   16  C10 UNL     1      -5.755   3.845   1.355  1.00  0.00     0.138 A 
HETATM   17  F1  UNL     1      -6.611   4.829   1.717  1.00  0.00    -0.204 F 
HETATM   18  C11 UNL     1      -4.438   4.154   1.108  1.00  0.00     0.074 A 
HETATM   19 CL1  UNL     1      -3.867   5.799   1.257  1.00  0.00    -0.081 Cl
HETATM   20  C12 UNL     1      -3.565   3.158   0.742  1.00  0.00     0.056 A 
ENDBRANCH  11  13
ENDBRANCH   7  11
BRANCH  10  21
HETATM   21  O2  UNL     1       1.496  -1.612  -0.697  1.00  0.00    -0.347 OA
BRANCH  21  22
HETATM   22  C16 UNL     1       1.994  -0.315  -0.437  1.00  0.00     0.206 C 
BRANCH  22  23
HETATM   23  C17 UNL     1       3.498  -0.365  -0.561  1.00  0.00     0.299 C 
BRANCH  23  24
HETATM   24  N4  UNL     1       4.037   0.937  -0.304  1.00  0.00     0.094 N 
HETATM   25  C18 UNL     1       5.485   0.968  -0.472  1.00  0.00     0.298 C 
HETATM   26  C19 UNL     1       5.960   2.390  -0.270  1.00  0.00     0.198 C 
HETATM   27  O3  UNL     1       5.696   2.783   1.035  1.00  0.00    -0.388 OA
HETATM   28  C20 UNL     1       4.961   1.856   1.736  1.00  0.00     0.198 C 
HETATM   29  C21 UNL     1       3.686   1.440   1.017  1.00  0.00     0.298 C 
ENDBRANCH  23  24
ENDBRANCH  22  23
ENDBRANCH  21  22
ENDBRANCH  10  21
BRANCH   1  30
HETATM   30  O1  UNL     1       0.837  -4.152  -1.232  1.00  0.00    -0.353 OA
HETATM   31  C1  UNL     1       0.499  -5.472  -1.511  1.00  0.00     0.210 C 
ENDBRANCH   1  30
TORSDOF 7
