REMARK  5 active torsions:
REMARK  status: ('A' for Active; 'I' for Inactive)
REMARK    1  A    between atoms: O1_2  and  C2_3 
REMARK    2  A    between atoms: C6_9  and  N3_10 
REMARK    3  A    between atoms: N3_10  and  C7_11 
REMARK    4  A    between atoms: C15_21  and  O2_22 
REMARK    5  A    between atoms: O2_22  and  C16_23 
ROOT
HETATM    1  C2  UNL     1      -1.066  -0.674  -2.033  1.00  0.00     0.103 A 
HETATM    2  C3  UNL     1      -0.015  -0.942  -2.882  1.00  0.00     0.072 A 
HETATM    3  C4  UNL     1       1.240  -0.676  -2.384  1.00  0.00     0.075 A 
HETATM    4  N1  UNL     1       2.251  -0.957  -3.259  1.00  0.00    -0.241 NA
HETATM    5  C5  UNL     1       3.509  -0.726  -2.855  1.00  0.00     0.236 A 
HETATM    6  N2  UNL     1       3.702  -0.239  -1.630  1.00  0.00    -0.224 NA
HETATM    7  C6  UNL     1       2.773   0.060  -0.720  1.00  0.00     0.142 A 
HETATM    8  C13 UNL     1       1.480  -0.167  -1.109  1.00  0.00     0.042 A 
HETATM    9  C14 UNL     1       0.363   0.067  -0.340  1.00  0.00     0.057 A 
HETATM   10  C15 UNL     1      -0.954  -0.170  -0.754  1.00  0.00     0.106 A 
ENDROOT
BRANCH   7  11
HETATM   11  N3  UNL     1       3.026   0.576   0.569  1.00  0.00    -0.340 N 
HETATM   12  H6  UNL     1       2.256   0.783   1.232  1.00  0.00     0.167 HD
BRANCH  11  13
HETATM   13  C7  UNL     1       4.273   0.888   1.162  1.00  0.00     0.035 A 
HETATM   14  C8  UNL     1       5.474   0.759   0.513  1.00  0.00     0.032 A 
HETATM   15  C9  UNL     1       6.708   1.049   1.051  1.00  0.00     0.046 A 
HETATM   16  C10 UNL     1       6.781   1.509   2.348  1.00  0.00     0.138 A 
HETATM   17  F1  UNL     1       7.937   1.818   2.960  1.00  0.00    -0.204 F 
HETATM   18  C11 UNL     1       5.610   1.660   3.051  1.00  0.00     0.074 A 
HETATM   19 CL1  UNL     1       5.647   2.239   4.697  1.00  0.00    -0.081 Cl
HETATM   20  C12 UNL     1       4.414   1.350   2.448  1.00  0.00     0.056 A 
ENDBRANCH  11  13
ENDBRANCH   7  11
BRANCH  10  21
HETATM   21  O2  UNL     1      -1.913   0.121   0.138  1.00  0.00    -0.312 OA
BRANCH  21  22
HETATM   22  C16 UNL     1      -3.270   0.062   0.190  1.00  0.00     0.370 C 
HETATM   23  N4  UNL     1      -3.922   1.364   0.356  1.00  0.00     0.136 N 
HETATM   24  C17 UNL     1      -5.299   1.182  -0.064  1.00  0.00     0.441 C 
HETATM   25  H12 UNL     1      -3.942   1.643   1.361  1.00  0.00     0.322 HD
HETATM   26  O3  UNL     1      -5.956   0.240   0.728  1.00  0.00    -0.362 OA
HETATM   27  C18 UNL     1      -5.166  -0.255   1.735  1.00  0.00     0.178 C 
HETATM   28  C19 UNL     1      -3.840  -0.818   1.276  1.00  0.00     0.065 C 
HETATM   29  C20 UNL     1      -2.956  -0.923   2.484  1.00  0.00     0.016 C 
ENDBRANCH  21  22
ENDBRANCH  10  21
BRANCH   1  30
HETATM   30  O1  UNL     1      -2.347  -0.929  -2.499  1.00  0.00    -0.353 OA
HETATM   31  C1  UNL     1      -2.533  -1.438  -3.782  1.00  0.00     0.210 C 
ENDBRANCH   1  30
TORSDOF 5
