REMARK  8 active torsions:
REMARK  status: ('A' for Active; 'I' for Inactive)
REMARK    1  A    between atoms: N1_2  and  C2_3 
REMARK    2  A    between atoms: C2_3  and  C3_4 
REMARK    3  A    between atoms: C3_4  and  N2_5 
REMARK    4  A    between atoms: C4_7  and  C5_8 
REMARK    5  A    between atoms: C5_8  and  O1_9 
REMARK    6  A    between atoms: O1_9  and  C6_10 
REMARK    7  A    between atoms: N3_13  and  C9_14 
REMARK    8  A    between atoms: C12_18  and  O3_19 
ROOT
HETATM    1  C6  UNL     1      -1.664  -1.203  -0.331  1.00  0.00     0.103 A 
HETATM    2  C7  UNL     1      -2.398  -1.286  -1.423  1.00  0.00     0.067 A 
HETATM    3  C8  UNL     1      -3.787  -0.786  -1.469  1.00  0.00     0.043 A 
HETATM    4  N3  UNL     1      -4.234  -0.976  -2.664  1.00  0.00    -0.226 NA
HETATM    5  C10 UNL     1      -4.471  -0.174  -0.305  1.00  0.00     0.089 A 
HETATM    6  C11 UNL     1      -3.514  -0.154   0.829  1.00  0.00     0.019 A 
HETATM    7  C12 UNL     1      -2.251  -0.594   0.891  1.00  0.00     0.098 A 
ENDROOT
BRANCH   1   8
HETATM    8  O1  UNL     1      -0.365  -1.573   0.009  1.00  0.00    -0.347 OA
BRANCH   8   9
HETATM    9  C5  UNL     1       0.754  -0.734  -0.278  1.00  0.00     0.196 C 
BRANCH   9  10
HETATM   10  C4  UNL     1       1.907  -1.309   0.436  1.00  0.00     0.163 C 
HETATM   11  N2  UNL     1       3.173  -0.800   0.416  1.00  0.00    -0.322 N 
HETATM   12 CL1  UNL     1       4.407  -1.992   0.075  1.00  0.00     0.008 Cl
BRANCH  11  13
HETATM   13  C3  UNL     1       3.675   0.359   0.953  1.00  0.00     0.166 C 
BRANCH  13  14
HETATM   14  C2  UNL     1       3.192   1.599   0.258  1.00  0.00     0.289 C 
BRANCH  14  15
HETATM   15  N1  UNL     1       3.593   1.487  -1.147  1.00  0.00     0.080 N 
HETATM   16  C1  UNL     1       5.012   1.567  -1.329  1.00  0.00     0.306 C 
HETATM   17  H4  UNL     1       3.238   0.638  -1.599  1.00  0.00     0.315 HD
ENDBRANCH  14  15
ENDBRANCH  13  14
ENDBRANCH  11  13
ENDBRANCH   9  10
ENDBRANCH   8   9
ENDBRANCH   1   8
BRANCH   7  18
HETATM   18  O3  UNL     1      -1.660  -0.406   2.133  1.00  0.00    -0.353 OA
HETATM   19  C13 UNL     1      -1.764   0.811   2.848  1.00  0.00     0.210 C 
ENDBRANCH   7  18
BRANCH   4  20
HETATM   20  C9  UNL     1      -5.561  -0.580  -2.989  1.00  0.00     0.376 C 
HETATM   21  O2  UNL     1      -4.879  -0.734  -4.058  1.00  0.00    -0.281 OA
ENDBRANCH   4  20
TORSDOF 8
