REMARK  4 active torsions:
REMARK  status: ('A' for Active; 'I' for Inactive)
REMARK    1  A    between atoms: C1_2  and  C2_3 
REMARK    2  A    between atoms: C2_3  and  O2_4 
REMARK    3  A    between atoms: O2_4  and  C3_5 
REMARK    4  A    between atoms: C6_8  and  C7_9 
ROOT
HETATM    1  C3  UNL     1       3.379  -0.853   0.293  1.00  0.00     0.113 A 
HETATM    2  C4  UNL     1       2.976   0.029  -0.697  1.00  0.00     0.041 A 
HETATM    3  C5  UNL     1       1.635   0.351  -0.877  1.00  0.00     0.017 A 
HETATM    4  C6  UNL     1       0.785  -0.278   0.002  1.00  0.00     0.003 A 
HETATM    5  C14 UNL     1       1.135  -1.151   0.989  1.00  0.00     0.059 A 
HETATM    6  C15 UNL     1       2.479  -1.448   1.140  1.00  0.00     0.150 A 
HETATM    7  F1  UNL     1       2.891  -2.307   2.101  1.00  0.00    -0.203 F 
ENDROOT
BRANCH   4   8
HETATM    8  C7  UNL     1      -0.666  -0.028  -0.076  1.00  0.00     0.109 A 
HETATM    9  N1  UNL     1      -1.694  -0.458   0.593  1.00  0.00    -0.240 NA
HETATM   10  C8  UNL     1      -2.885   0.008   0.218  1.00  0.00     0.075 A 
HETATM   11  C9  UNL     1      -4.048  -0.394   0.874  1.00  0.00     0.033 A 
HETATM   12  C13 UNL     1      -3.047   0.923  -0.848  1.00  0.00     0.035 A 
HETATM   13  C10 UNL     1      -5.261   0.082   0.490  1.00  0.00     0.002 A 
HETATM   14  C11 UNL     1      -5.449   0.986  -0.559  1.00  0.00     0.002 A 
HETATM   15  C12 UNL     1      -4.323   1.387  -1.207  1.00  0.00     0.021 A 
HETATM   16  S1  UNL     1      -1.342   1.114  -1.334  1.00  0.00    -0.068 SA
ENDBRANCH   4   8
BRANCH   1  17
HETATM   17  O2  UNL     1       4.739  -1.141   0.431  1.00  0.00    -0.316 OA
BRANCH  17  18
HETATM   18  C2  UNL     1       5.637  -0.514  -0.454  1.00  0.00     0.201 C 
BRANCH  18  19
HETATM   19  C1  UNL     1       6.000   0.644   0.073  1.00  0.00     0.245 C 
HETATM   20  O1  UNL     1       6.441   1.792   0.305  1.00  0.00    -0.282 OA
ENDBRANCH  18  19
ENDBRANCH  17  18
ENDBRANCH   1  17
TORSDOF 4
