REMARK  9 active torsions:
REMARK  status: ('A' for Active; 'I' for Inactive)
REMARK    1  A    between atoms: O1_2  and  C2_3 
REMARK    2  A    between atoms: C6_9  and  N3_10 
REMARK    3  A    between atoms: N3_10  and  C7_11 
REMARK    4  A    between atoms: C7_11  and  C8_12 
REMARK    5  A    between atoms: C9_13  and  P1_14 
REMARK    6  A    between atoms: C12_18  and  O2_19 
REMARK    7  A    between atoms: O2_19  and  C13_20 
REMARK    8  A    between atoms: C13_20  and  C14_21 
REMARK    9  A    between atoms: C14_21  and  C15_22 
ROOT
HETATM    1  C2  UNL     1      -0.367  -3.410   0.615  1.00  0.00     0.103 A 
HETATM    2  C3  UNL     1       0.824  -4.089   0.774  1.00  0.00     0.072 A 
HETATM    3  C4  UNL     1       2.023  -3.446   0.543  1.00  0.00     0.075 A 
HETATM    4  N1  UNL     1       3.213  -4.086   0.691  1.00  0.00    -0.241 NA
HETATM    5  C5  UNL     1       4.383  -3.432   0.458  1.00  0.00     0.235 A 
HETATM    6  N2  UNL     1       4.381  -2.148   0.080  1.00  0.00    -0.224 NA
HETATM    7  C6  UNL     1       3.251  -1.441  -0.090  1.00  0.00     0.137 A 
HETATM    8  C10 UNL     1       2.080  -2.125   0.152  1.00  0.00     0.041 A 
HETATM    9  C11 UNL     1       0.882  -1.473   0.002  1.00  0.00     0.057 A 
HETATM   10  C12 UNL     1      -0.335  -2.087   0.224  1.00  0.00     0.103 A 
ENDROOT
BRANCH  10  11
HETATM   11  O2  UNL     1      -1.584  -1.495   0.093  1.00  0.00    -0.348 OA
BRANCH  11  12
HETATM   12  C13 UNL     1      -1.815  -0.167  -0.290  1.00  0.00     0.178 C 
BRANCH  12  13
HETATM   13  C14 UNL     1      -3.291   0.171  -0.338  1.00  0.00     0.060 C 
BRANCH  13  14
HETATM   14  C15 UNL     1      -3.384   1.641  -0.768  1.00  0.00     0.151 C 
HETATM   15  C16 UNL     1      -4.799   2.112  -0.858  1.00  0.00     0.301 C 
HETATM   16  N4  UNL     1      -4.959   3.487  -0.424  1.00  0.00     0.087 N 
HETATM   17  C17 UNL     1      -4.524   3.696   0.924  1.00  0.00     0.295 C 
HETATM   18  H20 UNL     1      -4.576   4.191  -1.063  1.00  0.00     0.316 HD
HETATM   19  C18 UNL     1      -3.377   2.778   1.241  1.00  0.00     0.198 C 
HETATM   20  O3  UNL     1      -2.678   2.450   0.094  1.00  0.00    -0.382 OA
ENDBRANCH  13  14
ENDBRANCH  12  13
ENDBRANCH  11  12
ENDBRANCH  10  11
BRANCH   1  21
HETATM   21  O1  UNL     1      -1.573  -4.093   0.858  1.00  0.00    -0.353 OA
HETATM   22  C1  UNL     1      -1.515  -5.430   1.250  1.00  0.00     0.210 C 
ENDBRANCH   1  21
BRANCH   7  23
HETATM   23  N3  UNL     1       3.319  -0.085  -0.492  1.00  0.00    -0.370 N 
HETATM   24  H6  UNL     1       2.526   0.566  -0.656  1.00  0.00     0.161 HD
BRANCH  23  25
HETATM   25  C7  UNL     1       4.625   0.526  -0.717  1.00  0.00     0.150 C 
BRANCH  25  26
HETATM   26  C8  UNL     1       4.563   1.928  -1.129  1.00  0.00     0.017 C 
HETATM   27  C9  UNL     1       5.105   2.944  -0.464  1.00  0.00     0.030 C 
HETATM   28 CL1  UNL     1       6.008   2.855   1.036  1.00  0.00    -0.084 Cl
BRANCH  27  29
HETATM   29  P1  UNL     1       5.212   4.761  -0.691  1.00  0.00    -0.094 P 
HETATM   30  H10 UNL     1       5.619   4.991  -2.083  1.00  0.00     0.060 HD
HETATM   31  H11 UNL     1       3.903   5.344  -0.496  1.00  0.00     0.060 HD
ENDBRANCH  27  29
ENDBRANCH  25  26
ENDBRANCH  23  25
ENDBRANCH   7  23
TORSDOF 9
