REMARK  6 active torsions:
REMARK  status: ('A' for Active; 'I' for Inactive)
REMARK    1  A    between atoms: C4_5  and  N2_6 
REMARK    2  A    between atoms: C7_9  and  O1_10 
REMARK    3  A    between atoms: O1_10  and  C8_11 
REMARK    4  A    between atoms: C8_11  and  C9_12 
REMARK    5  A    between atoms: C9_12  and  C10_13 
REMARK    6  A    between atoms: C10_13  and  N3_14 
ROOT
HETATM    1  C1  UNL     1      -3.176  -2.394   0.543  1.00  0.00     0.073 C 
HETATM    2  C2  UNL     1      -3.884  -1.095   0.351  1.00  0.00     0.058 C 
HETATM    3  N1  UNL     1      -5.035  -0.825   0.857  1.00  0.00    -0.286 NA
HETATM    4  C3  UNL     1      -5.911   0.326   0.823  1.00  0.00     0.205 C 
HETATM    5  C4  UNL     1      -5.944   1.005  -0.498  1.00  0.00     0.022 C 
HETATM    6  C5  UNL     1      -4.991   1.244  -1.412  1.00  0.00     0.029 C 
HETATM    7  C6  UNL     1      -3.583   0.819  -1.235  1.00  0.00     0.041 C 
HETATM    8  C7  UNL     1      -3.104  -0.186  -0.478  1.00  0.00     0.092 C 
ENDROOT
BRANCH   8   9
HETATM    9  O1  UNL     1      -1.737  -0.243  -0.594  1.00  0.00    -0.349 OA
BRANCH   9  10
HETATM   10  C8  UNL     1      -0.796  -0.348   0.424  1.00  0.00     0.177 C 
BRANCH  10  11
HETATM   11  C9  UNL     1       0.634  -0.163  -0.111  1.00  0.00     0.057 C 
BRANCH  11  12
HETATM   12  C10 UNL     1       1.579  -0.295   1.047  1.00  0.00     0.274 C 
BRANCH  12  13
HETATM   13  N3  UNL     1       2.961  -0.137   0.670  1.00  0.00     0.091 N 
HETATM   14  C11 UNL     1       3.473  -1.187  -0.146  1.00  0.00     0.302 C 
HETATM   15  C12 UNL     1       4.971  -1.023  -0.285  1.00  0.00     0.302 C 
HETATM   16  N4  UNL     1       5.372   0.295  -0.690  1.00  0.00     0.087 N 
HETATM   17  C13 UNL     1       6.805   0.424  -0.389  1.00  0.00     0.310 C 
HETATM   18  C14 UNL     1       4.724   1.363   0.007  1.00  0.00     0.302 C 
HETATM   19  C15 UNL     1       3.253   1.185   0.201  1.00  0.00     0.302 C 
ENDBRANCH  12  13
ENDBRANCH  11  12
ENDBRANCH  10  11
ENDBRANCH   9  10
ENDBRANCH   8   9
BRANCH   5  20
HETATM   20  N2  UNL     1      -7.220   1.506  -0.888  1.00  0.00    -0.401 N 
HETATM   21  H6  UNL     1      -7.310   2.228  -1.660  1.00  0.00     0.156 HD
HETATM   22  H7  UNL     1      -8.122   1.202  -0.452  1.00  0.00     0.156 HD
ENDBRANCH   5  20
TORSDOF 6
