REMARK  5 active torsions:
REMARK  status: ('A' for Active; 'I' for Inactive)
REMARK    1  A    between atoms: O1_2  and  C2_3 
REMARK    2  A    between atoms: C14_20  and  C15_21 
REMARK    3  A    between atoms: C15_21  and  C16_22 
REMARK    4  A    between atoms: C16_22  and  C17_23 
REMARK    5  A    between atoms: C17_23  and  N4_24 
ROOT
HETATM    1  C2  UNL     1      -2.086  -1.169  -0.589  1.00  0.00     0.072 C 
HETATM    2  C3  UNL     1      -3.286  -0.631  -0.506  1.00  0.00     0.039 C 
HETATM    3  C4  UNL     1      -4.728  -0.567  -0.637  1.00  0.00     0.329 C 
HETATM    4  N1  UNL     1      -5.160   0.576  -0.223  1.00  0.00    -0.398 NA
HETATM    5  C5  UNL     1      -6.533   0.972  -0.211  1.00  0.00     0.215 C 
HETATM    6  N2  UNL     1      -6.852   1.988   0.488  1.00  0.00    -0.171 NA
HETATM    7  N3  UNL     1      -6.069   2.810   1.273  1.00  0.00    -0.274 N 
HETATM    8  C6  UNL     1      -4.657   2.579   1.363  1.00  0.00     0.088 A 
HETATM    9  C7  UNL     1      -4.284   3.181   0.188  1.00  0.00     0.035 A 
HETATM   10  C8  UNL     1      -2.897   2.942   0.079  1.00  0.00     0.011 A 
HETATM   11  C9  UNL     1      -2.183   2.229   1.040  1.00  0.00    -0.037 A 
HETATM   12  C10 UNL     1      -2.706   1.677   2.197  1.00  0.00     0.053 A 
HETATM   13  C11 UNL     1      -4.056   1.885   2.345  1.00  0.00     0.144 A 
HETATM   14  F1  UNL     1      -4.869   1.483   3.347  1.00  0.00    -0.204 F 
HETATM   15  C12 UNL     1      -0.719   1.864   0.808  1.00  0.00     0.114 C 
HETATM   16 BR1  UNL     1      -0.011   3.212  -0.381  1.00  0.00    -0.082 Br
HETATM   17  C13 UNL     1      -0.581   0.517   0.269  1.00  0.00     0.003 C 
HETATM   18  C14 UNL     1      -0.714  -0.712  -0.252  1.00  0.00    -0.027 C 
HETATM   19  H7  UNL     1      -7.074   2.995   1.224  1.00  0.00     0.189 HD
ENDROOT
BRANCH  18  20
HETATM   20  C15 UNL     1       0.133  -1.822  -0.665  1.00  0.00     0.043 C 
BRANCH  20  21
HETATM   21  C16 UNL     1       1.614  -1.581  -0.547  1.00  0.00     0.024 C 
BRANCH  21  22
HETATM   22  C17 UNL     1       2.179  -0.529  -1.426  1.00  0.00     0.117 C 
BRANCH  22  23
HETATM   23  N4  UNL     1       3.598  -0.324  -1.224  1.00  0.00    -0.409 N 
HETATM   24  C18 UNL     1       4.442  -1.391  -1.619  1.00  0.00     0.147 C 
HETATM   25  C19 UNL     1       5.869  -1.154  -1.211  1.00  0.00     0.291 C 
HETATM   26  N5  UNL     1       5.944  -1.032   0.210  1.00  0.00     0.087 N 
HETATM   27  C20 UNL     1       7.272  -0.521   0.525  1.00  0.00     0.310 C 
HETATM   28  C21 UNL     1       4.919  -0.277   0.844  1.00  0.00     0.291 C 
HETATM   29  C22 UNL     1       3.925   0.385  -0.044  1.00  0.00     0.147 C 
ENDBRANCH  22  23
ENDBRANCH  21  22
ENDBRANCH  20  21
ENDBRANCH  18  20
BRANCH   1  30
HETATM   30  O1  UNL     1      -2.897  -2.166  -1.076  1.00  0.00    -0.356 OA
HETATM   31  C1  UNL     1      -3.174  -3.312  -0.305  1.00  0.00     0.210 C 
ENDBRANCH   1  30
TORSDOF 5
