REMARK  3 active torsions:
REMARK  status: ('A' for Active; 'I' for Inactive)
REMARK    1  A    between atoms: O1_2  and  C2_3 
REMARK    2  A    between atoms: C5_6  and  C6_7 
REMARK    3  A    between atoms: C16_19  and  O2_20 
ROOT
HETATM    1  C2  UNL     1      -0.974   1.509   0.206  1.00  0.00     0.070 C 
HETATM    2  C3  UNL     1      -0.291   0.815  -0.641  1.00  0.00     0.052 C 
HETATM    3  C4  UNL     1      -0.224  -0.625  -0.509  1.00  0.00     0.015 A 
HETATM    4  C5  UNL     1       0.888  -1.318  -0.174  1.00  0.00     0.013 A 
HETATM    5  C13 UNL     1       0.945  -2.685  -0.025  1.00  0.00     0.017 A 
HETATM    6  C14 UNL     1      -0.250  -3.344  -0.245  1.00  0.00     0.033 A 
HETATM    7  C15 UNL     1      -1.388  -2.642  -0.588  1.00  0.00     0.067 A 
HETATM    8  C16 UNL     1      -1.420  -1.272  -0.734  1.00  0.00     0.106 A 
HETATM    9  N2  UNL     1      -2.507  -3.505  -0.748  1.00  0.00    -0.349 N 
HETATM   10  C18 UNL     1      -3.704  -3.235  -0.047  1.00  0.00     0.208 C 
HETATM   11  N3  UNL     1      -4.029  -2.598   1.000  1.00  0.00    -0.237 NA
HETATM   12  C19 UNL     1      -3.082  -1.924   1.792  1.00  0.00     0.233 C 
HETATM   13  N4  UNL     1      -2.245  -1.149   2.424  1.00  0.00    -0.254 NA
HETATM   14  C20 UNL     1      -2.128   0.213   2.038  1.00  0.00     0.120 C 
HETATM   15  C21 UNL     1      -1.777   1.295   1.368  1.00  0.00     0.056 C 
HETATM   16  H14 UNL     1      -2.435  -4.323  -1.369  1.00  0.00     0.167 HD
ENDROOT
BRANCH   4  17
HETATM   17  C6  UNL     1       2.062  -0.402   0.004  1.00  0.00     0.110 A 
HETATM   18  N1  UNL     1       2.306   0.762  -0.062  1.00  0.00    -0.240 NA
HETATM   19  C7  UNL     1       3.477   1.324   0.154  1.00  0.00     0.075 A 
HETATM   20  C8  UNL     1       3.815   2.664   0.091  1.00  0.00     0.033 A 
HETATM   21  C12 UNL     1       4.555   0.467   0.499  1.00  0.00     0.035 A 
HETATM   22  C9  UNL     1       5.112   3.040   0.357  1.00  0.00     0.002 A 
HETATM   23  C10 UNL     1       6.144   2.191   0.690  1.00  0.00     0.002 A 
HETATM   24  C11 UNL     1       5.878   0.846   0.770  1.00  0.00     0.021 A 
HETATM   25  S1  UNL     1       3.666  -1.196   0.466  1.00  0.00    -0.067 SA
ENDBRANCH   4  17
BRANCH   8  26
HETATM   26  O2  UNL     1      -2.606  -0.646  -1.085  1.00  0.00    -0.353 OA
HETATM   27  C17 UNL     1      -2.968  -0.422  -2.451  1.00  0.00     0.210 C 
ENDBRANCH   8  26
BRANCH   1  28
HETATM   28  O1  UNL     1      -0.782   2.790  -0.268  1.00  0.00    -0.356 OA
HETATM   29  C1  UNL     1      -1.921   3.607  -0.460  1.00  0.00     0.210 C 
ENDBRANCH   1  28
TORSDOF 3
