REMARK  10 active torsions:
REMARK  status: ('A' for Active; 'I' for Inactive)
REMARK    1  A    between atoms: C2_2  and  N1_3 
REMARK    2  A    between atoms: N1_3  and  C4_5 
REMARK    3  A    between atoms: C4_5  and  C5_6 
REMARK    4  A    between atoms: C5_6  and  N2_7 
REMARK    5  A    between atoms: N2_7  and  C6_8 
REMARK    6  A    between atoms: C6_8  and  C7_9 
REMARK    7  A    between atoms: C7_9  and  C8_10 
REMARK    8  A    between atoms: C8_10  and  O1_11 
REMARK    9  A    between atoms: O1_11  and  C9_12 
REMARK   10  A    between atoms: C15_19  and  O2_20 
ROOT
HETATM    1  O1  UNL     1      -1.486  -0.069   0.327  1.00  0.00    -0.348 OA
ENDROOT
BRANCH   1   2
HETATM    2  C8  UNL     1      -0.496   0.698   0.991  1.00  0.00     0.177 C 
BRANCH   2   3
HETATM    3  C7  UNL     1       0.702  -0.259   1.143  1.00  0.00     0.056 C 
BRANCH   3   4
HETATM    4  C6  UNL     1       1.067  -0.632  -0.284  1.00  0.00     0.272 C 
BRANCH   4   5
HETATM    5  N2  UNL     1       2.161  -1.535  -0.355  1.00  0.00     0.085 N 
HETATM    6  H11 UNL     1       1.954  -2.444   0.075  1.00  0.00     0.315 HD
BRANCH   5   7
HETATM    7  C5  UNL     1       3.391  -0.936   0.046  1.00  0.00     0.289 C 
BRANCH   7   8
HETATM    8  C4  UNL     1       3.806   0.092  -0.988  1.00  0.00     0.151 C 
BRANCH   8   9
HETATM    9  N1  UNL     1       5.085   0.630  -0.475  1.00  0.00    -0.393 N 
HETATM   10  C3  UNL     1       5.871   1.667  -1.157  1.00  0.00     0.148 C 
BRANCH   9  11
HETATM   11  C2  UNL     1       5.710   0.202   0.751  1.00  0.00     0.075 C 
HETATM   12  C1  UNL     1       6.494  -0.860   0.548  1.00  0.00     0.029 C 
ENDBRANCH   9  11
ENDBRANCH   8   9
ENDBRANCH   7   8
ENDBRANCH   5   7
ENDBRANCH   4   5
ENDBRANCH   3   4
ENDBRANCH   2   3
ENDBRANCH   1   2
BRANCH   1  13
HETATM   13  C9  UNL     1      -2.750   0.425   0.095  1.00  0.00     0.105 A 
HETATM   14  C10 UNL     1      -3.284   1.641   0.209  1.00  0.00     0.053 A 
HETATM   15  C11 UNL     1      -4.693   1.520  -0.191  1.00  0.00    -0.006 A 
HETATM   16  C12 UNL     1      -5.793   2.256  -0.328  1.00  0.00     0.006 A 
HETATM   17  C14 UNL     1      -4.943   0.121  -0.552  1.00  0.00     0.075 A 
HETATM   18  C13 UNL     1      -6.904   1.412  -0.801  1.00  0.00     0.148 A 
HETATM   19  N3  UNL     1      -6.315   0.090  -0.923  1.00  0.00    -0.383 N 
HETATM   20  H22 UNL     1      -6.803  -0.776  -1.235  1.00  0.00     0.160 HD
HETATM   21  C15 UNL     1      -3.777  -0.506  -0.374  1.00  0.00     0.129 A 
BRANCH  21  22
HETATM   22  O2  UNL     1      -3.706  -1.880  -0.646  1.00  0.00    -0.351 OA
HETATM   23  C16 UNL     1      -4.038  -2.802   0.391  1.00  0.00     0.210 C 
ENDBRANCH  21  22
ENDBRANCH   1  13
TORSDOF 10
