REMARK  0 active torsions:
REMARK  status: ('A' for Active; 'I' for Inactive)
ROOT
HETATM    1  C1  UNL     1      -2.426   4.241  -0.316  1.00  0.00     0.050 C 
HETATM    2  C2  UNL     1      -2.896   2.784  -0.145  1.00  0.00     0.106 A 
HETATM    3  C3  UNL     1      -1.959   1.926  -0.376  1.00  0.00     0.062 A 
HETATM    4  C4  UNL     1      -0.622   2.371   0.058  1.00  0.00     0.138 C 
HETATM    5  N1  UNL     1       0.260   3.253  -0.552  1.00  0.00    -0.398 N 
HETATM    6  C5  UNL     1       1.381   3.196   0.472  1.00  0.00     0.079 C 
HETATM    7  C6  UNL     1       2.695   2.948   0.530  1.00  0.00    -0.006 C 
HETATM    8  C7  UNL     1       3.894   2.596  -0.227  1.00  0.00     0.055 C 
HETATM    9  C8  UNL     1       4.318   1.144  -0.194  1.00  0.00    -0.027 C 
HETATM   10  C9  UNL     1       4.914   0.039  -0.022  1.00  0.00    -0.029 C 
HETATM   11  C10 UNL     1       4.985  -1.421  -0.183  1.00  0.00     0.046 C 
HETATM   12  C11 UNL     1       3.871  -2.083  -0.922  1.00  0.00     0.120 C 
HETATM   13  N2  UNL     1       2.681  -2.093  -0.131  1.00  0.00    -0.416 N 
HETATM   14  C12 UNL     1       2.767  -2.941   0.988  1.00  0.00     0.143 C 
HETATM   15  C13 UNL     1       1.490  -1.873  -0.770  1.00  0.00     0.118 C 
HETATM   16  C14 UNL     1       0.266  -2.163   0.127  1.00  0.00     0.050 C 
HETATM   17  C15 UNL     1      -0.902  -1.716  -0.725  1.00  0.00     0.132 C 
HETATM   18  C16 UNL     1      -2.179  -2.089  -0.221  1.00  0.00    -0.000 C 
HETATM   19  C17 UNL     1      -3.049  -3.065  -0.416  1.00  0.00    -0.005 C 
HETATM   20  C18 UNL     1      -4.330  -3.128   0.237  1.00  0.00    -0.010 C 
HETATM   21  C19 UNL     1      -5.313  -2.666   1.029  1.00  0.00     0.181 C 
HETATM   22  S1  UNL     1      -5.243  -1.036   1.866  1.00  0.00    -0.230 SA
HETATM   23  C20 UNL     1      -5.518   0.382   0.641  1.00  0.00     0.097 C 
HETATM   24  C21 UNL     1      -4.199   0.773   0.237  1.00  0.00     0.112 A 
HETATM   25  C22 UNL     1      -2.969   0.606  -0.112  1.00  0.00     0.091 A 
HETATM   26  C23 UNL     1      -1.647   0.509  -0.486  1.00  0.00     0.030 A 
HETATM   27  N3  UNL     1      -0.749  -0.253  -0.802  1.00  0.00    -0.288 NA
HETATM   28  O1  UNL     1      -4.099   2.173   0.184  1.00  0.00    -0.360 OA
HETATM   29  H6  UNL     1       0.928   3.897  -0.972  1.00  0.00     0.158 HD
ENDROOT
TORSDOF 0
