REMARK  3 active torsions:
REMARK  status: ('A' for Active; 'I' for Inactive)
REMARK    1  A    between atoms: C3_4  and  N1_5 
REMARK    2  A    between atoms: N1_5  and  C4_6 
REMARK    3  A    between atoms: C10_14  and  C11_15 
ROOT
HETATM    1  F1  UNL     1      -0.956  -2.267  -1.548  1.00  0.00    -0.205 F 
HETATM    2  C1  UNL     1      -0.113  -1.421  -0.929  1.00  0.00     0.131 A 
HETATM    3  C2  UNL     1       1.248  -1.572  -1.020  1.00  0.00     0.072 A 
HETATM    4  C3  UNL     1       2.147  -0.708  -0.386  1.00  0.00     0.036 A 
HETATM    5  C8  UNL     1       1.539   0.297   0.330  1.00  0.00     0.030 A 
HETATM    6  C9  UNL     1       0.175   0.503   0.460  1.00  0.00     0.020 A 
HETATM    7  C10 UNL     1      -0.634  -0.389  -0.192  1.00  0.00     0.038 A 
ENDROOT
BRANCH   7   8
HETATM    8  C11 UNL     1      -2.091  -0.122  -0.019  1.00  0.00     0.112 A 
HETATM    9  N4  UNL     1      -2.838   0.587   0.482  1.00  0.00    -0.239 NA
HETATM   10  C12 UNL     1      -4.157   0.577   0.458  1.00  0.00     0.075 A 
HETATM   11  C13 UNL     1      -5.066   1.421   1.054  1.00  0.00     0.033 A 
HETATM   12  C17 UNL     1      -4.731  -0.460  -0.297  1.00  0.00     0.035 A 
HETATM   13  C14 UNL     1      -6.399   1.222   0.893  1.00  0.00     0.002 A 
HETATM   14  C15 UNL     1      -6.984   0.199   0.149  1.00  0.00     0.002 A 
HETATM   15  C16 UNL     1      -6.111  -0.668  -0.464  1.00  0.00     0.021 A 
HETATM   16  S1  UNL     1      -3.256  -1.329  -0.903  1.00  0.00    -0.067 SA
ENDBRANCH   7   8
BRANCH   4  17
HETATM   17  N1  UNL     1       3.524  -0.915  -0.517  1.00  0.00    -0.341 N 
HETATM   18  H2  UNL     1       3.823  -1.743  -1.109  1.00  0.00     0.167 HD
BRANCH  17  19
HETATM   19  C4  UNL     1       4.587  -0.160   0.040  1.00  0.00     0.130 A 
HETATM   20  C5  UNL     1       5.910  -0.515  -0.198  1.00  0.00     0.070 A 
HETATM   21  C6  UNL     1       6.994   0.160   0.302  1.00  0.00     0.122 A 
HETATM   22  N2  UNL     1       6.751   1.233   1.072  1.00  0.00    -0.254 NA
HETATM   23  C7  UNL     1       5.477   1.625   1.337  1.00  0.00     0.234 A 
HETATM   24  N3  UNL     1       4.492   0.912   0.811  1.00  0.00    -0.225 NA
ENDBRANCH  17  19
ENDBRANCH   4  17
TORSDOF 3
