REMARK  8 active torsions:
REMARK  status: ('A' for Active; 'I' for Inactive)
REMARK    1  A    between atoms: O1_2  and  C2_3 
REMARK    2  A    between atoms: C6_9  and  N3_10 
REMARK    3  A    between atoms: N3_10  and  C7_11 
REMARK    4  A    between atoms: C15_20  and  O2_21 
REMARK    5  A    between atoms: O2_21  and  C16_22 
REMARK    6  A    between atoms: C16_22  and  C17_23 
REMARK    7  A    between atoms: C17_23  and  C18_24 
REMARK    8  A    between atoms: C18_24  and  N4_25 
ROOT
HETATM    1  C2  UNL     1       1.022  -3.302  -0.214  1.00  0.00     0.103 A 
HETATM    2  C3  UNL     1       2.278  -3.309  -0.759  1.00  0.00     0.072 A 
HETATM    3  C4  UNL     1       3.054  -2.187  -0.672  1.00  0.00     0.075 A 
HETATM    4  N1  UNL     1       4.283  -2.285  -1.239  1.00  0.00    -0.241 NA
HETATM    5  C5  UNL     1       5.108  -1.225  -1.197  1.00  0.00     0.236 A 
HETATM    6  N2  UNL     1       4.679  -0.131  -0.601  1.00  0.00    -0.224 NA
HETATM    7  C6  UNL     1       3.500   0.084  -0.013  1.00  0.00     0.142 A 
HETATM    8  C13 UNL     1       2.681  -0.998  -0.066  1.00  0.00     0.042 A 
HETATM    9  C14 UNL     1       1.419  -1.054   0.458  1.00  0.00     0.057 A 
HETATM   10  C15 UNL     1       0.583  -2.144   0.409  1.00  0.00     0.103 A 
ENDROOT
BRANCH  10  11
HETATM   11  O2  UNL     1      -0.696  -2.189   0.944  1.00  0.00    -0.348 OA
BRANCH  11  12
HETATM   12  C16 UNL     1      -1.317  -1.124   1.611  1.00  0.00     0.177 C 
BRANCH  12  13
HETATM   13  C17 UNL     1      -2.691  -1.425   2.087  1.00  0.00     0.046 C 
BRANCH  13  14
HETATM   14  C18 UNL     1      -3.710  -1.788   1.084  1.00  0.00     0.119 C 
BRANCH  14  15
HETATM   15  N4  UNL     1      -4.065  -0.896   0.079  1.00  0.00    -0.409 N 
HETATM   16  C19 UNL     1      -3.223  -0.544  -0.966  1.00  0.00     0.147 C 
HETATM   17  C20 UNL     1      -2.911   0.908  -1.129  1.00  0.00     0.291 C 
HETATM   18  N5  UNL     1      -3.781   1.791  -0.388  1.00  0.00     0.087 N 
HETATM   19  C21 UNL     1      -3.797   3.077  -1.100  1.00  0.00     0.310 C 
HETATM   20  C22 UNL     1      -5.106   1.251  -0.419  1.00  0.00     0.291 C 
HETATM   21  C23 UNL     1      -5.188  -0.051   0.338  1.00  0.00     0.147 C 
ENDBRANCH  14  15
ENDBRANCH  13  14
ENDBRANCH  12  13
ENDBRANCH  11  12
ENDBRANCH  10  11
BRANCH   1  22
HETATM   22  O1  UNL     1       0.212  -4.421  -0.285  1.00  0.00    -0.353 OA
HETATM   23  C1  UNL     1       0.682  -5.573  -0.920  1.00  0.00     0.210 C 
ENDBRANCH   1  22
BRANCH   7  24
HETATM   24  N3  UNL     1       3.058   1.265   0.622  1.00  0.00    -0.340 N 
HETATM   25  H6  UNL     1       2.121   1.337   1.037  1.00  0.00     0.167 HD
BRANCH  24  26
HETATM   26  C7  UNL     1       3.768   2.479   0.792  1.00  0.00     0.035 A 
HETATM   27  C8  UNL     1       5.079   2.620   0.399  1.00  0.00     0.029 A 
HETATM   28  C9  UNL     1       5.783   3.797   0.554  1.00  0.00     0.004 A 
HETATM   29  C10 UNL     1       5.197   4.908   1.119  1.00  0.00     0.024 A 
HETATM   30  C11 UNL     1       3.896   4.799   1.520  1.00  0.00     0.036 A 
HETATM   31 CL1  UNL     1       3.078   6.163   2.248  1.00  0.00    -0.084 Cl
HETATM   32  C12 UNL     1       3.242   3.620   1.347  1.00  0.00     0.053 A 
ENDBRANCH  24  26
ENDBRANCH   7  24
TORSDOF 8
