REMARK  6 active torsions:
REMARK  status: ('A' for Active; 'I' for Inactive)
REMARK    1  A    between atoms: C2_2  and  C3_3 
REMARK    2  A    between atoms: C3_3  and  C4_4 
REMARK    3  A    between atoms: C4_4  and  C5_5 
REMARK    4  A    between atoms: C8_11  and  C9_12 
REMARK    5  A    between atoms: C9_12  and  C10_13 
REMARK    6  A    between atoms: C10_13  and  S2_14 
ROOT
HETATM    1  C5  UNL     1       2.885   0.264  -0.986  1.00  0.00     0.185 C 
HETATM    2  S1  UNL     1       4.259  -0.163   0.386  1.00  0.00    -0.052 SA
HETATM    3  C6  UNL     1       2.567  -0.146   1.150  1.00  0.00     0.280 A 
HETATM    4  C7  UNL     1       1.571  -0.878   1.408  1.00  0.00     0.248 A 
HETATM    5 CL1  UNL     1       1.104  -1.414   3.015  1.00  0.00    -0.057 Cl
HETATM    6  N1  UNL     1       1.864  -0.498  -0.041  1.00  0.00     0.065 N 
HETATM    7  C8  UNL     1       0.767  -0.309  -0.982  1.00  0.00     0.348 C 
HETATM    8  O1  UNL     1       0.503   1.211  -0.808  1.00  0.00    -0.329 OA
HETATM    9  C15 UNL     1       1.228   1.929   0.265  1.00  0.00     0.137 C 
HETATM   10  C16 UNL     1       2.340   1.483   1.117  1.00  0.00     0.057 C 
ENDROOT
BRANCH   7  11
HETATM   11  C9  UNL     1      -0.580  -0.842  -0.849  1.00  0.00     0.073 C 
BRANCH  11  12
HETATM   12  C10 UNL     1      -1.419  -0.368   0.329  1.00  0.00     0.069 C 
BRANCH  12  13
HETATM   13  S2  UNL     1      -2.903  -0.962   0.373  1.00  0.00    -0.183 SA
HETATM   14  C11 UNL     1      -2.509  -2.531   0.423  1.00  0.00     0.080 C 
HETATM   15  N2  UNL     1      -3.145  -0.101   1.778  1.00  0.00    -0.286 NA
HETATM   16  C12 UNL     1      -4.358   0.478   2.247  1.00  0.00     0.185 C 
HETATM   17  C13 UNL     1      -5.337  -0.633   2.513  1.00  0.00     0.292 C 
HETATM   18  N3  UNL     1      -4.988  -1.715   1.581  1.00  0.00     0.093 N 
HETATM   19  C14 UNL     1      -4.449  -1.084   0.345  1.00  0.00     0.333 C 
HETATM   20  H20 UNL     1      -4.254  -2.257   2.078  1.00  0.00     0.316 HD
HETATM   21  H12 UNL     1      -3.044  -0.243  -0.951  1.00  0.00     0.095 HD
ENDBRANCH  12  13
ENDBRANCH  11  12
ENDBRANCH   7  11
BRANCH   1  22
HETATM   22  C4  UNL     1       3.068   0.899  -2.011  1.00  0.00     0.025 C 
BRANCH  22  23
HETATM   23  C3  UNL     1       4.460   1.157  -1.832  1.00  0.00     0.023 C 
BRANCH  23  24
HETATM   24  C2  UNL     1       5.690   1.543  -1.953  1.00  0.00    -0.006 C 
HETATM   25  C1  UNL     1       6.929   2.144  -2.450  1.00  0.00     0.011 C 
ENDBRANCH  23  24
ENDBRANCH  22  23
ENDBRANCH   1  22
TORSDOF 6
