REMARK  1 active torsions:
REMARK  status: ('A' for Active; 'I' for Inactive)
REMARK    1  A    between atoms: C2_2  and  C3_3 
ROOT
HETATM    1  C3  UNL     1       3.400  -0.568   1.059  1.00  0.00     0.031 A 
HETATM    2  S1  UNL     1       3.457  -2.011  -0.052  1.00  0.00    -0.073 SA
HETATM    3  C4  UNL     1       1.881  -1.692  -0.942  1.00  0.00     0.080 A 
HETATM    4  N1  UNL     1       1.378  -0.540  -0.390  1.00  0.00    -0.245 NA
HETATM    5  C5  UNL     1       2.153  -0.065   0.554  1.00  0.00     0.074 A 
HETATM    6  C6  UNL     1       1.546   0.993   1.039  1.00  0.00     0.035 C 
HETATM    7  C7  UNL     1       0.341   1.719   0.762  1.00  0.00     0.035 C 
HETATM    8  C8  UNL     1      -0.562   2.611   0.895  1.00  0.00     0.058 C 
HETATM    9  O1  UNL     1      -0.981   3.708   1.629  1.00  0.00    -0.353 OA
HETATM   10  C9  UNL     1      -2.314   3.170   1.420  1.00  0.00     0.193 C 
HETATM   11  C10 UNL     1      -1.784   2.813   0.088  1.00  0.00     0.119 C 
HETATM   12  C11 UNL     1      -2.227   1.667  -0.657  1.00  0.00     0.058 A 
HETATM   13  N2  UNL     1      -2.596   1.895  -1.921  1.00  0.00    -0.245 NA
HETATM   14  C12 UNL     1      -3.005   1.007  -2.827  1.00  0.00     0.235 A 
HETATM   15  N3  UNL     1      -3.052  -0.300  -2.414  1.00  0.00    -0.224 NA
HETATM   16  C13 UNL     1      -2.686  -0.555  -1.145  1.00  0.00     0.136 A 
HETATM   17  C14 UNL     1      -2.266   0.362  -0.208  1.00  0.00     0.009 A 
HETATM   18  C15 UNL     1      -2.017  -0.441   1.018  1.00  0.00     0.054 C 
HETATM   19  N4  UNL     1      -2.844  -1.956  -1.171  1.00  0.00    -0.351 N 
HETATM   20  C16 UNL     1      -1.577  -2.535  -1.424  1.00  0.00     0.086 C 
HETATM   21  C17 UNL     1      -0.329  -2.207  -1.703  1.00  0.00    -0.003 C 
HETATM   22  C18 UNL     1       1.112  -2.356  -2.007  1.00  0.00     0.095 C 
HETATM   23  H14 UNL     1      -3.562  -2.666  -1.079  1.00  0.00     0.166 HD
ENDROOT
BRANCH   1  24
HETATM   24  C2  UNL     1       4.147  -0.131   1.950  1.00  0.00    -0.010 C 
HETATM   25  C1  UNL     1       5.310  -1.057   2.058  1.00  0.00     0.037 C 
ENDBRANCH   1  24
TORSDOF 1
