REMARK  2 active torsions:
REMARK  status: ('A' for Active; 'I' for Inactive)
REMARK    1  A    between atoms: O1_2  and  C2_3 
REMARK    2  A    between atoms: C9_12  and  O2_13 
ROOT
HETATM    1  C2  UNL     1       3.803  -1.084   0.222  1.00  0.00     0.103 A 
HETATM    2  C3  UNL     1       2.818  -1.367   1.176  1.00  0.00     0.072 A 
HETATM    3  C4  UNL     1       1.655  -0.642   1.082  1.00  0.00     0.076 A 
HETATM    4  N1  UNL     1       0.680  -0.871   1.979  1.00  0.00    -0.222 NA
HETATM    5  C5  UNL     1      -0.480  -0.212   1.973  1.00  0.00     0.191 A 
HETATM    6  N2  UNL     1      -0.612   0.700   1.007  1.00  0.00    -0.249 N 
HETATM    7  C6  UNL     1       0.342   0.941   0.106  1.00  0.00     0.133 A 
HETATM    8  C7  UNL     1       1.551   0.296   0.067  1.00  0.00     0.041 A 
HETATM    9  C8  UNL     1       2.487   0.607  -0.888  1.00  0.00     0.057 A 
HETATM   10  C9  UNL     1       3.642  -0.137  -0.767  1.00  0.00     0.102 A 
HETATM   11  N3  UNL     1       0.143   1.875  -0.948  1.00  0.00    -0.344 N 
HETATM   12  C11 UNL     1      -1.159   1.703  -1.471  1.00  0.00     0.014 C 
HETATM   13  C12 UNL     1      -2.181   2.473  -1.785  1.00  0.00     0.025 C 
HETATM   14  C13 UNL     1      -3.402   1.672  -1.498  1.00  0.00     0.005 C 
HETATM   15  C14 UNL     1      -2.997   0.475  -1.029  1.00  0.00    -0.073 C 
HETATM   16  C15 UNL     1      -1.694   0.320  -1.800  1.00  0.00     0.091 C 
HETATM   17  C16 UNL     1      -3.328  -0.613  -0.118  1.00  0.00     0.055 C 
HETATM   18  C17 UNL     1      -3.439  -0.178   1.348  1.00  0.00     0.021 C 
HETATM   19  C18 UNL     1      -4.586   0.828   1.460  1.00  0.00     0.028 C 
HETATM   20  C19 UNL     1      -3.620  -1.371   2.235  1.00  0.00     0.028 C 
HETATM   21  S1  UNL     1      -1.960   0.716   1.867  1.00  0.00    -0.036 SA
HETATM   22  H9  UNL     1       0.784   2.568  -1.322  1.00  0.00     0.167 HD
ENDROOT
BRANCH   1  23
HETATM   23  O1  UNL     1       4.980  -1.810   0.309  1.00  0.00    -0.353 OA
HETATM   24  C1  UNL     1       5.127  -2.778   1.333  1.00  0.00     0.210 C 
ENDBRANCH   1  23
BRANCH  10  25
HETATM   25  O2  UNL     1       4.702   0.039  -1.646  1.00  0.00    -0.353 OA
HETATM   26  C10 UNL     1       4.539   0.999  -2.649  1.00  0.00     0.210 C 
ENDBRANCH  10  25
TORSDOF 2
