REMARK  4 active torsions:
REMARK  status: ('A' for Active; 'I' for Inactive)
REMARK    1  A    between atoms: O1_2  and  C2_3 
REMARK    2  A    between atoms: C8_11  and  N3_12 
REMARK    3  A    between atoms: N4_19  and  C14_20 
REMARK    4  A    between atoms: C21_27  and  O2_28 
ROOT
HETATM    1  N3  UNL     1      -0.610  -0.370   1.534  1.00  0.00    -0.364 N 
HETATM    2  C9  UNL     1      -0.711  -1.437   2.532  1.00  0.00     0.151 C 
HETATM    3  C10 UNL     1      -0.272  -0.963   3.877  1.00  0.00    -0.010 C 
HETATM    4  C11 UNL     1       0.736  -0.089   4.008  1.00  0.00    -0.011 C 
HETATM    5  C12 UNL     1       1.375   0.369   2.758  1.00  0.00     0.105 C 
HETATM    6  S1  UNL     1       2.117  -0.915   1.742  1.00  0.00    -0.101 SA
HETATM    7  C13 UNL     1       1.587   0.441   0.703  1.00  0.00     0.096 C 
HETATM    8  N4  UNL     1       1.905   1.108  -0.379  1.00  0.00    -0.244 NA
HETATM    9  C20 UNL     1       0.436   0.625   1.627  1.00  0.00     0.161 C 
ENDROOT
BRANCH   1  10
HETATM   10  C8  UNL     1      -1.532  -0.291   0.458  1.00  0.00     0.077 A 
HETATM   11  C4  UNL     1      -1.989  -1.478  -0.301  1.00  0.00     0.112 A 
HETATM   12  C3  UNL     1      -2.926  -0.999  -1.321  1.00  0.00     0.049 A 
HETATM   13  C5  UNL     1      -2.509  -2.609   0.463  1.00  0.00     0.055 A 
HETATM   14  N2  UNL     1      -0.917  -2.316  -0.776  1.00  0.00    -0.205 NA
HETATM   15  C2  UNL     1      -2.997   0.313  -1.162  1.00  0.00     0.102 A 
HETATM   16  C21 UNL     1      -2.134   0.771  -0.057  1.00  0.00     0.126 A 
HETATM   17  C6  UNL     1      -1.510  -3.347   0.005  1.00  0.00     0.111 A 
HETATM   18  N1  UNL     1      -0.493  -4.286  -0.395  1.00  0.00    -0.237 NA
HETATM   19  C7  UNL     1       0.022  -3.311  -1.101  1.00  0.00     0.188 A 
BRANCH  15  20
HETATM   20  O1  UNL     1      -3.823   1.097  -1.993  1.00  0.00    -0.353 OA
HETATM   21  C1  UNL     1      -4.851   1.784  -1.265  1.00  0.00     0.210 C 
ENDBRANCH  15  20
BRANCH  16  22
HETATM   22  O2  UNL     1      -1.984   2.066   0.360  1.00  0.00    -0.351 OA
HETATM   23  C22 UNL     1      -1.530   3.125  -0.457  1.00  0.00     0.210 C 
ENDBRANCH  16  22
ENDBRANCH   1  10
BRANCH   8  24
HETATM   24  C14 UNL     1       3.049   0.791  -1.142  1.00  0.00     0.057 A 
HETATM   25  C15 UNL     1       2.982  -0.354  -1.912  1.00  0.00     0.031 A 
HETATM   26  C16 UNL     1       4.095  -0.684  -2.670  1.00  0.00     0.002 A 
HETATM   27  C17 UNL     1       5.254   0.082  -2.683  1.00  0.00     0.000 A 
HETATM   28  C18 UNL     1       5.259   1.213  -1.895  1.00  0.00     0.002 A 
HETATM   29  C19 UNL     1       4.180   1.587  -1.122  1.00  0.00     0.031 A 
ENDBRANCH   8  24
TORSDOF 4
