REMARK  2 active torsions:
REMARK  status: ('A' for Active; 'I' for Inactive)
REMARK    1  A    between atoms: O1_2  and  C2_3 
REMARK    2  A    between atoms: C22_27  and  O2_28 
ROOT
HETATM    1  C2  UNL     1      -1.718  -1.552  -0.423  1.00  0.00     0.045 C 
HETATM    2  C3  UNL     1      -0.421  -1.549  -0.520  1.00  0.00     0.023 C 
HETATM    3  C4  UNL     1       0.668  -2.313  -0.076  1.00  0.00     0.072 A 
HETATM    4  C5  UNL     1       0.209  -3.503  -0.821  1.00  0.00     0.179 A 
HETATM    5  N1  UNL     1       0.659  -4.783  -0.975  1.00  0.00    -0.272 NA
HETATM    6  C6  UNL     1       1.735  -5.328  -0.437  1.00  0.00     0.224 A 
HETATM    7  N2  UNL     1       2.316  -4.264   0.337  1.00  0.00    -0.248 NA
HETATM    8  C7  UNL     1       1.447  -3.181   0.138  1.00  0.00     0.165 A 
HETATM    9  N3  UNL     1       2.279  -2.255   0.917  1.00  0.00    -0.363 N 
HETATM   10  C8  UNL     1       3.263  -1.354   0.418  1.00  0.00     0.003 C 
HETATM   11  C9  UNL     1       4.378  -2.261   0.038  1.00  0.00     0.068 C 
HETATM   12  C10 UNL     1       3.456  -0.080   0.223  1.00  0.00     0.021 C 
HETATM   13  C11 UNL     1       2.347   0.739   0.621  1.00  0.00     0.029 C 
HETATM   14  C12 UNL     1       2.498   2.098   0.427  1.00  0.00     0.018 C 
HETATM   15  C13 UNL     1       3.783   2.537  -0.163  1.00  0.00     0.022 C 
HETATM   16  C14 UNL     1       1.800   3.404   0.589  1.00  0.00     0.079 C 
HETATM   17  N4  UNL     1       0.885   4.030  -0.035  1.00  0.00    -0.249 NA
HETATM   18  C15 UNL     1      -0.338   4.112   0.617  1.00  0.00     0.045 C 
HETATM   19  C16 UNL     1      -1.372   3.634  -0.042  1.00  0.00     0.028 C 
HETATM   20  C17 UNL     1      -1.682   3.009  -1.308  1.00  0.00     0.002 C 
HETATM   21  C18 UNL     1      -2.811   2.536  -1.887  1.00  0.00     0.001 C 
HETATM   22  C19 UNL     1      -3.886   2.759  -0.896  1.00  0.00     0.012 C 
HETATM   23  C20 UNL     1      -3.781   1.972   0.168  1.00  0.00    -0.028 C 
HETATM   24  C21 UNL     1      -2.871   1.012   0.010  1.00  0.00     0.017 C 
HETATM   25  C22 UNL     1      -3.380   0.211  -1.124  1.00  0.00     0.148 C 
HETATM   26  C23 UNL     1      -3.090  -1.214  -0.546  1.00  0.00     0.100 C 
HETATM   27  C24 UNL     1      -0.049   4.746   1.895  1.00  0.00     0.140 C 
HETATM   28  S1  UNL     1       1.802   4.794   1.703  1.00  0.00    -0.108 SA
HETATM   29  H7  UNL     1       2.301  -2.096   1.942  1.00  0.00     0.162 HD
ENDROOT
BRANCH   1  30
HETATM   30  O1  UNL     1      -1.508  -2.676   0.329  1.00  0.00    -0.360 OA
HETATM   31  C1  UNL     1      -2.451  -3.644   0.719  1.00  0.00     0.209 C 
ENDBRANCH   1  30
BRANCH  25  32
HETATM   32  O2  UNL     1      -4.737   0.136  -1.260  1.00  0.00    -0.391 OA
HETATM   33  H22 UNL     1      -5.140   0.381  -0.390  1.00  0.00     0.210 HD
ENDBRANCH  25  32
TORSDOF 2
