REMARK  5 active torsions:
REMARK  status: ('A' for Active; 'I' for Inactive)
REMARK    1  A    between atoms: O1_2  and  C2_3 
REMARK    2  A    between atoms: C2_3  and  C3_4 
REMARK    3  A    between atoms: C3_4  and  C4_5 
REMARK    4  A    between atoms: C4_5  and  N1_6 
REMARK    5  A    between atoms: C9_13  and  O2_14 
ROOT
HETATM    1  N1  UNL     1       0.320   0.565  -0.210  1.00  0.00    -0.288 N 
HETATM    2  N2  UNL     1       0.255  -0.844  -0.070  1.00  0.00    -0.169 NA
HETATM    3  C5  UNL     1      -0.695  -1.621  -0.454  1.00  0.00     0.255 C 
HETATM    4  N3  UNL     1      -1.981  -1.881  -1.071  1.00  0.00    -0.237 NA
HETATM    5  C6  UNL     1      -2.527  -2.913  -0.578  1.00  0.00     0.098 C 
HETATM    6  C7  UNL     1      -2.877  -2.701   0.672  1.00  0.00     0.006 C 
HETATM    7  C8  UNL     1      -3.207  -1.409   0.752  1.00  0.00     0.020 C 
HETATM    8  C9  UNL     1      -3.635  -0.234  -0.081  1.00  0.00     0.157 C 
HETATM    9  C10 UNL     1      -2.555   0.785  -0.279  1.00  0.00     0.036 A 
HETATM   10  C11 UNL     1      -2.557   1.020  -1.626  1.00  0.00    -0.029 A 
HETATM   11  C12 UNL     1      -1.261   1.177  -1.185  1.00  0.00     0.055 A 
HETATM   12  C13 UNL     1      -1.044   0.993   0.136  1.00  0.00     0.067 A 
HETATM   13  C14 UNL     1      -0.876   0.798   1.475  1.00  0.00    -0.013 A 
HETATM   14  C15 UNL     1      -2.150   0.640   1.015  1.00  0.00     0.056 A 
ENDROOT
BRANCH   1  15
HETATM   15  C4  UNL     1       1.561   1.157  -0.607  1.00  0.00     0.175 C 
BRANCH  15  16
HETATM   16  C3  UNL     1       2.666   0.896   0.320  1.00  0.00     0.018 C 
BRANCH  16  17
HETATM   17  C2  UNL     1       3.736   0.255  -0.117  1.00  0.00     0.131 C 
BRANCH  17  18
HETATM   18  O1  UNL     1       4.951  -0.358  -0.219  1.00  0.00    -0.368 OA
HETATM   19  C1  UNL     1       6.086   0.005   0.553  1.00  0.00     0.208 C 
ENDBRANCH  17  18
ENDBRANCH  16  17
ENDBRANCH  15  16
ENDBRANCH   1  15
BRANCH   8  20
HETATM   20  O2  UNL     1      -4.556   0.398   0.730  1.00  0.00    -0.391 OA
HETATM   21  H11 UNL     1      -5.245  -0.150   1.134  1.00  0.00     0.210 HD
ENDBRANCH   8  20
TORSDOF 5
