REMARK  10 active torsions:
REMARK  status: ('A' for Active; 'I' for Inactive)
REMARK    1  A    between atoms: O1_1  and  C1_2 
REMARK    2  A    between atoms: C1_2  and  C2_3 
REMARK    3  A    between atoms: C3_4  and  C4_5 
REMARK    4  A    between atoms: C5_6  and  S1_7 
REMARK    5  A    between atoms: S1_7  and  C6_8 
REMARK    6  A    between atoms: C6_8  and  N1_9 
REMARK    7  A    between atoms: N1_9  and  C7_10 
REMARK    8  A    between atoms: C10_15  and  N4_16 
REMARK    9  A    between atoms: N4_16  and  C11_17 
REMARK   10  A    between atoms: C11_17  and  C12_18 
ROOT
HETATM    1  C7  UNL     1       2.062   0.413   0.719  1.00  0.00     0.103 A 
HETATM    2  C8  UNL     1       1.545   0.434   1.993  1.00  0.00     0.152 A 
HETATM    3  N2  UNL     1       2.438   0.551   3.022  1.00  0.00    -0.252 NA
HETATM    4  C9  UNL     1       3.762   0.639   2.734  1.00  0.00     0.235 A 
HETATM    5  N3  UNL     1       4.211   0.613   1.467  1.00  0.00    -0.222 NA
HETATM    6  C10 UNL     1       3.391   0.500   0.414  1.00  0.00     0.153 A 
ENDROOT
BRANCH   1   7
HETATM    7  N1  UNL     1       1.159   0.292  -0.398  1.00  0.00    -0.311 N 
HETATM    8  H8  UNL     1       1.356   0.251  -1.418  1.00  0.00     0.176 HD
BRANCH   7   9
HETATM    9  C6  UNL     1      -0.145   0.219  -0.080  1.00  0.00     0.009 C 
BRANCH   9  10
HETATM   10  S1  UNL     1      -1.564   0.165   0.276  1.00  0.00    -0.041 SA
BRANCH  10  11
HETATM   11  C5  UNL     1      -3.248   0.110   0.668  1.00  0.00     0.059 C 
HETATM   12  C4  UNL     1      -4.096  -0.106  -0.315  1.00  0.00     0.007 C 
BRANCH  12  13
HETATM   13  C3  UNL     1      -5.501  -0.146   0.048  1.00  0.00    -0.001 C 
HETATM   14  C2  UNL     1      -6.454  -0.352  -0.824  1.00  0.00    -0.001 C 
BRANCH  14  15
HETATM   15  C1  UNL     1      -7.912  -0.438  -0.729  1.00  0.00     0.191 C 
BRANCH  15  16
HETATM   16  O1  UNL     1      -8.312  -1.700  -1.171  1.00  0.00    -0.397 OA
HETATM   17  H1  UNL     1      -8.699  -2.265  -0.462  1.00  0.00     0.209 HD
ENDBRANCH  15  16
ENDBRANCH  14  15
ENDBRANCH  12  13
ENDBRANCH  10  11
ENDBRANCH   9  10
ENDBRANCH   7   9
ENDBRANCH   1   7
BRANCH   6  18
HETATM   18  N4  UNL     1       3.750   0.464  -0.950  1.00  0.00    -0.372 N 
HETATM   19  H11 UNL     1       3.238   0.384  -1.821  1.00  0.00     0.161 HD
BRANCH  18  20
HETATM   20  C11 UNL     1       5.171   0.563  -1.134  1.00  0.00     0.127 C 
BRANCH  20  21
HETATM   21  C12 UNL     1       5.853  -0.577  -0.442  1.00  0.00     0.026 C 
HETATM   22  C13 UNL     1       6.712  -1.044   0.467  1.00  0.00     0.186 C 
HETATM   23 BR1  UNL     1       7.840  -0.151   1.713  1.00  0.00    -0.198 Br
ENDBRANCH  20  21
ENDBRANCH  18  20
ENDBRANCH   6  18
TORSDOF 10
