REMARK  4 active torsions:
REMARK  status: ('A' for Active; 'I' for Inactive)
REMARK    1  A    between atoms: O1_2  and  C2_3 
REMARK    2  A    between atoms: C5_6  and  N1_7 
REMARK    3  A    between atoms: C7_9  and  C8_10 
REMARK    4  A    between atoms: C21_26  and  O2_27 
ROOT
HETATM    1  N1  UNL     1      -0.032  -0.312  -1.578  1.00  0.00    -0.354 N 
HETATM    2  C6  UNL     1       1.044  -0.344  -0.653  1.00  0.00     0.105 A 
HETATM    3  C7  UNL     1       2.030   0.515  -0.841  1.00  0.00     0.015 A 
HETATM    4  C15 UNL     1       2.012   1.449  -1.945  1.00  0.00     0.013 A 
HETATM    5  C16 UNL     1       1.019   1.488  -2.811  1.00  0.00    -0.006 A 
HETATM    6  C17 UNL     1      -0.159   0.582  -2.726  1.00  0.00     0.155 A 
ENDROOT
BRANCH   1   7
HETATM    7  C5  UNL     1      -1.144  -1.190  -1.473  1.00  0.00     0.043 A 
HETATM    8  C4  UNL     1      -2.196  -0.805  -0.773  1.00  0.00     0.006 A 
HETATM    9  C3  UNL     1      -2.536   0.392  -0.017  1.00  0.00     0.054 A 
HETATM   10  C20 UNL     1      -3.294  -1.758  -0.712  1.00  0.00     0.029 A 
HETATM   11  C2  UNL     1      -3.761   0.119   0.442  1.00  0.00     0.103 A 
HETATM   12  C21 UNL     1      -4.233  -1.194   0.023  1.00  0.00     0.114 A 
HETATM   13  C19 UNL     1      -3.084  -3.007  -1.430  1.00  0.00     0.126 A 
HETATM   14  N3  UNL     1      -2.047  -3.349  -2.102  1.00  0.00    -0.295 NA
HETATM   15  C18 UNL     1      -0.921  -2.457  -2.207  1.00  0.00     0.206 A 
BRANCH  11  16
HETATM   16  O1  UNL     1      -4.510   0.988   1.235  1.00  0.00    -0.353 OA
HETATM   17  C1  UNL     1      -4.316   0.933   2.636  1.00  0.00     0.210 C 
ENDBRANCH  11  16
BRANCH  12  18
HETATM   18  O2  UNL     1      -5.444  -1.790   0.315  1.00  0.00    -0.352 OA
HETATM   19  C22 UNL     1      -6.672  -1.147   0.035  1.00  0.00     0.210 C 
ENDBRANCH  12  18
ENDBRANCH   1   7
BRANCH   3  20
HETATM   20  C8  UNL     1       3.178   0.553   0.062  1.00  0.00     0.110 A 
HETATM   21  N2  UNL     1       4.220   1.304   0.046  1.00  0.00    -0.240 NA
HETATM   22  C9  UNL     1       5.143   1.160   0.977  1.00  0.00     0.075 A 
HETATM   23  C10 UNL     1       6.308   1.893   1.083  1.00  0.00     0.033 A 
HETATM   24  C14 UNL     1       4.979   0.177   1.987  1.00  0.00     0.035 A 
HETATM   25  C11 UNL     1       7.184   1.649   2.090  1.00  0.00     0.002 A 
HETATM   26  C12 UNL     1       7.038   0.706   3.070  1.00  0.00     0.002 A 
HETATM   27  C13 UNL     1       5.916  -0.088   3.070  1.00  0.00     0.021 A 
HETATM   28  S1  UNL     1       3.334  -0.532   1.457  1.00  0.00    -0.067 SA
ENDBRANCH   3  20
TORSDOF 4
