REMARK  4 active torsions:
REMARK  status: ('A' for Active; 'I' for Inactive)
REMARK    1  A    between atoms: O1_2  and  C2_3 
REMARK    2  A    between atoms: C6_9  and  N3_10 
REMARK    3  A    between atoms: N3_10  and  C7_11 
REMARK    4  A    between atoms: C14_19  and  O2_20 
ROOT
HETATM    1  C2  UNL     1       3.117   0.152  -0.323  1.00  0.00     0.054 C 
HETATM    2  C3  UNL     1       2.608  -0.116   0.861  1.00  0.00     0.065 C 
HETATM    3  C4  UNL     1       1.311  -0.755   1.119  1.00  0.00     0.074 A 
HETATM    4  N1  UNL     1       1.219  -1.371   2.312  1.00  0.00    -0.241 NA
HETATM    5  C5  UNL     1       0.037  -1.983   2.618  1.00  0.00     0.236 A 
HETATM    6  N2  UNL     1      -1.027  -1.984   1.760  1.00  0.00    -0.224 NA
HETATM    7  C6  UNL     1      -0.955  -1.368   0.548  1.00  0.00     0.142 A 
HETATM    8  C12 UNL     1       0.225  -0.759   0.248  1.00  0.00     0.041 A 
HETATM    9  C13 UNL     1       0.123  -0.156  -1.099  1.00  0.00     0.050 C 
HETATM   10  C14 UNL     1       1.181   0.115  -1.875  1.00  0.00     0.050 C 
HETATM   11  C15 UNL     1       2.646  -0.057  -1.716  1.00  0.00     0.128 C 
ENDROOT
BRANCH   7  12
HETATM   12  N3  UNL     1      -2.085  -1.385  -0.320  1.00  0.00    -0.340 N 
HETATM   13  H6  UNL     1      -2.257  -2.083  -1.081  1.00  0.00     0.167 HD
BRANCH  12  14
HETATM   14  C7  UNL     1      -3.052  -0.334  -0.103  1.00  0.00     0.031 A 
HETATM   15  C8  UNL     1      -3.611   0.681  -0.779  1.00  0.00     0.022 A 
HETATM   16  C9  UNL     1      -4.582   1.410   0.080  1.00  0.00     0.105 A 
HETATM   17 BR1  UNL     1      -6.349   1.245  -0.639  1.00  0.00    -0.083 Br
HETATM   18  C10 UNL     1      -4.522   0.680   1.367  1.00  0.00    -0.005 A 
HETATM   19  C11 UNL     1      -3.648  -0.299   1.230  1.00  0.00     0.026 A 
ENDBRANCH  12  14
ENDBRANCH   7  12
BRANCH  10  20
HETATM   20  O2  UNL     1       0.780   0.682  -3.095  1.00  0.00    -0.365 OA
HETATM   21  H12 UNL     1       1.404   1.364  -3.484  1.00  0.00     0.217 HD
ENDBRANCH  10  20
BRANCH   1  22
HETATM   22  O1  UNL     1       4.349   0.755  -0.280  1.00  0.00    -0.360 OA
HETATM   23  C1  UNL     1       5.076   1.151   0.833  1.00  0.00     0.209 C 
ENDBRANCH   1  22
TORSDOF 4
