REMARK  3 active torsions:
REMARK  status: ('A' for Active; 'I' for Inactive)
REMARK    1  A    between atoms: C1_2  and  C2_3 
REMARK    2  A    between atoms: C6_8  and  N2_9 
REMARK    3  A    between atoms: N2_9  and  C7_10 
ROOT
HETATM    1  C2  UNL     1      -3.379   1.388  -0.022  1.00  0.00     0.011 C 
HETATM    2  C3  UNL     1      -2.840   0.277   0.524  1.00  0.00    -0.040 C 
HETATM    3  C4  UNL     1      -1.650   0.366   1.429  1.00  0.00     0.156 C 
HETATM    4  N1  UNL     1      -0.520  -0.388   0.916  1.00  0.00    -0.379 N 
HETATM    5  C5  UNL     1      -0.431  -1.310  -0.146  1.00  0.00     0.128 A 
HETATM    6  C6  UNL     1       0.887  -1.697  -0.281  1.00  0.00     0.160 A 
HETATM    7  N3  UNL     1       1.169  -2.596  -1.268  1.00  0.00    -0.222 NA
HETATM    8  C13 UNL     1       0.201  -3.088  -2.080  1.00  0.00     0.238 A 
HETATM    9  N4  UNL     1      -1.080  -2.702  -1.938  1.00  0.00    -0.216 NA
HETATM   10  C14 UNL     1      -1.425  -1.805  -0.968  1.00  0.00     0.197 A 
HETATM   11  O1  UNL     1      -2.784  -1.512  -0.953  1.00  0.00    -0.328 OA
HETATM   12  C15 UNL     1      -3.501  -1.031   0.173  1.00  0.00     0.213 C 
HETATM   13  H6  UNL     1       0.339  -0.190   1.442  1.00  0.00     0.160 HD
ENDROOT
BRANCH   6  14
HETATM   14  N2  UNL     1       1.972  -1.240   0.517  1.00  0.00    -0.339 N 
HETATM   15  H7  UNL     1       1.934  -1.941   1.288  1.00  0.00     0.167 HD
BRANCH  14  16
HETATM   16  C7  UNL     1       2.911  -0.190   0.446  1.00  0.00     0.035 A 
HETATM   17  C8  UNL     1       3.840  -0.097   1.463  1.00  0.00     0.029 A 
HETATM   18  C9  UNL     1       4.735   0.946   1.345  1.00  0.00     0.004 A 
HETATM   19  C10 UNL     1       4.727   1.843   0.301  1.00  0.00     0.019 A 
HETATM   20  C11 UNL     1       3.775   1.705  -0.693  1.00  0.00     0.013 A 
HETATM   21 BR1  UNL     1       3.757   2.942  -2.139  1.00  0.00    -0.051 Br
HETATM   22  C12 UNL     1       2.839   0.672  -0.635  1.00  0.00     0.048 A 
ENDBRANCH  14  16
ENDBRANCH   6  14
BRANCH   1  23
HETATM   23  C1  UNL     1      -4.464   1.889  -0.915  1.00  0.00     0.250 C 
HETATM   24  F1  UNL     1      -5.260   0.868  -1.407  1.00  0.00    -0.251 F 
ENDBRANCH   1  23
TORSDOF 3
