REMARK  1 active torsions:
REMARK  status: ('A' for Active; 'I' for Inactive)
REMARK    1  A    between atoms: O1_2  and  C2_3 
ROOT
HETATM    1  C2  UNL     1       3.782   1.521   0.561  1.00  0.00     0.063 C 
HETATM    2  C3  UNL     1       4.162   0.225   0.587  1.00  0.00    -0.000 C 
HETATM    3  C4  UNL     1       4.302  -1.229   0.476  1.00  0.00    -0.024 C 
HETATM    4  B1  UNL     1       3.041  -1.977  -0.129  1.00  0.00     0.166 B 
HETATM    5  C5  UNL     1       1.677  -2.108   0.656  1.00  0.00     0.005 C 
HETATM    6  C6  UNL     1       0.530  -1.424   0.016  1.00  0.00     0.026 C 
HETATM    7  C7  UNL     1      -0.365  -2.462  -0.280  1.00  0.00     0.026 C 
HETATM    8  C8  UNL     1      -1.733  -2.670  -0.499  1.00  0.00     0.003 C 
HETATM    9  C9  UNL     1      -2.768  -1.744  -0.688  1.00  0.00     0.016 C 
HETATM   10  C10 UNL     1      -3.022  -0.444  -0.315  1.00  0.00     0.018 A 
HETATM   11  C11 UNL     1      -2.041   0.546  -0.086  1.00  0.00     0.151 A 
HETATM   12  O2  UNL     1      -0.736   0.678  -0.106  1.00  0.00    -0.227 OA
HETATM   13  N1  UNL     1       0.251  -0.145  -0.280  1.00  0.00    -0.254 N 
HETATM   14  C12 UNL     1       1.311   0.469  -0.965  1.00  0.00     0.184 C 
HETATM   15  C13 UNL     1       1.425   1.906  -0.632  1.00  0.00    -0.002 C 
HETATM   16  C14 UNL     1       2.577   2.135   0.022  1.00  0.00     0.034 C 
HETATM   17  S1  UNL     1      -2.936   2.039   0.362  1.00  0.00    -0.061 SA
HETATM   18  C15 UNL     1      -4.640   1.224   0.213  1.00  0.00     0.018 A 
HETATM   19  C16 UNL     1      -5.868   1.806   0.427  1.00  0.00     0.020 A 
HETATM   20  C17 UNL     1      -6.955   0.984   0.249  1.00  0.00     0.001 A 
HETATM   21  C18 UNL     1      -6.694  -0.307  -0.116  1.00  0.00     0.001 A 
HETATM   22  C19 UNL     1      -5.454  -0.849  -0.320  1.00  0.00     0.014 A 
HETATM   23  C20 UNL     1      -4.328  -0.079  -0.158  1.00  0.00    -0.005 A 
HETATM   24  H7  UNL     1       3.057  -2.272  -1.263  1.00  0.00    -0.026 HD
ENDROOT
BRANCH   1  25
HETATM   25  O1  UNL     1       4.581   2.581   1.094  1.00  0.00    -0.356 OA
HETATM   26  C1  UNL     1       5.904   2.722   0.643  1.00  0.00     0.210 C 
ENDBRANCH   1  25
TORSDOF 1
