REMARK  6 active torsions:
REMARK  status: ('A' for Active; 'I' for Inactive)
REMARK    1  A    between atoms: C4_5  and  C5_6 
REMARK    2  A    between atoms: C7_8  and  N1_9 
REMARK    3  A    between atoms: N1_9  and  C8_10 
REMARK    4  A    between atoms: C11_13  and  C12_14 
REMARK    5  A    between atoms: C12_14  and  S1_15 
REMARK    6  A    between atoms: C13_16  and  N2_17 
ROOT
HETATM    1  C8  UNL     1      -0.135  -0.997   0.023  1.00  0.00     0.033 A 
HETATM    2  C9  UNL     1      -0.468   0.333   0.217  1.00  0.00     0.030 A 
HETATM    3  C10 UNL     1      -1.651   0.709   0.823  1.00  0.00     0.010 A 
HETATM    4  C11 UNL     1      -2.535  -0.278   1.235  1.00  0.00    -0.049 A 
HETATM    5  C18 UNL     1      -2.162  -1.587   1.010  1.00  0.00     0.010 A 
HETATM    6  C19 UNL     1      -1.008  -2.012   0.432  1.00  0.00     0.030 A 
ENDROOT
BRANCH   1   7
HETATM    7  N1  UNL     1       1.091  -1.419  -0.551  1.00  0.00    -0.341 N 
HETATM    8  H9  UNL     1       1.239  -2.446  -0.798  1.00  0.00     0.167 HD
BRANCH   7   9
HETATM    9  C7  UNL     1       2.299  -0.830  -0.928  1.00  0.00     0.131 A 
HETATM   10  C6  UNL     1       3.373  -1.027  -0.151  1.00  0.00     0.078 A 
HETATM   11  C5  UNL     1       4.650  -0.651  -0.107  1.00  0.00     0.049 A 
HETATM   12  N4  UNL     1       4.749   0.168  -1.239  1.00  0.00    -0.246 NA
HETATM   13  C20 UNL     1       3.802   0.472  -2.114  1.00  0.00     0.235 A 
HETATM   14  N3  UNL     1       2.527  -0.028  -1.978  1.00  0.00    -0.224 NA
BRANCH  11  15
HETATM   15  C4  UNL     1       5.996  -0.280  -0.029  1.00  0.00     0.080 A 
HETATM   16  C2  UNL     1       6.991   0.079   0.709  1.00  0.00    -0.070 A 
HETATM   17  O1  UNL     1       7.179  -0.028  -0.683  1.00  0.00     0.000 OA
HETATM   18  C3  UNL     1       7.800   0.429   1.896  1.00  0.00     0.044 C 
HETATM   19  C1  UNL     1       8.152   0.665  -1.406  1.00  0.00     0.000 C 
ENDBRANCH  11  15
ENDBRANCH   7   9
ENDBRANCH   1   7
BRANCH   4  20
HETATM   20  C12 UNL     1      -3.792  -0.045   1.937  1.00  0.00     0.108 C 
BRANCH  20  21
HETATM   21  S1  UNL     1      -5.259   0.383   0.943  1.00  0.00    -0.166 SA
HETATM   22  C13 UNL     1      -6.262  -0.710   0.321  1.00  0.00     0.053 C 
HETATM   23  C14 UNL     1      -7.366  -0.075  -0.419  1.00  0.00     0.031 C 
HETATM   24  C15 UNL     1      -7.591   1.244  -0.596  1.00  0.00    -0.023 C 
HETATM   25  C16 UNL     1      -6.718   2.295  -0.030  1.00  0.00     0.037 C 
HETATM   26  C17 UNL     1      -5.239   1.917  -0.086  1.00  0.00     0.074 C 
BRANCH  22  27
HETATM   27  N2  UNL     1      -6.210  -2.142   0.404  1.00  0.00    -0.394 N 
HETATM   28  H14 UNL     1      -6.139  -2.894  -0.308  1.00  0.00     0.156 HD
HETATM   29  H15 UNL     1      -6.266  -2.625   1.340  1.00  0.00     0.156 HD
ENDBRANCH  22  27
ENDBRANCH  20  21
ENDBRANCH   4  20
TORSDOF 6
