REMARK  7 active torsions:
REMARK  status: ('A' for Active; 'I' for Inactive)
REMARK    1  A    between atoms: C2_2  and  O1_3 
REMARK    2  A    between atoms: C2_2  and  C4_5 
REMARK    3  A    between atoms: C4_5  and  O2_6 
REMARK    4  A    between atoms: C4_5  and  C6_8 
REMARK    5  A    between atoms: C8_10  and  C9_11 
REMARK    6  A    between atoms: C11_13  and  C12_14 
REMARK    7  A    between atoms: C20_24  and  N2_25 
ROOT
HETATM    1  C9  UNL     1      -0.077  -2.818  -0.806  1.00  0.00     0.110 A 
HETATM    2  C10 UNL     1       1.018  -1.922  -1.220  1.00  0.00     0.005 A 
HETATM    3  C11 UNL     1       1.858  -1.799  -0.204  1.00  0.00    -0.001 A 
HETATM    4  C19 UNL     1       1.432  -2.569   0.957  1.00  0.00     0.039 A 
HETATM    5  C20 UNL     1       0.304  -3.157   0.591  1.00  0.00     0.017 A 
ENDROOT
BRANCH   1   6
HETATM    6  C8  UNL     1      -1.405  -2.194  -0.890  1.00  0.00     0.051 A 
HETATM    7  C7  UNL     1      -1.607  -1.055  -0.136  1.00  0.00     0.058 A 
HETATM    8  C6  UNL     1      -2.805  -0.333  -0.095  1.00  0.00     0.073 A 
HETATM    9  N4  UNL     1      -3.798  -0.829  -0.866  1.00  0.00    -0.243 NA
HETATM   10  C21 UNL     1      -3.635  -1.939  -1.616  1.00  0.00     0.233 A 
HETATM   11  N3  UNL     1      -2.465  -2.618  -1.636  1.00  0.00    -0.245 NA
BRANCH   8  12
HETATM   12  C4  UNL     1      -2.929   0.881   0.747  1.00  0.00     0.228 C 
BRANCH  12  13
HETATM   13  C2  UNL     1      -2.669   2.087  -0.072  1.00  0.00     0.071 C 
HETATM   14  C1  UNL     1      -1.797   3.084  -0.287  1.00  0.00     0.049 C 
BRANCH  13  15
HETATM   15  O1  UNL     1      -3.739   2.197  -0.918  1.00  0.00    -0.358 OA
HETATM   16  C3  UNL     1      -4.819   3.093  -0.782  1.00  0.00     0.209 C 
ENDBRANCH  13  15
ENDBRANCH  12  13
BRANCH  12  17
HETATM   17  O2  UNL     1      -4.085   0.957   1.479  1.00  0.00    -0.378 OA
HETATM   18  C5  UNL     1      -3.888   0.961   2.852  1.00  0.00     0.203 C 
ENDBRANCH  12  17
ENDBRANCH   8  12
ENDBRANCH   1   6
BRANCH   5  19
HETATM   19  N2  UNL     1      -0.419  -4.011   1.488  1.00  0.00    -0.401 N 
HETATM   20  H18 UNL     1      -1.406  -3.973   1.781  1.00  0.00     0.156 HD
HETATM   21  H19 UNL     1       0.026  -4.821   1.971  1.00  0.00     0.156 HD
ENDBRANCH   5  19
BRANCH   3  22
HETATM   22  C12 UNL     1       2.996  -0.957  -0.426  1.00  0.00     0.109 A 
HETATM   23  N1  UNL     1       3.464  -0.274  -1.312  1.00  0.00    -0.240 NA
HETATM   24  C13 UNL     1       4.584   0.423  -1.218  1.00  0.00     0.075 A 
HETATM   25  C14 UNL     1       5.167   1.214  -2.183  1.00  0.00     0.033 A 
HETATM   26  C18 UNL     1       5.335   0.384   0.044  1.00  0.00     0.035 A 
HETATM   27  C15 UNL     1       6.338   1.866  -1.902  1.00  0.00     0.002 A 
HETATM   28  C16 UNL     1       7.029   1.825  -0.729  1.00  0.00     0.002 A 
HETATM   29  C17 UNL     1       6.529   1.062   0.300  1.00  0.00     0.021 A 
HETATM   30  S1  UNL     1       4.211  -0.768   1.022  1.00  0.00    -0.068 SA
ENDBRANCH   3  22
TORSDOF 7
