REMARK  4 active torsions:
REMARK  status: ('A' for Active; 'I' for Inactive)
REMARK    1  A    between atoms: O1_2  and  C2_3 
REMARK    2  A    between atoms: C5_6  and  N1_7 
REMARK    3  A    between atoms: N1_7  and  C6_8 
REMARK    4  A    between atoms: C9_11  and  C10_12 
ROOT
HETATM    1  C6  UNL     1      -0.563   0.237   0.634  1.00  0.00     0.029 A 
HETATM    2  C7  UNL     1       0.271  -0.383  -0.270  1.00  0.00     0.030 A 
HETATM    3  C8  UNL     1       1.600  -0.536   0.067  1.00  0.00     0.016 A 
HETATM    4  C9  UNL     1       2.096  -0.091   1.262  1.00  0.00     0.000 A 
HETATM    5  C17 UNL     1       1.259   0.539   2.183  1.00  0.00     0.016 A 
HETATM    6  C18 UNL     1      -0.066   0.686   1.837  1.00  0.00     0.030 A 
ENDROOT
BRANCH   1   7
HETATM    7  N1  UNL     1      -1.925   0.396   0.312  1.00  0.00    -0.367 N 
HETATM    8  H8  UNL     1      -2.539   0.868   1.017  1.00  0.00     0.161 HD
BRANCH   7   9
HETATM    9  C5  UNL     1      -2.589  -0.027  -0.906  1.00  0.00     0.212 C 
HETATM   10  C4  UNL     1      -4.061   0.259  -0.867  1.00  0.00     0.107 C 
HETATM   11  C3  UNL     1      -4.738  -0.493  -1.937  1.00  0.00     0.035 C 
HETATM   12  C2  UNL     1      -5.751   0.096  -2.596  1.00  0.00     0.159 C 
HETATM   13  N4  UNL     1      -4.415  -1.814  -2.327  1.00  0.00    -0.353 N 
HETATM   14  C19 UNL     1      -3.087  -2.111  -1.915  1.00  0.00     0.203 C 
HETATM   15  H18 UNL     1      -5.016  -2.473  -2.825  1.00  0.00     0.166 HD
HETATM   16  N3  UNL     1      -2.292  -1.339  -1.297  1.00  0.00    -0.259 NA
BRANCH  12  17
HETATM   17  O1  UNL     1      -6.629   1.125  -2.880  1.00  0.00    -0.366 OA
HETATM   18  C1  UNL     1      -6.840   2.252  -2.058  1.00  0.00     0.209 C 
ENDBRANCH  12  17
ENDBRANCH   7   9
ENDBRANCH   1   7
BRANCH   4  19
HETATM   19  C10 UNL     1       3.478  -0.274   1.643  1.00  0.00     0.114 C 
HETATM   20  N2  UNL     1       3.959   0.179   2.829  1.00  0.00    -0.253 NA
HETATM   21  C11 UNL     1       5.263   0.422   2.966  1.00  0.00     0.114 C 
HETATM   22  C12 UNL     1       6.607   0.680   3.101  1.00  0.00    -0.001 C 
HETATM   23  C13 UNL     1       7.701  -0.090   2.694  1.00  0.00     0.038 A 
HETATM   24  C14 UNL     1       8.449  -0.842   1.763  1.00  0.00     0.024 A 
HETATM   25  C15 UNL     1       7.199  -0.942   1.341  1.00  0.00     0.054 A 
HETATM   26  C16 UNL     1       6.095  -1.018   0.987  1.00  0.00    -0.092 C 
HETATM   27  S1  UNL     1       4.519  -1.109   0.508  1.00  0.00    -0.030 SA
ENDBRANCH   4  19
TORSDOF 4
