REMARK  7 active torsions:
REMARK  status: ('A' for Active; 'I' for Inactive)
REMARK    1  A    between atoms: C2_2  and  C4_4 
REMARK    2  A    between atoms: C4_4  and  N2_15 
REMARK    3  A    between atoms: C5_5  and  C6_6 
REMARK    4  A    between atoms: C6_6  and  C7_7 
REMARK    5  A    between atoms: N2_15  and  C13_16 
REMARK    6  A    between atoms: C17_22  and  O1_23 
REMARK    7  A    between atoms: C19_25  and  O2_26 
ROOT
HETATM    1  N2  UNL     1      -0.324  -1.811   0.808  1.00  0.00    -0.340 N 
HETATM    2  H11 UNL     1      -1.027  -2.511   1.107  1.00  0.00     0.167 HD
ENDROOT
BRANCH   1   3
HETATM    3  C4  UNL     1       0.800  -2.101  -0.002  1.00  0.00     0.035 C 
HETATM    4  C5  UNL     1       1.306  -1.134  -0.698  1.00  0.00     0.010 C 
BRANCH   3   5
HETATM    5  C2  UNL     1       1.285  -3.495   0.065  1.00  0.00    -0.045 C 
HETATM    6  C1  UNL     1       0.611  -4.345   0.855  1.00  0.00     0.021 C 
HETATM    7  C3  UNL     1       2.336  -4.358  -0.465  1.00  0.00     0.049 C 
ENDBRANCH   3   5
BRANCH   4   8
HETATM    8  C6  UNL     1       2.359  -0.725  -1.643  1.00  0.00     0.096 C 
BRANCH   8   9
HETATM    9  C7  UNL     1       3.223   0.344  -1.040  1.00  0.00     0.080 A 
HETATM   10  N1  UNL     1       3.280   1.532  -0.989  1.00  0.00    -0.244 NA
HETATM   11  C8  UNL     1       4.225   2.191  -0.313  1.00  0.00     0.086 A 
HETATM   12  C9  UNL     1       5.218   1.485   0.387  1.00  0.00     0.036 A 
HETATM   13  C12 UNL     1       4.476   3.475  -0.124  1.00  0.00     0.007 A 
HETATM   14  S1  UNL     1       4.685  -0.230  -0.007  1.00  0.00    -0.072 SA
HETATM   15  C10 UNL     1       6.031   2.358   0.975  1.00  0.00     0.022 A 
HETATM   16  C11 UNL     1       5.524   3.686   0.630  1.00  0.00     0.016 A 
ENDBRANCH   8   9
ENDBRANCH   4   8
ENDBRANCH   1   3
BRANCH   1  17
HETATM   17  C13 UNL     1      -0.610  -0.523   1.291  1.00  0.00     0.142 A 
HETATM   18  N3  UNL     1       0.139   0.025   2.292  1.00  0.00    -0.224 NA
HETATM   19  C14 UNL     1      -0.162   1.272   2.765  1.00  0.00     0.236 A 
HETATM   20  N4  UNL     1      -1.189   2.023   2.289  1.00  0.00    -0.241 NA
HETATM   21  C15 UNL     1      -1.984   1.542   1.287  1.00  0.00     0.075 A 
HETATM   22  C16 UNL     1      -3.045   2.257   0.777  1.00  0.00     0.072 A 
HETATM   23  C22 UNL     1      -1.630   0.287   0.855  1.00  0.00     0.042 A 
HETATM   24  C17 UNL     1      -3.832   1.729  -0.227  1.00  0.00     0.103 A 
HETATM   25  C19 UNL     1      -3.504   0.471  -0.683  1.00  0.00     0.102 A 
HETATM   26  C21 UNL     1      -2.429  -0.244  -0.161  1.00  0.00     0.057 A 
BRANCH  24  27
HETATM   27  O1  UNL     1      -4.895   2.427  -0.746  1.00  0.00    -0.353 OA
HETATM   28  C18 UNL     1      -5.303   3.698  -0.342  1.00  0.00     0.210 C 
ENDBRANCH  24  27
BRANCH  25  29
HETATM   29  O2  UNL     1      -4.310  -0.037  -1.688  1.00  0.00    -0.353 OA
HETATM   30  C20 UNL     1      -4.108  -1.322  -2.257  1.00  0.00     0.210 C 
ENDBRANCH  25  29
ENDBRANCH   1  17
TORSDOF 7
