REMARK  5 active torsions:
REMARK  status: ('A' for Active; 'I' for Inactive)
REMARK    1  A    between atoms: O1_2  and  C2_3 
REMARK    2  A    between atoms: C6_9  and  N3_10 
REMARK    3  A    between atoms: C10_14  and  N4_15 
REMARK    4  A    between atoms: C18_24  and  C19_25 
REMARK    5  A    between atoms: C19_25  and  O2_26 
ROOT
HETATM    1  N3  UNL     1      -0.329   0.589   0.722  1.00  0.00    -0.307 N 
HETATM    2  C7  UNL     1      -0.316   1.946   0.708  1.00  0.00     0.099 C 
HETATM    3  C8  UNL     1      -1.340   2.076  -0.084  1.00  0.00     0.020 C 
HETATM    4  C9  UNL     1      -2.210   1.154  -0.772  1.00  0.00     0.031 C 
HETATM    5  C10 UNL     1      -2.643  -0.019  -1.170  1.00  0.00     0.037 C 
HETATM    6  C11 UNL     1      -4.154  -0.028  -1.301  1.00  0.00     0.007 A 
HETATM    7  C12 UNL     1      -5.170   0.030  -2.200  1.00  0.00     0.015 A 
HETATM    8  C13 UNL     1      -6.512   0.038  -1.815  1.00  0.00     0.001 A 
HETATM    9  C14 UNL     1      -6.782  -0.017  -0.468  1.00  0.00     0.001 A 
HETATM   10  C15 UNL     1      -5.760  -0.077   0.450  1.00  0.00     0.020 A 
HETATM   11  C16 UNL     1      -4.425  -0.088   0.122  1.00  0.00     0.017 A 
HETATM   12  S1  UNL     1      -3.320  -0.210   1.540  1.00  0.00    -0.099 SA
HETATM   13  C17 UNL     1      -1.700  -0.847   1.054  1.00  0.00     0.078 C 
HETATM   14  C18 UNL     1      -0.402  -0.777   0.686  1.00  0.00     0.048 C 
ENDROOT
BRANCH   1  15
HETATM   15  C6  UNL     1       0.778   0.468   1.661  1.00  0.00     0.148 A 
HETATM   16  N2  UNL     1       0.712   0.409   2.998  1.00  0.00    -0.223 NA
HETATM   17  C5  UNL     1       1.815   0.323   3.801  1.00  0.00     0.236 A 
HETATM   18  N1  UNL     1       3.045   0.292   3.264  1.00  0.00    -0.241 NA
HETATM   19  C4  UNL     1       3.268   0.342   1.946  1.00  0.00     0.074 A 
HETATM   20  C3  UNL     1       4.480   0.313   1.331  1.00  0.00     0.070 A 
HETATM   21  C20 UNL     1       2.090   0.429   1.190  1.00  0.00     0.040 A 
HETATM   22  C2  UNL     1       4.628   0.365  -0.037  1.00  0.00     0.076 A 
HETATM   23  C22 UNL     1       3.491   0.453  -0.848  1.00  0.00    -0.028 A 
HETATM   24  C21 UNL     1       2.283   0.481  -0.196  1.00  0.00     0.027 A 
HETATM   25  C23 UNL     1       3.535   0.516  -2.339  1.00  0.00     0.051 C 
BRANCH  22  26
HETATM   26  O1  UNL     1       5.851   0.336  -0.685  1.00  0.00    -0.355 OA
HETATM   27  C1  UNL     1       7.083   0.249   0.002  1.00  0.00     0.210 C 
ENDBRANCH  22  26
ENDBRANCH   1  15
BRANCH  14  28
HETATM   28  C19 UNL     1       0.336  -1.994   0.427  1.00  0.00     0.222 C 
BRANCH  28  29
HETATM   29  O2  UNL     1      -0.471  -3.117   0.613  1.00  0.00    -0.395 OA
HETATM   30  H18 UNL     1      -0.722  -3.128   1.586  1.00  0.00     0.209 HD
ENDBRANCH  28  29
ENDBRANCH  14  28
BRANCH   5  31
HETATM   31  N4  UNL     1      -2.819  -1.356  -1.412  1.00  0.00    -0.398 N 
HETATM   32  H9  UNL     1      -3.118  -2.214  -0.952  1.00  0.00     0.156 HD
HETATM   33  H10 UNL     1      -2.594  -1.791  -2.340  1.00  0.00     0.156 HD
ENDBRANCH   5  31
TORSDOF 5
