REMARK  4 active torsions:
REMARK  status: ('A' for Active; 'I' for Inactive)
REMARK    1  A    between atoms: C2_2  and  O1_3 
REMARK    2  A    between atoms: O1_3  and  C3_4 
REMARK    3  A    between atoms: C7_10  and  C8_11 
REMARK    4  A    between atoms: C22_27  and  O2_28 
ROOT
HETATM    1  C3  UNL     1       3.417   0.655  -1.380  1.00  0.00     0.105 A 
HETATM    2  C4  UNL     1       2.773   0.935  -2.629  1.00  0.00     0.085 A 
HETATM    3  C5  UNL     1       1.385   0.843  -2.616  1.00  0.00     0.123 A 
HETATM    4  N1  UNL     1       0.384   0.944  -3.329  1.00  0.00    -0.398 NA
HETATM    5  C6  UNL     1      -0.769   0.942  -3.685  1.00  0.00     0.300 A 
HETATM    6  N2  UNL     1      -1.316   0.602  -2.476  1.00  0.00    -0.229 NA
HETATM    7  C7  UNL     1      -0.623   0.381  -1.348  1.00  0.00     0.085 A 
HETATM    8  C20 UNL     1       0.739   0.500  -1.425  1.00  0.00     0.037 A 
HETATM    9  C21 UNL     1       1.421   0.246  -0.264  1.00  0.00     0.057 A 
HETATM   10  C22 UNL     1       2.782   0.302  -0.162  1.00  0.00     0.102 A 
ENDROOT
BRANCH   7  11
HETATM   11  C8  UNL     1      -1.294   0.145  -0.028  1.00  0.00     0.017 C 
HETATM   12  C9  UNL     1      -1.315  -1.011   0.539  1.00  0.00     0.032 C 
HETATM   13  S1  UNL     1      -2.431  -1.068   1.753  1.00  0.00    -0.102 SA
HETATM   14  C10 UNL     1      -2.949  -2.643   2.537  1.00  0.00     0.007 A 
HETATM   15  C15 UNL     1      -4.085  -0.244   1.839  1.00  0.00     0.069 C 
HETATM   16  C11 UNL     1      -2.698  -3.885   2.937  1.00  0.00     0.016 A 
HETATM   17  C14 UNL     1      -4.262  -2.220   2.891  1.00  0.00     0.171 A 
HETATM   18  C12 UNL     1      -4.001  -4.229   3.475  1.00  0.00    -0.001 A 
HETATM   19  C13 UNL     1      -4.962  -3.332   3.465  1.00  0.00     0.005 A 
HETATM   20  N3  UNL     1      -4.840  -1.078   2.454  1.00  0.00    -0.273 NA
HETATM   21  C16 UNL     1      -4.316   1.122   1.231  1.00  0.00     0.093 C 
HETATM   22  C17 UNL     1      -3.055   1.770   0.852  1.00  0.00    -0.013 C 
HETATM   23  C18 UNL     1      -1.831   1.498   0.359  1.00  0.00    -0.051 C 
HETATM   24  C19 UNL     1      -0.959   2.726   0.185  1.00  0.00     0.049 C 
ENDBRANCH   7  11
BRANCH  10  25
HETATM   25  O2  UNL     1       3.909   0.167   0.584  1.00  0.00    -0.353 OA
HETATM   26  C23 UNL     1       3.817  -0.224   1.970  1.00  0.00     0.210 C 
ENDBRANCH  10  25
BRANCH   1  27
HETATM   27  O1  UNL     1       4.765   0.812  -1.674  1.00  0.00    -0.349 OA
BRANCH  27  28
HETATM   28  C2  UNL     1       5.366   1.114  -2.875  1.00  0.00     0.171 C 
HETATM   29  C1  UNL     1       5.145   0.055  -3.952  1.00  0.00     0.034 C 
ENDBRANCH  27  28
ENDBRANCH   1  27
TORSDOF 4
