REMARK  5 active torsions:
REMARK  status: ('A' for Active; 'I' for Inactive)
REMARK    1  A    between atoms: O1_2  and  C2_3 
REMARK    2  A    between atoms: C5_6  and  N1_7 
REMARK    3  A    between atoms: N1_7  and  C6_8 
REMARK    4  A    between atoms: C9_11  and  C10_12 
REMARK    5  A    between atoms: C22_28  and  O2_29 
ROOT
HETATM    1  C2  UNL     1      -4.808   1.131   0.362  1.00  0.00     0.102 A 
HETATM    2  C3  UNL     1      -3.915   0.567  -0.422  1.00  0.00     0.054 A 
HETATM    3  C4  UNL     1      -3.038  -0.408   0.199  1.00  0.00     0.012 A 
HETATM    4  C5  UNL     1      -2.094  -1.038  -0.463  1.00  0.00     0.102 C 
HETATM    5  C19 UNL     1      -3.060  -0.810   1.591  1.00  0.00     0.083 A 
HETATM    6  N3  UNL     1      -2.533  -1.560   2.413  1.00  0.00    -0.173 NA
HETATM    7  C20 UNL     1      -1.539  -2.468   2.304  1.00  0.00     0.206 C 
HETATM    8  N4  UNL     1      -0.695  -3.257   2.226  1.00  0.00    -0.170 NA
HETATM    9  C21 UNL     1      -4.120  -0.087   2.349  1.00  0.00     0.073 A 
HETATM   10  C22 UNL     1      -4.936   0.820   1.773  1.00  0.00     0.103 A 
ENDROOT
BRANCH   4  11
HETATM   11  N1  UNL     1      -1.028  -1.952  -0.565  1.00  0.00    -0.365 N 
HETATM   12  H6  UNL     1      -1.144  -3.002  -0.514  1.00  0.00     0.165 HD
BRANCH  11  13
HETATM   13  C6  UNL     1       0.353  -1.563  -0.751  1.00  0.00     0.031 A 
HETATM   14  C7  UNL     1       1.087  -1.826  -1.916  1.00  0.00     0.030 A 
HETATM   15  C8  UNL     1       2.384  -1.385  -1.951  1.00  0.00     0.016 A 
HETATM   16  C9  UNL     1       2.948  -0.714  -0.897  1.00  0.00    -0.000 A 
HETATM   17  C17 UNL     1       2.245  -0.456   0.231  1.00  0.00     0.016 A 
HETATM   18  C18 UNL     1       0.923  -0.878   0.329  1.00  0.00     0.030 A 
BRANCH  16  19
HETATM   19  C10 UNL     1       4.330  -0.223  -0.853  1.00  0.00     0.109 A 
HETATM   20  N2  UNL     1       5.039   0.371  -0.118  1.00  0.00    -0.240 NA
HETATM   21  C11 UNL     1       6.298   0.697  -0.332  1.00  0.00     0.075 A 
HETATM   22  C12 UNL     1       7.150   1.399   0.530  1.00  0.00     0.033 A 
HETATM   23  C16 UNL     1       6.883   0.301  -1.575  1.00  0.00     0.035 A 
HETATM   24  C13 UNL     1       8.431   1.645   0.137  1.00  0.00     0.002 A 
HETATM   25  C14 UNL     1       8.993   1.260  -1.065  1.00  0.00     0.002 A 
HETATM   26  C15 UNL     1       8.184   0.569  -1.939  1.00  0.00     0.021 A 
HETATM   27  S1  UNL     1       5.450  -0.556  -2.345  1.00  0.00    -0.068 SA
ENDBRANCH  16  19
ENDBRANCH  11  13
ENDBRANCH   4  11
BRANCH  10  28
HETATM   28  O2  UNL     1      -5.936   1.506   2.487  1.00  0.00    -0.353 OA
HETATM   29  C23 UNL     1      -7.154   0.947   2.882  1.00  0.00     0.210 C 
ENDBRANCH  10  28
BRANCH   1  30
HETATM   30  O1  UNL     1      -5.585   2.043  -0.345  1.00  0.00    -0.353 OA
HETATM   31  C1  UNL     1      -6.665   1.489  -1.112  1.00  0.00     0.210 C 
ENDBRANCH   1  30
TORSDOF 5
