REMARK  4 active torsions:
REMARK  status: ('A' for Active; 'I' for Inactive)
REMARK    1  A    between atoms: O1_2  and  C2_3 
REMARK    2  A    between atoms: N3_10  and  C7_11 
REMARK    3  A    between atoms: C10_14  and  C11_15 
REMARK    4  A    between atoms: C23_29  and  O2_30 
ROOT
HETATM    1  C7  UNL     1       0.106  -0.615  -0.268  1.00  0.00     0.037 A 
HETATM    2  C8  UNL     1       0.902  -0.251  -1.335  1.00  0.00     0.031 A 
HETATM    3  C9  UNL     1       2.236   0.042  -1.270  1.00  0.00     0.016 A 
HETATM    4  C10 UNL     1       2.862  -0.019  -0.076  1.00  0.00     0.000 A 
HETATM    5  C18 UNL     1       2.150  -0.368   1.020  1.00  0.00     0.023 A 
HETATM    6  C19 UNL     1       0.784  -0.664   0.928  1.00  0.00    -0.035 A 
HETATM    7  C20 UNL     1       0.093  -1.026   2.175  1.00  0.00     0.050 C 
ENDROOT
BRANCH   1   8
HETATM    8  N3  UNL     1      -1.260  -0.891  -0.445  1.00  0.00    -0.359 N 
HETATM    9  C6  UNL     1      -1.711  -0.815  -1.826  1.00  0.00     0.275 C 
HETATM   10  N2  UNL     1      -3.014  -1.213  -2.136  1.00  0.00    -0.266 NA
HETATM   11  C5  UNL     1      -3.581  -2.375  -2.152  1.00  0.00     0.192 C 
HETATM   12  N1  UNL     1      -4.934  -2.223  -2.547  1.00  0.00    -0.385 NA
HETATM   13  C4  UNL     1      -5.650  -1.288  -2.047  1.00  0.00     0.270 C 
HETATM   14  C3  UNL     1      -5.102  -0.378  -1.059  1.00  0.00     0.101 C 
HETATM   15  C2  UNL     1      -5.515   0.729  -0.482  1.00  0.00     0.088 C 
HETATM   16  C23 UNL     1      -4.299   0.863   0.367  1.00  0.00     0.093 C 
HETATM   17  C22 UNL     1      -3.299  -0.030   0.444  1.00  0.00     0.032 C 
HETATM   18  C21 UNL     1      -2.414  -1.197   0.289  1.00  0.00     0.155 C 
BRANCH  15  19
HETATM   19  O1  UNL     1      -6.459   1.770  -0.269  1.00  0.00    -0.357 OA
HETATM   20  C1  UNL     1      -7.213   1.679   0.938  1.00  0.00     0.209 C 
ENDBRANCH  15  19
BRANCH  16  21
HETATM   21  O2  UNL     1      -4.251   2.053   1.137  1.00  0.00    -0.358 OA
HETATM   22  H22 UNL     1      -4.127   2.073   2.122  1.00  0.00     0.217 HD
ENDBRANCH  16  21
ENDBRANCH   1   8
BRANCH   4  23
HETATM   23  C11 UNL     1       4.255   0.269   0.107  1.00  0.00     0.109 A 
HETATM   24  N4  UNL     1       5.122   0.289   1.111  1.00  0.00    -0.240 NA
HETATM   25  C12 UNL     1       6.364   0.630   0.797  1.00  0.00     0.075 A 
HETATM   26  C13 UNL     1       7.312   0.669   1.794  1.00  0.00     0.033 A 
HETATM   27  C17 UNL     1       6.852   0.981  -0.541  1.00  0.00     0.035 A 
HETATM   28  C14 UNL     1       8.619   1.013   1.547  1.00  0.00     0.002 A 
HETATM   29  C15 UNL     1       9.070   1.341   0.288  1.00  0.00     0.002 A 
HETATM   30  C16 UNL     1       8.205   1.332  -0.774  1.00  0.00     0.021 A 
HETATM   31  S1  UNL     1       5.256   0.772  -1.424  1.00  0.00    -0.068 SA
ENDBRANCH   4  23
TORSDOF 4
