REMARK  2 active torsions:
REMARK  status: ('A' for Active; 'I' for Inactive)
REMARK    1  A    between atoms: N2_16  and  C14_17 
REMARK    2  A    between atoms: C18_22  and  C19_23 
ROOT
HETATM    1  C1  UNL     1       3.107   0.211  -3.073  1.00  0.00     0.082 A 
HETATM    2  C2  UNL     1       2.329  -0.373  -2.301  1.00  0.00     0.029 A 
HETATM    3  N1  UNL     1       1.482  -1.050  -1.517  1.00  0.00    -0.271 NA
HETATM    4  C3  UNL     1       0.974  -0.902  -0.408  1.00  0.00     0.142 A 
HETATM    5  S1  UNL     1       1.726   0.532  -0.141  1.00  0.00    -0.208 SA
HETATM    6  C4  UNL     1       2.627   0.724  -1.588  1.00  0.00     0.046 A 
HETATM    7  C5  UNL     1       3.010   1.902  -0.947  1.00  0.00     0.008 A 
HETATM    8  C6  UNL     1       4.001   2.084  -2.042  1.00  0.00     0.027 C 
HETATM    9  C7  UNL     1       2.716   2.805   0.266  1.00  0.00     0.023 A 
HETATM   10  C8  UNL     1       1.753   2.180   1.073  1.00  0.00     0.045 A 
HETATM   11  C9  UNL     1       0.680   1.138   1.351  1.00  0.00     0.072 A 
HETATM   12  C10 UNL     1       0.452   1.263   2.833  1.00  0.00    -0.008 C 
HETATM   13  C11 UNL     1      -0.442   0.377   3.177  1.00  0.00    -0.069 C 
HETATM   14  C12 UNL     1      -0.658   0.524   4.679  1.00  0.00     0.044 C 
HETATM   15  C13 UNL     1      -1.187  -0.637   2.343  1.00  0.00     0.154 C 
HETATM   16  N2  UNL     1      -0.844  -0.526   1.015  1.00  0.00    -0.362 N 
HETATM   17  C21 UNL     1       0.665  -0.234   0.891  1.00  0.00     0.146 A 
ENDROOT
BRANCH  16  18
HETATM   18  C14 UNL     1      -1.276  -1.336  -0.018  1.00  0.00     0.248 A 
HETATM   19  N3  UNL     1      -0.685  -2.606  -0.336  1.00  0.00     0.114 N 
HETATM   20  C15 UNL     1      -1.803  -3.574  -0.247  1.00  0.00     0.274 C 
HETATM   21  H15 UNL     1      -0.120  -2.863   0.529  1.00  0.00     0.319 HD
HETATM   22  C16 UNL     1      -2.839  -2.683   0.477  1.00  0.00     0.046 C 
HETATM   23  C17 UNL     1      -2.677  -1.507  -0.434  1.00  0.00     0.042 A 
HETATM   24  C18 UNL     1      -1.901  -0.453  -1.114  1.00  0.00     0.040 A 
BRANCH  24  25
HETATM   25  C19 UNL     1      -2.383   0.443  -2.179  1.00  0.00     0.011 C 
HETATM   26  C20 UNL     1      -3.779   0.220  -2.651  1.00  0.00     0.006 C 
ENDBRANCH  24  25
ENDBRANCH  16  18
TORSDOF 2
