REMARK  3 active torsions:
REMARK  status: ('A' for Active; 'I' for Inactive)
REMARK    1  A    between atoms: N1_2  and  C2_3 
REMARK    2  A    between atoms: C15_17  and  O1_18 
REMARK    3  A    between atoms: C17_20  and  O2_21 
ROOT
HETATM    1  C2  UNL     1       0.184   2.740  -1.302  1.00  0.00     0.054 C 
HETATM    2  C3  UNL     1      -0.743   2.016  -1.969  1.00  0.00     0.011 C 
HETATM    3  C4  UNL     1      -1.682   0.864  -1.967  1.00  0.00     0.050 C 
HETATM    4  C5  UNL     1      -2.117  -0.144  -1.184  1.00  0.00     0.004 C 
HETATM    5  C6  UNL     1      -2.640  -1.250  -0.420  1.00  0.00     0.045 C 
HETATM    6  C7  UNL     1      -4.170  -1.285  -0.413  1.00  0.00     0.053 C 
HETATM    7  C8  UNL     1      -4.440  -0.643   0.906  1.00  0.00    -0.024 C 
HETATM    8  C9  UNL     1      -3.437  -0.643   1.740  1.00  0.00     0.006 C 
HETATM    9  C10 UNL     1      -2.328  -1.323   1.033  1.00  0.00    -0.025 C 
HETATM   10  C11 UNL     1      -1.197  -1.996   0.923  1.00  0.00    -0.004 C 
HETATM   11  S1  UNL     1      -1.833  -2.862  -0.562  1.00  0.00    -0.118 SA
HETATM   12  C12 UNL     1       0.155  -2.018   1.696  1.00  0.00     0.060 C 
HETATM   13  C13 UNL     1      -0.061  -1.486   3.050  1.00  0.00     0.021 C 
HETATM   14  C14 UNL     1       1.010  -1.095   0.846  1.00  0.00     0.016 A 
HETATM   15  C15 UNL     1       1.871  -1.724   0.015  1.00  0.00     0.110 A 
HETATM   16  C17 UNL     1       2.191  -0.878  -1.058  1.00  0.00     0.103 A 
HETATM   17  C19 UNL     1       1.629   0.401  -1.135  1.00  0.00     0.056 A 
HETATM   18  C20 UNL     1       0.797   0.697  -0.103  1.00  0.00     0.027 A 
HETATM   19  C21 UNL     1       0.151   1.906  -0.109  1.00  0.00     0.097 A 
HETATM   20  N2  UNL     1      -0.720   2.473   0.738  1.00  0.00    -0.239 NA
HETATM   21  C22 UNL     1      -1.091   1.762   1.850  1.00  0.00     0.234 A 
HETATM   22  N3  UNL     1      -0.486   0.593   1.855  1.00  0.00    -0.241 NA
HETATM   23  C23 UNL     1       0.352   0.068   1.018  1.00  0.00     0.080 A 
ENDROOT
BRANCH   1  24
HETATM   24  N1  UNL     1       1.067   3.771  -1.218  1.00  0.00    -0.393 N 
HETATM   25  C1  UNL     1       0.768   4.810  -0.255  1.00  0.00     0.146 C 
HETATM   26  H4  UNL     1       1.920   3.773  -1.843  1.00  0.00     0.159 HD
ENDBRANCH   1  24
BRANCH  16  27
HETATM   27  O2  UNL     1       3.054  -1.332  -2.012  1.00  0.00    -0.353 OA
HETATM   28  C18 UNL     1       3.508  -0.674  -3.151  1.00  0.00     0.210 C 
ENDBRANCH  16  27
BRANCH  15  29
HETATM   29  O1  UNL     1       2.351  -2.996   0.205  1.00  0.00    -0.352 OA
HETATM   30  C16 UNL     1       3.554  -3.131   0.954  1.00  0.00     0.210 C 
ENDBRANCH  15  29
TORSDOF 3
