REMARK  6 active torsions:
REMARK  status: ('A' for Active; 'I' for Inactive)
REMARK    1  A    between atoms: O1_2  and  C2_3 
REMARK    2  A    between atoms: C8_11  and  N3_12 
REMARK    3  A    between atoms: N3_12  and  C9_13 
REMARK    4  A    between atoms: C9_13  and  C10_14 
REMARK    5  A    between atoms: C19_24  and  O2_25 
REMARK    6  A    between atoms: C21_27  and  O3_28 
ROOT
HETATM    1  N3  UNL     1      -0.946   2.026  -0.268  1.00  0.00    -0.383 N 
HETATM    2  H7  UNL     1      -1.251   3.011  -0.543  1.00  0.00     0.160 HD
ENDROOT
BRANCH   1   3
HETATM    3  C8  UNL     1      -2.250   1.559  -0.139  1.00  0.00     0.079 A 
HETATM    4  C7  UNL     1      -3.086   1.021  -1.092  1.00  0.00     0.040 A 
HETATM    5  C4  UNL     1      -4.359   0.554  -0.863  1.00  0.00     0.074 A 
HETATM    6  C6  UNL     1      -2.588   0.964  -2.373  1.00  0.00     0.134 A 
HETATM    7  C3  UNL     1      -4.795   0.653   0.440  1.00  0.00     0.072 A 
HETATM    8  N1  UNL     1      -5.098   0.053  -1.868  1.00  0.00    -0.241 NA
HETATM    9  C2  UNL     1      -4.060   1.171   1.484  1.00  0.00     0.106 A 
HETATM   10  C21 UNL     1      -2.799   1.610   1.151  1.00  0.00     0.129 A 
HETATM   11  C5  UNL     1      -4.608  -0.007  -3.141  1.00  0.00     0.233 A 
HETATM   12  N2  UNL     1      -3.347   0.458  -3.361  1.00  0.00    -0.253 NA
BRANCH   9  13
HETATM   13  O1  UNL     1      -4.548   1.249   2.781  1.00  0.00    -0.353 OA
HETATM   14  C1  UNL     1      -5.817   0.818   3.164  1.00  0.00     0.210 C 
ENDBRANCH   9  13
BRANCH  10  15
HETATM   15  O3  UNL     1      -2.062   2.136   2.234  1.00  0.00    -0.351 OA
HETATM   16  C22 UNL     1      -1.288   1.164   2.945  1.00  0.00     0.210 C 
ENDBRANCH  10  15
ENDBRANCH   1   3
BRANCH   1  17
HETATM   17  C9  UNL     1       0.437   1.704  -0.178  1.00  0.00     0.147 C 
BRANCH  17  18
HETATM   18  C10 UNL     1       0.779   0.580  -1.050  1.00  0.00    -0.002 C 
HETATM   19  C11 UNL     1       1.266  -0.674  -1.098  1.00  0.00    -0.045 C 
HETATM   20  C12 UNL     1       1.501  -1.614  -2.256  1.00  0.00     0.063 C 
HETATM   21  C19 UNL     1       1.576  -1.356   0.210  1.00  0.00     0.190 C 
HETATM   22  C13 UNL     1       3.010  -1.841  -2.294  1.00  0.00    -0.026 C 
HETATM   23  C14 UNL     1       3.898  -1.180  -1.498  1.00  0.00    -0.025 C 
HETATM   24  C15 UNL     1       4.913  -0.505  -0.670  1.00  0.00     0.020 C 
HETATM   25  C16 UNL     1       5.204   0.908  -1.011  1.00  0.00     0.016 C 
HETATM   26  C17 UNL     1       4.680  -0.663   0.823  1.00  0.00     0.115 C 
HETATM   27  N4  UNL     1       3.474  -0.134   1.304  1.00  0.00    -0.421 NA
HETATM   28  C18 UNL     1       2.270  -0.388   1.079  1.00  0.00     0.283 C 
BRANCH  21  29
HETATM   29  O2  UNL     1       2.180  -2.570   0.065  1.00  0.00    -0.381 OA
HETATM   30  C20 UNL     1       1.374  -3.587   0.594  1.00  0.00     0.202 C 
ENDBRANCH  21  29
ENDBRANCH  17  18
ENDBRANCH   1  17
TORSDOF 6
