REMARK  4 active torsions:
REMARK  status: ('A' for Active; 'I' for Inactive)
REMARK    1  A    between atoms: C2_3  and  N2_4 
REMARK    2  A    between atoms: C3_5  and  N3_6 
REMARK    3  A    between atoms: N3_6  and  C4_7 
REMARK    4  A    between atoms: C15_20  and  O1_21 
ROOT
HETATM    1  C4  UNL     1       0.256  -0.206   1.235  1.00  0.00     0.059 C 
HETATM    2  C5  UNL     1      -0.654   0.775   1.051  1.00  0.00     0.030 C 
HETATM    3  C6  UNL     1      -1.892   1.450   0.578  1.00  0.00     0.010 C 
HETATM    4  C7  UNL     1      -3.001   1.193  -0.108  1.00  0.00    -0.051 C 
HETATM    5  C8  UNL     1      -4.037   2.210  -0.386  1.00  0.00     0.049 C 
HETATM    6  C9  UNL     1      -3.652  -0.018  -0.644  1.00  0.00    -0.020 A 
HETATM    7  C10 UNL     1      -4.707  -0.667  -1.162  1.00  0.00     0.014 A 
HETATM    8  C11 UNL     1      -4.587  -2.011  -1.294  1.00  0.00     0.021 A 
HETATM    9  C12 UNL     1      -3.223  -2.180  -0.761  1.00  0.00     0.022 A 
HETATM   10  S1  UNL     1      -1.880  -3.434  -0.370  1.00  0.00    -0.061 SA
HETATM   11  N4  UNL     1      -0.655  -2.217   0.287  1.00  0.00    -0.306 N 
HETATM   12  C13 UNL     1      -1.615  -1.496  -0.015  1.00  0.00     0.205 A 
HETATM   13  C14 UNL     1      -2.753  -0.996  -0.414  1.00  0.00     0.005 A 
HETATM   14  C15 UNL     1       0.553  -1.609   0.873  1.00  0.00     0.280 C 
ENDROOT
BRANCH   1  15
HETATM   15  N3  UNL     1       1.350   0.229   2.017  1.00  0.00    -0.351 N 
HETATM   16  H6  UNL     1       1.116   0.257   3.078  1.00  0.00     0.166 HD
BRANCH  15  17
HETATM   17  C3  UNL     1       2.713   0.684   1.916  1.00  0.00     0.208 C 
HETATM   18  N2  UNL     1       2.801   0.921   0.599  1.00  0.00    -0.238 NA
BRANCH  18  19
HETATM   19  C2  UNL     1       4.069   1.392   0.167  1.00  0.00     0.227 C 
HETATM   20  N1  UNL     1       3.916   1.468  -1.099  1.00  0.00    -0.287 NA
HETATM   21  C1  UNL     1       4.984   1.916  -1.949  1.00  0.00     0.179 C 
ENDBRANCH  18  19
ENDBRANCH  15  17
ENDBRANCH   1  15
BRANCH  14  22
HETATM   22  O1  UNL     1       1.609  -1.720  -0.019  1.00  0.00    -0.365 OA
HETATM   23  C16 UNL     1       2.671  -2.459   0.418  1.00  0.00     0.204 C 
ENDBRANCH  14  22
TORSDOF 4
