REMARK  6 active torsions:
REMARK  status: ('A' for Active; 'I' for Inactive)
REMARK    1  A    between atoms: O1_2  and  C2_3 
REMARK    2  A    between atoms: N2_9  and  C7_10 
REMARK    3  A    between atoms: C10_13  and  C11_14 
REMARK    4  A    between atoms: C19_23  and  O2_24 
REMARK    5  A    between atoms: C22_27  and  O3_28 
REMARK    6  A    between atoms: O3_28  and  C23_29 
ROOT
HETATM    1  C2  UNL     1      -4.493  -0.165  -0.013  1.00  0.00     0.103 C 
HETATM    2  C3  UNL     1      -4.323  -1.474   0.051  1.00  0.00     0.069 C 
HETATM    3  C4  UNL     1      -3.039  -2.084   0.400  1.00  0.00     0.064 C 
HETATM    4  N1  UNL     1      -2.763  -3.320   0.489  1.00  0.00    -0.262 NA
HETATM    5  C5  UNL     1      -1.462  -3.782   0.806  1.00  0.00     0.134 C 
HETATM    6  C6  UNL     1      -0.433  -2.977   1.005  1.00  0.00     0.112 C 
HETATM    7  N2  UNL     1      -0.656  -1.581   0.874  1.00  0.00    -0.339 N 
HETATM    8  C20 UNL     1      -1.999  -1.166   0.892  1.00  0.00     0.167 C 
HETATM    9  C21 UNL     1      -2.295   0.265   0.716  1.00  0.00     0.045 C 
HETATM   10  C22 UNL     1      -3.435   0.779   0.313  1.00  0.00     0.108 C 
ENDROOT
BRANCH   7  11
HETATM   11  C7  UNL     1       0.429  -0.677   0.732  1.00  0.00     0.068 A 
HETATM   12  C8  UNL     1       1.299  -0.700   1.810  1.00  0.00     0.033 A 
HETATM   13  C9  UNL     1       2.408   0.128   1.818  1.00  0.00     0.011 A 
HETATM   14  C10 UNL     1       2.609   0.959   0.735  1.00  0.00    -0.037 A 
HETATM   15  C18 UNL     1       1.744   0.976  -0.327  1.00  0.00     0.047 A 
HETATM   16  C19 UNL     1       0.632   0.155  -0.352  1.00  0.00     0.093 A 
BRANCH  14  17
HETATM   17  C11 UNL     1       3.826   1.869   0.742  1.00  0.00     0.119 A 
HETATM   18  S1  UNL     1       3.826   3.123  -0.493  1.00  0.00    -0.115 SA
HETATM   19  C12 UNL     1       5.107   2.013  -0.880  1.00  0.00     0.009 A 
HETATM   20  C13 UNL     1       6.091   1.830  -1.836  1.00  0.00     0.019 A 
HETATM   21  C17 UNL     1       4.925   1.189   0.140  1.00  0.00    -0.023 A 
HETATM   22  C14 UNL     1       6.956   0.735  -1.758  1.00  0.00     0.001 A 
HETATM   23  C15 UNL     1       6.805  -0.162  -0.702  1.00  0.00     0.001 A 
HETATM   24  C16 UNL     1       5.792   0.097   0.214  1.00  0.00     0.010 A 
ENDBRANCH  14  17
BRANCH  16  25
HETATM   25  O2  UNL     1      -0.293   0.110  -1.387  1.00  0.00    -0.358 OA
HETATM   26  H15 UNL     1      -0.036   0.427  -2.307  1.00  0.00     0.217 HD
ENDBRANCH  16  25
ENDBRANCH   7  11
BRANCH  10  27
HETATM   27  O3  UNL     1      -3.603   2.156   0.208  1.00  0.00    -0.302 OA
BRANCH  27  28
HETATM   28  C23 UNL     1      -4.265   2.611  -0.942  1.00  0.00     0.250 C 
HETATM   29  N3  UNL     1      -4.168   1.956  -2.044  1.00  0.00    -0.289 NA
HETATM   30  H19 UNL     1      -3.591   1.098  -2.035  1.00  0.00     0.188 HD
ENDBRANCH  27  28
ENDBRANCH  10  27
BRANCH   1  31
HETATM   31  O1  UNL     1      -5.721   0.385  -0.374  1.00  0.00    -0.353 OA
HETATM   32  C1  UNL     1      -6.961  -0.190   0.062  1.00  0.00     0.210 C 
ENDBRANCH   1  31
TORSDOF 6
