REMARK  5 active torsions:
REMARK  status: ('A' for Active; 'I' for Inactive)
REMARK    1  A    between atoms: C4_4  and  O1_5 
REMARK    2  A    between atoms: C6_7  and  O2_8 
REMARK    3  A    between atoms: C11_15  and  N3_16 
REMARK    4  A    between atoms: N3_16  and  C12_17 
REMARK    5  A    between atoms: C21_28  and  O3_29 
ROOT
HETATM    1  N3  UNL     1      -0.487  -0.779   1.018  1.00  0.00    -0.338 N 
HETATM    2  H14 UNL     1      -0.263  -1.659   1.573  1.00  0.00     0.167 HD
ENDROOT
BRANCH   1   3
HETATM    3  C11 UNL     1       0.643   0.023   0.692  1.00  0.00     0.135 C 
HETATM    4  C2  UNL     1       1.683  -0.733   0.125  1.00  0.00    -0.013 C 
HETATM    5  C1  UNL     1       1.242  -1.079  -1.252  1.00  0.00     0.052 C 
HETATM    6  C3  UNL     1       2.905  -1.195   0.544  1.00  0.00     0.050 C 
HETATM    7  C4  UNL     1       4.204  -0.832   0.640  1.00  0.00     0.102 C 
HETATM    8  C6  UNL     1       4.506   0.496   0.403  1.00  0.00     0.102 C 
HETATM    9  C8  UNL     1       4.143   1.797   0.664  1.00  0.00     0.059 C 
HETATM   10  C9  UNL     1       3.205   2.364  -0.161  1.00  0.00     0.121 C 
HETATM   11  N1  UNL     1       1.905   2.224  -0.481  1.00  0.00    -0.254 NA
HETATM   12  C10 UNL     1       0.970   2.350   0.475  1.00  0.00     0.234 C 
HETATM   13  N2  UNL     1       0.339   1.284   1.050  1.00  0.00    -0.224 NA
BRANCH   7  14
HETATM   14  O1  UNL     1       5.242  -1.627   0.944  1.00  0.00    -0.353 OA
HETATM   15  C5  UNL     1       5.167  -2.991   1.211  1.00  0.00     0.210 C 
ENDBRANCH   7  14
BRANCH   8  16
HETATM   16  O2  UNL     1       5.599   0.668  -0.419  1.00  0.00    -0.353 OA
HETATM   17  C7  UNL     1       6.141   1.890  -0.830  1.00  0.00     0.210 C 
ENDBRANCH   8  16
ENDBRANCH   1   3
BRANCH   1  18
HETATM   18  C12 UNL     1      -1.874  -0.565   0.716  1.00  0.00     0.069 A 
HETATM   19  C13 UNL     1      -2.853  -0.949   1.531  1.00  0.00     0.044 A 
HETATM   20  C14 UNL     1      -4.111  -0.574   0.906  1.00  0.00    -0.021 A 
HETATM   21  C15 UNL     1      -5.249  -0.871   1.550  1.00  0.00    -0.004 C 
HETATM   22  C20 UNL     1      -3.724   0.061  -0.349  1.00  0.00     0.037 A 
HETATM   23  C16 UNL     1      -6.686  -0.643   1.212  1.00  0.00     0.106 C 
HETATM   24  S1  UNL     1      -7.166  -1.458  -0.328  1.00  0.00    -0.138 SA
HETATM   25  C17 UNL     1      -6.804  -0.476  -1.756  1.00  0.00     0.047 C 
HETATM   26  C18 UNL     1      -5.775   0.290  -2.092  1.00  0.00     0.039 C 
HETATM   27  C19 UNL     1      -4.495   0.657  -1.438  1.00  0.00     0.062 C 
HETATM   28  N4  UNL     1      -3.979   1.711  -1.930  1.00  0.00    -0.299 NA
HETATM   29  H21 UNL     1      -3.152   2.237  -1.748  1.00  0.00     0.187 HD
HETATM   30  C21 UNL     1      -2.412   0.082  -0.494  1.00  0.00     0.105 A 
BRANCH  30  31
HETATM   31  O3  UNL     1      -1.719   0.607  -1.572  1.00  0.00    -0.357 OA
HETATM   32  H22 UNL     1      -0.986   1.274  -1.402  1.00  0.00     0.217 HD
ENDBRANCH  30  31
ENDBRANCH   1  18
TORSDOF 5
