REMARK  4 active torsions:
REMARK  status: ('A' for Active; 'I' for Inactive)
REMARK    1  A    between atoms: O1_2  and  C2_3 
REMARK    2  A    between atoms: N2_9  and  C7_10 
REMARK    3  A    between atoms: C10_13  and  C11_14 
REMARK    4  A    between atoms: C22_27  and  O2_28 
ROOT
HETATM    1  C7  UNL     1       0.081   0.753  -0.949  1.00  0.00     0.032 A 
HETATM    2  C8  UNL     1      -0.691   0.090  -1.877  1.00  0.00     0.030 A 
HETATM    3  C9  UNL     1      -1.983  -0.341  -1.663  1.00  0.00     0.016 A 
HETATM    4  C10 UNL     1      -2.550  -0.100  -0.449  1.00  0.00    -0.000 A 
HETATM    5  C18 UNL     1      -1.836   0.559   0.526  1.00  0.00     0.016 A 
HETATM    6  C19 UNL     1      -0.544   0.970   0.260  1.00  0.00     0.030 A 
ENDROOT
BRANCH   1   7
HETATM    7  N2  UNL     1       1.408   1.205  -1.173  1.00  0.00    -0.350 N 
HETATM    8  C6  UNL     1       2.021   1.204  -2.509  1.00  0.00     0.275 C 
HETATM    9  N1  UNL     1       2.644   2.538  -2.614  1.00  0.00    -0.267 NA
HETATM   10  C5  UNL     1       3.119   3.079  -1.538  1.00  0.00     0.090 C 
HETATM   11  C4  UNL     1       3.476   2.209  -0.604  1.00  0.00     0.002 A 
HETATM   12  C3  UNL     1       4.829   1.857  -0.236  1.00  0.00     0.051 A 
HETATM   13  C20 UNL     1       2.185   1.681  -0.049  1.00  0.00     0.147 A 
HETATM   14  C2  UNL     1       4.892   0.923   0.696  1.00  0.00     0.102 A 
HETATM   15  C22 UNL     1       3.711   0.317   1.297  1.00  0.00     0.100 A 
HETATM   16  C21 UNL     1       2.466   0.649   0.968  1.00  0.00     0.043 A 
BRANCH  14  17
HETATM   17  O1  UNL     1       6.214   0.633   0.996  1.00  0.00    -0.353 OA
HETATM   18  C1  UNL     1       7.116   0.320  -0.048  1.00  0.00     0.210 C 
ENDBRANCH  14  17
BRANCH  15  19
HETATM   19  O2  UNL     1       4.092  -0.646   2.251  1.00  0.00    -0.353 OA
HETATM   20  C23 UNL     1       4.516  -1.891   1.680  1.00  0.00     0.210 C 
ENDBRANCH  15  19
ENDBRANCH   1   7
BRANCH   4  21
HETATM   21  C11 UNL     1      -3.905  -0.491  -0.066  1.00  0.00     0.109 A 
HETATM   22  N3  UNL     1      -4.651  -0.425   0.877  1.00  0.00    -0.240 NA
HETATM   23  C12 UNL     1      -5.878  -0.898   0.913  1.00  0.00     0.075 A 
HETATM   24  C13 UNL     1      -6.780  -0.856   1.955  1.00  0.00     0.033 A 
HETATM   25  C17 UNL     1      -6.378  -1.536  -0.230  1.00  0.00     0.035 A 
HETATM   26  C14 UNL     1      -8.026  -1.402   1.823  1.00  0.00     0.002 A 
HETATM   27  C15 UNL     1      -8.497  -2.034   0.665  1.00  0.00     0.002 A 
HETATM   28  C16 UNL     1      -7.622  -2.095  -0.398  1.00  0.00     0.021 A 
HETATM   29  S1  UNL     1      -4.902  -1.389  -1.373  1.00  0.00    -0.068 SA
ENDBRANCH   4  21
TORSDOF 4
