REMARK  1 active torsions:
REMARK  status: ('A' for Active; 'I' for Inactive)
REMARK    1  A    between atoms: O1_2  and  C2_3 
ROOT
HETATM    1  C2  UNL     1       0.921  -1.081   0.279  1.00  0.00     0.123 C 
HETATM    2  C3  UNL     1       1.907  -1.237  -0.669  1.00  0.00     0.086 C 
HETATM    3  C4  UNL     1       1.820  -2.234  -1.826  1.00  0.00     0.151 C 
HETATM    4  N1  UNL     1       0.823  -3.064  -2.237  1.00  0.00    -0.243 NA
HETATM    5  C5  UNL     1      -0.467  -3.214  -1.543  1.00  0.00     0.125 C 
HETATM    6  N2  UNL     1      -1.533  -2.673  -2.133  1.00  0.00    -0.255 NA
HETATM    7  C6  UNL     1      -2.517  -1.771  -1.421  1.00  0.00     0.281 C 
HETATM    8  N3  UNL     1      -1.746  -1.025  -0.373  1.00  0.00    -0.324 N 
HETATM    9  C7  UNL     1      -2.325   0.245  -0.107  1.00  0.00     0.071 C 
HETATM   10  C8  UNL     1      -3.634   0.134  -0.276  1.00  0.00     0.032 C 
HETATM   11  C9  UNL     1      -4.674   1.143  -0.125  1.00  0.00    -0.001 C 
HETATM   12  C10 UNL     1      -4.563   2.182   0.694  1.00  0.00    -0.023 C 
HETATM   13  C11 UNL     1      -3.487   2.617   1.617  1.00  0.00     0.057 C 
HETATM   14  C12 UNL     1      -2.119   2.441   1.016  1.00  0.00     0.017 C 
HETATM   15  C13 UNL     1      -1.589   1.450   0.280  1.00  0.00     0.108 C 
HETATM   16  O2  UNL     1      -0.308   1.803   0.000  1.00  0.00    -0.272 OA
HETATM   17  S1  UNL     1       0.639   1.441  -1.374  1.00  0.00     0.038 SA
HETATM   18  C14 UNL     1       2.346   1.683  -0.908  1.00  0.00     0.055 A 
HETATM   19  C15 UNL     1       2.703   2.998  -0.694  1.00  0.00     0.023 A 
HETATM   20  C16 UNL     1       3.978   3.407  -0.325  1.00  0.00     0.002 A 
HETATM   21  C17 UNL     1       4.956   2.445  -0.159  1.00  0.00     0.002 A 
HETATM   22  C18 UNL     1       4.579   1.135  -0.377  1.00  0.00     0.031 A 
HETATM   23  C19 UNL     1       3.315   0.729  -0.743  1.00  0.00     0.051 A 
HETATM   24  N4  UNL     1       3.116  -0.669  -0.925  1.00  0.00    -0.352 N 
HETATM   25  C20 UNL     1      -0.520  -1.593   0.265  1.00  0.00     0.069 C 
HETATM   26  C21 UNL     1      -0.670  -2.809   0.902  1.00  0.00     0.013 C 
HETATM   27  C22 UNL     1      -0.664  -3.886  -0.189  1.00  0.00     0.109 C 
HETATM   28  H17 UNL     1       3.851  -1.336  -1.260  1.00  0.00     0.166 HD
ENDROOT
BRANCH   1  29
HETATM   29  O1  UNL     1       1.494  -0.341   1.302  1.00  0.00    -0.351 OA
HETATM   30  C1  UNL     1       1.479  -0.825   2.650  1.00  0.00     0.210 C 
ENDBRANCH   1  29
TORSDOF 1
