REMARK  5 active torsions:
REMARK  status: ('A' for Active; 'I' for Inactive)
REMARK    1  A    between atoms: O1_2  and  C2_3 
REMARK    2  A    between atoms: C3_4  and  N1_5 
REMARK    3  A    between atoms: C13_17  and  C14_18 
REMARK    4  A    between atoms: C18_24  and  O2_25 
REMARK    5  A    between atoms: C20_27  and  O3_28 
ROOT
HETATM    1  C2  UNL     1      -1.498  -1.194  -0.133  1.00  0.00     0.107 C 
HETATM    2  C3  UNL     1      -2.685  -0.883   0.416  1.00  0.00     0.071 C 
HETATM    3  C4  UNL     1      -3.363   0.374   0.643  1.00  0.00     0.007 A 
HETATM    4  C5  UNL     1      -4.358   0.180   1.557  1.00  0.00     0.015 A 
HETATM    5  C6  UNL     1      -5.188   1.218   1.953  1.00  0.00     0.002 A 
HETATM    6  C7  UNL     1      -4.980   2.482   1.388  1.00  0.00     0.020 A 
HETATM    7  C8  UNL     1      -3.992   2.700   0.474  1.00  0.00     0.028 A 
HETATM    8  S1  UNL     1      -3.934   4.371  -0.099  1.00  0.00     0.002 SA
HETATM    9  C9  UNL     1      -3.205   1.634   0.124  1.00  0.00     0.029 A 
HETATM   10  C10 UNL     1      -2.282   2.263  -0.851  1.00  0.00     0.156 C 
HETATM   11  N2  UNL     1      -2.605   3.576  -1.403  1.00  0.00    -0.001 N 
HETATM   12  C11 UNL     1      -1.131   1.849  -1.356  1.00  0.00     0.040 C 
HETATM   13  C12 UNL     1      -0.330   0.675  -1.179  1.00  0.00     0.019 C 
HETATM   14  C13 UNL     1      -0.305  -0.543  -0.738  1.00  0.00     0.029 C 
HETATM   15  H9  UNL     1      -3.879   5.228   1.000  1.00  0.00     0.126 HD
HETATM   16  H10 UNL     1      -1.831   4.092  -0.835  1.00  0.00     0.298 HD
HETATM   17  H11 UNL     1      -3.374   3.052  -1.965  1.00  0.00     0.298 HD
ENDROOT
BRANCH  14  18
HETATM   18  C14 UNL     1       0.800  -1.437  -0.567  1.00  0.00     0.084 A 
HETATM   19  N3  UNL     1       0.582  -2.760  -0.593  1.00  0.00    -0.240 NA
HETATM   20  C15 UNL     1       1.501  -3.683  -0.424  1.00  0.00     0.234 A 
HETATM   21  N4  UNL     1       2.781  -3.381  -0.204  1.00  0.00    -0.241 NA
HETATM   22  C16 UNL     1       3.123  -2.083  -0.152  1.00  0.00     0.073 A 
HETATM   23  C17 UNL     1       4.431  -1.759   0.128  1.00  0.00     0.072 A 
HETATM   24  C23 UNL     1       2.122  -1.167  -0.334  1.00  0.00     0.025 A 
HETATM   25  C18 UNL     1       4.806  -0.437   0.248  1.00  0.00     0.103 A 
HETATM   26  C20 UNL     1       3.809   0.533   0.076  1.00  0.00     0.102 A 
HETATM   27  C22 UNL     1       2.532   0.136  -0.201  1.00  0.00     0.055 A 
BRANCH  25  28
HETATM   28  O2  UNL     1       6.118  -0.098   0.527  1.00  0.00    -0.353 OA
HETATM   29  C19 UNL     1       7.121  -1.074   0.699  1.00  0.00     0.210 C 
ENDBRANCH  25  28
BRANCH  26  30
HETATM   30  O3  UNL     1       4.247   1.824   0.211  1.00  0.00    -0.353 OA
HETATM   31  C21 UNL     1       3.277   2.848   0.044  1.00  0.00     0.210 C 
ENDBRANCH  26  30
ENDBRANCH  14  18
BRANCH   1  32
HETATM   32  O1  UNL     1      -1.435  -2.602  -0.083  1.00  0.00    -0.353 OA
HETATM   33  C1  UNL     1      -2.119  -3.411  -1.027  1.00  0.00     0.210 C 
ENDBRANCH   1  32
BRANCH   2  34
HETATM   34  N1  UNL     1      -3.458  -1.965   0.850  1.00  0.00    -0.396 N 
HETATM   35  H4  UNL     1      -4.212  -2.646   0.926  1.00  0.00     0.156 HD
HETATM   36  H5  UNL     1      -3.519  -2.753   1.531  1.00  0.00     0.156 HD
ENDBRANCH   2  34
TORSDOF 5
