REMARK  2 active torsions:
REMARK  status: ('A' for Active; 'I' for Inactive)
REMARK    1  A    between atoms: O1_2  and  C2_3 
REMARK    2  A    between atoms: C9_10  and  C10_11 
ROOT
HETATM    1  C2  UNL     1       3.457   0.070   0.678  1.00  0.00     0.068 A 
HETATM    2  C3  UNL     1       3.563  -1.295   0.445  1.00  0.00     0.039 A 
HETATM    3  C4  UNL     1       2.372  -1.933   0.080  1.00  0.00     0.040 A 
HETATM    4  C5  UNL     1       1.145  -1.322  -0.057  1.00  0.00     0.083 A 
HETATM    5  C6  UNL     1       1.078   0.030   0.181  1.00  0.00    -0.019 A 
HETATM    6  C7  UNL     1       2.236   0.697   0.544  1.00  0.00     0.046 A 
HETATM    7  C8  UNL     1      -0.122   0.895   0.095  1.00  0.00     0.073 C 
HETATM    8  C9  UNL     1      -1.316   0.071  -0.227  1.00  0.00     0.146 C 
HETATM    9  N1  UNL     1      -1.446  -1.040   0.681  1.00  0.00    -0.273 NA
HETATM   10  C16 UNL     1      -1.407  -2.263   0.278  1.00  0.00     0.229 C 
HETATM   11  N2  UNL     1      -1.233  -2.624  -1.091  1.00  0.00    -0.230 NA
HETATM   12  C17 UNL     1      -0.107  -2.563  -1.721  1.00  0.00     0.260 C 
HETATM   13  O2  UNL     1       0.110  -2.137  -0.423  1.00  0.00    -0.304 OA
ENDROOT
BRANCH   8  14
HETATM   14  C10 UNL     1      -2.572   0.855  -0.337  1.00  0.00    -0.031 A 
HETATM   15  C11 UNL     1      -3.084   1.285  -1.558  1.00  0.00     0.012 A 
HETATM   16  C12 UNL     1      -4.258   2.003  -1.504  1.00  0.00     0.044 A 
HETATM   17  C13 UNL     1      -4.937   2.311  -0.344  1.00  0.00     0.138 A 
HETATM   18  F1  UNL     1      -6.075   3.021  -0.453  1.00  0.00    -0.204 F 
HETATM   19  C14 UNL     1      -4.370   1.852   0.817  1.00  0.00     0.073 A 
HETATM   20 CL1  UNL     1      -5.197   2.219   2.316  1.00  0.00    -0.081 Cl
HETATM   21  C15 UNL     1      -3.203   1.129   0.878  1.00  0.00     0.036 A 
ENDBRANCH   8  14
BRANCH   1  22
HETATM   22  O1  UNL     1       4.596   0.769   1.043  1.00  0.00    -0.356 OA
HETATM   23  C1  UNL     1       5.846   0.153   1.183  1.00  0.00     0.210 C 
ENDBRANCH   1  22
TORSDOF 2
