REMARK  5 active torsions:
REMARK  status: ('A' for Active; 'I' for Inactive)
REMARK    1  A    between atoms: C2_2  and  N1_3 
REMARK    2  A    between atoms: N2_6  and  C5_7 
REMARK    3  A    between atoms: C5_7  and  C6_8 
REMARK    4  A    between atoms: C6_8  and  O1_9 
REMARK    5  A    between atoms: O1_9  and  C7_10 
ROOT
HETATM    1  C7  UNL     1       2.931   0.093  -0.052  1.00  0.00     0.192 C 
HETATM    2  C8  UNL     1       3.301  -1.358  -0.077  1.00  0.00     0.099 C 
HETATM    3  C9  UNL     1       4.584  -1.681  -0.748  1.00  0.00    -0.003 C 
HETATM    4  C10 UNL     1       5.666  -0.881  -0.667  1.00  0.00     0.108 C 
HETATM    5  N3  UNL     1       5.242   0.504  -0.588  1.00  0.00    -0.275 N 
HETATM    6  C11 UNL     1       3.869   0.741  -1.092  1.00  0.00     0.219 C 
HETATM    7  N4  UNL     1       6.140   1.464  -0.030  1.00  0.00    -0.166 NA
HETATM    8  C12 UNL     1       5.854   2.334   0.960  1.00  0.00     0.257 C 
HETATM    9  N5  UNL     1       4.561   2.648   1.598  1.00  0.00    -0.229 NA
HETATM   10  C13 UNL     1       3.638   1.735   1.886  1.00  0.00     0.256 C 
HETATM   11  O2  UNL     1       2.977   0.696   1.198  1.00  0.00    -0.305 OA
ENDROOT
BRANCH   1  12
HETATM   12  O1  UNL     1       1.686   0.341  -0.585  1.00  0.00    -0.351 OA
BRANCH  12  13
HETATM   13  C6  UNL     1       0.574  -0.085   0.044  1.00  0.00     0.191 C 
BRANCH  13  14
HETATM   14  C5  UNL     1      -0.584   0.310  -0.879  1.00  0.00     0.143 C 
BRANCH  14  15
HETATM   15  N2  UNL     1      -1.865  -0.059  -0.436  1.00  0.00    -0.407 N 
HETATM   16  C4  UNL     1      -2.421   0.605   0.694  1.00  0.00     0.136 C 
HETATM   17  C3  UNL     1      -3.832   0.103   0.938  1.00  0.00     0.136 C 
HETATM   18  N1  UNL     1      -4.382  -0.707  -0.078  1.00  0.00    -0.410 N 
HETATM   19  C15 UNL     1      -3.559  -1.661  -0.723  1.00  0.00     0.136 C 
HETATM   20  C14 UNL     1      -2.089  -1.496  -0.399  1.00  0.00     0.136 C 
BRANCH  18  21
HETATM   21  C2  UNL     1      -5.359  -0.050  -0.891  1.00  0.00     0.112 C 
HETATM   22  C1  UNL     1      -6.613   0.245  -0.106  1.00  0.00     0.026 C 
ENDBRANCH  18  21
ENDBRANCH  14  15
ENDBRANCH  13  14
ENDBRANCH  12  13
ENDBRANCH   1  12
TORSDOF 5
