REMARK  7 active torsions:
REMARK  status: ('A' for Active; 'I' for Inactive)
REMARK    1  A    between atoms: P1_2  and  C2_3 
REMARK    2  A    between atoms: C4_5  and  O1_6 
REMARK    3  A    between atoms: C6_8  and  O2_9 
REMARK    4  A    between atoms: O2_9  and  C7_10 
REMARK    5  A    between atoms: C7_10  and  C8_11 
REMARK    6  A    between atoms: C8_11  and  C9_12 
REMARK    7  A    between atoms: C9_12  and  N1_13 
ROOT
HETATM    1  C2  UNL     1      -5.788   0.502  -0.435  1.00  0.00     0.152 C 
HETATM    2  C3  UNL     1      -4.502   1.001  -0.013  1.00  0.00     0.043 C 
HETATM    3  C4  UNL     1      -3.260   0.626   0.301  1.00  0.00     0.100 C 
HETATM    4  C6  UNL     1      -2.626  -0.686   0.339  1.00  0.00     0.103 C 
HETATM    5  C15 UNL     1      -3.022  -1.920   0.161  1.00  0.00     0.060 C 
HETATM    6  C16 UNL     1      -4.365  -2.443  -0.168  1.00  0.00     0.141 C 
HETATM    7  N3  UNL     1      -5.593  -2.054  -0.251  1.00  0.00    -0.191 NA
HETATM    8  N4  UNL     1      -6.184  -0.807  -0.023  1.00  0.00    -0.302 N 
HETATM    9  H27 UNL     1      -7.079  -0.843   0.554  1.00  0.00     0.183 HD
ENDROOT
BRANCH   4  10
HETATM   10  O2  UNL     1      -1.270  -0.686   0.632  1.00  0.00    -0.348 OA
BRANCH  10  11
HETATM   11  C7  UNL     1      -0.295  -1.021  -0.312  1.00  0.00     0.177 C 
BRANCH  11  12
HETATM   12  C8  UNL     1       1.057  -0.899   0.402  1.00  0.00     0.057 C 
BRANCH  12  13
HETATM   13  C9  UNL     1       2.100  -1.268  -0.644  1.00  0.00     0.274 C 
BRANCH  13  14
HETATM   14  N1  UNL     1       3.423  -1.186  -0.079  1.00  0.00     0.091 N 
HETATM   15  C10 UNL     1       4.473  -1.518  -0.993  1.00  0.00     0.302 C 
HETATM   16  C11 UNL     1       5.424  -0.384  -1.269  1.00  0.00     0.302 C 
HETATM   17  N2  UNL     1       5.948   0.208  -0.075  1.00  0.00     0.087 N 
HETATM   18  C12 UNL     1       6.224   1.623  -0.226  1.00  0.00     0.310 C 
HETATM   19  C13 UNL     1       5.129   0.002   1.082  1.00  0.00     0.302 C 
HETATM   20  C14 UNL     1       3.668   0.035   0.642  1.00  0.00     0.302 C 
ENDBRANCH  13  14
ENDBRANCH  12  13
ENDBRANCH  11  12
ENDBRANCH  10  11
ENDBRANCH   4  10
BRANCH   3  21
HETATM   21  O1  UNL     1      -2.335   1.620   0.674  1.00  0.00    -0.353 OA
HETATM   22  C5  UNL     1      -1.890   2.446  -0.404  1.00  0.00     0.210 C 
ENDBRANCH   3  21
BRANCH   1  23
HETATM   23  P1  UNL     1      -7.113   1.702   0.075  1.00  0.00    -0.090 P 
HETATM   24  C1  UNL     1      -7.216   2.119   1.688  1.00  0.00     0.089 C 
ENDBRANCH   1  23
TORSDOF 7
