REMARK  4 active torsions:
REMARK  status: ('A' for Active; 'I' for Inactive)
REMARK    1  A    between atoms: O1_2  and  C2_3 
REMARK    2  A    between atoms: C7_10  and  N3_11 
REMARK    3  A    between atoms: N3_11  and  C8_12 
REMARK    4  A    between atoms: C13_19  and  N4_20 
ROOT
HETATM    1  C2  UNL     1      -0.444  -0.089   1.093  1.00  0.00     0.069 C 
HETATM    2  C3  UNL     1      -1.700   0.317   1.007  1.00  0.00     0.052 C 
HETATM    3  C4  UNL     1      -2.862   0.063   0.156  1.00  0.00     0.041 A 
HETATM    4  C5  UNL     1      -3.719  -1.006   0.066  1.00  0.00     0.074 A 
HETATM    5  N1  UNL     1      -4.698  -0.950  -0.847  1.00  0.00    -0.241 NA
HETATM    6  C6  UNL     1      -4.919   0.069  -1.691  1.00  0.00     0.235 A 
HETATM    7  N2  UNL     1      -4.135   1.158  -1.678  1.00  0.00    -0.224 NA
HETATM    8  C7  UNL     1      -3.131   1.108  -0.746  1.00  0.00     0.139 A 
HETATM    9  C9  UNL     1      -3.808  -2.253   0.792  1.00  0.00     0.056 C 
HETATM   10  C10 UNL     1      -2.826  -3.103   1.019  1.00  0.00     0.137 C 
HETATM   11  O2  UNL     1      -1.924  -2.299   0.335  1.00  0.00    -0.363 OA
HETATM   12  C11 UNL     1      -0.772  -2.888  -0.160  1.00  0.00     0.176 C 
HETATM   13  C12 UNL     1       0.211  -1.840  -0.580  1.00  0.00     0.058 C 
HETATM   14  C13 UNL     1       0.618  -0.922   0.561  1.00  0.00     0.138 C 
ENDROOT
BRANCH  14  15
HETATM   15  N4  UNL     1       1.792  -0.237   0.136  1.00  0.00    -0.399 N 
HETATM   16  C14 UNL     1       1.681   0.735  -0.877  1.00  0.00     0.147 C 
HETATM   17  C15 UNL     1       3.037   0.773  -1.602  1.00  0.00     0.291 C 
HETATM   18  N5  UNL     1       4.017   1.120  -0.599  1.00  0.00     0.087 N 
HETATM   19  C16 UNL     1       5.288   1.496  -1.175  1.00  0.00     0.310 C 
HETATM   20  C17 UNL     1       4.127   0.050   0.353  1.00  0.00     0.291 C 
HETATM   21  C18 UNL     1       2.796  -0.010   1.115  1.00  0.00     0.147 C 
ENDBRANCH  14  15
BRANCH   1  22
HETATM   22  O1  UNL     1       0.182   0.565   2.187  1.00  0.00    -0.358 OA
HETATM   23  C1  UNL     1      -0.017  -0.078   3.433  1.00  0.00     0.209 C 
ENDBRANCH   1  22
BRANCH   8  24
HETATM   24  N3  UNL     1      -2.269   2.263  -0.670  1.00  0.00    -0.349 N 
HETATM   25  H6  UNL     1      -1.482   2.402  -0.028  1.00  0.00     0.163 HD
BRANCH  24  26
HETATM   26  C8  UNL     1      -2.495   3.386  -1.583  1.00  0.00     0.346 C 
HETATM   27  F1  UNL     1      -2.372   2.934  -2.905  1.00  0.00    -0.234 F 
ENDBRANCH  24  26
ENDBRANCH   8  24
TORSDOF 4
