REMARK  1 active torsions:
REMARK  status: ('A' for Active; 'I' for Inactive)
REMARK    1  A    between atoms: O1_2  and  C2_3 
ROOT
HETATM    1  C2  UNL     1       2.332   0.115  -0.536  1.00  0.00     0.066 C 
HETATM    2  C3  UNL     1       2.122   1.413  -0.264  1.00  0.00     0.016 C 
HETATM    3  C4  UNL     1       1.632   2.522  -1.117  1.00  0.00     0.115 C 
HETATM    4  C5  UNL     1       0.314   3.019  -0.553  1.00  0.00     0.141 C 
HETATM    5  N1  UNL     1      -0.285   4.150  -0.412  1.00  0.00    -0.281 NA
HETATM    6  O2  UNL     1      -0.432   1.966  -0.063  1.00  0.00    -0.306 OA
HETATM    7  C6  UNL     1      -1.791   1.809  -0.224  1.00  0.00     0.170 C 
HETATM    8  C7  UNL     1      -1.988   0.759   0.601  1.00  0.00     0.059 C 
HETATM    9  C8  UNL     1      -1.054  -0.025   1.454  1.00  0.00     0.333 C 
HETATM   10  N2  UNL     1      -1.442  -1.397   1.108  1.00  0.00     0.111 N 
HETATM   11  C9  UNL     1      -0.915  -1.611  -0.199  1.00  0.00     0.277 C 
HETATM   12  C10 UNL     1       0.312  -2.505  -0.097  1.00  0.00     0.056 C 
HETATM   13  C11 UNL     1       0.956  -2.623  -1.485  1.00  0.00     0.169 C 
HETATM   14  O3  UNL     1       1.268  -1.486  -2.035  1.00  0.00    -0.385 OA
HETATM   15  C12 UNL     1       2.122  -0.530  -1.840  1.00  0.00     0.231 C 
HETATM   16  C13 UNL     1      -2.861  -1.341   1.229  1.00  0.00     0.398 C 
HETATM   17  N3  UNL     1      -3.192   0.053   0.887  1.00  0.00    -0.360 N 
HETATM   18  C14 UNL     1      -4.576   0.549   0.862  1.00  0.00     0.151 C 
HETATM   19  H7  UNL     1       0.077   5.072  -0.702  1.00  0.00     0.189 HD
ENDROOT
BRANCH   1  20
HETATM   20  O1  UNL     1       2.782  -0.393   0.676  1.00  0.00    -0.358 OA
HETATM   21  C1  UNL     1       4.181  -0.482   0.879  1.00  0.00     0.209 C 
ENDBRANCH   1  20
TORSDOF 1
