REMARK  5 active torsions:
REMARK  status: ('A' for Active; 'I' for Inactive)
REMARK    1  A    between atoms: C2_2  and  C3_3 
REMARK    2  A    between atoms: C6_7  and  O1_8 
REMARK    3  A    between atoms: O1_8  and  C7_9 
REMARK    4  A    between atoms: C7_9  and  C8_10 
REMARK    5  A    between atoms: C11_14  and  C12_15 
ROOT
HETATM    1  O1  UNL     1       1.124  -1.038   0.367  1.00  0.00    -0.335 OA
ENDROOT
BRANCH   1   2
HETATM    2  C6  UNL     1       2.139  -0.313  -0.158  1.00  0.00     0.156 A 
HETATM    3  C3  UNL     1       3.089   0.183   0.740  1.00  0.00    -0.005 A 
HETATM    4  C4  UNL     1       4.024   0.886  -0.031  1.00  0.00     0.038 A 
HETATM    5  C5  UNL     1       3.667   0.829  -1.360  1.00  0.00     0.040 A 
HETATM    6  N1  UNL     1       2.542   0.104  -1.363  1.00  0.00    -0.288 N 
HETATM    7  C16 UNL     1       4.012   1.228  -2.744  1.00  0.00     0.207 A 
HETATM    8  C15 UNL     1       2.156   0.019  -2.721  1.00  0.00     0.210 A 
HETATM    9  N3  UNL     1       2.951   0.632  -3.518  1.00  0.00    -0.278 NA
BRANCH   3  10
HETATM   10  C2  UNL     1       3.188   0.050   2.230  1.00  0.00     0.038 C 
HETATM   11  C1  UNL     1       3.675  -1.305   2.640  1.00  0.00     0.010 C 
ENDBRANCH   3  10
ENDBRANCH   1   2
BRANCH   1  12
HETATM   12  C7  UNL     1       0.008  -1.632  -0.158  1.00  0.00     0.183 C 
BRANCH  12  13
HETATM   13  C8  UNL     1      -1.002  -0.709  -0.807  1.00  0.00     0.038 C 
HETATM   14  C9  UNL     1      -2.130  -1.573  -1.305  1.00  0.00     0.276 C 
HETATM   15  N2  UNL     1      -3.334  -1.423  -0.512  1.00  0.00     0.084 N 
HETATM   16  C10 UNL     1      -3.750  -0.034  -0.715  1.00  0.00     0.274 C 
HETATM   17  H12 UNL     1      -3.152  -1.594   0.509  1.00  0.00     0.315 HD
HETATM   18  C11 UNL     1      -2.810   0.835   0.063  1.00  0.00     0.014 C 
HETATM   19  C14 UNL     1      -1.415   0.371   0.132  1.00  0.00     0.014 C 
BRANCH  18  20
HETATM   20  C12 UNL     1      -3.411   1.009   1.459  1.00  0.00     0.002 C 
HETATM   21  C13 UNL     1      -4.773   1.661   1.384  1.00  0.00     0.005 C 
ENDBRANCH  18  20
ENDBRANCH  12  13
ENDBRANCH   1  12
TORSDOF 5
