REMARK  1 active torsions:
REMARK  status: ('A' for Active; 'I' for Inactive)
REMARK    1  A    between atoms: O1_2  and  C2_3 
ROOT
HETATM    1  C2  UNL     1       2.806  -0.142   0.180  1.00  0.00     0.066 C 
HETATM    2  C3  UNL     1       2.147  -1.171  -0.403  1.00  0.00     0.014 C 
HETATM    3  C4  UNL     1       1.251  -2.195  -1.082  1.00  0.00     0.088 C 
HETATM    4  C5  UNL     1       0.568  -2.974  -0.039  1.00  0.00     0.031 C 
HETATM    5  N1  UNL     1       0.932  -4.032   0.589  1.00  0.00    -0.304 NA
HETATM    6  C6  UNL     1      -0.614  -2.588   0.680  1.00  0.00     0.051 C 
HETATM    7  C7  UNL     1      -1.708  -1.792   0.806  1.00  0.00     0.008 C 
HETATM    8  C8  UNL     1      -2.968  -1.167   1.335  1.00  0.00     0.087 C 
HETATM    9  C9  UNL     1      -3.184   0.187   0.760  1.00  0.00     0.278 C 
HETATM   10  N2  UNL     1      -1.935   0.730   0.259  1.00  0.00     0.090 N 
HETATM   11  C10 UNL     1      -1.913   2.120   0.724  1.00  0.00     0.274 C 
HETATM   12  C11 UNL     1      -0.886   2.971   0.049  1.00  0.00     0.056 C 
HETATM   13  C12 UNL     1       0.511   2.562   0.308  1.00  0.00     0.169 C 
HETATM   14  O2  UNL     1       0.885   1.292  -0.064  1.00  0.00    -0.385 OA
HETATM   15  C13 UNL     1       2.232   1.193   0.394  1.00  0.00     0.231 C 
HETATM   16  C14 UNL     1      -2.080   0.743  -1.202  1.00  0.00     0.292 C 
HETATM   17  C15 UNL     1      -2.054  -0.638  -1.707  1.00  0.00     0.150 C 
HETATM   18  N3  UNL     1      -1.666  -1.613  -0.657  1.00  0.00    -0.391 N 
HETATM   19  H7  UNL     1       1.854  -4.443   0.355  1.00  0.00     0.186 HD
HETATM   20  H25 UNL     1      -1.249  -2.517  -1.096  1.00  0.00     0.159 HD
ENDROOT
BRANCH   1  21
HETATM   21  O1  UNL     1       4.081   0.029   0.741  1.00  0.00    -0.358 OA
HETATM   22  C1  UNL     1       5.176   0.485  -0.024  1.00  0.00     0.209 C 
ENDBRANCH   1  21
TORSDOF 1
