REMARK  2 active torsions:
REMARK  status: ('A' for Active; 'I' for Inactive)
REMARK    1  A    between atoms: N1_4  and  C3_5 
REMARK    2  A    between atoms: C16_23  and  C17_24 
ROOT
HETATM    1  C3  UNL     1      -0.666   0.286   1.718  1.00  0.00     0.139 A 
HETATM    2  N2  UNL     1      -0.589  -0.575   2.745  1.00  0.00    -0.224 NA
HETATM    3  C4  UNL     1      -1.623  -0.753   3.565  1.00  0.00     0.235 A 
HETATM    4  N3  UNL     1      -2.716  -0.032   3.299  1.00  0.00    -0.244 NA
HETATM    5  C5  UNL     1      -2.812   0.826   2.286  1.00  0.00     0.074 A 
HETATM    6  C6  UNL     1      -1.784   1.081   1.376  1.00  0.00     0.017 A 
HETATM    7  C7  UNL     1      -1.539   1.972   0.235  1.00  0.00     0.071 C 
HETATM    8  C8  UNL     1      -1.280   1.357  -1.077  1.00  0.00     0.172 C 
HETATM    9  O1  UNL     1      -2.123   0.789  -1.909  1.00  0.00    -0.389 OA
HETATM   10  C9  UNL     1      -3.081  -0.112  -1.664  1.00  0.00     0.197 C 
HETATM   11  C10 UNL     1      -4.364   0.516  -1.147  1.00  0.00     0.295 C 
HETATM   12  N4  UNL     1      -5.377  -0.399  -0.749  1.00  0.00     0.087 N 
HETATM   13  C11 UNL     1      -6.595   0.339  -0.267  1.00  0.00     0.299 C 
HETATM   14  C12 UNL     1      -6.065   1.186   0.905  1.00  0.00     0.299 C 
HETATM   15  N5  UNL     1      -5.068   0.415   1.611  1.00  0.00     0.090 N 
HETATM   16  C13 UNL     1      -4.213   1.400   2.316  1.00  0.00     0.329 C 
HETATM   17  H11 UNL     1      -5.085  -1.068  -0.006  1.00  0.00     0.316 HD
HETATM   18  H16 UNL     1      -5.431  -0.197   2.347  1.00  0.00     0.316 HD
ENDROOT
BRANCH   1  19
HETATM   19  N1  UNL     1       0.646   0.167   1.121  1.00  0.00    -0.335 N 
HETATM   20  C2  UNL     1       0.992  -1.153   0.591  1.00  0.00     0.136 A 
HETATM   21  C1  UNL     1       2.079  -1.676   0.054  1.00  0.00     0.144 A 
HETATM   22  F1  UNL     1       2.312  -2.900  -0.405  1.00  0.00    -0.204 F 
HETATM   23  C16 UNL     1       3.148  -0.703  -0.044  1.00  0.00     0.038 A 
HETATM   24  C15 UNL     1       2.910   0.506   0.383  1.00  0.00     0.011 A 
HETATM   25  C14 UNL     1       1.713   1.132   0.980  1.00  0.00     0.158 A 
BRANCH  23  26
HETATM   26  C17 UNL     1       4.503  -0.935  -0.586  1.00  0.00     0.112 A 
HETATM   27  N6  UNL     1       5.501  -0.400  -0.788  1.00  0.00    -0.239 NA
HETATM   28  C18 UNL     1       6.606  -0.917  -1.317  1.00  0.00     0.075 A 
HETATM   29  C19 UNL     1       7.825  -0.318  -1.580  1.00  0.00     0.033 A 
HETATM   30  C23 UNL     1       6.554  -2.267  -1.669  1.00  0.00     0.035 A 
HETATM   31  C20 UNL     1       8.848  -1.046  -2.139  1.00  0.00     0.002 A 
HETATM   32  C21 UNL     1       8.776  -2.381  -2.480  1.00  0.00     0.002 A 
HETATM   33  C22 UNL     1       7.584  -3.028  -2.239  1.00  0.00     0.021 A 
HETATM   34  S1  UNL     1       4.814  -2.707  -1.181  1.00  0.00    -0.067 SA
ENDBRANCH  23  26
ENDBRANCH   1  19
TORSDOF 2
