REMARK  6 active torsions:
REMARK  status: ('A' for Active; 'I' for Inactive)
REMARK    1  A    between atoms: O1_2  and  C2_3 
REMARK    2  A    between atoms: C9_12  and  O2_13 
REMARK    3  A    between atoms: O2_13  and  C10_14 
REMARK    4  A    between atoms: C10_14  and  C11_15 
REMARK    5  A    between atoms: C11_15  and  C12_16 
REMARK    6  A    between atoms: C12_16  and  N3_17 
ROOT
HETATM    1  C2  UNL     1      -1.824  -0.447   0.245  1.00  0.00     0.139 A 
HETATM    2  C3  UNL     1      -1.518  -0.500  -1.243  1.00  0.00     0.092 A 
HETATM    3  C4  UNL     1      -2.846  -0.189  -0.742  1.00  0.00     0.011 A 
HETATM    4  C5  UNL     1      -4.071   0.099  -0.346  1.00  0.00     0.148 C 
HETATM    5  N1  UNL     1      -4.320   0.144   1.097  1.00  0.00    -0.045 NA
HETATM    6  C6  UNL     1      -4.953   1.231   1.548  1.00  0.00     0.724 C 
HETATM    7  N2  UNL     1      -4.266   2.226   2.343  1.00  0.00    -0.075 NA
HETATM    8  C7  UNL     1      -2.954   2.201   2.311  1.00  0.00     0.139 C 
HETATM    9  C8  UNL     1      -1.691   1.650   1.857  1.00  0.00     0.055 C 
HETATM   10  C9  UNL     1      -1.387   0.658   1.085  1.00  0.00     0.087 C 
HETATM   11  N5  UNL     1      -6.322   1.511   1.259  1.00  0.00    -0.221 N 
HETATM   12  C18 UNL     1      -6.981   1.008   0.069  1.00  0.00     0.158 C 
HETATM   13  C19 UNL     1      -6.218   1.213  -1.190  1.00  0.00     0.141 C 
HETATM   14  N6  UNL     1      -5.068   0.345  -1.365  1.00  0.00    -0.372 N 
HETATM   15  H25 UNL     1      -6.625   2.113   2.075  1.00  0.00     0.177 HD
HETATM   16  H30 UNL     1      -4.799  -0.205  -2.216  1.00  0.00     0.161 HD
ENDROOT
BRANCH  10  17
HETATM   17  O2  UNL     1       0.003   0.475   0.911  1.00  0.00    -0.352 OA
BRANCH  17  18
HETATM   18  C10 UNL     1       0.820   1.551   0.552  1.00  0.00     0.177 C 
BRANCH  18  19
HETATM   19  C11 UNL     1       2.245   1.006   0.476  1.00  0.00     0.046 C 
BRANCH  19  20
HETATM   20  C12 UNL     1       2.331  -0.095  -0.563  1.00  0.00     0.119 C 
BRANCH  20  21
HETATM   21  N3  UNL     1       3.652  -0.594  -0.627  1.00  0.00    -0.409 N 
HETATM   22  C13 UNL     1       4.667   0.230  -1.129  1.00  0.00     0.147 C 
HETATM   23  C14 UNL     1       5.938  -0.506  -1.490  1.00  0.00     0.291 C 
HETATM   24  N4  UNL     1       6.284  -1.305  -0.354  1.00  0.00     0.087 N 
HETATM   25  C15 UNL     1       6.694  -0.553   0.791  1.00  0.00     0.310 C 
HETATM   26  C16 UNL     1       5.316  -2.317  -0.036  1.00  0.00     0.291 C 
HETATM   27  C17 UNL     1       3.898  -1.922  -0.269  1.00  0.00     0.147 C 
ENDBRANCH  20  21
ENDBRANCH  19  20
ENDBRANCH  18  19
ENDBRANCH  17  18
ENDBRANCH  10  17
BRANCH   1  28
HETATM   28  O1  UNL     1      -1.688  -1.707   0.838  1.00  0.00    -0.373 OA
HETATM   29  C1  UNL     1      -2.495  -2.680   0.317  1.00  0.00     0.203 C 
ENDBRANCH   1  28
TORSDOF 6
