REMARK  3 active torsions:
REMARK  status: ('A' for Active; 'I' for Inactive)
REMARK    1  A    between atoms: O1_2  and  C2_3 
REMARK    2  A    between atoms: N1_7  and  C6_8 
REMARK    3  A    between atoms: C9_11  and  C10_12 
ROOT
HETATM    1  C6  UNL     1      -1.302   0.257  -0.481  1.00  0.00     0.034 A 
HETATM    2  C7  UNL     1      -0.483   0.920  -1.354  1.00  0.00     0.030 A 
HETATM    3  C8  UNL     1       0.892   0.901  -1.307  1.00  0.00     0.016 A 
HETATM    4  C9  UNL     1       1.504   0.178  -0.328  1.00  0.00    -0.000 A 
HETATM    5  C17 UNL     1       0.762  -0.505   0.575  1.00  0.00     0.016 A 
HETATM    6  C18 UNL     1      -0.634  -0.458   0.489  1.00  0.00     0.030 A 
ENDROOT
BRANCH   4   7
HETATM    7  C10 UNL     1       2.935   0.037  -0.115  1.00  0.00     0.109 A 
HETATM    8  N2  UNL     1       3.755  -0.457   0.561  1.00  0.00    -0.240 NA
HETATM    9  C11 UNL     1       5.064  -0.352   0.441  1.00  0.00     0.075 A 
HETATM   10  C12 UNL     1       5.996  -0.971   1.287  1.00  0.00     0.033 A 
HETATM   11  C16 UNL     1       5.551   0.401  -0.559  1.00  0.00     0.035 A 
HETATM   12  C13 UNL     1       7.335  -0.764   1.031  1.00  0.00     0.002 A 
HETATM   13  C14 UNL     1       7.864   0.002   0.015  1.00  0.00     0.002 A 
HETATM   14  C15 UNL     1       6.896   0.599  -0.802  1.00  0.00     0.021 A 
HETATM   15  S1  UNL     1       4.085   0.950  -1.318  1.00  0.00    -0.068 SA
ENDBRANCH   4   7
BRANCH   1  16
HETATM   16  N1  UNL     1      -2.721   0.273  -0.525  1.00  0.00    -0.351 N 
HETATM   17  C5  UNL     1      -3.435   1.001  -1.512  1.00  0.00     0.091 A 
HETATM   18  C4  UNL     1      -4.753   1.055  -1.605  1.00  0.00     0.020 A 
HETATM   19  C3  UNL     1      -5.569   0.325  -0.642  1.00  0.00     0.035 A 
HETATM   20  C2  UNL     1      -4.927  -0.352   0.275  1.00  0.00     0.064 A 
HETATM   21  C19 UNL     1      -3.459  -0.471   0.459  1.00  0.00     0.193 A 
BRANCH  20  22
HETATM   22  O1  UNL     1      -5.614  -1.084   1.243  1.00  0.00    -0.359 OA
HETATM   23  C1  UNL     1      -6.970  -0.741   1.549  1.00  0.00     0.209 C 
ENDBRANCH  20  22
ENDBRANCH   1  16
TORSDOF 3
