REMARK  7 active torsions:
REMARK  status: ('A' for Active; 'I' for Inactive)
REMARK    1  A    between atoms: O1_1  and  C1_2 
REMARK    2  A    between atoms: C5_6  and  N1_7 
REMARK    3  A    between atoms: N1_7  and  C6_8 
REMARK    4  A    between atoms: C9_13  and  N4_14 
REMARK    5  A    between atoms: N4_14  and  C10_15 
REMARK    6  A    between atoms: C10_15  and  C11_16 
REMARK    7  A    between atoms: C12_17  and  C13_18 
ROOT
HETATM    1  C6  UNL     1      -0.470  -0.397   0.830  1.00  0.00     0.096 A 
HETATM    2  C7  UNL     1      -0.721  -1.504   1.601  1.00  0.00     0.151 A 
HETATM    3  N2  UNL     1       0.097  -1.988   2.534  1.00  0.00    -0.252 NA
HETATM    4  C8  UNL     1       1.276  -1.344   2.749  1.00  0.00     0.235 A 
HETATM    5  N3  UNL     1       1.557  -0.261   2.018  1.00  0.00    -0.222 NA
HETATM    6  C9  UNL     1       0.734   0.219   1.086  1.00  0.00     0.153 A 
ENDROOT
BRANCH   1   7
HETATM    7  N1  UNL     1      -1.306   0.133  -0.174  1.00  0.00    -0.352 N 
HETATM    8  H5  UNL     1      -1.043   0.986  -0.672  1.00  0.00     0.166 HD
BRANCH   7   9
HETATM    9  C5  UNL     1      -2.548  -0.292  -0.705  1.00  0.00     0.035 A 
HETATM   10  C4  UNL     1      -2.904  -1.606  -0.920  1.00  0.00     0.029 A 
HETATM   11  C3  UNL     1      -4.122  -2.027  -1.410  1.00  0.00     0.005 A 
HETATM   12  C2  UNL     1      -5.066  -1.071  -1.712  1.00  0.00     0.036 A 
HETATM   13  C1  UNL     1      -4.800   0.256  -1.531  1.00  0.00     0.067 A 
HETATM   14  C14 UNL     1      -3.571   0.601  -1.041  1.00  0.00     0.066 A 
BRANCH  13  15
HETATM   15  O1  UNL     1      -5.746   1.226  -1.833  1.00  0.00    -0.361 OA
HETATM   16  H1  UNL     1      -5.992   1.986  -1.211  1.00  0.00     0.217 HD
ENDBRANCH  13  15
ENDBRANCH   7   9
ENDBRANCH   1   7
BRANCH   6  17
HETATM   17  N4  UNL     1       1.233   1.398   0.415  1.00  0.00    -0.369 N 
HETATM   18  H8  UNL     1       0.688   1.876  -0.336  1.00  0.00     0.161 HD
BRANCH  17  19
HETATM   19  C10 UNL     1       2.504   1.994   0.728  1.00  0.00     0.148 C 
BRANCH  19  20
HETATM   20  C11 UNL     1       3.613   1.028   0.476  1.00  0.00    -0.010 C 
HETATM   21  C12 UNL     1       4.663   1.134  -0.364  1.00  0.00    -0.014 C 
BRANCH  21  22
HETATM   22  C13 UNL     1       5.773   0.140  -0.601  1.00  0.00     0.141 C 
HETATM   23 CL1  UNL     1       5.487  -1.287   0.453  1.00  0.00    -0.126 Cl
ENDBRANCH  21  22
ENDBRANCH  19  20
ENDBRANCH  17  19
ENDBRANCH   6  17
TORSDOF 7
