REMARK  7 active torsions:
REMARK  status: ('A' for Active; 'I' for Inactive)
REMARK    1  A    between atoms: O1_2  and  C2_3 
REMARK    2  A    between atoms: N2_9  and  C7_10 
REMARK    3  A    between atoms: C9_12  and  O2_13 
REMARK    4  A    between atoms: O2_13  and  C10_14 
REMARK    5  A    between atoms: C10_14  and  C11_15 
REMARK    6  A    between atoms: C11_15  and  C12_16 
REMARK    7  A    between atoms: C12_16  and  N3_17 
ROOT
HETATM    1  C2  UNL     1      -1.816  -1.907   1.899  1.00  0.00     0.098 A 
HETATM    2  C3  UNL     1      -2.922  -1.099   2.207  1.00  0.00     0.033 A 
HETATM    3  C4  UNL     1      -2.401   0.193   2.103  1.00  0.00     0.072 A 
HETATM    4  C5  UNL     1      -3.389   1.099   2.352  1.00  0.00     0.049 A 
HETATM    5  N1  UNL     1      -2.347   1.807   2.086  1.00  0.00     0.000 N 
HETATM    6  C6  UNL     1      -2.142   3.015   2.026  1.00  0.00     0.056 A 
HETATM    7  N2  UNL     1      -1.124   2.244   1.779  1.00  0.00    -0.190 NA
HETATM    8  C7  UNL     1      -1.193   0.883   1.803  1.00  0.00     0.100 A 
HETATM    9  C8  UNL     1      -0.184  -0.022   1.517  1.00  0.00     0.044 A 
HETATM   10  C9  UNL     1      -0.559  -1.331   1.583  1.00  0.00     0.100 A 
HETATM   11  C18 UNL     1      -2.980   4.051   2.209  1.00  0.00    -0.037 C 
HETATM   12  C19 UNL     1      -1.754   4.807   2.055  1.00  0.00     0.050 C 
HETATM   13  C20 UNL     1      -4.289   4.149   2.405  1.00  0.00     0.010 C 
HETATM   14  C21 UNL     1      -5.436   3.241   2.583  1.00  0.00     0.018 C 
HETATM   15  C22 UNL     1      -5.571   1.884   2.585  1.00  0.00     0.088 C 
HETATM   16  N5  UNL     1      -4.690   0.763   2.693  1.00  0.00    -0.367 N 
HETATM   17  H29 UNL     1      -4.598  -0.193   2.927  1.00  0.00     0.165 HD
ENDROOT
BRANCH  10  18
HETATM   18  O2  UNL     1       0.361  -2.237   1.319  1.00  0.00    -0.348 OA
BRANCH  18  19
HETATM   19  C10 UNL     1       1.615  -2.472   0.972  1.00  0.00     0.177 C 
BRANCH  19  20
HETATM   20  C11 UNL     1       2.200  -2.071  -0.333  1.00  0.00     0.057 C 
BRANCH  20  21
HETATM   21  C12 UNL     1       2.236  -0.645  -0.712  1.00  0.00     0.274 C 
BRANCH  21  22
HETATM   22  N3  UNL     1       2.883  -0.521  -2.024  1.00  0.00     0.091 N 
HETATM   23  C13 UNL     1       4.290  -0.855  -1.983  1.00  0.00     0.302 C 
HETATM   24  C14 UNL     1       4.919  -0.397  -3.271  1.00  0.00     0.302 C 
HETATM   25  N4  UNL     1       4.201  -0.718  -4.439  1.00  0.00     0.087 N 
HETATM   26  C15 UNL     1       4.542   0.199  -5.507  1.00  0.00     0.310 C 
HETATM   27  C16 UNL     1       2.791  -0.848  -4.369  1.00  0.00     0.302 C 
HETATM   28  C17 UNL     1       2.283  -1.340  -3.033  1.00  0.00     0.302 C 
ENDBRANCH  21  22
ENDBRANCH  20  21
ENDBRANCH  19  20
ENDBRANCH  18  19
ENDBRANCH  10  18
BRANCH   1  29
HETATM   29  O1  UNL     1      -2.010  -3.264   1.922  1.00  0.00    -0.353 OA
HETATM   30  C1  UNL     1      -3.268  -3.804   2.260  1.00  0.00     0.210 C 
ENDBRANCH   1  29
TORSDOF 7
