REMARK  1 active torsions:
REMARK  status: ('A' for Active; 'I' for Inactive)
REMARK    1  A    between atoms: C5_7  and  O1_8 
ROOT
HETATM    1  B1  UNL     1       2.956   3.107   2.958  1.00  0.00     0.222 B 
HETATM    2  C1  UNL     1       2.026   3.122   1.446  1.00  0.00    -0.151 C 
HETATM    3  N1  UNL     1       1.309   3.132   0.253  1.00  0.00    -0.306 N 
HETATM    4  C2  UNL     1       1.870   2.564  -0.787  1.00  0.00     0.046 A 
HETATM    5  C3  UNL     1       3.186   2.045  -0.364  1.00  0.00     0.090 C 
HETATM    6  C4  UNL     1       3.518   0.857  -1.229  1.00  0.00     0.013 C 
HETATM    7  C5  UNL     1       3.544  -0.476  -1.078  1.00  0.00     0.063 C 
HETATM    8  C6  UNL     1       3.132  -0.997   0.272  1.00  0.00     0.231 C 
HETATM    9  O2  UNL     1       2.022  -1.829   0.089  1.00  0.00    -0.385 OA
HETATM   10  C7  UNL     1       1.507  -2.193   1.307  1.00  0.00     0.169 C 
HETATM   11  C8  UNL     1       0.272  -3.071   1.142  1.00  0.00     0.046 C 
HETATM   12  C9  UNL     1      -0.713  -2.378   0.224  1.00  0.00     0.119 C 
HETATM   13  N2  UNL     1      -0.999  -1.091   0.742  1.00  0.00    -0.407 N 
HETATM   14  C10 UNL     1      -2.236  -0.883   1.380  1.00  0.00     0.119 C 
HETATM   15  C11 UNL     1      -3.469  -1.272   0.626  1.00  0.00     0.039 C 
HETATM   16  C12 UNL     1      -3.606  -0.542  -0.698  1.00  0.00     0.123 C 
HETATM   17  N3  UNL     1      -2.977   0.763  -0.644  1.00  0.00    -0.387 N 
HETATM   18  C13 UNL     1      -3.682   2.032  -0.642  1.00  0.00     0.149 C 
HETATM   19  C14 UNL     1      -1.563   0.892  -0.588  1.00  0.00     0.026 C 
HETATM   20  C15 UNL     1      -1.120   2.058  -1.096  1.00  0.00     0.052 C 
HETATM   21  P1  UNL     1       0.310   3.144  -1.486  1.00  0.00     0.014 P 
HETATM   22  C16 UNL     1      -0.522  -0.010  -0.084  1.00  0.00     0.173 C 
HETATM   23  H23 UNL     1       0.490   3.265  -2.925  1.00  0.00     0.085 HD
ENDROOT
BRANCH   7  24
HETATM   24  O1  UNL     1       3.875  -1.509  -1.942  1.00  0.00    -0.363 OA
HETATM   25  H4  UNL     1       4.866  -1.660  -2.102  1.00  0.00     0.217 HD
ENDBRANCH   7  24
TORSDOF 1
