REMARK  7 active torsions:
REMARK  status: ('A' for Active; 'I' for Inactive)
REMARK    1  A    between atoms: O1_2  and  C2_3 
REMARK    2  A    between atoms: C5_6  and  N1_7 
REMARK    3  A    between atoms: N1_7  and  C6_8 
REMARK    4  A    between atoms: C9_11  and  C10_12 
REMARK    5  A    between atoms: C17_21  and  O2_22 
REMARK    6  A    between atoms: C22_29  and  O3_30 
REMARK    7  A    between atoms: O3_30  and  C23_31 
ROOT
HETATM    1  C6  UNL     1       0.299  -0.215   1.037  1.00  0.00     0.036 A 
HETATM    2  C7  UNL     1       0.974  -1.362   0.662  1.00  0.00     0.030 A 
HETATM    3  C8  UNL     1       2.326  -1.381   0.396  1.00  0.00     0.019 A 
HETATM    4  C9  UNL     1       2.932  -0.150   0.541  1.00  0.00     0.033 A 
HETATM    5  C17 UNL     1       2.339   1.033   0.908  1.00  0.00     0.081 A 
HETATM    6  C18 UNL     1       0.989   0.971   1.157  1.00  0.00     0.066 A 
ENDROOT
BRANCH   1   7
HETATM    7  N1  UNL     1      -1.098  -0.279   1.294  1.00  0.00    -0.342 N 
HETATM    8  H6  UNL     1      -1.062  -0.499   2.322  1.00  0.00     0.167 HD
BRANCH   7   9
HETATM    9  C5  UNL     1      -2.339  -0.143   0.620  1.00  0.00     0.111 A 
HETATM   10  C4  UNL     1      -2.407   0.975  -0.092  1.00  0.00     0.051 A 
HETATM   11  C3  UNL     1      -3.455   1.539  -0.934  1.00  0.00     0.043 A 
HETATM   12  C2  UNL     1      -4.716   1.256  -1.217  1.00  0.00     0.102 A 
HETATM   13  C22 UNL     1      -5.653   0.222  -0.803  1.00  0.00     0.115 A 
HETATM   14  C21 UNL     1      -5.579  -0.903  -0.076  1.00  0.00     0.090 A 
HETATM   15  C20 UNL     1      -4.502  -1.599   0.633  1.00  0.00     0.132 A 
HETATM   16  N3  UNL     1      -3.159  -1.277   0.918  1.00  0.00    -0.299 N 
HETATM   17  N4  UNL     1      -4.355  -2.715   1.244  1.00  0.00    -0.252 NA
HETATM   18  C19 UNL     1      -2.992  -2.530   1.604  1.00  0.00     0.284 A 
BRANCH  12  19
HETATM   19  O1  UNL     1      -5.393   2.079  -2.110  1.00  0.00    -0.353 OA
HETATM   20  C1  UNL     1      -6.033   3.217  -1.537  1.00  0.00     0.210 C 
ENDBRANCH  12  19
BRANCH  13  21
HETATM   21  O3  UNL     1      -6.974   0.346  -1.213  1.00  0.00    -0.283 OA
BRANCH  21  22
HETATM   22  C23 UNL     1      -7.492  -0.681  -1.991  1.00  0.00     0.403 C 
HETATM   23  O4  UNL     1      -7.073  -1.760  -2.457  1.00  0.00    -0.276 OA
ENDBRANCH  21  22
ENDBRANCH  13  21
ENDBRANCH   7   9
ENDBRANCH   1   7
BRANCH   5  24
HETATM   24  O2  UNL     1       3.071   2.207   1.017  1.00  0.00    -0.360 OA
HETATM   25  H13 UNL     1       3.107   2.902   0.289  1.00  0.00     0.217 HD
ENDBRANCH   5  24
BRANCH   4  26
HETATM   26  C10 UNL     1       4.411  -0.174   0.249  1.00  0.00     0.112 A 
HETATM   27  N2  UNL     1       5.196  -0.944  -0.067  1.00  0.00    -0.239 NA
HETATM   28  C11 UNL     1       6.488  -0.803  -0.288  1.00  0.00     0.075 A 
HETATM   29  C12 UNL     1       7.420  -1.745  -0.670  1.00  0.00     0.033 A 
HETATM   30  C16 UNL     1       6.981   0.463  -0.112  1.00  0.00     0.035 A 
HETATM   31  C13 UNL     1       8.734  -1.371  -0.844  1.00  0.00     0.002 A 
HETATM   32  C14 UNL     1       9.230  -0.096  -0.668  1.00  0.00     0.002 A 
HETATM   33  C15 UNL     1       8.313   0.859  -0.286  1.00  0.00     0.021 A 
HETATM   34  S1  UNL     1       5.490   1.384   0.373  1.00  0.00    -0.067 SA
ENDBRANCH   4  26
TORSDOF 7
