REMARK  6 active torsions:
REMARK  status: ('A' for Active; 'I' for Inactive)
REMARK    1  A    between atoms: O1_2  and  C2_3 
REMARK    2  A    between atoms: C8_11  and  O2_12 
REMARK    3  A    between atoms: O2_12  and  C9_13 
REMARK    4  A    between atoms: C9_13  and  C10_14 
REMARK    5  A    between atoms: C10_14  and  C11_15 
REMARK    6  A    between atoms: C11_15  and  N3_16 
ROOT
HETATM    1  C2  UNL     1      -3.898   0.745   0.402  1.00  0.00     0.126 C 
HETATM    2  C3  UNL     1      -5.070   0.315   0.949  1.00  0.00     0.077 C 
HETATM    3  C4  UNL     1      -5.486  -1.118   0.418  1.00  0.00     0.121 C 
HETATM    4  C5  UNL     1      -4.517  -1.582   1.539  1.00  0.00     0.044 C 
HETATM    5  N1  UNL     1      -5.292  -1.794   2.591  1.00  0.00    -0.246 NA
HETATM    6  C6  UNL     1      -6.195  -0.551   2.820  1.00  0.00     0.233 C 
HETATM    7  N2  UNL     1      -6.104   0.559   1.960  1.00  0.00    -0.243 NA
HETATM    8  C7  UNL     1      -3.138  -1.460   1.092  1.00  0.00     0.067 C 
HETATM    9  C8  UNL     1      -2.781  -0.293   0.477  1.00  0.00     0.106 C 
ENDROOT
BRANCH   9  10
HETATM   10  O2  UNL     1      -1.746   0.255  -0.096  1.00  0.00    -0.348 OA
BRANCH  10  11
HETATM   11  C9  UNL     1      -0.392  -0.079  -0.251  1.00  0.00     0.177 C 
BRANCH  11  12
HETATM   12  C10 UNL     1       0.344   1.104  -0.793  1.00  0.00     0.057 C 
BRANCH  12  13
HETATM   13  C11 UNL     1       1.786   1.007  -1.059  1.00  0.00     0.274 C 
BRANCH  13  14
HETATM   14  N3  UNL     1       2.657   0.672   0.033  1.00  0.00     0.091 N 
HETATM   15  C12 UNL     1       4.056   1.010  -0.302  1.00  0.00     0.302 C 
HETATM   16  C13 UNL     1       4.916   0.553   0.873  1.00  0.00     0.302 C 
HETATM   17  N4  UNL     1       5.043  -0.900   0.853  1.00  0.00     0.087 N 
HETATM   18  C14 UNL     1       6.294  -1.289   0.203  1.00  0.00     0.310 C 
HETATM   19  C15 UNL     1       3.950  -1.441   0.084  1.00  0.00     0.302 C 
HETATM   20  C16 UNL     1       2.622  -0.777   0.311  1.00  0.00     0.302 C 
ENDBRANCH  13  14
ENDBRANCH  12  13
ENDBRANCH  11  12
ENDBRANCH  10  11
ENDBRANCH   9  10
BRANCH   1  21
HETATM   21  O1  UNL     1      -4.308   1.997   0.025  1.00  0.00    -0.351 OA
HETATM   22  C1  UNL     1      -4.123   2.380  -1.315  1.00  0.00     0.210 C 
ENDBRANCH   1  21
TORSDOF 6
