REMARK  6 active torsions:
REMARK  status: ('A' for Active; 'I' for Inactive)
REMARK    1  A    between atoms: C1_2  and  N1_3 
REMARK    2  A    between atoms: N1_3  and  C2_4 
REMARK    3  A    between atoms: C5_7  and  C6_8 
REMARK    4  A    between atoms: C6_8  and  S1_9 
REMARK    5  A    between atoms: S1_9  and  C7_10 
REMARK    6  A    between atoms: C7_10  and  C8_11 
ROOT
HETATM    1  C2  UNL     1       2.240   0.421  -0.984  1.00  0.00     0.033 A 
HETATM    2  C3  UNL     1       1.004   0.078  -1.472  1.00  0.00     0.030 A 
HETATM    3  C4  UNL     1      -0.162   0.552  -0.932  1.00  0.00     0.010 A 
HETATM    4  C5  UNL     1      -0.130   1.409   0.142  1.00  0.00    -0.049 A 
HETATM    5  C13 UNL     1       1.109   1.763   0.643  1.00  0.00     0.010 A 
HETATM    6  C14 UNL     1       2.296   1.283   0.097  1.00  0.00     0.030 A 
ENDROOT
BRANCH   4   7
HETATM    7  C6  UNL     1      -1.389   1.959   0.770  1.00  0.00     0.112 C 
BRANCH   7   8
HETATM    8  S1  UNL     1      -1.869   0.780   2.040  1.00  0.00    -0.160 SA
BRANCH   8   9
HETATM    9  C7  UNL     1      -2.366  -0.788   1.299  1.00  0.00     0.107 C 
BRANCH   9  10
HETATM   10  C8  UNL     1      -3.651  -0.594   0.585  1.00  0.00    -0.079 A 
HETATM   11  C9  UNL     1      -4.444   0.446   0.441  1.00  0.00     0.001 A 
HETATM   12  C10 UNL     1      -5.694   0.554  -0.281  1.00  0.00    -0.015 A 
HETATM   13  C11 UNL     1      -6.104  -0.527  -0.880  1.00  0.00    -0.083 A 
HETATM   14  B1  UNL     1      -5.307  -1.854  -0.827  1.00  0.00     0.185 B 
HETATM   15  C12 UNL     1      -3.956  -1.903  -0.015  1.00  0.00    -0.014 A 
HETATM   16  H11 UNL     1      -5.645  -2.794  -1.447  1.00  0.00    -0.021 HD
ENDBRANCH   9  10
ENDBRANCH   8   9
ENDBRANCH   7   8
ENDBRANCH   4   7
BRANCH   1  17
HETATM   17  N1  UNL     1       3.505  -0.025  -1.480  1.00  0.00    -0.347 N 
HETATM   18  H1  UNL     1       3.424  -0.691  -2.292  1.00  0.00     0.167 HD
BRANCH  17  19
HETATM   19  C1  UNL     1       4.761   0.371  -0.953  1.00  0.00     0.106 C 
HETATM   20 CL1  UNL     1       4.954   1.974  -1.633  1.00  0.00    -0.064 Cl
HETATM   21  C15 UNL     1       5.500  -0.384  -0.156  1.00  0.00    -0.041 A 
HETATM   22  C16 UNL     1       6.053  -1.479   0.703  1.00  0.00     0.042 A 
HETATM   23  C17 UNL     1       6.842  -0.263   0.548  1.00  0.00     0.042 A 
ENDBRANCH  17  19
ENDBRANCH   1  17
TORSDOF 6
