REMARK  4 active torsions:
REMARK  status: ('A' for Active; 'I' for Inactive)
REMARK    1  A    between atoms: B1_8  and  N1_9 
REMARK    2  A    between atoms: N1_9  and  C6_10 
REMARK    3  A    between atoms: C9_15  and  N4_16 
REMARK    4  A    between atoms: N4_16  and  C10_17 
ROOT
HETATM    1  C6  UNL     1       0.017  -0.462   0.926  1.00  0.00     0.080 A 
HETATM    2  C7  UNL     1      -0.223  -0.460   2.281  1.00  0.00     0.149 A 
HETATM    3  N2  UNL     1       0.671  -0.894   3.208  1.00  0.00    -0.252 NA
HETATM    4  C8  UNL     1       1.882  -1.361   2.786  1.00  0.00     0.235 A 
HETATM    5  N3  UNL     1       2.139  -1.371   1.459  1.00  0.00    -0.222 NA
HETATM    6  C9  UNL     1       1.243  -0.939   0.555  1.00  0.00     0.156 A 
ENDROOT
BRANCH   1   7
HETATM    7  N1  UNL     1      -0.871  -0.033  -0.063  1.00  0.00    -0.403 N 
HETATM    8  H7  UNL     1      -0.594  -0.046  -1.068  1.00  0.00     0.141 HD
BRANCH   7   9
HETATM    9  B1  UNL     1      -2.289   0.494   0.075  1.00  0.00     0.521 B 
HETATM   10  C2  UNL     1      -3.328   0.040  -1.025  1.00  0.00    -0.047 C 
HETATM   11  C1  UNL     1      -2.809  -0.601  -2.032  1.00  0.00     0.011 C 
HETATM   12  C3  UNL     1      -4.771   0.236  -1.073  1.00  0.00    -0.003 C 
HETATM   13  C4  UNL     1      -5.476   0.745  -0.047  1.00  0.00     0.002 C 
HETATM   14  C5  UNL     1      -4.950   1.194   1.294  1.00  0.00     0.235 C 
HETATM   15  O1  UNL     1      -3.734   1.850   1.148  1.00  0.00    -0.253 OA
HETATM   16  O2  UNL     1      -2.684   1.097   1.354  1.00  0.00    -0.276 OA
ENDBRANCH   7   9
ENDBRANCH   1   7
BRANCH   6  17
HETATM   17  N4  UNL     1       1.695  -1.020  -0.809  1.00  0.00    -0.339 N 
HETATM   18  H10 UNL     1       1.354  -1.533  -1.663  1.00  0.00     0.167 HD
BRANCH  17  19
HETATM   19  C10 UNL     1       2.871  -0.210  -1.010  1.00  0.00     0.035 A 
HETATM   20  C11 UNL     1       3.056   1.113  -1.349  1.00  0.00     0.032 A 
HETATM   21  C12 UNL     1       4.326   1.580  -1.461  1.00  0.00     0.046 A 
HETATM   22  C13 UNL     1       5.442   0.810  -1.255  1.00  0.00     0.138 A 
HETATM   23  F1  UNL     1       6.677   1.342  -1.385  1.00  0.00    -0.204 F 
HETATM   24  C14 UNL     1       5.272  -0.508  -0.917  1.00  0.00     0.074 A 
HETATM   25 CL1  UNL     1       6.728  -1.459  -0.663  1.00  0.00    -0.081 Cl
HETATM   26  C15 UNL     1       3.993  -1.021  -0.794  1.00  0.00     0.056 A 
ENDBRANCH  17  19
ENDBRANCH   6  17
TORSDOF 4
