REMARK  4 active torsions:
REMARK  status: ('A' for Active; 'I' for Inactive)
REMARK    1  A    between atoms: S1_2  and  N1_3 
REMARK    2  A    between atoms: N1_3  and  C2_4 
REMARK    3  A    between atoms: C2_4  and  C3_5 
REMARK    4  A    between atoms: C5_7  and  C6_8 
ROOT
HETATM    1  C3  UNL     1       1.318  -0.553  -1.146  1.00  0.00     0.010 C 
HETATM    2  C4  UNL     1       0.479  -1.424  -0.587  1.00  0.00     0.081 C 
HETATM    3  C5  UNL     1      -0.734  -1.651   0.168  1.00  0.00    -0.029 C 
HETATM    4  C13 UNL     1      -0.828  -2.961   0.273  1.00  0.00     0.074 C 
HETATM    5  C14 UNL     1       0.241  -3.575  -0.371  1.00  0.00    -0.065 C 
HETATM    6  C15 UNL     1       1.110  -4.067  -0.916  1.00  0.00    -0.013 C 
HETATM    7  S2  UNL     1       2.433  -4.795  -1.770  1.00  0.00     0.006 SA
HETATM    8  N2  UNL     1       3.070  -3.500  -2.890  1.00  0.00    -0.233 NA
HETATM    9  C16 UNL     1       2.822  -2.293  -2.373  1.00  0.00     0.324 C 
HETATM   10  N3  UNL     1       2.479  -1.159  -1.684  1.00  0.00    -0.360 N 
HETATM   11  H15 UNL     1       3.492  -0.845  -1.666  1.00  0.00     0.165 HD
ENDROOT
BRANCH   3  12
HETATM   12  C6  UNL     1      -1.846  -0.985   0.823  1.00  0.00    -0.026 A 
HETATM   13  C7  UNL     1      -2.857  -1.627   1.447  1.00  0.00     0.015 A 
HETATM   14  C8  UNL     1      -3.837  -0.852   2.021  1.00  0.00     0.040 A 
HETATM   15  C9  UNL     1      -3.865   0.517   2.007  1.00  0.00     0.105 A 
HETATM   16  C10 UNL     1      -2.816   1.165   1.360  1.00  0.00     0.105 A 
HETATM   17  O2  UNL     1      -4.731   1.501   2.507  1.00  0.00    -0.323 OA
HETATM   18  C11 UNL     1      -1.830   0.392   0.782  1.00  0.00     0.051 A 
HETATM   19  O1  UNL     1      -3.095   2.516   1.499  1.00  0.00    -0.323 OA
HETATM   20  C12 UNL     1      -4.479   2.688   1.779  1.00  0.00     0.352 C 
ENDBRANCH   3  12
BRANCH   1  21
HETATM   21  C2  UNL     1       1.642   0.905  -1.425  1.00  0.00     0.152 C 
BRANCH  21  22
HETATM   22  N1  UNL     1       2.890   1.314  -0.881  1.00  0.00    -0.263 NA
HETATM   23  H4  UNL     1       2.971   1.112   0.133  1.00  0.00     0.135 HD
BRANCH  22  24
HETATM   24  S1  UNL     1       3.125   3.020  -1.259  1.00  0.00    -0.089 SA
HETATM   25  C1  UNL     1       4.007   3.866   0.086  1.00  0.00     0.108 C 
ENDBRANCH  22  24
ENDBRANCH  21  22
ENDBRANCH   1  21
TORSDOF 4
