REMARK  5 active torsions:
REMARK  status: ('A' for Active; 'I' for Inactive)
REMARK    1  A    between atoms: C2_2  and  C3_3 
REMARK    2  A    between atoms: C5_7  and  N3_8 
REMARK    3  A    between atoms: N3_8  and  C6_9 
REMARK    4  A    between atoms: C11_15  and  C12_16 
REMARK    5  A    between atoms: C12_16  and  C13_17 
ROOT
HETATM    1  C3  UNL     1       0.279   1.781  -0.440  1.00  0.00     0.068 A 
HETATM    2  N1  UNL     1       1.330   2.587  -0.668  1.00  0.00    -0.241 NA
HETATM    3  C4  UNL     1       2.508   1.980  -0.935  1.00  0.00     0.235 A 
HETATM    4  N2  UNL     1       2.585   0.661  -0.962  1.00  0.00    -0.224 NA
HETATM    5  C5  UNL     1       1.565  -0.186  -0.741  1.00  0.00     0.137 A 
HETATM    6  C11 UNL     1       0.354   0.409  -0.467  1.00  0.00     0.039 A 
ENDROOT
BRANCH   6   7
HETATM    7  C12 UNL     1      -0.660  -0.369  -0.248  1.00  0.00     0.029 C 
BRANCH   7   8
HETATM    8  C13 UNL     1      -2.061  -0.345   0.064  1.00  0.00    -0.032 A 
HETATM    9  C14 UNL     1      -3.028  -0.324  -0.950  1.00  0.00     0.014 A 
HETATM   10  C15 UNL     1      -4.412  -0.298  -0.740  1.00  0.00     0.040 A 
HETATM   11  C16 UNL     1      -4.775  -0.295   0.590  1.00  0.00     0.105 A 
HETATM   12  C17 UNL     1      -3.921  -0.314   1.656  1.00  0.00     0.105 A 
HETATM   13  O2  UNL     1      -6.094  -0.270   1.063  1.00  0.00    -0.323 OA
HETATM   14  C18 UNL     1      -2.581  -0.339   1.360  1.00  0.00     0.051 A 
HETATM   15  O1  UNL     1      -4.712  -0.302   2.794  1.00  0.00    -0.323 OA
HETATM   16  C19 UNL     1      -6.048  -0.626   2.434  1.00  0.00     0.352 C 
ENDBRANCH   7   8
ENDBRANCH   6   7
BRANCH   1  17
HETATM   17  C2  UNL     1      -0.855   2.408  -0.184  1.00  0.00     0.002 C 
HETATM   18  C1  UNL     1      -0.901   3.893  -0.163  1.00  0.00     0.038 C 
ENDBRANCH   1  17
BRANCH   5  19
HETATM   19  N3  UNL     1       1.878  -1.571  -0.824  1.00  0.00    -0.369 N 
HETATM   20  H6  UNL     1       1.112  -2.276  -0.662  1.00  0.00     0.161 HD
BRANCH  19  21
HETATM   21  C6  UNL     1       3.178  -2.074  -1.115  1.00  0.00     0.167 C 
HETATM   22  C7  UNL     1       4.193  -1.733  -0.188  1.00  0.00     0.000 A 
HETATM   23  C8  UNL     1       4.632  -2.341   0.947  1.00  0.00     0.017 A 
HETATM   24  S1  UNL     1       5.211  -0.308  -0.323  1.00  0.00    -0.105 SA
HETATM   25  C9  UNL     1       5.633  -1.883   1.734  1.00  0.00     0.008 A 
HETATM   26  C10 UNL     1       6.225  -0.634   1.245  1.00  0.00     0.050 A 
ENDBRANCH  19  21
ENDBRANCH   5  19
TORSDOF 5
