REMARK  2 active torsions:
REMARK  status: ('A' for Active; 'I' for Inactive)
REMARK    1  A    between atoms: O1_2  and  C2_3 
REMARK    2  A    between atoms: N2_25  and  N3_26 
ROOT
HETATM    1  C2  UNL     1       0.732  -1.315   0.830  1.00  0.00     0.077 A 
HETATM    2  C3  UNL     1       0.634  -0.125   1.552  1.00  0.00     0.068 A 
HETATM    3  C4  UNL     1       1.614   0.832   1.357  1.00  0.00     0.053 A 
HETATM    4  C5  UNL     1       2.679   0.707   0.513  1.00  0.00     0.032 A 
HETATM    5  C6  UNL     1       2.751  -0.471  -0.183  1.00  0.00     0.013 A 
HETATM    6  C7  UNL     1       1.826  -1.461  -0.050  1.00  0.00    -0.015 A 
HETATM    7  C8  UNL     1       1.846  -2.721  -0.841  1.00  0.00     0.121 C 
HETATM    8  S1  UNL     1       1.124  -2.423  -2.491  1.00  0.00    -0.124 SA
HETATM    9  C9  UNL     1      -0.617  -1.966  -2.310  1.00  0.00     0.011 A 
HETATM   10  C10 UNL     1      -1.542  -2.975  -2.459  1.00  0.00     0.019 A 
HETATM   11  C11 UNL     1      -2.909  -2.815  -2.353  1.00  0.00     0.001 A 
HETATM   12  C12 UNL     1      -3.366  -1.521  -2.072  1.00  0.00     0.001 A 
HETATM   13  C13 UNL     1      -2.422  -0.524  -1.927  1.00  0.00     0.013 A 
HETATM   14  C14 UNL     1      -1.059  -0.689  -2.034  1.00  0.00    -0.020 A 
HETATM   15  C15 UNL     1      -0.307   0.515  -1.837  1.00  0.00     0.010 C 
HETATM   16  C16 UNL     1      -0.584   1.531  -1.035  1.00  0.00    -0.009 C 
HETATM   17  C17 UNL     1       0.364   2.664  -1.019  1.00  0.00     0.112 A 
HETATM   18  C18 UNL     1      -0.132   3.750  -1.948  1.00  0.00     0.135 A 
HETATM   19  N1  UNL     1      -0.251   4.840  -1.315  1.00  0.00    -0.144 NA
HETATM   20  O2  UNL     1       0.096   4.716  -0.004  1.00  0.00    -0.216 OA
HETATM   21  C19 UNL     1       0.488   3.379   0.251  1.00  0.00     0.108 A 
HETATM   22  C20 UNL     1       0.837   3.161   1.499  1.00  0.00     0.146 C 
HETATM   23  N2  UNL     1       1.285   1.981   2.167  1.00  0.00    -0.288 N 
ENDROOT
BRANCH  23  24
HETATM   24  N3  UNL     1       1.460   1.754   3.520  1.00  0.00    -0.243 NA
HETATM   25  H18 UNL     1       1.254   0.759   3.732  1.00  0.00     0.143 HD
HETATM   26  H19 UNL     1       0.781   2.306   4.101  1.00  0.00     0.143 HD
ENDBRANCH  23  24
BRANCH   1  27
HETATM   27  O1  UNL     1      -0.213  -2.352   0.955  1.00  0.00    -0.355 OA
HETATM   28  C1  UNL     1      -1.315  -2.254   1.814  1.00  0.00     0.210 C 
ENDBRANCH   1  27
TORSDOF 2
