REMARK  1 active torsions:
REMARK  status: ('A' for Active; 'I' for Inactive)
REMARK    1  A    between atoms: O1_2  and  C2_3 
ROOT
HETATM    1  C2  UNL     1       4.570   0.159  -0.664  1.00  0.00     0.069 A 
HETATM    2  C3  UNL     1       4.687  -1.017   0.061  1.00  0.00     0.039 A 
HETATM    3  C4  UNL     1       3.552  -1.617   0.572  1.00  0.00     0.040 A 
HETATM    4  C5  UNL     1       2.300  -1.049   0.361  1.00  0.00     0.077 A 
HETATM    5  C6  UNL     1       2.159   0.120  -0.359  1.00  0.00    -0.003 A 
HETATM    6  C7  UNL     1       3.314   0.718  -0.869  1.00  0.00     0.048 A 
HETATM    7  C8  UNL     1       0.976   0.936  -0.734  1.00  0.00     0.184 C 
HETATM    8  N1  UNL     1      -0.214   0.549  -0.066  1.00  0.00    -0.312 N 
HETATM    9  N2  UNL     1      -0.507   1.177   1.115  1.00  0.00    -0.295 N 
HETATM   10  C9  UNL     1      -1.757   1.895   1.191  1.00  0.00     0.234 C 
HETATM   11  N3  UNL     1      -2.954   2.346   1.466  1.00  0.00    -0.187 NA
HETATM   12  S1  UNL     1      -3.913   1.535   2.691  1.00  0.00     0.116 SA
HETATM   13  N4  UNL     1      -5.601   1.832   2.433  1.00  0.00    -0.200 NA
HETATM   14  P1  UNL     1      -6.289   1.666   0.974  1.00  0.00     0.075 P 
HETATM   15  C10 UNL     1      -5.264   1.138  -0.507  1.00  0.00     0.094 C 
HETATM   16  C11 UNL     1      -5.247  -0.346  -0.592  1.00  0.00     0.007 C 
HETATM   17  C12 UNL     1      -4.659  -1.539  -0.609  1.00  0.00     0.069 C 
HETATM   18 CL1  UNL     1      -5.316  -3.181  -0.763  1.00  0.00    -0.081 Cl
HETATM   19  C13 UNL     1      -3.211  -1.593  -0.478  1.00  0.00     0.136 C 
HETATM   20  F1  UNL     1      -2.454  -2.718  -0.476  1.00  0.00    -0.205 F 
HETATM   21  C14 UNL     1      -2.035  -1.019  -0.334  1.00  0.00     0.046 C 
HETATM   22  C15 UNL     1      -0.569  -0.821  -0.185  1.00  0.00     0.152 C 
HETATM   23  C16 UNL     1      -0.097  -1.690   0.970  1.00  0.00     0.206 C 
HETATM   24  O2  UNL     1       1.302  -1.813   0.958  1.00  0.00    -0.348 OA
HETATM   25  H9  UNL     1      -0.257   1.432   2.105  1.00  0.00     0.187 HD
ENDROOT
BRANCH   1  26
HETATM   26  O1  UNL     1       5.637   0.830  -1.211  1.00  0.00    -0.356 OA
HETATM   27  C1  UNL     1       6.983   0.459  -1.135  1.00  0.00     0.210 C 
ENDBRANCH   1  26
TORSDOF 1
