REMARK  4 active torsions:
REMARK  status: ('A' for Active; 'I' for Inactive)
REMARK    1  A    between atoms: B1_1  and  C1_2 
REMARK    2  A    between atoms: C1_2  and  C2_3 
REMARK    3  A    between atoms: C2_3  and  N1_4 
REMARK    4  A    between atoms: C17_22  and  O1_23 
ROOT
HETATM    1  N1  UNL     1      -2.543   1.430  -1.056  1.00  0.00    -0.261 N 
HETATM    2  N2  UNL     1      -1.624   2.246  -0.374  1.00  0.00    -0.288 N 
HETATM    3  C3  UNL     1      -0.182   2.500  -0.358  1.00  0.00     0.220 C 
HETATM    4  N3  UNL     1       0.676   1.716   0.152  1.00  0.00    -0.252 NA
HETATM    5  C4  UNL     1       2.145   1.854   0.230  1.00  0.00     0.253 C 
HETATM    6  C5  UNL     1       2.705   1.286   1.476  1.00  0.00     0.023 C 
HETATM    7  C6  UNL     1       2.574   0.149   2.138  1.00  0.00    -0.000 C 
HETATM    8  C7  UNL     1       2.391  -1.272   1.860  1.00  0.00    -0.003 C 
HETATM    9  C8  UNL     1       2.423  -1.928   0.672  1.00  0.00    -0.016 C 
HETATM   10  C9  UNL     1       2.566  -1.741  -0.785  1.00  0.00     0.052 C 
HETATM   11  C10 UNL     1       2.466  -0.265  -0.798  1.00  0.00     0.095 C 
HETATM   12  N4  UNL     1       2.593   1.004  -0.870  1.00  0.00    -0.274 NA
HETATM   13  C11 UNL     1       1.435  -2.282  -1.671  1.00  0.00     0.055 C 
HETATM   14  C12 UNL     1       0.283  -1.428  -1.436  1.00  0.00    -0.024 A 
HETATM   15  C13 UNL     1      -0.118  -0.389  -2.217  1.00  0.00     0.012 A 
HETATM   16  C14 UNL     1      -0.906   0.661  -2.511  1.00  0.00     0.032 A 
HETATM   17  C15 UNL     1      -1.560   0.390  -1.324  1.00  0.00     0.059 A 
HETATM   18  C16 UNL     1      -1.467  -0.532  -0.299  1.00  0.00     0.068 A 
HETATM   19  C17 UNL     1      -0.498  -1.546  -0.290  1.00  0.00     0.076 A 
HETATM   20  H3  UNL     1      -1.866   2.948   0.389  1.00  0.00     0.188 HD
ENDROOT
BRANCH   1  21
HETATM   21  C2  UNL     1      -3.835   2.019  -1.107  1.00  0.00     0.151 C 
BRANCH  21  22
HETATM   22  C1  UNL     1      -4.367   2.200   0.088  1.00  0.00    -0.213 C 
BRANCH  22  23
HETATM   23  B1  UNL     1      -5.200   2.204   1.668  1.00  0.00     0.213 B 
HETATM   24  H1  UNL     1      -6.164   2.849   2.745  1.00  0.00    -0.021 HD
ENDBRANCH  22  23
ENDBRANCH  21  22
ENDBRANCH   1  21
BRANCH  19  25
HETATM   25  O1  UNL     1      -0.412  -2.471   0.740  1.00  0.00    -0.355 OA
HETATM   26  C18 UNL     1      -1.229  -2.536   1.865  1.00  0.00     0.210 C 
ENDBRANCH  19  25
TORSDOF 4
