REMARK  5 active torsions:
REMARK  status: ('A' for Active; 'I' for Inactive)
REMARK    1  A    between atoms: C2_2  and  C13_17 
REMARK    2  A    between atoms: C3_3  and  C4_4 
REMARK    3  A    between atoms: N1_5  and  C5_6 
REMARK    4  A    between atoms: C6_7  and  C7_8 
REMARK    5  A    between atoms: C13_17  and  C14_18 
ROOT
HETATM    1  C4  UNL     1      -0.182  -1.251  -2.202  1.00  0.00     0.117 C 
HETATM    2  N1  UNL     1      -1.398  -0.894  -2.495  1.00  0.00    -0.264 NA
ENDROOT
BRANCH   2   3
HETATM    3  C5  UNL     1      -1.795   0.438  -2.198  1.00  0.00     0.052 C 
HETATM    4  C6  UNL     1      -2.427   0.919  -1.146  1.00  0.00     0.001 C 
HETATM    5  C11 UNL     1      -2.697   2.403  -1.162  1.00  0.00     0.116 C 
HETATM    6  S1  UNL     1      -1.455   2.938  -2.369  1.00  0.00    -0.158 SA
HETATM    7  C12 UNL     1      -1.394   1.348  -3.294  1.00  0.00     0.134 C 
BRANCH   4   8
HETATM    8  C7  UNL     1      -2.817  -0.012  -0.058  1.00  0.00     0.046 A 
HETATM    9  N2  UNL     1      -2.541  -1.264  -0.150  1.00  0.00    -0.246 NA
HETATM   10  C8  UNL     1      -2.928  -2.129   0.906  1.00  0.00     0.226 A 
HETATM   11  N3  UNL     1      -3.538  -1.696   1.936  1.00  0.00    -0.282 NA
HETATM   12  C9  UNL     1      -3.895  -0.327   2.140  1.00  0.00     0.156 A 
HETATM   13  C10 UNL     1      -3.515   0.641   1.067  1.00  0.00     0.082 A 
ENDBRANCH   4   8
ENDBRANCH   2   3
BRANCH   1  14
HETATM   14  C3  UNL     1       0.854  -0.444  -1.594  1.00  0.00     0.022 C 
HETATM   15  C2  UNL     1       2.064  -0.846  -1.321  1.00  0.00    -0.079 C 
HETATM   16  C1  UNL     1       2.489  -2.227  -1.629  1.00  0.00     0.044 C 
BRANCH  15  17
HETATM   17  C13 UNL     1       3.042   0.074  -0.692  1.00  0.00     0.066 C 
BRANCH  17  18
HETATM   18  C14 UNL     1       3.512  -0.444   0.609  1.00  0.00     0.044 C 
HETATM   19  C15 UNL     1       3.411   0.091   1.819  1.00  0.00     0.213 C 
HETATM   20  O1  UNL     1       3.835  -0.356   3.067  1.00  0.00    -0.300 OA
HETATM   21  O3  UNL     1       2.835   1.282   2.189  1.00  0.00    -0.170 OA
HETATM   22  C16 UNL     1       4.288   0.797   3.776  1.00  0.00     0.388 C 
HETATM   23  O2  UNL     1       3.596   1.825   3.168  1.00  0.00    -0.207 OA
ENDBRANCH  17  18
ENDBRANCH  15  17
ENDBRANCH   1  14
TORSDOF 5
