REMARK  2 active torsions:
REMARK  status: ('A' for Active; 'I' for Inactive)
REMARK    1  A    between atoms: O1_2  and  C2_3 
REMARK    2  A    between atoms: C9_11  and  N2_12 
ROOT
HETATM    1  C2  UNL     1       2.995  -0.795   0.185  1.00  0.00     0.148 A 
HETATM    2  C3  UNL     1       3.465  -2.017   0.602  1.00  0.00     0.058 A 
HETATM    3  C4  UNL     1       2.350  -2.781   0.713  1.00  0.00     0.030 A 
HETATM    4  C5  UNL     1       1.217  -2.071   0.379  1.00  0.00     0.022 A 
HETATM    5  N1  UNL     1       1.636  -0.839   0.053  1.00  0.00    -0.299 N 
HETATM    6  C6  UNL     1       1.071   0.418  -0.392  1.00  0.00     0.024 C 
HETATM    7  C7  UNL     1       1.143   1.434   0.496  1.00  0.00     0.006 C 
HETATM    8  C8  UNL     1       0.337   2.671   0.769  1.00  0.00     0.092 C 
HETATM    9  C9  UNL     1      -1.014   2.534   0.101  1.00  0.00     0.034 C 
HETATM   10  S1  UNL     1      -1.195   1.451  -1.117  1.00  0.00    -0.168 SA
HETATM   11  C10 UNL     1       0.418   0.830  -1.691  1.00  0.00     0.127 C 
HETATM   12  C11 UNL     1      -2.787   0.598  -1.219  1.00  0.00     0.078 C 
HETATM   13  C12 UNL     1      -3.278  -0.022   0.039  1.00  0.00     0.012 C 
HETATM   14  C13 UNL     1      -4.654  -0.592  -0.204  1.00  0.00     0.015 C 
HETATM   15  C14 UNL     1      -2.355  -1.073   0.573  1.00  0.00    -0.025 C 
HETATM   16  C15 UNL     1      -1.240  -1.725   0.295  1.00  0.00    -0.024 C 
HETATM   17  C16 UNL     1      -0.114  -2.640   0.402  1.00  0.00     0.084 C 
ENDROOT
BRANCH   9  18
HETATM   18  N2  UNL     1      -2.085   3.350   0.554  1.00  0.00    -0.397 N 
HETATM   19  H9  UNL     1      -3.086   3.146   0.706  1.00  0.00     0.156 HD
HETATM   20  H10 UNL     1      -1.881   4.350   0.793  1.00  0.00     0.156 HD
ENDBRANCH   9  18
BRANCH   1  21
HETATM   21  O1  UNL     1       3.926   0.243  -0.028  1.00  0.00    -0.340 OA
HETATM   22  C1  UNL     1       5.293   0.087   0.163  1.00  0.00     0.211 C 
ENDBRANCH   1  21
TORSDOF 2
