REMARK  4 active torsions:
REMARK  status: ('A' for Active; 'I' for Inactive)
REMARK    1  A    between atoms: C3_4  and  C4_5 
REMARK    2  A    between atoms: C4_5  and  N1_6 
REMARK    3  A    between atoms: N1_6  and  C5_7 
REMARK    4  A    between atoms: C10_14  and  C11_15 
ROOT
HETATM    1  C5  UNL     1      -1.403  -1.288  -1.427  1.00  0.00     0.137 A 
HETATM    2  N2  UNL     1      -2.387  -2.192  -1.368  1.00  0.00    -0.224 NA
HETATM    3  C6  UNL     1      -2.286  -3.354  -0.693  1.00  0.00     0.235 A 
HETATM    4  N3  UNL     1      -1.132  -3.664  -0.020  1.00  0.00    -0.241 NA
HETATM    5  C7  UNL     1      -0.102  -2.761  -0.059  1.00  0.00     0.072 A 
HETATM    6  C8  UNL     1       0.977  -3.157   0.732  1.00  0.00     0.033 A 
HETATM    7  C9  UNL     1       2.003  -2.312   0.846  1.00  0.00     0.010 A 
HETATM    8  C10 UNL     1       1.819  -1.148   0.141  1.00  0.00    -0.045 A 
HETATM    9  C18 UNL     1       0.761  -0.701  -0.674  1.00  0.00     0.025 A 
HETATM   10  C19 UNL     1      -0.250  -1.607  -0.747  1.00  0.00     0.039 A 
ENDROOT
BRANCH   8  11
HETATM   11  C11 UNL     1       2.823   0.074   0.459  1.00  0.00     0.028 A 
HETATM   12  C12 UNL     1       3.868   0.346  -0.293  1.00  0.00     0.044 A 
HETATM   13  C13 UNL     1       3.449   1.062   0.888  1.00  0.00     0.066 A 
HETATM   14  C14 UNL     1       2.207   0.812   1.909  1.00  0.00     0.046 A 
HETATM   15  O2  UNL     1       4.742   1.819   0.344  1.00  0.00    -0.378 OA
HETATM   16  C16 UNL     1       2.966   1.237   1.556  1.00  0.00     0.017 A 
HETATM   17  C15 UNL     1       2.442   1.843   2.723  1.00  0.00     0.013 A 
HETATM   18  O1  UNL     1       3.731   2.488   2.142  1.00  0.00     0.000 OA
HETATM   19  C17 UNL     1       4.945   2.905   1.367  1.00  0.00     0.195 A 
ENDBRANCH   8  11
BRANCH   1  20
HETATM   20  N1  UNL     1      -1.484  -0.084  -2.236  1.00  0.00    -0.369 N 
HETATM   21  H5  UNL     1      -0.727   0.583  -2.457  1.00  0.00     0.161 HD
BRANCH  20  22
HETATM   22  C4  UNL     1      -2.880   0.075  -2.742  1.00  0.00     0.167 C 
BRANCH  22  23
HETATM   23  C3  UNL     1      -3.681   0.567  -1.628  1.00  0.00     0.000 A 
HETATM   24  S1  UNL     1      -3.664   2.414  -1.617  1.00  0.00    -0.105 SA
HETATM   25  C2  UNL     1      -4.713   2.596  -0.067  1.00  0.00     0.050 A 
HETATM   26  C1  UNL     1      -5.028   1.200   0.364  1.00  0.00     0.008 A 
HETATM   27  C20 UNL     1      -4.442   0.437  -0.515  1.00  0.00     0.017 A 
ENDBRANCH  22  23
ENDBRANCH  20  22
ENDBRANCH   1  20
TORSDOF 4
