REMARK  2 active torsions:
REMARK  status: ('A' for Active; 'I' for Inactive)
REMARK    1  A    between atoms: C6_6  and  C7_7 
REMARK    2  A    between atoms: O1_13  and  O2_14 
ROOT
HETATM    1  C1  UNL     1      -0.460  -1.932   1.046  1.00  0.00     0.105 A 
HETATM    2  C2  UNL     1       0.207  -1.424  -0.009  1.00  0.00     0.030 A 
HETATM    3  C3  UNL     1      -0.193  -0.033   0.354  1.00  0.00     0.106 A 
HETATM    4  C4  UNL     1      -1.085   0.723  -0.523  1.00  0.00    -0.015 A 
HETATM    5  C5  UNL     1      -0.208   1.628  -0.728  1.00  0.00    -0.003 A 
HETATM    6  C6  UNL     1       0.771   0.979   0.156  1.00  0.00     0.081 A 
HETATM    7  C13 UNL     1      -2.490   0.308  -0.759  1.00  0.00    -0.012 A 
HETATM    8  C14 UNL     1      -3.122   0.372  -1.944  1.00  0.00     0.020 A 
HETATM    9  C15 UNL     1      -4.457  -0.041  -1.938  1.00  0.00     0.051 A 
HETATM   10  S1  UNL     1      -4.887  -0.532  -0.301  1.00  0.00    -0.104 SA
HETATM   11  C16 UNL     1      -3.223  -0.173   0.408  1.00  0.00     0.008 A 
HETATM   12  C17 UNL     1      -3.082  -0.426   1.847  1.00  0.00     0.157 C 
HETATM   13  N1  UNL     1      -1.744  -0.094   2.383  1.00  0.00    -0.233 NA
HETATM   14  N2  UNL     1      -0.879  -0.603   1.416  1.00  0.00    -0.304 N 
HETATM   15  H12 UNL     1      -1.653   0.939   2.361  1.00  0.00     0.147 HD
ENDROOT
BRANCH   6  16
HETATM   16  C7  UNL     1       2.063   0.711  -0.472  1.00  0.00    -0.040 A 
HETATM   17  C8  UNL     1       2.788   0.746  -1.626  1.00  0.00     0.009 A 
HETATM   18  C9  UNL     1       4.080   0.333  -1.642  1.00  0.00     0.009 A 
HETATM   19  C10 UNL     1       4.428  -0.070  -0.393  1.00  0.00    -0.042 A 
HETATM   20  C11 UNL     1       4.128  -0.304   1.029  1.00  0.00     0.066 A 
HETATM   21  O2  UNL     1       4.867  -0.488   0.793  1.00  0.00     0.000 OA
HETATM   22  C12 UNL     1       2.874   0.225   0.492  1.00  0.00    -0.034 A 
HETATM   23  O1  UNL     1       3.503  -0.227   1.563  1.00  0.00     0.000 OA
ENDBRANCH   6  16
TORSDOF 2
