REMARK  6 active torsions:
REMARK  status: ('A' for Active; 'I' for Inactive)
REMARK    1  A    between atoms: B1_1  and  C1_2 
REMARK    2  A    between atoms: C3_5  and  C4_6 
REMARK    3  A    between atoms: C7_9  and  S1_10 
REMARK    4  A    between atoms: S1_10  and  N2_13 
REMARK    5  A    between atoms: N2_13  and  C8_14 
REMARK    6  A    between atoms: C16_24  and  C17_25 
REMARK       I    between atoms: C17_25  and  N4_27 
ROOT
HETATM    1  C4  UNL     1      -0.636   0.850   1.244  1.00  0.00    -0.035 A 
HETATM    2  C5  UNL     1      -0.652  -0.404   0.818  1.00  0.00    -0.010 A 
HETATM    3  C6  UNL     1       0.631  -1.143   1.106  1.00  0.00     0.080 A 
HETATM    4  C7  UNL     1       1.422  -0.094   1.783  1.00  0.00     0.061 A 
HETATM    5  C15 UNL     1       0.688   1.003   1.843  1.00  0.00     0.032 A 
ENDROOT
BRANCH   1   6
HETATM    6  C3  UNL     1      -1.679   1.864   1.149  1.00  0.00     0.063 C 
HETATM    7  C2  UNL     1      -2.874   1.627   0.570  1.00  0.00     0.153 A 
HETATM    8  N1  UNL     1      -3.707   2.808   0.624  1.00  0.00    -0.230 NA
HETATM    9  N3  UNL     1      -3.359   0.390   0.040  1.00  0.00    -0.206 NA
HETATM   10  C1  UNL     1      -4.911   2.770   0.197  1.00  0.00     0.047 A 
HETATM   11  N5  UNL     1      -5.348   1.531  -0.310  1.00  0.00    -0.335 N 
HETATM   12  C16 UNL     1      -4.552   0.363  -0.375  1.00  0.00     0.199 A 
HETATM   13  H19 UNL     1      -6.352   1.490  -0.662  1.00  0.00     0.168 HD
BRANCH  10  14
HETATM   14  B1  UNL     1      -5.844   4.036   0.239  1.00  0.00     0.221 B 
HETATM   15  H1  UNL     1      -7.003   3.852  -0.006  1.00  0.00    -0.023 HD
HETATM   16  H2  UNL     1      -5.533   4.953   0.950  1.00  0.00    -0.023 HD
ENDBRANCH  10  14
BRANCH  12  17
HETATM   17  C17 UNL     1      -5.102  -0.875  -0.928  1.00  0.00     0.287 C 
HETATM   18  O3  UNL     1      -6.318  -0.856  -1.334  1.00  0.00    -0.264 OA
HETATM   19  N4  UNL     1      -4.398  -2.077  -1.048  1.00  0.00    -0.359 N 
HETATM   20  C18 UNL     1      -4.835  -3.345  -1.574  1.00  0.00     0.149 C 
HETATM   21  H15 UNL     1      -3.419  -1.999  -0.696  1.00  0.00     0.162 HD
ENDBRANCH  12  17
ENDBRANCH   1   6
BRANCH   4  22
HETATM   22  S1  UNL     1       3.062  -0.195   2.436  1.00  0.00     0.259 S 
HETATM   23  O1  UNL     1       3.310  -1.614   2.915  1.00  0.00    -0.201 OA
HETATM   24  O2  UNL     1       3.173   0.745   3.599  1.00  0.00    -0.201 OA
BRANCH  22  25
HETATM   25  N2  UNL     1       4.233   0.255   1.255  1.00  0.00    -0.280 N 
HETATM   26  H7  UNL     1       4.844   1.084   1.452  1.00  0.00     0.179 HD
BRANCH  25  27
HETATM   27  C8  UNL     1       4.512  -0.357  -0.001  1.00  0.00     0.051 A 
HETATM   28  C9  UNL     1       3.933  -1.604  -0.111  1.00  0.00     0.031 A 
HETATM   29  C10 UNL     1       4.123  -2.318  -1.287  1.00  0.00     0.005 A 
HETATM   30  C11 UNL     1       4.894  -1.732  -2.302  1.00  0.00     0.043 A 
HETATM   31  C12 UNL     1       5.440  -0.490  -2.126  1.00  0.00     0.124 A 
HETATM   32  F1  UNL     1       6.200   0.079  -3.121  1.00  0.00    -0.205 F 
HETATM   33  C13 UNL     1       5.275   0.253  -0.971  1.00  0.00     0.004 A 
HETATM   34  C14 UNL     1       5.853   1.602  -0.737  1.00  0.00     0.054 C 
ENDBRANCH  25  27
ENDBRANCH  22  25
ENDBRANCH   4  22
TORSDOF 6
