REMARK  7 active torsions:
REMARK  status: ('A' for Active; 'I' for Inactive)
REMARK    1  A    between atoms: O1_2  and  C2_3 
REMARK    2  A    between atoms: C6_8  and  N2_9 
REMARK    3  A    between atoms: N2_9  and  C7_10 
REMARK    4  A    between atoms: N3_25  and  C19_26 
REMARK    5  A    between atoms: C19_26  and  C20_27 
REMARK    6  A    between atoms: C20_27  and  C21_28 
REMARK    7  A    between atoms: C21_28  and  N4_29 
ROOT
HETATM    1  C2  UNL     1      -0.089   2.886   0.032  1.00  0.00     0.055 C 
HETATM    2  C3  UNL     1       1.141   2.442  -0.148  1.00  0.00    -0.014 A 
HETATM    3  C4  UNL     1       2.362   3.278   0.005  1.00  0.00     0.088 A 
HETATM    4  C5  UNL     1       3.594   2.493  -0.257  1.00  0.00     0.096 A 
HETATM    5  N1  UNL     1       3.623   1.243  -0.579  1.00  0.00    -0.246 NA
HETATM    6  C6  UNL     1       2.415   0.467  -0.720  1.00  0.00     0.134 A 
HETATM    7  C13 UNL     1       1.212   1.032  -0.515  1.00  0.00    -0.001 A 
HETATM    8  C14 UNL     1       0.024   0.158  -0.685  1.00  0.00     0.087 C 
HETATM    9  C15 UNL     1      -1.038   0.639   0.300  1.00  0.00     0.190 C 
HETATM   10  C16 UNL     1      -0.395   0.691   1.643  1.00  0.00     0.210 C 
HETATM   11  O2  UNL     1      -1.141   0.341   2.727  1.00  0.00    -0.387 OA
HETATM   12  C17 UNL     1      -2.118  -0.599   2.539  1.00  0.00     0.198 C 
HETATM   13  C18 UNL     1      -3.001  -0.001   1.433  1.00  0.00     0.299 C 
HETATM   14  N3  UNL     1      -2.214  -0.167   0.233  1.00  0.00     0.103 N 
HETATM   15  C22 UNL     1      -1.325   2.090  -0.111  1.00  0.00     0.109 C 
ENDROOT
BRANCH  14  16
HETATM   16  C19 UNL     1      -2.954   0.034  -0.965  1.00  0.00     0.275 C 
BRANCH  16  17
HETATM   17  C20 UNL     1      -3.992  -1.024  -1.227  1.00  0.00     0.060 C 
BRANCH  17  18
HETATM   18  C21 UNL     1      -3.380  -2.404  -1.350  1.00  0.00     0.268 C 
BRANCH  18  19
HETATM   19  N4  UNL     1      -4.384  -3.422  -1.604  1.00  0.00     0.078 N 
HETATM   20  H25 UNL     1      -5.365  -3.042  -1.461  1.00  0.00     0.312 HD
HETATM   21  H26 UNL     1      -4.317  -4.210  -0.910  1.00  0.00     0.312 HD
ENDBRANCH  18  19
ENDBRANCH  17  18
ENDBRANCH  16  17
ENDBRANCH  14  16
BRANCH   1  22
HETATM   22  O1  UNL     1      -0.198   4.243   0.390  1.00  0.00    -0.360 OA
HETATM   23  C1  UNL     1      -0.419   5.215  -0.602  1.00  0.00     0.209 C 
ENDBRANCH   1  22
BRANCH   6  24
HETATM   24  N2  UNL     1       2.563  -0.896  -1.079  1.00  0.00    -0.341 N 
HETATM   25  H7  UNL     1       1.997  -0.996  -1.972  1.00  0.00     0.167 HD
BRANCH  24  26
HETATM   26  C7  UNL     1       3.248  -1.991  -0.518  1.00  0.00     0.035 A 
HETATM   27  C8  UNL     1       3.180  -3.216  -1.153  1.00  0.00     0.032 A 
HETATM   28  C9  UNL     1       3.863  -4.250  -0.571  1.00  0.00     0.046 A 
HETATM   29  C10 UNL     1       4.605  -4.163   0.588  1.00  0.00     0.138 A 
HETATM   30  F1  UNL     1       5.231  -5.243   1.064  1.00  0.00    -0.204 F 
HETATM   31  C11 UNL     1       4.633  -2.907   1.175  1.00  0.00     0.074 A 
HETATM   32 CL1  UNL     1       5.576  -2.776   2.656  1.00  0.00    -0.081 Cl
HETATM   33  C12 UNL     1       3.962  -1.813   0.637  1.00  0.00     0.056 A 
ENDBRANCH  24  26
ENDBRANCH   6  24
TORSDOF 7
