REMARK  5 active torsions:
REMARK  status: ('A' for Active; 'I' for Inactive)
REMARK    1  A    between atoms: O1_2  and  C2_3 
REMARK    2  A    between atoms: C6_9  and  N3_10 
REMARK    3  A    between atoms: N3_10  and  C7_11 
REMARK    4  A    between atoms: C15_21  and  O2_22 
REMARK    5  A    between atoms: O2_22  and  C16_23 
ROOT
HETATM    1  C2  UNL     1      -1.906  -1.991   0.139  1.00  0.00     0.104 A 
HETATM    2  C3  UNL     1      -1.074  -3.003  -0.241  1.00  0.00     0.072 A 
HETATM    3  C4  UNL     1       0.157  -2.803  -0.807  1.00  0.00     0.075 A 
HETATM    4  N1  UNL     1       0.916  -3.863  -1.153  1.00  0.00    -0.241 NA
HETATM    5  C5  UNL     1       2.135  -3.688  -1.713  1.00  0.00     0.236 A 
HETATM    6  N2  UNL     1       2.591  -2.430  -1.926  1.00  0.00    -0.224 NA
HETATM    7  C6  UNL     1       1.858  -1.345  -1.592  1.00  0.00     0.142 A 
HETATM    8  C13 UNL     1       0.599  -1.492  -1.014  1.00  0.00     0.042 A 
HETATM    9  C14 UNL     1      -0.223  -0.451  -0.639  1.00  0.00     0.057 A 
HETATM   10  C15 UNL     1      -1.461  -0.693  -0.070  1.00  0.00     0.109 A 
ENDROOT
BRANCH   7  11
HETATM   11  N3  UNL     1       2.296  -0.008  -1.797  1.00  0.00    -0.340 N 
HETATM   12  H6  UNL     1       2.099   0.484  -2.679  1.00  0.00     0.167 HD
BRANCH  11  13
HETATM   13  C7  UNL     1       3.024   0.744  -0.834  1.00  0.00     0.035 A 
HETATM   14  C8  UNL     1       3.466   2.050  -1.026  1.00  0.00     0.032 A 
HETATM   15  C9  UNL     1       4.162   2.747  -0.080  1.00  0.00     0.046 A 
HETATM   16  C10 UNL     1       4.462   2.173   1.132  1.00  0.00     0.138 A 
HETATM   17  F1  UNL     1       5.147   2.842   2.078  1.00  0.00    -0.204 F 
HETATM   18  C11 UNL     1       4.042   0.895   1.349  1.00  0.00     0.074 A 
HETATM   19 CL1  UNL     1       4.420   0.142   2.903  1.00  0.00    -0.081 Cl
HETATM   20  C12 UNL     1       3.336   0.194   0.383  1.00  0.00     0.056 A 
ENDBRANCH  11  13
ENDBRANCH   7  11
BRANCH  10  21
HETATM   21  O2  UNL     1      -2.255   0.415   0.292  1.00  0.00    -0.320 OA
BRANCH  21  22
HETATM   22  C16 UNL     1      -1.732   1.672   0.048  1.00  0.00     0.149 C 
HETATM   23  C17 UNL     1      -2.716   2.459   0.477  1.00  0.00    -0.011 C 
HETATM   24  C18 UNL     1      -4.057   2.205   1.074  1.00  0.00     0.206 C 
HETATM   25  C19 UNL     1      -3.141   3.873   0.653  1.00  0.00     0.206 C 
HETATM   26  O3  UNL     1      -4.472   3.416   0.525  1.00  0.00    -0.383 OA
ENDBRANCH  21  22
ENDBRANCH  10  21
BRANCH   1  27
HETATM   27  O1  UNL     1      -3.161  -2.098   0.716  1.00  0.00    -0.353 OA
HETATM   28  C1  UNL     1      -3.736  -3.358   0.984  1.00  0.00     0.210 C 
ENDBRANCH   1  27
TORSDOF 5
