REMARK  2 active torsions:
REMARK  status: ('A' for Active; 'I' for Inactive)
REMARK    1  A    between atoms: O1_2  and  C2_3 
REMARK       I    between atoms: C10_12  and  N2_13 
REMARK    2  A    between atoms: N2_13  and  C11_14 
ROOT
HETATM    1  C2  UNL     1      -2.162   1.342   0.396  1.00  0.00     0.069 A 
HETATM    2  C3  UNL     1      -2.687   0.194   0.953  1.00  0.00     0.039 A 
HETATM    3  C4  UNL     1      -2.590  -0.976   0.187  1.00  0.00     0.034 A 
HETATM    4  C5  UNL     1      -2.015  -1.098  -1.083  1.00  0.00     0.058 A 
HETATM    5  C6  UNL     1      -1.496   0.068  -1.621  1.00  0.00    -0.003 A 
HETATM    6  C7  UNL     1      -1.595   1.223  -0.858  1.00  0.00     0.050 A 
HETATM    7  C8  UNL     1      -0.888   0.279  -2.933  1.00  0.00     0.047 C 
HETATM    8  C9  UNL     1      -0.349  -0.827  -3.426  1.00  0.00     0.084 C 
HETATM    9  N1  UNL     1       0.199  -1.457  -2.439  1.00  0.00    -0.241 NA
HETATM   10  C10 UNL     1       0.910  -0.821  -1.498  1.00  0.00     0.336 C 
HETATM   11  N2  UNL     1       0.988  -0.631  -0.137  1.00  0.00    -0.349 N 
HETATM   12  N3  UNL     1       1.964  -1.916  -1.453  1.00  0.00    -0.242 NA
HETATM   13  C17 UNL     1       1.415  -3.078  -1.141  1.00  0.00     0.189 C 
HETATM   14  N4  UNL     1      -0.011  -3.041  -0.924  1.00  0.00    -0.215 NA
HETATM   15  O2  UNL     1      -1.208  -3.448  -1.386  1.00  0.00     0.000 OA
HETATM   16  N5  UNL     1      -2.113  -2.449  -1.449  1.00  0.00    -0.300 N 
HETATM   17  H9  UNL     1       0.315  -1.142   0.470  1.00  0.00     0.163 HD
HETATM   18  H14 UNL     1      -0.165  -3.659  -1.782  1.00  0.00     0.148 HD
HETATM   19  H15 UNL     1      -3.083  -2.564  -1.791  1.00  0.00     0.187 HD
ENDROOT
BRANCH  11  20
HETATM   20  C11 UNL     1       1.940   0.208   0.512  1.00  0.00     0.032 A 
HETATM   21  C12 UNL     1       2.963   0.891  -0.106  1.00  0.00     0.032 A 
HETATM   22  C13 UNL     1       3.856   1.694   0.557  1.00  0.00     0.046 A 
HETATM   23  C14 UNL     1       3.767   1.858   1.905  1.00  0.00     0.138 A 
HETATM   24  F1  UNL     1       4.626   2.641   2.600  1.00  0.00    -0.204 F 
HETATM   25  C15 UNL     1       2.746   1.177   2.534  1.00  0.00     0.074 A 
HETATM   26 CL1  UNL     1       2.559   1.333   4.275  1.00  0.00    -0.081 Cl
HETATM   27  C16 UNL     1       1.857   0.374   1.854  1.00  0.00     0.056 A 
ENDBRANCH  11  20
BRANCH   1  28
HETATM   28  O1  UNL     1      -2.221   2.523   1.090  1.00  0.00    -0.356 OA
HETATM   29  C1  UNL     1      -2.807   2.578   2.353  1.00  0.00     0.210 C 
ENDBRANCH   1  28
TORSDOF 2
