REMARK  8 active torsions:
REMARK  status: ('A' for Active; 'I' for Inactive)
REMARK    1  A    between atoms: O1_2  and  C2_3 
REMARK    2  A    between atoms: C6_9  and  N3_10 
REMARK    3  A    between atoms: N3_10  and  C7_11 
REMARK    4  A    between atoms: C15_21  and  O2_22 
REMARK    5  A    between atoms: O2_22  and  C16_23 
REMARK    6  A    between atoms: C16_23  and  C17_24 
REMARK    7  A    between atoms: C17_24  and  C18_25 
REMARK    8  A    between atoms: C18_25  and  N4_26 
ROOT
HETATM    1  C2  UNL     1      -0.296  -3.694  -0.089  1.00  0.00     0.103 A 
HETATM    2  C3  UNL     1      -1.601  -4.094  -0.281  1.00  0.00     0.072 A 
HETATM    3  C4  UNL     1      -2.602  -3.150  -0.305  1.00  0.00     0.075 A 
HETATM    4  N1  UNL     1      -3.899  -3.545  -0.490  1.00  0.00    -0.241 NA
HETATM    5  C5  UNL     1      -4.899  -2.677  -0.518  1.00  0.00     0.236 A 
HETATM    6  N2  UNL     1      -4.616  -1.391  -0.361  1.00  0.00    -0.224 NA
HETATM    7  C6  UNL     1      -3.405  -0.853  -0.171  1.00  0.00     0.142 A 
HETATM    8  C13 UNL     1      -2.407  -1.795  -0.149  1.00  0.00     0.042 A 
HETATM    9  C14 UNL     1      -1.081  -1.462   0.039  1.00  0.00     0.057 A 
HETATM   10  C15 UNL     1      -0.024  -2.344   0.077  1.00  0.00     0.103 A 
ENDROOT
BRANCH   7  11
HETATM   11  N3  UNL     1      -3.127   0.514  -0.014  1.00  0.00    -0.340 N 
HETATM   12  H6  UNL     1      -2.180   0.888   0.094  1.00  0.00     0.167 HD
BRANCH  11  13
HETATM   13  C7  UNL     1      -4.079   1.551   0.018  1.00  0.00     0.035 A 
HETATM   14  C8  UNL     1      -5.415   1.347   0.257  1.00  0.00     0.032 A 
HETATM   15  C9  UNL     1      -6.370   2.342   0.274  1.00  0.00     0.046 A 
HETATM   16  C10 UNL     1      -5.999   3.648   0.039  1.00  0.00     0.138 A 
HETATM   17  F1  UNL     1      -6.882   4.674   0.042  1.00  0.00    -0.204 F 
HETATM   18  C11 UNL     1      -4.660   3.934  -0.211  1.00  0.00     0.074 A 
HETATM   19 CL1  UNL     1      -4.125   5.578  -0.518  1.00  0.00    -0.081 Cl
HETATM   20  C12 UNL     1      -3.780   2.879  -0.208  1.00  0.00     0.056 A 
ENDBRANCH  11  13
ENDBRANCH   7  11
BRANCH  10  21
HETATM   21  O2  UNL     1       1.299  -1.994   0.268  1.00  0.00    -0.348 OA
BRANCH  21  22
HETATM   22  C16 UNL     1       1.705  -0.657   0.456  1.00  0.00     0.177 C 
BRANCH  22  23
HETATM   23  C17 UNL     1       3.189  -0.534   0.645  1.00  0.00     0.057 C 
BRANCH  23  24
HETATM   24  C18 UNL     1       3.662   0.867   0.866  1.00  0.00     0.274 C 
BRANCH  24  25
HETATM   25  N4  UNL     1       3.381   1.787  -0.189  1.00  0.00     0.092 N 
HETATM   26  C19 UNL     1       4.112   1.552  -1.411  1.00  0.00     0.298 C 
HETATM   27  C20 UNL     1       5.591   1.509  -1.086  1.00  0.00     0.198 C 
HETATM   28  O3  UNL     1       6.057   2.613  -0.426  1.00  0.00    -0.388 OA
HETATM   29  C21 UNL     1       5.273   3.100   0.587  1.00  0.00     0.198 C 
HETATM   30  C22 UNL     1       3.799   3.113   0.268  1.00  0.00     0.298 C 
ENDBRANCH  24  25
ENDBRANCH  23  24
ENDBRANCH  22  23
ENDBRANCH  21  22
ENDBRANCH  10  21
BRANCH   1  31
HETATM   31  O1  UNL     1       0.737  -4.617  -0.059  1.00  0.00    -0.353 OA
HETATM   32  C1  UNL     1       0.508  -6.003  -0.224  1.00  0.00     0.210 C 
ENDBRANCH   1  31
TORSDOF 8
