REMARK  8 active torsions:
REMARK  status: ('A' for Active; 'I' for Inactive)
REMARK    1  A    between atoms: O1_2  and  C2_3 
REMARK    2  A    between atoms: C2_3  and  O2_20 
REMARK    3  A    between atoms: C3_4  and  C4_5 
REMARK    4  A    between atoms: C13_16  and  C14_18 
REMARK    5  A    between atoms: O2_20  and  C15_21 
REMARK    6  A    between atoms: C15_21  and  C16_22 
REMARK    7  A    between atoms: C16_22  and  C17_23 
REMARK    8  A    between atoms: C17_23  and  N4_24 
ROOT
HETATM    1  C4  UNL     1      -2.090  -0.941   0.224  1.00  0.00     0.072 A 
HETATM    2  N1  UNL     1      -1.836  -2.092   0.856  1.00  0.00    -0.241 NA
HETATM    3  C5  UNL     1      -2.811  -2.804   1.447  1.00  0.00     0.235 A 
HETATM    4  N2  UNL     1      -4.125  -2.498   1.499  1.00  0.00    -0.224 NA
HETATM    5  C6  UNL     1      -4.378  -1.425   0.912  1.00  0.00     0.134 A 
HETATM    6  C7  UNL     1      -3.327  -0.534   0.202  1.00  0.00     0.017 A 
HETATM    7  C8  UNL     1      -3.274   0.795  -0.609  1.00  0.00     0.046 C 
HETATM    8  C9  UNL     1      -4.260   1.794  -1.061  1.00  0.00     0.018 C 
HETATM    9  C10 UNL     1      -5.818   1.616  -1.270  1.00  0.00     0.008 A 
HETATM   10  C11 UNL     1      -6.876   0.604  -1.520  1.00  0.00     0.066 A 
HETATM   11  C12 UNL     1      -6.685  -0.425  -0.353  1.00  0.00     0.102 A 
HETATM   12  C13 UNL     1      -5.971   0.548  -0.395  1.00  0.00     0.114 A 
HETATM   13  F1  UNL     1      -5.741   1.517   0.857  1.00  0.00    -0.242 F 
HETATM   14  C14 UNL     1      -5.372   0.544  -1.915  1.00  0.00     0.064 A 
HETATM   15  N3  UNL     1      -5.847  -0.908   0.861  1.00  0.00    -0.359 N 
HETATM   16  H13 UNL     1      -6.115  -0.945   1.820  1.00  0.00     0.162 HD
ENDROOT
BRANCH   1  17
HETATM   17  C3  UNL     1      -1.054  -0.174  -0.385  1.00  0.00     0.096 C 
HETATM   18  C2  UNL     1       0.017  -0.098   0.389  1.00  0.00     0.182 C 
BRANCH  18  19
HETATM   19  O1  UNL     1      -0.229  -0.803   1.559  1.00  0.00    -0.336 OA
HETATM   20  C1  UNL     1      -0.565  -0.166   2.777  1.00  0.00     0.212 C 
ENDBRANCH  18  19
BRANCH  18  21
HETATM   21  O2  UNL     1       1.306   0.339   0.641  1.00  0.00    -0.331 OA
BRANCH  21  22
HETATM   22  C15 UNL     1       2.371  -0.322  -0.040  1.00  0.00     0.179 C 
BRANCH  22  23
HETATM   23  C16 UNL     1       3.699   0.197   0.444  1.00  0.00     0.057 C 
BRANCH  23  24
HETATM   24  C17 UNL     1       4.808  -0.543  -0.314  1.00  0.00     0.277 C 
BRANCH  24  25
HETATM   25  N4  UNL     1       6.058  -0.015   0.192  1.00  0.00     0.113 N 
HETATM   26  C18 UNL     1       7.227  -0.615  -0.423  1.00  0.00     0.301 C 
HETATM   27  C19 UNL     1       8.239   0.511  -0.213  1.00  0.00     0.200 C 
HETATM   28  O3  UNL     1       7.506   1.686  -0.297  1.00  0.00    -0.361 OA
HETATM   29  C20 UNL     1       6.157   1.367  -0.211  1.00  0.00     0.440 C 
ENDBRANCH  24  25
ENDBRANCH  23  24
ENDBRANCH  22  23
ENDBRANCH  21  22
ENDBRANCH  18  21
ENDBRANCH   1  17
TORSDOF 8
