REMARK  0 active torsions:
REMARK  status: ('A' for Active; 'I' for Inactive)
ROOT
HETATM    1  C1  UNL     1      -0.259  -2.683   1.219  1.00  0.00     0.020 C 
HETATM    2  C2  UNL     1       0.127  -1.569   0.244  1.00  0.00     0.009 C 
HETATM    3  C3  UNL     1       1.187  -1.234  -0.453  1.00  0.00     0.030 C 
HETATM    4  C4  UNL     1       2.556  -1.570  -0.801  1.00  0.00    -0.004 C 
HETATM    5  C5  UNL     1       3.238  -0.824  -1.620  1.00  0.00     0.081 C 
HETATM    6  N1  UNL     1       4.308  -0.361  -2.405  1.00  0.00    -0.381 N 
HETATM    7  C6  UNL     1       5.345   0.133  -1.487  1.00  0.00     0.277 C 
HETATM    8  N2  UNL     1       4.709   1.029  -0.619  1.00  0.00    -0.187 N 
HETATM    9  C7  UNL     1       5.184   1.971   0.062  1.00  0.00     0.327 A 
HETATM   10  N3  UNL     1       3.785   1.688   0.117  1.00  0.00     0.001 NA
HETATM   11  C8  UNL     1       3.162   1.614   1.259  1.00  0.00     0.689 C 
HETATM   12  C9  UNL     1       1.732   1.320   1.281  1.00  0.00     0.010 C 
HETATM   13  C10 UNL     1       0.564   1.057   0.723  1.00  0.00    -0.012 C 
HETATM   14  C11 UNL     1      -0.882   0.748   0.474  1.00  0.00     0.032 C 
HETATM   15  C12 UNL     1      -1.315   1.514  -0.802  1.00  0.00     0.024 C 
HETATM   16  C13 UNL     1      -2.065   0.565  -1.311  1.00  0.00     0.073 C 
HETATM   17  C14 UNL     1      -3.261  -0.168  -1.829  1.00  0.00     0.336 C 
HETATM   18  N4  UNL     1      -3.486  -0.976  -0.604  1.00  0.00     0.097 N 
HETATM   19  C15 UNL     1      -4.488  -0.410   0.246  1.00  0.00     0.273 C 
HETATM   20  C16 UNL     1      -4.100   0.875   0.933  1.00  0.00     0.030 C 
HETATM   21  C17 UNL     1      -3.009   0.777   1.930  1.00  0.00     0.003 C 
HETATM   22  C18 UNL     1      -1.716   1.360   1.512  1.00  0.00     0.021 C 
HETATM   23  C19 UNL     1      -2.305  -1.380   0.052  1.00  0.00     0.313 C 
HETATM   24  C20 UNL     1      -1.048  -0.635   0.019  1.00  0.00     0.117 C 
HETATM   25  O1  UNL     1      -0.985  -0.417  -1.444  1.00  0.00    -0.339 OA
HETATM   26  H7  UNL     1       4.390  -0.365  -3.440  1.00  0.00     0.160 HD
ENDROOT
TORSDOF 0
