REMARK  2 active torsions:
REMARK  status: ('A' for Active; 'I' for Inactive)
REMARK    1  A    between atoms: C6_9  and  N4_10 
REMARK    2  A    between atoms: N4_10  and  C7_11 
ROOT
HETATM    1  C1  UNL     1      -4.513   0.979   0.932  1.00  0.00     0.185 C 
HETATM    2  N1  UNL     1      -3.624   1.996   1.467  1.00  0.00    -0.223 N 
HETATM    3  N2  UNL     1      -3.595   1.481   2.814  1.00  0.00    -0.063 NA
HETATM    4  N3  UNL     1      -2.654   0.675   2.966  1.00  0.00    -0.132 NA
HETATM    5  C2  UNL     1      -1.726   0.301   1.962  1.00  0.00     0.086 C 
HETATM    6  C3  UNL     1      -0.895  -0.705   2.418  1.00  0.00     0.008 C 
HETATM    7  C4  UNL     1       0.114  -1.727   2.584  1.00  0.00     0.037 C 
HETATM    8  C5  UNL     1       1.400  -1.774   1.891  1.00  0.00     0.082 C 
HETATM    9  C6  UNL     1       1.659  -1.672   0.499  1.00  0.00     0.102 C 
HETATM   10  N5  UNL     1       0.698  -1.355  -0.265  1.00  0.00    -0.245 NA
HETATM   11  C13 UNL     1       0.690  -1.179  -1.664  1.00  0.00     0.271 C 
HETATM   12  N6  UNL     1      -0.295  -0.304  -1.473  1.00  0.00    -0.294 NA
HETATM   13  C14 UNL     1      -0.638  -0.163  -0.165  1.00  0.00     0.187 C 
HETATM   14  C15 UNL     1      -1.587   0.720   0.507  1.00  0.00     0.006 C 
HETATM   15  C16 UNL     1      -1.926   1.461  -0.528  1.00  0.00     0.094 C 
HETATM   16  N7  UNL     1      -2.803   2.516  -0.980  1.00  0.00    -0.389 N 
HETATM   17  C17 UNL     1      -2.308   3.570  -0.108  1.00  0.00     0.223 C 
HETATM   18  C18 UNL     1      -2.764   3.108   1.256  1.00  0.00     0.258 C 
HETATM   19  O1  UNL     1      -2.506   3.568   2.372  1.00  0.00    -0.270 OA
HETATM   20  H19 UNL     1      -3.535   2.487  -1.690  1.00  0.00     0.159 HD
ENDROOT
BRANCH   9  21
HETATM   21  N4  UNL     1       2.991  -1.914   0.045  1.00  0.00    -0.345 N 
HETATM   22  H9  UNL     1       3.712  -2.353   0.663  1.00  0.00     0.167 HD
BRANCH  21  23
HETATM   23  C7  UNL     1       3.345  -1.550  -1.275  1.00  0.00     0.033 A 
HETATM   24  C8  UNL     1       3.834  -0.278  -1.473  1.00  0.00     0.029 A 
HETATM   25  C9  UNL     1       4.233   0.258  -2.678  1.00  0.00     0.002 A 
HETATM   26  C10 UNL     1       4.116  -0.597  -3.775  1.00  0.00     0.000 A 
HETATM   27  C11 UNL     1       3.631  -1.894  -3.651  1.00  0.00     0.002 A 
HETATM   28  C12 UNL     1       3.255  -2.343  -2.398  1.00  0.00     0.029 A 
ENDBRANCH  21  23
ENDBRANCH   9  21
TORSDOF 2
