REMARK  4 active torsions:
REMARK  status: ('A' for Active; 'I' for Inactive)
REMARK    1  A    between atoms: C2_2  and  O1_3 
REMARK    2  A    between atoms: O1_3  and  B1_4 
REMARK    3  A    between atoms: B1_4  and  O2_5 
REMARK    4  A    between atoms: B1_4  and  N1_6 
ROOT
HETATM    1  N1  UNL     1       1.366   1.186   0.159  1.00  0.00    -0.272 N 
HETATM    2  C3  UNL     1       0.261   1.201   1.010  1.00  0.00     0.168 C 
HETATM    3  C4  UNL     1      -0.961   0.466   0.554  1.00  0.00    -0.026 C 
HETATM    4  C5  UNL     1      -2.257   0.557   0.016  1.00  0.00     0.044 A 
HETATM    5  C6  UNL     1      -2.807  -0.607  -0.104  1.00  0.00     0.141 A 
HETATM    6  N2  UNL     1      -3.981  -0.001   0.038  1.00  0.00    -0.224 NA
HETATM    7  C7  UNL     1      -4.420   1.219   0.220  1.00  0.00     0.236 A 
HETATM    8  N3  UNL     1      -3.439   2.123   0.282  1.00  0.00    -0.241 NA
HETATM    9  C8  UNL     1      -2.121   1.816   0.165  1.00  0.00     0.072 A 
HETATM   10  C9  UNL     1      -1.505   2.923  -0.025  1.00  0.00     0.034 C 
HETATM   11  C10 UNL     1      -0.293   3.413  -0.742  1.00  0.00     0.023 C 
HETATM   12  C11 UNL     1       0.517   2.657  -1.472  1.00  0.00     0.142 C 
HETATM   13  N4  UNL     1       0.952   1.396  -2.059  1.00  0.00    -0.146 NA
HETATM   14  N5  UNL     1       1.417   0.596  -1.139  1.00  0.00    -0.082 NA
HETATM   15  N6  UNL     1      -3.171  -1.928  -0.261  1.00  0.00    -0.350 N 
HETATM   16  C12 UNL     1      -2.587  -3.186  -0.357  1.00  0.00     0.090 C 
HETATM   17  C13 UNL     1      -1.800  -4.203  -0.323  1.00  0.00     0.017 C 
HETATM   18  C14 UNL     1      -0.460  -4.503   0.075  1.00  0.00    -0.001 C 
HETATM   19  C15 UNL     1       0.378  -3.605   0.504  1.00  0.00    -0.006 C 
HETATM   20  C16 UNL     1       0.249  -2.148   0.665  1.00  0.00     0.173 A 
HETATM   21  C17 UNL     1      -0.233  -0.874   0.655  1.00  0.00     0.054 A 
HETATM   22 CL1  UNL     1       1.416  -1.193   1.302  1.00  0.00    -0.201 Cl
HETATM   23  H11 UNL     1      -4.192  -2.275  -0.341  1.00  0.00     0.166 HD
ENDROOT
BRANCH   1  24
HETATM   24  B1  UNL     1       2.690   1.841   0.496  1.00  0.00     0.653 B 
BRANCH  24  25
HETATM   25  O1  UNL     1       3.859   0.971   0.752  1.00  0.00    -0.378 OA
BRANCH  25  26
HETATM   26  C2  UNL     1       4.769   0.547  -0.174  1.00  0.00     0.105 C 
HETATM   27  C1  UNL     1       4.703  -0.463  -1.041  1.00  0.00     0.035 C 
ENDBRANCH  25  26
ENDBRANCH  24  25
BRANCH  24  28
HETATM   28  O2  UNL     1       2.609   3.024   1.392  1.00  0.00    -0.416 OA
HETATM   29  H4  UNL     1       3.446   3.549   1.353  1.00  0.00     0.187 HD
ENDBRANCH  24  28
ENDBRANCH   1  24
TORSDOF 4
