REMARK  9 active torsions:
REMARK  status: ('A' for Active; 'I' for Inactive)
REMARK    1  A    between atoms: C2_2  and  C3_3 
REMARK    2  A    between atoms: C3_3  and  N4_20 
REMARK    3  A    between atoms: C4_4  and  C5_5 
REMARK    4  A    between atoms: C8_10  and  C9_11 
REMARK    5  A    between atoms: C9_11  and  N3_12 
REMARK    6  A    between atoms: N3_12  and  C10_13 
REMARK    7  A    between atoms: N5_21  and  N6_22 
REMARK       I    between atoms: N6_22  and  C17_24 
REMARK    8  A    between atoms: C17_24  and  O2_26 
REMARK    9  A    between atoms: O2_26  and  N7_27 
ROOT
HETATM    1  C5  UNL     1       0.761   0.105  -0.022  1.00  0.00     0.036 C 
HETATM    2  C6  UNL     1       1.197   1.309   0.306  1.00  0.00     0.084 A 
HETATM    3  N1  UNL     1       0.334   2.239   0.961  1.00  0.00    -0.240 NA
HETATM    4  C7  UNL     1       0.990   3.331   1.173  1.00  0.00     0.234 A 
HETATM    5  N2  UNL     1       2.312   3.179   0.673  1.00  0.00    -0.242 NA
HETATM    6  C8  UNL     1       2.467   2.000   0.156  1.00  0.00     0.082 A 
ENDROOT
BRANCH   1   7
HETATM    7  C4  UNL     1      -0.587  -0.304   0.268  1.00  0.00     0.031 C 
HETATM    8  C3  UNL     1      -1.092  -1.513  -0.039  1.00  0.00     0.058 C 
BRANCH   8   9
HETATM    9  C2  UNL     1      -0.318  -2.561  -0.709  1.00  0.00     0.056 C 
HETATM   10  C1  UNL     1      -0.917  -2.977  -2.031  1.00  0.00     0.011 C 
ENDBRANCH   8   9
BRANCH   8  11
HETATM   11  N4  UNL     1      -2.443  -1.764   0.315  1.00  0.00    -0.137 NA
HETATM   12  N5  UNL     1      -3.052  -2.722  -0.242  1.00  0.00    -0.062 NA
BRANCH  12  13
HETATM   13  N6  UNL     1      -4.405  -3.003   0.087  1.00  0.00    -0.198 N 
HETATM   14  C16 UNL     1      -4.699  -4.129   0.950  1.00  0.00     0.187 C 
HETATM   15  C17 UNL     1      -5.264  -2.063  -0.535  1.00  0.00     0.401 C 
HETATM   16  O1  UNL     1      -4.614  -1.219  -1.233  1.00  0.00    -0.235 OA
BRANCH  15  17
HETATM   17  O2  UNL     1      -6.617  -1.767  -0.626  1.00  0.00    -0.208 OA
BRANCH  17  18
HETATM   18  N7  UNL     1      -6.994  -0.689  -1.401  1.00  0.00    -0.199 NA
HETATM   19  C18 UNL     1      -8.157  -0.992  -2.194  1.00  0.00     0.141 C 
HETATM   20  H19 UNL     1      -7.124   0.151  -0.810  1.00  0.00     0.154 HD
ENDBRANCH  17  18
ENDBRANCH  15  17
ENDBRANCH  12  13
ENDBRANCH   8  11
ENDBRANCH   1   7
BRANCH   6  21
HETATM   21  C9  UNL     1       3.604   1.297  -0.506  1.00  0.00     0.181 C 
BRANCH  21  22
HETATM   22  N3  UNL     1       4.790   2.087  -0.528  1.00  0.00    -0.384 N 
HETATM   23  H11 UNL     1       5.222   2.386  -1.437  1.00  0.00     0.160 HD
BRANCH  22  24
HETATM   24  C10 UNL     1       5.439   2.503   0.659  1.00  0.00     0.029 A 
HETATM   25  C11 UNL     1       4.991   2.175   1.921  1.00  0.00     0.029 A 
HETATM   26  C12 UNL     1       5.621   2.582   3.077  1.00  0.00     0.004 A 
HETATM   27  C13 UNL     1       6.749   3.351   2.956  1.00  0.00     0.024 A 
HETATM   28  C14 UNL     1       7.287   3.740   1.742  1.00  0.00     0.036 A 
HETATM   29 CL1  UNL     1       8.706   4.708   1.541  1.00  0.00    -0.084 Cl
HETATM   30  C15 UNL     1       6.578   3.278   0.642  1.00  0.00     0.052 A 
ENDBRANCH  22  24
ENDBRANCH  21  22
ENDBRANCH   6  21
TORSDOF 9
