REMARK  2 active torsions:
REMARK  status: ('A' for Active; 'I' for Inactive)
REMARK    1  A    between atoms: N4_14  and  N5_15 
REMARK    2  A    between atoms: N5_15  and  C9_16 
ROOT
HETATM    1  O1  UNL     1       0.527  -0.574  -1.250  1.00  0.00    -0.234 OA
HETATM    2  C1  UNL     1      -0.456  -0.699  -0.570  1.00  0.00     0.406 C 
HETATM    3  O2  UNL     1      -1.202  -1.720  -0.731  1.00  0.00    -0.270 OA
HETATM    4  C2  UNL     1      -1.938  -2.738  -0.900  1.00  0.00     0.160 C 
HETATM    5  C3  UNL     1      -2.714  -2.105  -1.802  1.00  0.00    -0.001 C 
HETATM    6  C4  UNL     1      -3.705  -1.382  -1.185  1.00  0.00     0.018 C 
HETATM    7  C5  UNL     1      -3.128  -0.360  -0.383  1.00  0.00     0.053 C 
HETATM    8  C6  UNL     1      -2.865   0.719   0.385  1.00  0.00     0.153 A 
HETATM    9  N1  UNL     1      -3.883   1.625   0.763  1.00  0.00    -0.223 NA
HETATM   10  C7  UNL     1      -3.587   2.719   1.367  1.00  0.00     0.236 A 
HETATM   11  N2  UNL     1      -2.252   3.024   1.661  1.00  0.00    -0.235 NA
HETATM   12  C8  UNL     1      -1.236   2.314   1.382  1.00  0.00     0.238 A 
HETATM   13  N3  UNL     1      -1.513   1.132   0.726  1.00  0.00    -0.206 N 
HETATM   14  N4  UNL     1      -0.341   0.502   0.209  1.00  0.00    -0.125 N 
ENDROOT
BRANCH  14  15
HETATM   15  N5  UNL     1       0.958   0.996   0.527  1.00  0.00    -0.274 N 
HETATM   16  H6  UNL     1       1.184   1.913   0.912  1.00  0.00     0.189 HD
BRANCH  15  17
HETATM   17  C9  UNL     1       2.129   0.223   0.303  1.00  0.00     0.051 A 
HETATM   18  C10 UNL     1       2.361  -1.110   0.570  1.00  0.00     0.031 A 
HETATM   19  C11 UNL     1       3.493  -1.834   0.320  1.00  0.00     0.004 A 
HETATM   20  C12 UNL     1       4.547  -1.158  -0.272  1.00  0.00     0.024 A 
HETATM   21  C13 UNL     1       4.443   0.181  -0.587  1.00  0.00     0.036 A 
HETATM   22 CL1  UNL     1       5.795   1.037  -1.322  1.00  0.00    -0.084 Cl
HETATM   23  C14 UNL     1       3.253   0.792  -0.285  1.00  0.00     0.054 A 
ENDBRANCH  15  17
ENDBRANCH  14  15
TORSDOF 2
