REMARK  3 active torsions:
REMARK  status: ('A' for Active; 'I' for Inactive)
REMARK    1  A    between atoms: C5_6  and  N1_7 
REMARK    2  A    between atoms: N1_7  and  N2_8 
REMARK    3  A    between atoms: N3_9  and  C6_10 
ROOT
HETATM    1  N2  UNL     1       1.045  -1.329  -0.134  1.00  0.00    -0.068 NA
HETATM    2  N3  UNL     1       0.019  -2.027  -0.124  1.00  0.00    -0.133 NA
ENDROOT
BRANCH   2   3
HETATM    3  C6  UNL     1      -1.242  -1.380  -0.295  1.00  0.00     0.081 A 
HETATM    4  C7  UNL     1      -1.802  -1.173  -1.537  1.00  0.00     0.036 A 
HETATM    5  C8  UNL     1      -3.023  -0.539  -1.583  1.00  0.00     0.035 A 
HETATM    6  C9  UNL     1      -3.628  -0.143  -0.398  1.00  0.00     0.070 A 
HETATM    7  N4  UNL     1      -4.811   0.470  -0.400  1.00  0.00    -0.241 NA
HETATM    8  C12 UNL     1      -3.038  -0.367   0.840  1.00  0.00     0.013 A 
HETATM    9  C10 UNL     1      -5.446   0.872   0.717  1.00  0.00     0.233 A 
HETATM   10  N5  UNL     1      -4.876   0.655   1.898  1.00  0.00    -0.253 NA
HETATM   11  C11 UNL     1      -3.688   0.045   2.002  1.00  0.00     0.132 A 
HETATM   12  C13 UNL     1      -1.811  -1.002   0.912  1.00  0.00     0.048 A 
ENDBRANCH   2   3
BRANCH   1  13
HETATM   13  N1  UNL     1       1.179   0.036  -0.292  1.00  0.00    -0.260 N 
HETATM   14  H4  UNL     1       0.533   0.837  -0.506  1.00  0.00     0.191 HD
BRANCH  13  15
HETATM   15  C5  UNL     1       2.572   0.340  -0.104  1.00  0.00     0.053 A 
HETATM   16  C4  UNL     1       3.456  -0.202  -1.037  1.00  0.00     0.031 A 
HETATM   17  C3  UNL     1       4.822   0.019  -0.970  1.00  0.00     0.004 A 
HETATM   18  C2  UNL     1       5.347   0.795   0.042  1.00  0.00     0.024 A 
HETATM   19  C1  UNL     1       4.478   1.327   0.958  1.00  0.00     0.036 A 
HETATM   20 CL1  UNL     1       5.134   2.311   2.233  1.00  0.00    -0.084 Cl
HETATM   21  C14 UNL     1       3.116   1.120   0.910  1.00  0.00     0.054 A 
ENDBRANCH  13  15
ENDBRANCH   1  13
TORSDOF 3
