REMARK  4 active torsions:
REMARK  status: ('A' for Active; 'I' for Inactive)
REMARK    1  A    between atoms: N1_2  and  N2_3 
REMARK    2  A    between atoms: N1_2  and  N6_15 
REMARK    3  A    between atoms: N3_4  and  C2_5 
REMARK    4  A    between atoms: N6_15  and  C10_16 
ROOT
HETATM    1  N2  UNL     1      -0.540  -1.144   0.823  1.00  0.00    -0.050 NA
HETATM    2  N3  UNL     1       0.566  -1.579   0.405  1.00  0.00    -0.131 NA
ENDROOT
BRANCH   1   3
HETATM    3  N1  UNL     1      -0.755   0.225   0.868  1.00  0.00    -0.197 N 
HETATM    4  C1  UNL     1      -0.518   1.585   1.304  1.00  0.00     0.204 C 
BRANCH   3   5
HETATM    5  N6  UNL     1      -1.811   0.088  -0.066  1.00  0.00    -0.282 N 
HETATM    6  H9  UNL     1      -1.810   0.091  -1.111  1.00  0.00     0.189 HD
BRANCH   5   7
HETATM    7  C10 UNL     1      -3.233  -0.097   0.026  1.00  0.00     0.051 A 
HETATM    8  C11 UNL     1      -3.713  -1.409   0.105  1.00  0.00     0.031 A 
HETATM    9  C12 UNL     1      -5.072  -1.685   0.195  1.00  0.00     0.004 A 
HETATM   10  C13 UNL     1      -5.953  -0.623   0.207  1.00  0.00     0.024 A 
HETATM   11  C14 UNL     1      -5.505   0.695   0.130  1.00  0.00     0.036 A 
HETATM   12 CL1  UNL     1      -6.617   2.068   0.141  1.00  0.00    -0.084 Cl
HETATM   13  C15 UNL     1      -4.167   0.941   0.041  1.00  0.00     0.054 A 
ENDBRANCH   5   7
ENDBRANCH   3   5
ENDBRANCH   1   3
BRANCH   2  14
HETATM   14  C2  UNL     1       1.646  -0.775  -0.039  1.00  0.00     0.081 A 
HETATM   15  C3  UNL     1       1.680   0.350  -0.833  1.00  0.00     0.036 A 
HETATM   16  C4  UNL     1       2.879   0.956  -1.126  1.00  0.00     0.035 A 
HETATM   17  C5  UNL     1       4.081   0.485  -0.655  1.00  0.00     0.070 A 
HETATM   18  N4  UNL     1       5.240   1.129  -0.982  1.00  0.00    -0.241 NA
HETATM   19  C8  UNL     1       4.059  -0.651   0.147  1.00  0.00     0.013 A 
HETATM   20  C6  UNL     1       6.398   0.660  -0.521  1.00  0.00     0.233 A 
HETATM   21  N5  UNL     1       6.437  -0.449   0.270  1.00  0.00    -0.253 NA
HETATM   22  C7  UNL     1       5.290  -1.086   0.593  1.00  0.00     0.132 A 
HETATM   23  C9  UNL     1       2.861  -1.270   0.450  1.00  0.00     0.048 A 
ENDBRANCH   2  14
TORSDOF 4
