REMARK  6 active torsions:
REMARK  status: ('A' for Active; 'I' for Inactive)
REMARK    1  A    between atoms: N1_2  and  N2_3 
REMARK    2  A    between atoms: N3_4  and  C2_5 
REMARK    3  A    between atoms: C2_5  and  C3_6 
REMARK    4  A    between atoms: C7_12  and  C8_13 
REMARK    5  A    between atoms: C8_13  and  N6_14 
REMARK    6  A    between atoms: N6_14  and  C9_15 
ROOT
HETATM    1  C3  UNL     1      -2.025  -2.026  -0.772  1.00  0.00     0.007 A 
HETATM    2  C4  UNL     1      -2.432  -3.252  -0.475  1.00  0.00     0.100 A 
HETATM    3  N4  UNL     1      -1.711  -4.116   0.422  1.00  0.00    -0.360 N 
HETATM    4  C5  UNL     1      -0.504  -3.620   1.013  1.00  0.00     0.207 A 
HETATM    5  N5  UNL     1      -0.109  -2.425   0.722  1.00  0.00    -0.244 NA
HETATM    6  C6  UNL     1      -0.796  -1.550  -0.156  1.00  0.00     0.065 A 
HETATM    7  C7  UNL     1      -0.293  -0.343  -0.379  1.00  0.00     0.025 C 
HETATM    8  H8  UNL     1      -2.099  -5.073   0.605  1.00  0.00     0.166 HD
ENDROOT
BRANCH   1   9
HETATM    9  C2  UNL     1      -2.778  -1.129  -1.705  1.00  0.00     0.217 C 
BRANCH   9  10
HETATM   10  N3  UNL     1      -3.133   0.042  -0.928  1.00  0.00    -0.171 NA
HETATM   11  N2  UNL     1      -4.351   0.354  -0.703  1.00  0.00    -0.079 NA
BRANCH  11  12
HETATM   12  N1  UNL     1      -4.570   1.493   0.051  1.00  0.00    -0.300 N 
HETATM   13  C1  UNL     1      -4.543   2.648   0.891  1.00  0.00     0.171 C 
HETATM   14  H4  UNL     1      -5.461   1.211  -0.424  1.00  0.00     0.183 HD
ENDBRANCH  11  12
ENDBRANCH   9  10
ENDBRANCH   1   9
BRANCH   7  15
HETATM   15  C8  UNL     1       0.956   0.149   0.243  1.00  0.00     0.149 C 
BRANCH  15  16
HETATM   16  N6  UNL     1       1.972   0.503  -0.712  1.00  0.00    -0.386 N 
HETATM   17  H13 UNL     1       1.832   0.417  -1.746  1.00  0.00     0.160 HD
BRANCH  16  18
HETATM   18  C9  UNL     1       3.231   0.994  -0.232  1.00  0.00     0.029 A 
HETATM   19  C10 UNL     1       3.447   1.119   1.124  1.00  0.00     0.029 A 
HETATM   20  C11 UNL     1       4.668   1.594   1.553  1.00  0.00     0.004 A 
HETATM   21  C12 UNL     1       5.677   1.947   0.672  1.00  0.00     0.024 A 
HETATM   22  C13 UNL     1       5.473   1.826  -0.685  1.00  0.00     0.036 A 
HETATM   23 CL1  UNL     1       6.717   2.259  -1.853  1.00  0.00    -0.084 Cl
HETATM   24  C14 UNL     1       4.241   1.348  -1.107  1.00  0.00     0.052 A 
ENDBRANCH  16  18
ENDBRANCH  15  16
ENDBRANCH   7  15
TORSDOF 6
