REMARK  9 active torsions:
REMARK  status: ('A' for Active; 'I' for Inactive)
REMARK    1  A    between atoms: O1_2  and  C2_3 
REMARK    2  A    between atoms: C2_3  and  C3_4 
REMARK    3  A    between atoms: C3_4  and  O2_5 
REMARK    4  A    between atoms: O2_5  and  C4_6 
REMARK    5  A    between atoms: C9_11  and  O3_12 
REMARK    6  A    between atoms: O3_12  and  C10_13 
REMARK    7  A    between atoms: C10_13  and  C11_14 
REMARK    8  A    between atoms: C11_14  and  O4_15 
REMARK    9  A    between atoms: N2_19  and  C14_20 
ROOT
HETATM    1  C4  UNL     1      -1.714   1.168   0.472  1.00  0.00     0.102 A 
HETATM    2  C5  UNL     1      -0.365   1.337   0.275  1.00  0.00     0.050 A 
HETATM    3  C6  UNL     1       0.585   0.346   0.265  1.00  0.00    -0.008 A 
HETATM    4  C7  UNL     1       0.166  -0.949   0.470  1.00  0.00     0.069 A 
HETATM    5  C8  UNL     1      -1.197  -1.189   0.678  1.00  0.00     0.072 A 
HETATM    6  C9  UNL     1      -2.140  -0.152   0.682  1.00  0.00     0.104 A 
HETATM    7  N1  UNL     1       1.113  -2.009   0.469  1.00  0.00    -0.243 NA
HETATM    8  C13 UNL     1       2.358  -1.742   0.273  1.00  0.00     0.210 A 
HETATM    9  N2  UNL     1       2.849  -0.425   0.056  1.00  0.00    -0.341 N 
HETATM   10  C20 UNL     1       1.983   0.734   0.036  1.00  0.00     0.170 A 
ENDROOT
BRANCH   9  11
HETATM   11  C14 UNL     1       4.241  -0.215  -0.152  1.00  0.00     0.017 A 
HETATM   12  C15 UNL     1       5.187   0.063   0.749  1.00  0.00     0.032 A 
HETATM   13  C16 UNL     1       6.467   0.189   0.036  1.00  0.00    -0.064 A 
HETATM   14  C17 UNL     1       7.786   0.497   0.682  1.00  0.00     0.048 C 
HETATM   15  C18 UNL     1       6.315  -0.004  -1.256  1.00  0.00    -0.014 A 
HETATM   16  C19 UNL     1       4.870  -0.283  -1.514  1.00  0.00     0.084 A 
ENDBRANCH   9  11
BRANCH   1  17
HETATM   17  O2  UNL     1      -2.777   2.024   0.510  1.00  0.00    -0.346 OA
BRANCH  17  18
HETATM   18  C3  UNL     1      -2.869   3.370   0.342  1.00  0.00     0.201 C 
BRANCH  18  19
HETATM   19  C2  UNL     1      -2.497   3.853  -1.017  1.00  0.00     0.193 C 
BRANCH  19  20
HETATM   20  O1  UNL     1      -3.245   3.410  -2.059  1.00  0.00    -0.394 OA
HETATM   21  C1  UNL     1      -3.280   2.066  -2.223  1.00  0.00     0.201 C 
ENDBRANCH  19  20
ENDBRANCH  18  19
ENDBRANCH  17  18
ENDBRANCH   1  17
BRANCH   6  22
HETATM   22  O3  UNL     1      -3.465  -0.509   0.898  1.00  0.00    -0.346 OA
BRANCH  22  23
HETATM   23  C10 UNL     1      -3.731  -1.888   1.093  1.00  0.00     0.201 C 
BRANCH  23  24
HETATM   24  C11 UNL     1      -5.169  -2.179   1.317  1.00  0.00     0.193 C 
BRANCH  24  25
HETATM   25  O4  UNL     1      -5.352  -3.534   1.505  1.00  0.00    -0.394 OA
HETATM   26  C12 UNL     1      -4.978  -4.349   0.473  1.00  0.00     0.201 C 
ENDBRANCH  24  25
ENDBRANCH  23  24
ENDBRANCH  22  23
ENDBRANCH   6  22
TORSDOF 9
