REMARK  7 active torsions:
REMARK  status: ('A' for Active; 'I' for Inactive)
REMARK    1  A    between atoms: N1_3  and  C3_4 
REMARK    2  A    between atoms: C3_4  and  C4_5 
REMARK    3  A    between atoms: C4_5  and  N2_6 
REMARK    4  A    between atoms: N2_6  and  C5_7 
REMARK    5  A    between atoms: N2_6  and  C12_14 
REMARK    6  A    between atoms: C5_7  and  C6_8 
REMARK    7  A    between atoms: C14_17  and  N4_18 
ROOT
HETATM    1  N2  UNL     1      -0.045  -0.013  -0.137  1.00  0.00    -0.373 N 
ENDROOT
BRANCH   1   2
HETATM    2  C4  UNL     1       1.407  -0.087  -0.274  1.00  0.00     0.145 C 
BRANCH   2   3
HETATM    3  C3  UNL     1       2.082  -0.652   0.959  1.00  0.00     0.167 C 
BRANCH   3   4
HETATM    4  N1  UNL     1       3.511  -0.647   0.665  1.00  0.00    -0.304 NA
HETATM    5  C2  UNL     1       4.282  -1.573   1.072  1.00  0.00     0.079 C 
HETATM    6  C1  UNL     1       5.706  -1.331   0.635  1.00  0.00     0.056 C 
ENDBRANCH   3   4
ENDBRANCH   2   3
ENDBRANCH   1   2
BRANCH   1   7
HETATM    7  C5  UNL     1      -0.477  -1.377  -0.112  1.00  0.00     0.161 C 
BRANCH   7   8
HETATM    8  C6  UNL     1      -1.934  -1.619  -0.254  1.00  0.00    -0.040 C 
HETATM    9  C7  UNL     1      -2.675  -2.195   0.710  1.00  0.00     0.010 C 
HETATM   10  C8  UNL     1      -4.096  -2.370   0.428  1.00  0.00     0.014 C 
HETATM   11  C9  UNL     1      -4.447  -2.260  -0.844  1.00  0.00    -0.014 C 
HETATM   12  C10 UNL     1      -3.884  -1.334  -1.524  1.00  0.00    -0.013 C 
HETATM   13  C11 UNL     1      -2.563  -1.257  -1.549  1.00  0.00     0.022 C 
ENDBRANCH   7   8
ENDBRANCH   1   7
BRANCH   1  14
HETATM   14  C12 UNL     1      -0.721   1.231  -0.055  1.00  0.00     0.067 A 
HETATM   15  C13 UNL     1      -2.052   1.473   0.182  1.00  0.00     0.167 A 
HETATM   16  N3  UNL     1      -2.582   2.701   0.196  1.00  0.00    -0.073 NA
HETATM   17  C14 UNL     1      -1.860   3.802  -0.020  1.00  0.00     0.719 A 
HETATM   18  N5  UNL     1      -0.532   3.602  -0.258  1.00  0.00    -0.073 NA
HETATM   19  C15 UNL     1       0.002   2.374  -0.274  1.00  0.00     0.167 A 
BRANCH  17  20
HETATM   20  N4  UNL     1      -2.560   5.032   0.025  1.00  0.00    -0.231 N 
HETATM   21  H15 UNL     1      -2.913   5.542  -0.824  1.00  0.00     0.174 HD
HETATM   22  H16 UNL     1      -2.637   5.295   1.023  1.00  0.00     0.174 HD
ENDBRANCH  17  20
ENDBRANCH   1  14
TORSDOF 7
