REMARK  6 active torsions:
REMARK  status: ('A' for Active; 'I' for Inactive)
REMARK    1  A    between atoms: C1_2  and  N1_3 
REMARK    2  A    between atoms: N1_3  and  C2_4 
REMARK    3  A    between atoms: C2_4  and  C3_5 
REMARK    4  A    between atoms: C3_5  and  C4_6 
REMARK       I    between atoms: C4_6  and  N2_8 
REMARK    5  A    between atoms: N2_8  and  C5_9 
REMARK    6  A    between atoms: C5_9  and  C6_10 
ROOT
HETATM    1  C6  UNL     1      -1.109   0.157  -0.111  1.00  0.00     0.017 C 
HETATM    2  C7  UNL     1      -1.290  -1.131   0.294  1.00  0.00     0.130 C 
HETATM    3  N3  UNL     1      -2.031  -1.935   1.071  1.00  0.00    -0.253 NA
HETATM    4  C8  UNL     1      -3.376  -1.782   1.184  1.00  0.00     0.232 C 
HETATM    5  N4  UNL     1      -4.099  -0.669   1.388  1.00  0.00    -0.254 NA
HETATM    6  C9  UNL     1      -5.113  -0.387   0.520  1.00  0.00     0.118 C 
HETATM    7  C10 UNL     1      -4.853   0.097  -0.747  1.00  0.00     0.021 C 
HETATM    8  C11 UNL     1      -4.003  -0.027  -1.838  1.00  0.00     0.028 C 
HETATM    9  C12 UNL     1      -2.844   0.730  -1.774  1.00  0.00     0.073 C 
HETATM   10 CL1  UNL     1      -3.432   2.147  -2.654  1.00  0.00    -0.081 Cl
HETATM   11  C13 UNL     1      -1.543   0.748  -1.310  1.00  0.00     0.147 C 
HETATM   12  F1  UNL     1      -0.677   1.400  -2.123  1.00  0.00    -0.204 F 
ENDROOT
BRANCH   1  13
HETATM   13  C5  UNL     1      -0.404   1.191   0.679  1.00  0.00     0.165 C 
BRANCH  13  14
HETATM   14  N2  UNL     1       0.907   1.520   0.237  1.00  0.00    -0.357 N 
HETATM   15  C4  UNL     1       2.037   0.679   0.158  1.00  0.00     0.219 C 
HETATM   16  O2  UNL     1       1.964  -0.526   0.503  1.00  0.00    -0.274 OA
HETATM   17  H7  UNL     1       1.144   2.504  -0.091  1.00  0.00     0.162 HD
BRANCH  15  18
HETATM   18  C3  UNL     1       3.376   1.078  -0.313  1.00  0.00     0.122 C 
BRANCH  18  19
HETATM   19  C2  UNL     1       4.358  -0.072  -0.264  1.00  0.00     0.131 C 
BRANCH  19  20
HETATM   20  N1  UNL     1       4.533  -0.596   1.058  1.00  0.00    -0.368 N 
HETATM   21  H2  UNL     1       4.071  -0.273   1.929  1.00  0.00     0.161 HD
BRANCH  20  22
HETATM   22  C1  UNL     1       5.459  -1.683   1.109  1.00  0.00     0.348 C 
HETATM   23  O1  UNL     1       6.016  -2.069   0.037  1.00  0.00    -0.284 OA
ENDBRANCH  20  22
ENDBRANCH  19  20
ENDBRANCH  18  19
ENDBRANCH  15  18
ENDBRANCH  13  14
ENDBRANCH   1  13
TORSDOF 6
