REMARK  7 active torsions:
REMARK  status: ('A' for Active; 'I' for Inactive)
REMARK    1  A    between atoms: C1_2  and  C2_3 
REMARK    2  A    between atoms: C3_5  and  C4_6 
REMARK    3  A    between atoms: C6_8  and  N1_9 
REMARK    4  A    between atoms: N1_9  and  C7_10 
REMARK    5  A    between atoms: C10_15  and  N4_16 
REMARK    6  A    between atoms: N4_16  and  C11_17 
REMARK    7  A    between atoms: C11_17  and  C12_18 
ROOT
HETATM    1  C7  UNL     1      -0.533   0.329  -0.691  1.00  0.00     0.157 A 
HETATM    2  N2  UNL     1      -0.054  -0.601  -1.538  1.00  0.00    -0.222 NA
HETATM    3  C8  UNL     1      -0.915  -1.517  -2.075  1.00  0.00     0.235 A 
HETATM    4  N3  UNL     1      -2.222  -1.475  -1.751  1.00  0.00    -0.252 NA
HETATM    5  C9  UNL     1      -2.657  -0.532  -0.905  1.00  0.00     0.151 A 
HETATM    6  C10 UNL     1      -1.858   0.426  -0.320  1.00  0.00     0.092 A 
ENDROOT
BRANCH   1   7
HETATM    7  N1  UNL     1       0.436   1.239  -0.184  1.00  0.00    -0.338 N 
HETATM    8  H4  UNL     1       0.347   2.041   0.475  1.00  0.00     0.167 HD
BRANCH   7   9
HETATM    9  C6  UNL     1       1.797   1.122  -0.579  1.00  0.00     0.057 A 
HETATM   10  C4  UNL     1       3.111   0.527  -0.487  1.00  0.00     0.006 A 
HETATM   11  C5  UNL     1       2.846   1.527  -1.370  1.00  0.00     0.018 A 
BRANCH  10  12
HETATM   12  C3  UNL     1       4.104  -0.375   0.028  1.00  0.00     0.036 C 
HETATM   13  C2  UNL     1       5.351  -0.392  -0.422  1.00  0.00     0.041 C 
HETATM   14 CL1  UNL     1       5.818   0.722  -1.693  1.00  0.00    -0.086 Cl
BRANCH  13  15
HETATM   15  C1  UNL     1       6.389  -1.318   0.100  1.00  0.00     0.273 C 
HETATM   16  F1  UNL     1       6.855  -2.114  -0.920  1.00  0.00    -0.250 F 
ENDBRANCH  13  15
ENDBRANCH  10  12
ENDBRANCH   7   9
ENDBRANCH   1   7
BRANCH   6  17
HETATM   17  N4  UNL     1      -2.332   1.406   0.562  1.00  0.00    -0.385 N 
HETATM   18  H7  UNL     1      -1.632   2.089   0.948  1.00  0.00     0.159 HD
BRANCH  17  19
HETATM   19  C11 UNL     1      -3.690   1.547   0.978  1.00  0.00     0.126 C 
BRANCH  19  20
HETATM   20  C12 UNL     1      -4.259   0.382   1.693  1.00  0.00     0.030 C 
HETATM   21  C13 UNL     1      -5.144  -0.600   1.823  1.00  0.00     0.239 C 
HETATM   22 CL2  UNL     1      -6.551  -1.436   1.177  1.00  0.00    -0.255 Cl
ENDBRANCH  19  20
ENDBRANCH  17  19
ENDBRANCH   6  17
TORSDOF 7
