REMARK  4 active torsions:
REMARK  status: ('A' for Active; 'I' for Inactive)
REMARK    1  A    between atoms: O1_2  and  C2_3 
REMARK    2  A    between atoms: C2_3  and  C3_4 
REMARK    3  A    between atoms: C3_4  and  O2_5 
REMARK    4  A    between atoms: O2_5  and  C4_6 
ROOT
HETATM    1  C4  UNL     1      -1.337   0.492   0.381  1.00  0.00     0.085 C 
HETATM    2  C5  UNL     1      -0.885   0.121   1.572  1.00  0.00     0.056 C 
HETATM    3  C6  UNL     1       0.051  -0.333   2.540  1.00  0.00     0.141 C 
HETATM    4  N1  UNL     1       0.817  -0.735   3.482  1.00  0.00    -0.186 NA
HETATM    5  N2  UNL     1       2.158  -1.066   3.323  1.00  0.00    -0.262 N 
HETATM    6  C7  UNL     1       2.594  -1.214   1.983  1.00  0.00     0.131 C 
HETATM    7  C8  UNL     1       2.734  -2.182   1.101  1.00  0.00     0.050 C 
HETATM    8  C9  UNL     1       2.303  -3.386   0.435  1.00  0.00     0.035 C 
HETATM    9  C10 UNL     1       1.367  -3.126  -0.474  1.00  0.00     0.092 C 
HETATM   10  N3  UNL     1       0.815  -1.880  -0.801  1.00  0.00    -0.335 N 
HETATM   11  C11 UNL     1       0.274  -0.656  -1.127  1.00  0.00     0.256 C 
HETATM   12  O3  UNL     1       0.917  -0.978  -2.151  1.00  0.00    -0.270 OA
HETATM   13  C12 UNL     1      -0.532   0.528  -0.813  1.00  0.00     0.161 C 
HETATM   14  C13 UNL     1      -1.462   0.651  -2.033  1.00  0.00     0.050 C 
HETATM   15  C14 UNL     1      -1.200   2.021  -2.605  1.00  0.00     0.023 C 
HETATM   16  C15 UNL     1      -0.670   2.714  -1.358  1.00  0.00     0.122 C 
HETATM   17  N4  UNL     1       0.335   1.713  -0.957  1.00  0.00    -0.353 N 
HETATM   18  C16 UNL     1       1.656   2.333  -0.912  1.00  0.00     0.215 A 
HETATM   19  O4  UNL     1       1.776   1.202  -0.525  1.00  0.00    -0.343 OA
HETATM   20  C17 UNL     1       3.065   2.213  -0.616  1.00  0.00     0.192 A 
HETATM   21  C18 UNL     1       4.097   1.460  -0.174  1.00  0.00     0.057 C 
HETATM   22  C19 UNL     1       3.728   0.126   0.214  1.00  0.00     0.138 C 
HETATM   23  N5  UNL     1       2.988   0.087   1.491  1.00  0.00    -0.364 N 
HETATM   24  C20 UNL     1       4.793  -0.893   0.424  1.00  0.00     0.074 C 
HETATM   25 CL1  UNL     1       6.506  -0.709   0.745  1.00  0.00    -0.083 Cl
HETATM   26  C21 UNL     1       3.956  -1.964   0.274  1.00  0.00     0.150 C 
HETATM   27  F1  UNL     1       4.721  -2.442  -0.722  1.00  0.00    -0.203 F 
HETATM   28  H10 UNL     1       2.617  -1.144   4.246  1.00  0.00     0.191 HD
HETATM   29  H13 UNL     1       0.311  -1.874   0.116  1.00  0.00     0.168 HD
HETATM   30  H23 UNL     1       2.816   1.029   1.935  1.00  0.00     0.162 HD
ENDROOT
BRANCH   1  31
HETATM   31  O2  UNL     1      -2.684   0.845   0.409  1.00  0.00    -0.350 OA
BRANCH  31  32
HETATM   32  C3  UNL     1      -3.615  -0.141   0.812  1.00  0.00     0.201 C 
BRANCH  32  33
HETATM   33  C2  UNL     1      -5.016   0.352   0.936  1.00  0.00     0.193 C 
BRANCH  33  34
HETATM   34  O1  UNL     1      -5.533   0.859  -0.235  1.00  0.00    -0.394 OA
HETATM   35  C1  UNL     1      -5.604  -0.020  -1.289  1.00  0.00     0.201 C 
ENDBRANCH  33  34
ENDBRANCH  32  33
ENDBRANCH  31  32
ENDBRANCH   1  31
TORSDOF 4
