REMARK  4 active torsions:
REMARK  status: ('A' for Active; 'I' for Inactive)
REMARK    1  A    between atoms: C14_18  and  O3_19 
REMARK    2  A    between atoms: O3_19  and  C15_20 
REMARK    3  A    between atoms: C15_20  and  C16_21 
REMARK    4  A    between atoms: C16_21  and  O4_22 
ROOT
HETATM    1  C1  UNL     1      -0.954   5.593  -2.000  1.00  0.00     0.017 C 
HETATM    2  C2  UNL     1      -0.579   4.402  -1.947  1.00  0.00    -0.082 C 
HETATM    3  C3  UNL     1      -0.141   2.971  -1.908  1.00  0.00    -0.005 C 
HETATM    4  C4  UNL     1       0.702   2.937  -0.893  1.00  0.00     0.016 C 
HETATM    5  C5  UNL     1       1.537   1.934  -0.258  1.00  0.00    -0.001 C 
HETATM    6  C6  UNL     1       1.852   0.673  -0.464  1.00  0.00    -0.007 C 
HETATM    7  C7  UNL     1       2.450  -0.671  -0.298  1.00  0.00     0.148 C 
HETATM    8  N1  UNL     1       2.833  -0.752   1.140  1.00  0.00    -0.373 N 
HETATM    9  C8  UNL     1       2.985  -1.951   1.976  1.00  0.00     0.118 C 
HETATM   10  N2  UNL     1       4.030  -2.306   1.312  1.00  0.00    -0.280 NA
HETATM   11  C9  UNL     1       4.756  -3.522   1.639  1.00  0.00     0.179 C 
HETATM   12  C10 UNL     1       1.937  -2.157   3.094  1.00  0.00     0.245 C 
HETATM   13  O1  UNL     1       0.652  -2.035   2.526  1.00  0.00    -0.382 OA
HETATM   14  C11 UNL     1       0.381  -2.959   1.560  1.00  0.00     0.195 C 
HETATM   15  C12 UNL     1      -0.899  -2.588   0.808  1.00  0.00     0.202 C 
HETATM   16  O2  UNL     1      -0.734  -1.356   0.213  1.00  0.00    -0.345 OA
HETATM   17  C13 UNL     1      -0.917  -0.916  -1.050  1.00  0.00     0.115 C 
HETATM   18  C14 UNL     1      -1.469   0.186  -1.571  1.00  0.00     0.087 C 
HETATM   19  C18 UNL     1      -1.210   0.848  -2.872  1.00  0.00     0.070 C 
HETATM   20  C19 UNL     1      -0.303  -0.011  -3.718  1.00  0.00     0.160 C 
HETATM   21  N3  UNL     1      -0.542  -1.432  -3.405  1.00  0.00    -0.298 NA
HETATM   22  C20 UNL     1      -0.417  -1.786  -2.150  1.00  0.00     0.149 C 
HETATM   23  C21 UNL     1      -0.989   2.297  -2.887  1.00  0.00     0.061 C 
HETATM   24  H7  UNL     1       3.033   0.118   1.678  1.00  0.00     0.161 HD
ENDROOT
BRANCH  18  25
HETATM   25  O3  UNL     1      -2.435   0.869  -0.859  1.00  0.00    -0.350 OA
BRANCH  25  26
HETATM   26  C15 UNL     1      -2.385   1.319   0.457  1.00  0.00     0.201 C 
BRANCH  26  27
HETATM   27  C16 UNL     1      -3.752   1.866   0.791  1.00  0.00     0.193 C 
BRANCH  27  28
HETATM   28  O4  UNL     1      -3.904   2.366   2.048  1.00  0.00    -0.394 OA
HETATM   29  C17 UNL     1      -3.672   1.398   3.002  1.00  0.00     0.201 C 
ENDBRANCH  27  28
ENDBRANCH  26  27
ENDBRANCH  25  26
ENDBRANCH  18  25
TORSDOF 4
