REMARK  4 active torsions:
REMARK  status: ('A' for Active; 'I' for Inactive)
REMARK    1  A    between atoms: C5_6  and  C6_7 
REMARK    2  A    between atoms: C6_7  and  C7_8 
REMARK    3  A    between atoms: C9_10  and  S1_11 
REMARK    4  A    between atoms: C16_19  and  C17_20 
ROOT
HETATM    1  C1  UNL     1       4.183  -1.732   0.720  1.00  0.00     0.046 C 
HETATM    2  C2  UNL     1       2.682  -1.665   0.584  1.00  0.00    -0.047 C 
HETATM    3  C3  UNL     1       2.233  -2.284   1.664  1.00  0.00     0.144 C 
HETATM    4  O1  UNL     1       0.904  -2.498   2.022  1.00  0.00    -0.334 OA
HETATM    5  C4  UNL     1      -0.337  -2.557   1.395  1.00  0.00     0.148 C 
HETATM    6  C5  UNL     1      -0.787  -2.221   0.196  1.00  0.00    -0.032 C 
HETATM    7  C14 UNL     1      -0.195  -1.644  -1.012  1.00  0.00     0.006 C 
HETATM    8  C15 UNL     1       1.037  -1.190  -1.222  1.00  0.00    -0.010 C 
HETATM    9  C16 UNL     1       2.361  -0.959  -0.657  1.00  0.00     0.096 C 
ENDROOT
BRANCH   6  10
HETATM   10  C6  UNL     1      -2.236  -2.508   0.057  1.00  0.00     0.075 C 
BRANCH  10  11
HETATM   11  C7  UNL     1      -3.074  -1.346  -0.218  1.00  0.00    -0.071 C 
HETATM   12  C8  UNL     1      -2.761  -0.067  -0.365  1.00  0.00     0.025 C 
HETATM   13  C9  UNL     1      -3.716   0.999  -0.641  1.00  0.00     0.042 C 
HETATM   14  C11 UNL     1      -4.940   0.543  -0.854  1.00  0.00    -0.009 C 
HETATM   15  C12 UNL     1      -5.377  -0.492  -0.154  1.00  0.00    -0.009 C 
HETATM   16  C13 UNL     1      -4.528  -1.721  -0.349  1.00  0.00     0.062 C 
BRANCH  13  17
HETATM   17  S1  UNL     1      -3.158   2.672  -0.657  1.00  0.00     0.046 S 
HETATM   18  C10 UNL     1      -2.503   3.182   0.918  1.00  0.00     0.133 C 
HETATM   19  O2  UNL     1      -2.223   2.965  -1.816  1.00  0.00    -0.253 OA
ENDBRANCH  13  17
ENDBRANCH  10  11
ENDBRANCH   6  10
BRANCH   9  20
HETATM   20  C17 UNL     1       2.709   0.505  -0.577  1.00  0.00     0.065 A 
HETATM   21  C18 UNL     1       3.690   1.151  -1.297  1.00  0.00     0.036 A 
HETATM   22  C19 UNL     1       3.690   2.491  -0.935  1.00  0.00     0.035 A 
HETATM   23  C20 UNL     1       2.683   2.579   0.008  1.00  0.00     0.049 A 
HETATM   24  C21 UNL     1       2.367   3.897   0.654  1.00  0.00     0.076 C 
HETATM   25  O3  UNL     1       2.150   1.410   0.178  1.00  0.00    -0.319 OA
ENDBRANCH   9  20
TORSDOF 4
