REMARK  3 active torsions:
REMARK  status: ('A' for Active; 'I' for Inactive)
REMARK    1  A    between atoms: C5_5  and  P1_6 
REMARK    2  A    between atoms: C12_14  and  C13_15 
REMARK    3  A    between atoms: C16_18  and  S1_19 
ROOT
HETATM    1  P1  UNL     1       1.658  -0.271   0.207  1.00  0.00    -0.054 P 
HETATM    2  C6  UNL     1       0.938  -0.590   0.574  1.00  0.00    -0.052 A 
HETATM    3  C7  UNL     1      -0.040  -1.045   1.099  1.00  0.00     0.116 A 
HETATM    4  C8  UNL     1       1.000  -2.124   1.944  1.00  0.00     0.055 A 
HETATM    5  C9  UNL     1       2.370  -1.693   1.455  1.00  0.00     0.080 A 
HETATM    6  C10 UNL     1       2.155  -0.065  -0.031  1.00  0.00     0.081 A 
HETATM    7  O1  UNL     1       0.040  -2.767   2.565  1.00  0.00    -0.329 OA
HETATM    8  C11 UNL     1      -1.201  -2.377   2.138  1.00  0.00     0.151 C 
HETATM    9  C12 UNL     1      -1.279  -1.418   1.261  1.00  0.00    -0.008 C 
ENDROOT
BRANCH   9  10
HETATM   10  C13 UNL     1      -2.324  -0.767   0.506  1.00  0.00    -0.027 A 
HETATM   11  C14 UNL     1      -2.212   0.284  -0.356  1.00  0.00     0.013 A 
HETATM   12  C15 UNL     1      -3.320   0.783  -0.996  1.00  0.00     0.022 A 
HETATM   13  C16 UNL     1      -4.542   0.203  -0.752  1.00  0.00     0.031 A 
HETATM   14  C18 UNL     1      -4.738  -0.873   0.113  1.00  0.00     0.022 A 
HETATM   15  C19 UNL     1      -3.568  -1.309   0.713  1.00  0.00     0.013 A 
BRANCH  13  16
HETATM   16  S1  UNL     1      -6.002   0.831  -1.551  1.00  0.00     0.045 S 
HETATM   17  C17 UNL     1      -6.713   2.071  -0.430  1.00  0.00     0.133 C 
HETATM   18  O2  UNL     1      -6.982  -0.324  -1.753  1.00  0.00    -0.253 OA
ENDBRANCH  13  16
ENDBRANCH   9  10
BRANCH   1  19
HETATM   19  C5  UNL     1       3.837   0.750  -0.964  1.00  0.00     0.076 A 
HETATM   20  C4  UNL     1       3.732   1.532  -2.086  1.00  0.00     0.040 A 
HETATM   21  C3  UNL     1       5.067   1.640  -2.026  1.00  0.00     0.035 A 
HETATM   22  C2  UNL     1       5.845   1.062  -1.089  1.00  0.00     0.050 A 
HETATM   23  C1  UNL     1       7.141   0.797  -0.503  1.00  0.00     0.076 C 
HETATM   24  O3  UNL     1       4.995   0.445  -0.358  1.00  0.00    -0.315 OA
ENDBRANCH   1  19
TORSDOF 3
