REMARK  3 active torsions:
REMARK  status: ('A' for Active; 'I' for Inactive)
REMARK    1  A    between atoms: S1_2  and  C2_4 
REMARK    2  A    between atoms: C5_7  and  C6_8 
REMARK    3  A    between atoms: C11_14  and  C12_15 
ROOT
HETATM    1  C6  UNL     1       0.365   1.591   0.782  1.00  0.00     0.009 A 
HETATM    2  C7  UNL     1       0.586   2.770   1.493  1.00  0.00     0.155 A 
HETATM    3  O2  UNL     1      -0.558   3.206   1.957  1.00  0.00    -0.321 OA
HETATM    4  C8  UNL     1      -1.547   2.394   1.603  1.00  0.00     0.086 A 
HETATM    5  C9  UNL     1      -2.920   2.387   1.823  1.00  0.00     0.039 A 
HETATM    6  C10 UNL     1      -3.661   1.350   1.286  1.00  0.00     0.017 A 
HETATM    7  C11 UNL     1      -3.078   0.337   0.548  1.00  0.00    -0.001 A 
HETATM    8  C16 UNL     1      -1.719   0.324   0.318  1.00  0.00     0.029 A 
HETATM    9  C17 UNL     1      -0.995   1.365   0.860  1.00  0.00     0.012 A 
ENDROOT
BRANCH   1  10
HETATM   10  C5  UNL     1       1.454   0.862   0.141  1.00  0.00    -0.023 A 
HETATM   11  C4  UNL     1       2.372   1.606  -0.579  1.00  0.00     0.014 A 
HETATM   12  C3  UNL     1       3.429   0.944  -1.206  1.00  0.00     0.022 A 
HETATM   13  C2  UNL     1       3.538  -0.429  -1.098  1.00  0.00     0.031 A 
HETATM   14  C19 UNL     1       2.621  -1.179  -0.378  1.00  0.00     0.022 A 
HETATM   15  C18 UNL     1       1.582  -0.509   0.236  1.00  0.00     0.014 A 
BRANCH  13  16
HETATM   16  S1  UNL     1       4.942  -1.082  -1.961  1.00  0.00     0.045 S 
HETATM   17  C1  UNL     1       6.400  -1.146  -0.913  1.00  0.00     0.133 C 
HETATM   18  O1  UNL     1       4.691  -2.465  -2.531  1.00  0.00    -0.253 OA
ENDBRANCH  13  16
ENDBRANCH   1  10
BRANCH   7  19
HETATM   19  C12 UNL     1      -3.876  -0.752  -0.012  1.00  0.00     0.085 A 
HETATM   20  C13 UNL     1      -5.262  -0.876   0.136  1.00  0.00     0.040 A 
HETATM   21  C14 UNL     1      -5.645  -2.023  -0.529  1.00  0.00     0.027 A 
HETATM   22  C15 UNL     1      -4.483  -2.546  -1.051  1.00  0.00     0.142 A 
HETATM   23  O3  UNL     1      -3.479  -1.776  -0.727  1.00  0.00    -0.322 OA
ENDBRANCH   7  19
TORSDOF 3
