REMARK  3 active torsions:
REMARK  status: ('A' for Active; 'I' for Inactive)
REMARK    1  A    between atoms: C5_5  and  C6_6 
REMARK    2  A    between atoms: C12_12  and  C13_13 
REMARK    3  A    between atoms: C16_16  and  S1_17 
ROOT
HETATM    1  C6  UNL     1       2.357  -0.728   0.584  1.00  0.00    -0.002 A 
HETATM    2  C7  UNL     1       2.895  -1.282   1.727  1.00  0.00     0.014 A 
HETATM    3  C8  UNL     1       2.185  -2.163   2.504  1.00  0.00    -0.004 A 
HETATM    4  C9  UNL     1       0.945  -2.371   1.974  1.00  0.00    -0.089 A 
HETATM    5  C10 UNL     1       0.302  -1.887   0.859  1.00  0.00    -0.030 A 
HETATM    6  C11 UNL     1       1.086  -1.015   0.144  1.00  0.00     0.026 A 
HETATM    7  C12 UNL     1      -1.050  -2.308   0.557  1.00  0.00    -0.021 C 
HETATM    8  C20 UNL     1      -1.438  -3.538   0.813  1.00  0.00    -0.093 C 
HETATM    9  B1  UNL     1      -0.489  -3.596   2.737  1.00  0.00     0.226 B 
ENDROOT
BRANCH   7  10
HETATM   10  C13 UNL     1      -2.094  -1.472  -0.036  1.00  0.00    -0.025 A 
HETATM   11  C14 UNL     1      -3.179  -1.194   0.804  1.00  0.00     0.013 A 
HETATM   12  C15 UNL     1      -4.252  -0.425   0.422  1.00  0.00     0.022 A 
HETATM   13  C16 UNL     1      -4.283   0.105  -0.842  1.00  0.00     0.031 A 
HETATM   14  C18 UNL     1      -3.217  -0.162  -1.683  1.00  0.00     0.022 A 
HETATM   15  C19 UNL     1      -2.135  -0.933  -1.307  1.00  0.00     0.013 A 
BRANCH  13  16
HETATM   16  S1  UNL     1      -5.650   1.093  -1.353  1.00  0.00     0.045 S 
HETATM   17  C17 UNL     1      -5.295   2.811  -0.952  1.00  0.00     0.133 C 
HETATM   18  O1  UNL     1      -6.954   0.677  -0.674  1.00  0.00    -0.253 OA
ENDBRANCH  13  16
ENDBRANCH   7  10
BRANCH   1  19
HETATM   19  C5  UNL     1       3.214   0.213  -0.181  1.00  0.00     0.086 A 
HETATM   20  C4  UNL     1       2.833   0.853  -1.342  1.00  0.00     0.040 A 
HETATM   21  C3  UNL     1       3.954   1.618  -1.681  1.00  0.00     0.035 A 
HETATM   22  C2  UNL     1       4.935   1.396  -0.714  1.00  0.00     0.050 A 
HETATM   23  C1  UNL     1       6.302   1.956  -0.600  1.00  0.00     0.076 C 
HETATM   24  O2  UNL     1       4.430   0.538   0.167  1.00  0.00    -0.315 OA
ENDBRANCH   1  19
TORSDOF 3
