REMARK  4 active torsions:
REMARK  status: ('A' for Active; 'I' for Inactive)
REMARK    1  A    between atoms: C5_5  and  C6_6 
REMARK    2  A    between atoms: C11_12  and  C12_13 
REMARK    3  A    between atoms: C12_13  and  C13_14 
REMARK    4  A    between atoms: C14_15  and  C15_16 
ROOT
HETATM    1  C6  UNL     1      -1.871  -0.539  -0.478  1.00  0.00    -0.002 C 
HETATM    2  C7  UNL     1      -2.155  -0.948  -1.764  1.00  0.00     0.016 C 
HETATM    3  C8  UNL     1      -1.805  -0.192  -2.864  1.00  0.00     0.025 C 
HETATM    4  C9  UNL     1      -0.722   0.629  -2.742  1.00  0.00     0.141 C 
HETATM    5  O1  UNL     1       0.592   0.448  -2.773  1.00  0.00    -0.334 OA
HETATM    6  C10 UNL     1       1.342   0.749  -1.725  1.00  0.00     0.148 C 
HETATM    7  C11 UNL     1       1.537  -0.475  -1.118  1.00  0.00    -0.032 C 
HETATM    8  C18 UNL     1       0.618  -0.923  -0.211  1.00  0.00     0.010 C 
HETATM    9  C19 UNL     1      -0.618  -0.370   0.055  1.00  0.00     0.015 C 
ENDROOT
BRANCH   7  10
HETATM   10  C12 UNL     1       2.699  -1.365  -1.385  1.00  0.00     0.067 C 
BRANCH  10  11
HETATM   11  C13 UNL     1       3.762  -0.972  -0.397  1.00  0.00    -0.021 C 
HETATM   12  C14 UNL     1       4.024  -0.128   0.609  1.00  0.00     0.018 C 
BRANCH  12  13
HETATM   13  C15 UNL     1       5.278  -0.041   1.389  1.00  0.00     0.047 C 
HETATM   14  C16 UNL     1       5.492  -0.282   2.658  1.00  0.00     0.004 C 
HETATM   15  C17 UNL     1       6.093   0.898   2.691  1.00  0.00     0.097 C 
HETATM   16  S1  UNL     1       7.025   0.348   1.278  1.00  0.00     0.076 S 
HETATM   17  O2  UNL     1       7.357   1.414   0.261  1.00  0.00    -0.248 OA
ENDBRANCH  12  13
ENDBRANCH  10  11
ENDBRANCH   7  10
BRANCH   1  18
HETATM   18  C5  UNL     1      -2.994  -0.257   0.406  1.00  0.00     0.086 A 
HETATM   19  C4  UNL     1      -3.042   0.159   1.711  1.00  0.00     0.040 A 
HETATM   20  C3  UNL     1      -4.363   0.294   2.136  1.00  0.00     0.035 A 
HETATM   21  C2  UNL     1      -5.070  -0.063   1.012  1.00  0.00     0.050 A 
HETATM   22  C1  UNL     1      -6.561  -0.092   0.917  1.00  0.00     0.076 C 
HETATM   23  O3  UNL     1      -4.253  -0.377   0.026  1.00  0.00    -0.315 OA
ENDBRANCH   1  18
TORSDOF 4
