REMARK  5 active torsions:
REMARK  status: ('A' for Active; 'I' for Inactive)
REMARK    1  A    between atoms: C3_3  and  C4_4 
REMARK    2  A    between atoms: C3_3  and  S1_19 
REMARK    3  A    between atoms: C5_5  and  C6_6 
REMARK    4  A    between atoms: C8_10  and  C9_11 
REMARK    5  A    between atoms: C10_12  and  C11_13 
ROOT
HETATM    1  C6  UNL     1      -0.416   0.527   0.003  1.00  0.00     0.064 C 
HETATM    2  N1  UNL     1      -0.525   1.470  -0.911  1.00  0.00    -0.266 NA
HETATM    3  C7  UNL     1       0.844   1.777  -1.315  1.00  0.00     0.318 C 
HETATM    4  O1  UNL     1       1.614   1.463  -0.183  1.00  0.00    -0.355 OA
HETATM    5  C8  UNL     1       1.008   0.236   0.186  1.00  0.00     0.198 C 
ENDROOT
BRANCH   1   6
HETATM    6  C5  UNL     1      -1.854   0.313   0.320  1.00  0.00     0.031 C 
HETATM    7  C4  UNL     1      -3.007   0.862  -0.117  1.00  0.00     0.023 C 
BRANCH   7   8
HETATM    8  C3  UNL     1      -3.974   0.097   0.695  1.00  0.00     0.027 C 
HETATM    9  C2  UNL     1      -4.919   0.874   0.042  1.00  0.00    -0.010 C 
HETATM   10  C1  UNL     1      -4.575   1.903  -0.971  1.00  0.00     0.037 C 
BRANCH   8  11
HETATM   11  S1  UNL     1      -5.103  -0.796   1.642  1.00  0.00     0.045 S 
HETATM   12  C16 UNL     1      -6.281  -1.768   0.715  1.00  0.00     0.133 C 
HETATM   13  O3  UNL     1      -5.744   0.016   2.756  1.00  0.00    -0.253 OA
ENDBRANCH   8  11
ENDBRANCH   7   8
ENDBRANCH   1   6
BRANCH   5  14
HETATM   14  C9  UNL     1       1.496  -0.804  -0.752  1.00  0.00     0.014 C 
HETATM   15  C10 UNL     1       2.669  -1.366  -0.921  1.00  0.00     0.036 C 
BRANCH  15  16
HETATM   16  C11 UNL     1       3.919  -1.139  -0.211  1.00  0.00     0.075 A 
HETATM   17  C12 UNL     1       4.205  -0.283   0.831  1.00  0.00     0.039 A 
HETATM   18  C13 UNL     1       5.527  -0.373   1.220  1.00  0.00     0.035 A 
HETATM   19  C14 UNL     1       5.999  -1.344   0.331  1.00  0.00     0.050 A 
HETATM   20  C15 UNL     1       7.414  -1.841   0.308  1.00  0.00     0.076 C 
HETATM   21  O2  UNL     1       5.050  -1.735  -0.447  1.00  0.00    -0.316 OA
ENDBRANCH  15  16
ENDBRANCH   5  14
TORSDOF 5
