REMARK  7 active torsions:
REMARK  status: ('A' for Active; 'I' for Inactive)
REMARK    1  A    between atoms: O1_2  and  C2_3 
REMARK    2  A    between atoms: C5_6  and  O2_7 
REMARK    3  A    between atoms: C6_8  and  C7_9 
REMARK    4  A    between atoms: C7_9  and  N1_10 
REMARK    5  A    between atoms: N1_10  and  C8_11 
REMARK    6  A    between atoms: C9_12  and  N2_13 
REMARK    7  A    between atoms: N2_13  and  C10_14 
ROOT
HETATM    1  N1  UNL     1      -0.264  -2.191   1.381  1.00  0.00    -0.393 N 
HETATM    2  H9  UNL     1       0.058  -3.198   1.316  1.00  0.00     0.159 HD
ENDROOT
BRANCH   1   3
HETATM    3  C7  UNL     1      -1.545  -1.821   1.957  1.00  0.00     0.160 C 
BRANCH   3   4
HETATM    4  C6  UNL     1      -2.427  -1.110   1.001  1.00  0.00    -0.005 A 
HETATM    5  C5  UNL     1      -3.057  -1.870   0.033  1.00  0.00     0.073 A 
HETATM    6  C4  UNL     1      -3.898  -1.275  -0.898  1.00  0.00     0.040 A 
HETATM    7  C3  UNL     1      -4.115   0.087  -0.867  1.00  0.00     0.039 A 
HETATM    8  C2  UNL     1      -3.499   0.866   0.088  1.00  0.00     0.069 A 
HETATM    9  C16 UNL     1      -2.649   0.273   1.031  1.00  0.00     0.048 A 
BRANCH   5  10
HETATM   10  O2  UNL     1      -2.934  -3.251  -0.122  1.00  0.00    -0.360 OA
HETATM   11  H6  UNL     1      -2.293  -3.573  -0.849  1.00  0.00     0.217 HD
ENDBRANCH   5  10
BRANCH   8  12
HETATM   12  O1  UNL     1      -3.553   2.231   0.327  1.00  0.00    -0.356 OA
HETATM   13  C1  UNL     1      -4.294   3.162  -0.401  1.00  0.00     0.210 C 
ENDBRANCH   8  12
ENDBRANCH   3   4
ENDBRANCH   1   3
BRANCH   1  14
HETATM   14  C8  UNL     1       0.606  -1.177   0.877  1.00  0.00     0.100 C 
HETATM   15  C9  UNL     1       1.138  -0.680  -0.232  1.00  0.00     0.105 C 
BRANCH  15  16
HETATM   16  N2  UNL     1       2.026   0.429  -0.267  1.00  0.00    -0.365 N 
HETATM   17  H12 UNL     1       1.368   1.238  -0.263  1.00  0.00     0.165 HD
BRANCH  16  18
HETATM   18  C10 UNL     1       3.439   0.575  -0.301  1.00  0.00     0.033 A 
HETATM   19  C11 UNL     1       3.943   1.875  -0.329  1.00  0.00     0.032 A 
HETATM   20  C12 UNL     1       5.321   1.939  -0.360  1.00  0.00     0.046 A 
HETATM   21  C13 UNL     1       6.146   0.826  -0.364  1.00  0.00     0.138 A 
HETATM   22  F1  UNL     1       7.475   1.070  -0.397  1.00  0.00    -0.204 F 
HETATM   23  C14 UNL     1       5.571  -0.413  -0.335  1.00  0.00     0.074 A 
HETATM   24 CL1  UNL     1       6.705  -1.757  -0.343  1.00  0.00    -0.081 Cl
HETATM   25  C15 UNL     1       4.206  -0.559  -0.303  1.00  0.00     0.056 A 
ENDBRANCH  16  18
ENDBRANCH  15  16
ENDBRANCH   1  14
TORSDOF 7
