REMARK  6 active torsions:
REMARK  status: ('A' for Active; 'I' for Inactive)
REMARK    1  A    between atoms: C5_5  and  C6_6 
REMARK    2  A    between atoms: C9_9  and  O1_10 
REMARK    3  A    between atoms: O1_10  and  C10_11 
REMARK    4  A    between atoms: C10_11  and  B1_12 
REMARK    5  A    between atoms: B1_12  and  C11_13 
REMARK    6  A    between atoms: C14_16  and  S1_17 
ROOT
HETATM    1  C6  UNL     1       3.903   0.320   0.018  1.00  0.00    -0.002 A 
HETATM    2  C7  UNL     1       3.091   0.697   1.075  1.00  0.00     0.017 A 
HETATM    3  C8  UNL     1       1.739   0.922   0.913  1.00  0.00     0.038 A 
HETATM    4  C9  UNL     1       1.221   0.754  -0.355  1.00  0.00     0.073 A 
HETATM    5  C18 UNL     1       1.991   0.375  -1.460  1.00  0.00     0.038 A 
HETATM    6  C19 UNL     1       3.346   0.160  -1.249  1.00  0.00     0.017 A 
ENDROOT
BRANCH   4   7
HETATM    7  O1  UNL     1      -0.162   0.992  -0.480  1.00  0.00    -0.338 OA
BRANCH   7   8
HETATM    8  C10 UNL     1      -0.728   0.835  -1.744  1.00  0.00     0.055 C 
BRANCH   8   9
HETATM    9  B1  UNL     1      -2.364   0.353  -1.297  1.00  0.00     0.242 B 
BRANCH   9  10
HETATM   10  C11 UNL     1      -3.918  -0.107  -0.565  1.00  0.00    -0.099 A 
HETATM   11  C12 UNL     1      -4.098  -0.090   0.800  1.00  0.00    -0.004 A 
HETATM   12  C13 UNL     1      -5.325  -0.457   1.314  1.00  0.00     0.020 A 
HETATM   13  C14 UNL     1      -6.321  -0.826   0.438  1.00  0.00     0.031 A 
HETATM   14  C16 UNL     1      -6.141  -0.844  -0.949  1.00  0.00     0.020 A 
HETATM   15  C17 UNL     1      -4.895  -0.471  -1.459  1.00  0.00    -0.004 A 
BRANCH  13  16
HETATM   16  S1  UNL     1      -7.944  -1.321   0.932  1.00  0.00     0.045 S 
HETATM   17  C15 UNL     1      -8.983   0.153   0.999  1.00  0.00     0.133 C 
HETATM   18  O2  UNL     1      -7.903  -1.914   2.341  1.00  0.00    -0.253 OA
ENDBRANCH  13  16
ENDBRANCH   9  10
ENDBRANCH   8   9
ENDBRANCH   7   8
ENDBRANCH   4   7
BRANCH   1  19
HETATM   19  C5  UNL     1       5.333   0.077   0.164  1.00  0.00     0.086 A 
HETATM   20  C4  UNL     1       6.037   0.196   1.368  1.00  0.00     0.040 A 
HETATM   21  C3  UNL     1       7.374  -0.103   1.161  1.00  0.00     0.035 A 
HETATM   22  C2  UNL     1       7.404  -0.396  -0.206  1.00  0.00     0.050 A 
HETATM   23  C1  UNL     1       8.668  -0.785  -0.906  1.00  0.00     0.076 C 
HETATM   24  O3  UNL     1       6.215  -0.279  -0.730  1.00  0.00    -0.315 OA
ENDBRANCH   1  19
TORSDOF 6
