REMARK  3 active torsions:
REMARK  status: ('A' for Active; 'I' for Inactive)
REMARK    1  A    between atoms: O1_2  and  C2_3 
REMARK    2  A    between atoms: C8_12  and  N3_13 
REMARK    3  A    between atoms: N3_13  and  C9_14 
ROOT
HETATM    1  C2  UNL     1       4.870  -0.536   0.153  1.00  0.00     0.063 A 
HETATM    2  C3  UNL     1       4.787  -1.849   0.227  1.00  0.00     0.038 A 
HETATM    3  C4  UNL     1       3.466  -2.425   0.391  1.00  0.00     0.059 A 
HETATM    4  C5  UNL     1       2.398  -1.637   0.461  1.00  0.00     0.149 A 
HETATM    5  O2  UNL     1       1.273  -2.460   0.617  1.00  0.00    -0.273 OA
HETATM    6  C6  UNL     1      -0.060  -2.046   0.415  1.00  0.00     0.203 A 
HETATM    7  N1  UNL     1      -0.879  -3.112   0.611  1.00  0.00    -0.215 NA
HETATM    8  C7  UNL     1      -2.218  -2.924   0.464  1.00  0.00     0.238 A 
HETATM    9  N2  UNL     1      -2.667  -1.709   0.136  1.00  0.00    -0.222 NA
HETATM   10  C8  UNL     1      -1.940  -0.617  -0.073  1.00  0.00     0.160 A 
HETATM   11  C15 UNL     1      -0.583  -0.796   0.072  1.00  0.00     0.130 A 
HETATM   12  N4  UNL     1       0.201   0.357  -0.168  1.00  0.00    -0.367 N 
HETATM   13  C16 UNL     1       1.437   0.789   0.436  1.00  0.00     0.249 C 
HETATM   14  N5  UNL     1       2.474  -0.207   0.382  1.00  0.00    -0.339 N 
HETATM   15  C17 UNL     1       3.769   0.427   0.219  1.00  0.00     0.191 A 
HETATM   16  H11 UNL     1      -0.276   0.928  -0.934  1.00  0.00     0.161 HD
ENDROOT
BRANCH  10  17
HETATM   17  N3  UNL     1      -2.455   0.636  -0.411  1.00  0.00    -0.339 N 
HETATM   18  H7  UNL     1      -1.974   1.541  -0.554  1.00  0.00     0.167 HD
BRANCH  17  19
HETATM   19  C9  UNL     1      -3.817   0.979  -0.620  1.00  0.00     0.035 A 
HETATM   20  C10 UNL     1      -4.337   2.045  -1.364  1.00  0.00     0.032 A 
HETATM   21  C11 UNL     1      -5.676   2.316  -1.506  1.00  0.00     0.046 A 
HETATM   22  C12 UNL     1      -6.599   1.502  -0.885  1.00  0.00     0.138 A 
HETATM   23  F1  UNL     1      -7.891   1.852  -1.086  1.00  0.00    -0.204 F 
HETATM   24  C13 UNL     1      -6.121   0.429  -0.133  1.00  0.00     0.074 A 
HETATM   25 CL1  UNL     1      -7.395  -0.523   0.600  1.00  0.00    -0.081 Cl
HETATM   26  C14 UNL     1      -4.770   0.192  -0.017  1.00  0.00     0.056 A 
ENDBRANCH  17  19
ENDBRANCH  10  17
BRANCH   1  27
HETATM   27  O1  UNL     1       6.154  -0.032  -0.003  1.00  0.00    -0.359 OA
HETATM   28  C1  UNL     1       6.467   1.344   0.131  1.00  0.00     0.209 C 
ENDBRANCH   1  27
TORSDOF 3
