REMARK  2 active torsions:
REMARK  status: ('A' for Active; 'I' for Inactive)
REMARK    1  A    between atoms: S1_2  and  C2_4 
REMARK    2  A    between atoms: C5_7  and  C6_8 
ROOT
HETATM    1  C6  UNL     1       0.122   0.552   1.098  1.00  0.00    -0.015 A 
HETATM    2  C7  UNL     1       0.156   1.255   2.208  1.00  0.00     0.150 A 
HETATM    3  O2  UNL     1      -1.088   1.670   2.611  1.00  0.00    -0.326 OA
HETATM    4  C8  UNL     1      -2.058   1.207   1.692  1.00  0.00     0.061 A 
HETATM    5  C9  UNL     1      -3.334   1.508   1.880  1.00  0.00     0.033 C 
HETATM    6  C10 UNL     1      -4.613   1.266   1.252  1.00  0.00     0.005 C 
HETATM    7  C11 UNL     1      -5.043   0.587   0.184  1.00  0.00     0.037 C 
HETATM    8  C12 UNL     1      -4.533  -0.246  -0.886  1.00  0.00     0.075 A 
HETATM    9  C13 UNL     1      -4.221  -0.983  -1.974  1.00  0.00     0.040 A 
HETATM   10  C14 UNL     1      -2.989  -1.561  -1.823  1.00  0.00     0.035 A 
HETATM   11  C15 UNL     1      -2.603  -1.126  -0.603  1.00  0.00     0.054 A 
HETATM   12  O3  UNL     1      -3.520  -0.379  -0.110  1.00  0.00    -0.315 OA
HETATM   13  C16 UNL     1      -1.660  -1.013   0.558  1.00  0.00     0.081 C 
HETATM   14  C17 UNL     1      -1.286   0.470   0.711  1.00  0.00     0.085 A 
ENDROOT
BRANCH   1  15
HETATM   15  C5  UNL     1       1.365   0.056   0.562  1.00  0.00    -0.027 A 
HETATM   16  C4  UNL     1       2.559   0.199   1.191  1.00  0.00     0.013 A 
HETATM   17  C3  UNL     1       3.768  -0.239   0.701  1.00  0.00     0.022 A 
HETATM   18  C2  UNL     1       3.805  -0.874  -0.515  1.00  0.00     0.031 A 
HETATM   19  C19 UNL     1       2.623  -1.048  -1.201  1.00  0.00     0.022 A 
HETATM   20  C18 UNL     1       1.445  -0.585  -0.654  1.00  0.00     0.013 A 
BRANCH  18  21
HETATM   21  S1  UNL     1       5.351  -1.446  -1.163  1.00  0.00     0.045 S 
HETATM   22  C1  UNL     1       6.078  -0.129  -2.148  1.00  0.00     0.133 C 
HETATM   23  O1  UNL     1       6.302  -1.698   0.014  1.00  0.00    -0.253 OA
ENDBRANCH  18  21
ENDBRANCH   1  15
TORSDOF 2
