REMARK  5 active torsions:
REMARK  status: ('A' for Active; 'I' for Inactive)
REMARK    1  A    between atoms: C2_2  and  C3_3 
REMARK    2  A    between atoms: C10_10  and  C11_11 
REMARK    3  A    between atoms: C10_10  and  C17_19 
REMARK    4  A    between atoms: C11_11  and  C12_12 
REMARK    5  A    between atoms: C15_15  and  S1_16 
ROOT
HETATM    1  C3  UNL     1      -3.153   0.606  -0.704  1.00  0.00     0.045 C 
HETATM    2  C4  UNL     1      -2.429   1.723  -1.181  1.00  0.00     0.006 C 
HETATM    3  C5  UNL     1      -1.014   2.366  -1.337  1.00  0.00     0.040 C 
HETATM    4  C6  UNL     1       0.152   1.515  -1.157  1.00  0.00    -0.023 A 
HETATM    5  C7  UNL     1      -0.653   0.844  -0.196  1.00  0.00    -0.006 A 
HETATM    6  C8  UNL     1       0.026  -0.350   0.099  1.00  0.00     0.063 A 
HETATM    7  C9  UNL     1      -0.021  -1.533   0.855  1.00  0.00     0.109 A 
HETATM    8  C10 UNL     1       0.897  -0.932  -0.074  1.00  0.00     0.010 A 
HETATM    9  C17 UNL     1       0.627   0.305  -0.688  1.00  0.00     0.011 A 
HETATM   10  O2  UNL     1      -1.238  -1.660   1.643  1.00  0.00    -0.351 OA
HETATM   11  C18 UNL     1      -2.354  -0.750   1.314  1.00  0.00     0.345 C 
HETATM   12  O3  UNL     1      -2.850  -0.675  -0.007  1.00  0.00    -0.331 OA
ENDROOT
BRANCH   8  13
HETATM   13  C11 UNL     1       2.119  -1.724  -0.342  1.00  0.00     0.053 C 
BRANCH  13  14
HETATM   14  C12 UNL     1       3.116  -1.689   0.729  1.00  0.00    -0.038 A 
HETATM   15  C13 UNL     1       3.704  -2.605   1.519  1.00  0.00     0.010 A 
HETATM   16  C14 UNL     1       4.486  -1.590   2.191  1.00  0.00     0.022 A 
HETATM   17  C15 UNL     1       3.911  -0.662   1.413  1.00  0.00     0.037 A 
BRANCH  17  18
HETATM   18  S1  UNL     1       4.045   1.098   1.261  1.00  0.00     0.046 S 
HETATM   19  C16 UNL     1       4.624   1.521  -0.387  1.00  0.00     0.133 C 
HETATM   20  O1  UNL     1       5.104   1.599   2.240  1.00  0.00    -0.253 OA
ENDBRANCH  17  18
ENDBRANCH  13  14
ENDBRANCH   8  13
BRANCH   1  21
HETATM   21  C2  UNL     1      -4.654   0.478  -0.825  1.00  0.00     0.060 C 
HETATM   22  C1  UNL     1      -4.997  -0.755  -1.622  1.00  0.00     0.012 C 
ENDBRANCH   1  21
TORSDOF 5
