REMARK  3 active torsions:
REMARK  status: ('A' for Active; 'I' for Inactive)
REMARK    1  A    between atoms: C5_5  and  C6_6 
REMARK    2  A    between atoms: C6_6  and  C7_7 
REMARK    3  A    between atoms: C15_15  and  S1_16 
ROOT
HETATM    1  C7  UNL     1       1.339   0.215  -0.245  1.00  0.00    -0.066 C 
HETATM    2  C8  UNL     1       1.818  -1.021   0.256  1.00  0.00    -0.021 C 
HETATM    3  C9  UNL     1       1.069  -2.145  -0.582  1.00  0.00     0.046 C 
HETATM    4  C10 UNL     1       0.195  -1.061  -1.226  1.00  0.00     0.019 A 
HETATM    5  C11 UNL     1      -0.867  -0.538  -0.661  1.00  0.00    -0.044 A 
HETATM    6  C12 UNL     1      -2.156  -0.329  -0.066  1.00  0.00    -0.032 A 
HETATM    7  C13 UNL     1      -3.168  -1.074  -0.659  1.00  0.00     0.013 A 
HETATM    8  C14 UNL     1      -4.451  -0.958  -0.153  1.00  0.00     0.022 A 
HETATM    9  C15 UNL     1      -4.642  -0.107   0.910  1.00  0.00     0.031 A 
HETATM   10  C17 UNL     1      -3.623   0.622   1.481  1.00  0.00     0.022 A 
HETATM   11  C18 UNL     1      -2.335   0.530   1.002  1.00  0.00     0.013 A 
HETATM   12  C19 UNL     1       0.010   0.653  -0.829  1.00  0.00     0.069 A 
HETATM   13  C20 UNL     1      -0.056   0.620  -2.361  1.00  0.00    -0.016 C 
HETATM   14  C21 UNL     1       0.822  -0.377  -2.415  1.00  0.00    -0.014 C 
ENDROOT
BRANCH   1  15
HETATM   15  C6  UNL     1       2.348   1.345  -0.192  1.00  0.00     0.100 C 
BRANCH  15  16
HETATM   16  C5  UNL     1       3.623   0.838   0.423  1.00  0.00     0.057 A 
HETATM   17  C4  UNL     1       4.007   0.930   1.747  1.00  0.00     0.035 A 
HETATM   18  C3  UNL     1       5.241   0.314   1.771  1.00  0.00     0.035 A 
HETATM   19  C2  UNL     1       5.553  -0.120   0.486  1.00  0.00     0.049 A 
HETATM   20  C1  UNL     1       6.750  -0.834  -0.035  1.00  0.00     0.076 C 
HETATM   21  O2  UNL     1       4.545   0.223  -0.278  1.00  0.00    -0.320 OA
ENDBRANCH  15  16
ENDBRANCH   1  15
BRANCH   9  22
HETATM   22  S1  UNL     1      -6.291   0.018   1.538  1.00  0.00     0.045 S 
HETATM   23  C16 UNL     1      -7.214   1.313   0.693  1.00  0.00     0.133 C 
HETATM   24  O1  UNL     1      -7.028  -1.305   1.294  1.00  0.00    -0.253 OA
ENDBRANCH   9  22
TORSDOF 3
