REMARK  6 active torsions:
REMARK  status: ('A' for Active; 'I' for Inactive)
REMARK    1  A    between atoms: C2_2  and  C3_3 
REMARK    2  A    between atoms: C3_3  and  C4_4 
REMARK    3  A    between atoms: C3_3  and  S1_18 
REMARK    4  A    between atoms: C5_5  and  C6_6 
REMARK    5  A    between atoms: C11_12  and  C12_13 
REMARK    6  A    between atoms: C12_13  and  O2_14 
ROOT
HETATM    1  C6  UNL     1       0.625  -1.281   0.639  1.00  0.00    -0.001 A 
HETATM    2  C7  UNL     1       0.563  -2.635   0.841  1.00  0.00     0.154 A 
HETATM    3  O1  UNL     1       1.816  -3.071   0.829  1.00  0.00    -0.321 OA
HETATM    4  C8  UNL     1       2.649  -2.071   0.633  1.00  0.00     0.086 A 
HETATM    5  C9  UNL     1       4.024  -2.007   0.540  1.00  0.00     0.039 A 
HETATM    6  C10 UNL     1       4.624  -0.765   0.322  1.00  0.00     0.012 A 
HETATM    7  C11 UNL     1       3.914   0.430   0.190  1.00  0.00    -0.033 A 
HETATM    8  C13 UNL     1       2.540   0.337   0.287  1.00  0.00     0.024 A 
HETATM    9  C14 UNL     1       1.941  -0.889   0.502  1.00  0.00     0.010 A 
ENDROOT
BRANCH   1  10
HETATM   10  C5  UNL     1      -0.519  -0.380   0.576  1.00  0.00     0.012 C 
HETATM   11  C4  UNL     1      -1.752  -0.844   0.719  1.00  0.00    -0.005 C 
BRANCH  11  12
HETATM   12  C3  UNL     1      -3.031  -0.068   0.683  1.00  0.00     0.123 C 
BRANCH  12  13
HETATM   13  C2  UNL     1      -3.803  -0.685  -0.457  1.00  0.00    -0.016 C 
HETATM   14  C1  UNL     1      -5.125  -0.784  -0.383  1.00  0.00     0.008 C 
ENDBRANCH  12  13
BRANCH  12  15
HETATM   15  S1  UNL     1      -2.586   1.614   0.176  1.00  0.00     0.022 S 
HETATM   16  C15 UNL     1      -4.144   2.466  -0.134  1.00  0.00     0.128 C 
HETATM   17  O3  UNL     1      -1.839   2.264   1.348  1.00  0.00    -0.257 OA
ENDBRANCH  12  15
ENDBRANCH  11  12
ENDBRANCH   1  10
BRANCH   7  18
HETATM   18  C12 UNL     1       4.587   1.715  -0.039  1.00  0.00     0.223 C 
BRANCH  18  19
HETATM   19  O2  UNL     1       4.757   2.001  -1.401  1.00  0.00    -0.308 OA
HETATM   20 BR1  UNL     1       3.102   2.065  -2.200  1.00  0.00     0.099 Br
ENDBRANCH  18  19
ENDBRANCH   7  18
TORSDOF 6
