REMARK  8 active torsions:
REMARK  status: ('A' for Active; 'I' for Inactive)
REMARK    1  A    between atoms: C3_3  and  O1_5 
REMARK    2  A    between atoms: O1_5  and  C5_6 
REMARK    3  A    between atoms: C5_6  and  C6_7 
REMARK    4  A    between atoms: C8_9  and  S1_10 
REMARK    5  A    between atoms: S1_10  and  C9_12 
REMARK    6  A    between atoms: C13_16  and  C14_17 
REMARK    7  A    between atoms: C14_17  and  O3_18 
REMARK    8  A    between atoms: O3_18  and  C15_19 
ROOT
HETATM    1  C6  UNL     1       0.222   0.572   0.247  1.00  0.00    -0.024 A 
HETATM    2  C7  UNL     1       1.590   0.785   0.462  1.00  0.00     0.030 A 
HETATM    3  C8  UNL     1       2.470  -0.168   0.942  1.00  0.00     0.032 A 
HETATM    4  C11 UNL     1       1.895  -1.393   1.208  1.00  0.00     0.021 A 
HETATM    5  C12 UNL     1       0.557  -1.642   1.011  1.00  0.00     0.011 A 
HETATM    6  C13 UNL     1      -0.294  -0.696   0.538  1.00  0.00    -0.026 A 
ENDROOT
BRANCH   6   7
HETATM    7  C14 UNL     1      -1.749  -0.770   0.275  1.00  0.00     0.214 C 
BRANCH   7   8
HETATM    8  O3  UNL     1      -2.232  -2.074   0.474  1.00  0.00    -0.350 OA
BRANCH   8   9
HETATM    9  C15 UNL     1      -1.796  -3.164  -0.263  1.00  0.00     0.058 A 
HETATM   10  C16 UNL     1      -0.922  -3.483  -1.288  1.00  0.00     0.030 A 
HETATM   11  C17 UNL     1      -0.975  -4.817  -1.557  1.00  0.00    -0.012 A 
HETATM   12  C18 UNL     1      -1.880  -5.438  -0.730  1.00  0.00     0.011 A 
HETATM   13  C19 UNL     1      -2.844  -5.734   0.240  1.00  0.00     0.024 A 
HETATM   14  C20 UNL     1      -2.413  -4.350   0.114  1.00  0.00     0.041 A 
ENDBRANCH   8   9
ENDBRANCH   7   8
ENDBRANCH   6   7
BRANCH   1  15
HETATM   15  C5  UNL     1      -0.582   1.708  -0.279  1.00  0.00     0.214 C 
BRANCH  15  16
HETATM   16  O1  UNL     1      -1.387   2.286   0.737  1.00  0.00    -0.352 OA
BRANCH  16  17
HETATM   17  C3  UNL     1      -2.243   3.330   0.514  1.00  0.00     0.038 C 
HETATM   18  C2  UNL     1      -1.711   4.524   0.235  1.00  0.00     0.001 C 
HETATM   19  C1  UNL     1      -2.360   5.828  -0.051  1.00  0.00     0.038 C 
HETATM   20  C4  UNL     1      -3.707   3.127   0.581  1.00  0.00     0.076 C 
ENDBRANCH  16  17
ENDBRANCH  15  16
ENDBRANCH   1  15
BRANCH   3  21
HETATM   21  S1  UNL     1       4.178   0.233   1.172  1.00  0.00     0.049 S 
HETATM   22  O2  UNL     1       4.774  -0.600   2.303  1.00  0.00    -0.253 OA
BRANCH  21  23
HETATM   23  C9  UNL     1       5.159  -0.055  -0.298  1.00  0.00     0.109 C 
HETATM   24  C10 UNL     1       5.110  -1.516  -0.733  1.00  0.00     0.019 C 
ENDBRANCH  21  23
ENDBRANCH   3  21
TORSDOF 8
