REMARK  9 active torsions:
REMARK  status: ('A' for Active; 'I' for Inactive)
REMARK    1  A    between atoms: C3_3  and  C4_4 
REMARK    2  A    between atoms: C3_3  and  C9_10 
REMARK    3  A    between atoms: C4_4  and  C5_5 
REMARK    4  A    between atoms: C5_5  and  C6_6 
REMARK    5  A    between atoms: C12_14  and  C13_15 
REMARK    6  A    between atoms: C13_15  and  C14_16 
REMARK    7  A    between atoms: C15_17  and  C16_18 
REMARK    8  A    between atoms: C17_19  and  C18_20 
REMARK    9  A    between atoms: C18_20  and  S1_21 
ROOT
HETATM    1  C9  UNL     1       1.883  -0.960   1.732  1.00  0.00     0.073 C 
HETATM    2  C10 UNL     1       1.280  -2.306   2.069  1.00  0.00     0.188 C 
HETATM    3  O2  UNL     1       0.360  -1.804   3.105  1.00  0.00    -0.362 OA
HETATM    4  C11 UNL     1      -0.211  -0.678   2.441  1.00  0.00     0.138 C 
HETATM    5  C12 UNL     1       0.679  -0.100   1.565  1.00  0.00    -0.044 C 
ENDROOT
BRANCH   1   6
HETATM    6  C3  UNL     1       2.845  -0.959   0.644  1.00  0.00    -0.055 C 
HETATM    7  C2  UNL     1       2.899  -2.173   0.032  1.00  0.00    -0.023 C 
HETATM    8  C1  UNL     1       3.831  -2.456  -1.094  1.00  0.00     0.036 C 
BRANCH   6   9
HETATM    9  C4  UNL     1       3.770   0.057   0.107  1.00  0.00    -0.010 C 
BRANCH   9  10
HETATM   10  C5  UNL     1       3.698   1.206   0.792  1.00  0.00     0.045 C 
BRANCH  10  11
HETATM   11  C6  UNL     1       3.837   2.556   1.336  1.00  0.00     0.017 C 
HETATM   12  C7  UNL     1       2.969   2.427   2.373  1.00  0.00     0.068 A 
HETATM   13  C8  UNL     1       2.059   2.425   3.532  1.00  0.00     0.239 A 
HETATM   14  O1  UNL     1       2.779   3.540   3.200  1.00  0.00    -0.347 OA
ENDBRANCH  10  11
ENDBRANCH   9  10
ENDBRANCH   6   9
ENDBRANCH   1   6
BRANCH   5  15
HETATM   15  C13 UNL     1       0.032   1.043   0.898  1.00  0.00     0.064 C 
BRANCH  15  16
HETATM   16  C14 UNL     1      -0.039   0.848  -0.581  1.00  0.00    -0.022 C 
HETATM   17  C15 UNL     1      -1.326   0.821  -0.995  1.00  0.00    -0.004 C 
BRANCH  17  18
HETATM   18  C16 UNL     1      -2.366   0.707  -2.061  1.00  0.00    -0.003 C 
HETATM   19  C17 UNL     1      -3.672   0.683  -2.380  1.00  0.00    -0.014 C 
BRANCH  19  20
HETATM   20  C18 UNL     1      -4.674   0.810  -1.327  1.00  0.00     0.135 C 
BRANCH  20  21
HETATM   21  S1  UNL     1      -5.795  -0.589  -1.222  1.00  0.00     0.014 S 
HETATM   22  C19 UNL     1      -6.705  -0.808  -2.753  1.00  0.00     0.127 C 
HETATM   23  O3  UNL     1      -5.122  -1.842  -0.728  1.00  0.00    -0.258 OA
ENDBRANCH  20  21
ENDBRANCH  19  20
ENDBRANCH  17  18
ENDBRANCH  15  16
ENDBRANCH   5  15
TORSDOF 9
