REMARK  4 active torsions:
REMARK  status: ('A' for Active; 'I' for Inactive)
REMARK    1  A    between atoms: S1_2  and  C3_4 
REMARK    2  A    between atoms: C6_7  and  C7_8 
REMARK    3  A    between atoms: C10_12  and  C11_13 
REMARK    4  A    between atoms: C11_13  and  C14_16 
ROOT
HETATM    1  C7  UNL     1      -0.015   0.536  -1.853  1.00  0.00    -0.015 C 
HETATM    2  C8  UNL     1      -0.456   0.917  -3.086  1.00  0.00     0.143 C 
HETATM    3  O1  UNL     1       0.599   0.902  -4.038  1.00  0.00    -0.361 OA
HETATM    4  C9  UNL     1       1.467  -0.169  -3.518  1.00  0.00     0.188 C 
HETATM    5  C10 UNL     1       1.413   0.331  -2.070  1.00  0.00     0.081 C 
ENDROOT
BRANCH   1   6
HETATM    6  C6  UNL     1      -1.099   0.545  -0.889  1.00  0.00    -0.027 A 
HETATM    7  C5  UNL     1      -2.355   1.054  -1.106  1.00  0.00     0.013 A 
HETATM    8  C4  UNL     1      -3.380   1.010  -0.187  1.00  0.00     0.019 A 
HETATM    9  C3  UNL     1      -3.173   0.426   1.041  1.00  0.00    -0.007 A 
HETATM   10  C20 UNL     1      -1.934  -0.105   1.324  1.00  0.00     0.019 A 
HETATM   11  C19 UNL     1      -0.962  -0.022   0.353  1.00  0.00     0.013 A 
BRANCH   9  12
HETATM   12  S1  UNL     1      -4.521   0.394   2.189  1.00  0.00    -0.176 SA
HETATM   13  C1  UNL     1      -5.362   1.740   2.213  1.00  0.00     0.057 C 
HETATM   14  C2  UNL     1      -5.513  -1.085   2.002  1.00  0.00     0.087 C 
ENDBRANCH   9  12
ENDBRANCH   1   6
BRANCH   5  15
HETATM   15  C11 UNL     1       2.215  -0.397  -1.131  1.00  0.00    -0.018 C 
HETATM   16  C12 UNL     1       2.743  -1.560  -1.549  1.00  0.00    -0.020 C 
HETATM   17  C13 UNL     1       3.602  -2.407  -0.646  1.00  0.00     0.036 C 
BRANCH  15  18
HETATM   18  C14 UNL     1       2.575   0.039   0.207  1.00  0.00     0.082 A 
HETATM   19  C15 UNL     1       2.179   1.225   0.839  1.00  0.00     0.040 A 
HETATM   20  C16 UNL     1       2.715   1.301   2.106  1.00  0.00     0.035 A 
HETATM   21  C17 UNL     1       3.428   0.125   2.180  1.00  0.00     0.050 A 
HETATM   22  C18 UNL     1       4.237  -0.340   3.360  1.00  0.00     0.076 C 
HETATM   23  O2  UNL     1       3.328  -0.566   1.088  1.00  0.00    -0.315 OA
ENDBRANCH  15  18
ENDBRANCH   5  15
TORSDOF 4
