REMARK  6 active torsions:
REMARK  status: ('A' for Active; 'I' for Inactive)
REMARK    1  A    between atoms: C3_3  and  C5_5 
REMARK    2  A    between atoms: C11_11  and  C12_12 
REMARK    3  A    between atoms: C13_13  and  C14_14 
REMARK    4  A    between atoms: C15_15  and  C16_16 
REMARK    5  A    between atoms: C17_17  and  O1_18 
REMARK    6  A    between atoms: S1_19  and  C18_21 
ROOT
HETATM    1  C5  UNL     1       3.350   0.183   0.871  1.00  0.00    -0.030 A 
HETATM    2  C6  UNL     1       3.460   1.485   1.306  1.00  0.00     0.014 A 
HETATM    3  C7  UNL     1       2.432   2.218   1.916  1.00  0.00     0.038 A 
HETATM    4  C8  UNL     1       1.248   1.477   2.042  1.00  0.00     0.079 A 
HETATM    5  C9  UNL     1       1.063   0.198   1.640  1.00  0.00     0.009 A 
HETATM    6  C10 UNL     1       2.139  -0.450   1.046  1.00  0.00     0.025 A 
HETATM    7  C11 UNL     1      -0.322   0.268   2.127  1.00  0.00     0.187 A 
HETATM    8  O3  UNL     1      -0.032   1.578   2.509  1.00  0.00    -0.337 OA
ENDROOT
BRANCH   7   9
HETATM    9  C12 UNL     1      -1.369   0.227   1.067  1.00  0.00     0.007 C 
HETATM   10  C13 UNL     1      -1.701  -1.005   0.618  1.00  0.00    -0.009 C 
BRANCH  10  11
HETATM   11  C14 UNL     1      -2.724  -0.808  -0.392  1.00  0.00     0.127 A 
HETATM   12  C15 UNL     1      -3.586  -0.958  -1.268  1.00  0.00     0.141 A 
HETATM   13  S1  UNL     1      -3.533   0.801  -1.047  1.00  0.00    -0.021 S 
HETATM   14  O2  UNL     1      -3.171   1.545  -2.301  1.00  0.00    -0.268 OA
BRANCH  12  15
HETATM   15  C16 UNL     1      -4.471  -1.517  -2.204  1.00  0.00    -0.049 C 
HETATM   16  C17 UNL     1      -5.194  -1.986  -2.950  1.00  0.00     0.053 C 
BRANCH  16  17
HETATM   17  O1  UNL     1      -6.036  -2.559  -3.833  1.00  0.00    -0.314 OA
HETATM   18  H15 UNL     1      -6.733  -3.250  -3.545  1.00  0.00     0.230 HD
ENDBRANCH  16  17
ENDBRANCH  12  15
BRANCH  13  19
HETATM   19  C18 UNL     1      -5.166   1.360  -0.473  1.00  0.00     0.094 C 
HETATM   20  C19 UNL     1      -5.149   2.857  -0.284  1.00  0.00     0.017 C 
ENDBRANCH  13  19
ENDBRANCH  10  11
ENDBRANCH   7   9
BRANCH   1  21
HETATM   21  C3  UNL     1       4.452  -0.535   0.246  1.00  0.00    -0.056 C 
HETATM   22  C2  UNL     1       4.322  -1.790  -0.153  1.00  0.00    -0.023 C 
HETATM   23  C1  UNL     1       5.513  -2.456  -0.783  1.00  0.00     0.036 C 
HETATM   24  C4  UNL     1       5.811   0.001  -0.016  1.00  0.00     0.049 C 
ENDBRANCH   1  21
TORSDOF 6
