REMARK  7 active torsions:
REMARK  status: ('A' for Active; 'I' for Inactive)
REMARK    1  A    between atoms: C3_3  and  O1_4 
REMARK    2  A    between atoms: O1_4  and  C4_5 
REMARK    3  A    between atoms: C4_5  and  C5_6 
REMARK    4  A    between atoms: C8_9  and  O2_10 
REMARK    5  A    between atoms: O2_10  and  C9_11 
REMARK    6  A    between atoms: C9_11  and  C10_12 
REMARK    7  A    between atoms: C13_15  and  C14_16 
ROOT
HETATM    1  C1  UNL     1       8.527   0.085   0.385  1.00  0.00     0.114 C 
HETATM    2  C2  UNL     1       7.077   0.071   0.332  1.00  0.00    -0.081 C 
HETATM    3  C3  UNL     1       5.871   0.075   0.284  1.00  0.00     0.054 C 
ENDROOT
BRANCH   3   4
HETATM    4  O1  UNL     1       4.512   0.098   0.225  1.00  0.00    -0.299 OA
BRANCH   4   5
HETATM    5  C4  UNL     1       3.747   1.257  -0.041  1.00  0.00     0.226 C 
BRANCH   5   6
HETATM    6  C5  UNL     1       2.314   0.866  -0.019  1.00  0.00    -0.033 A 
HETATM    7  C6  UNL     1       1.727   0.452  -1.194  1.00  0.00     0.012 A 
HETATM    8  C7  UNL     1       0.425   0.060  -1.347  1.00  0.00     0.037 A 
HETATM    9  C8  UNL     1      -0.370   0.082  -0.216  1.00  0.00     0.069 A 
HETATM   10  C16 UNL     1       0.171   0.490   0.993  1.00  0.00     0.037 A 
HETATM   11  C17 UNL     1       1.500   0.878   1.087  1.00  0.00     0.012 A 
BRANCH   9  12
HETATM   12  O2  UNL     1      -1.693  -0.282  -0.212  1.00  0.00    -0.347 OA
BRANCH  12  13
HETATM   13  C9  UNL     1      -2.325  -0.712  -1.403  1.00  0.00     0.210 C 
BRANCH  13  14
HETATM   14  C10 UNL     1      -3.738  -1.036  -1.092  1.00  0.00    -0.052 A 
HETATM   15  C11 UNL     1      -4.561  -2.072  -1.147  1.00  0.00     0.006 A 
HETATM   16  C12 UNL     1      -5.905  -1.745  -0.675  1.00  0.00     0.011 A 
HETATM   17  C13 UNL     1      -5.842  -0.466  -0.338  1.00  0.00    -0.017 A 
HETATM   18  C15 UNL     1      -4.497   0.131  -0.553  1.00  0.00     0.078 A 
BRANCH  17  19
HETATM   19  C14 UNL     1      -6.981   0.276   0.191  1.00  0.00     0.265 C 
HETATM   20  O3  UNL     1      -8.108  -0.208   0.376  1.00  0.00    -0.302 OA
ENDBRANCH  17  19
ENDBRANCH  13  14
ENDBRANCH  12  13
ENDBRANCH   9  12
ENDBRANCH   5   6
ENDBRANCH   4   5
ENDBRANCH   3   4
TORSDOF 7
