REMARK  5 active torsions:
REMARK  status: ('A' for Active; 'I' for Inactive)
REMARK    1  A    between atoms: C5_6  and  C6_7 
REMARK    2  A    between atoms: C11_13  and  C12_14 
REMARK    3  A    between atoms: C12_14  and  C13_15 
REMARK    4  A    between atoms: C13_15  and  S1_16 
REMARK    5  A    between atoms: S1_16  and  C14_18 
ROOT
HETATM    1  C6  UNL     1       3.074  -0.296  -0.090  1.00  0.00    -0.001 A 
HETATM    2  C7  UNL     1       3.050  -1.586  -0.551  1.00  0.00     0.017 A 
HETATM    3  C8  UNL     1       1.963  -2.396  -0.655  1.00  0.00     0.039 A 
HETATM    4  C9  UNL     1       0.727  -1.928  -0.272  1.00  0.00     0.085 A 
HETATM    5  O2  UNL     1      -0.471  -2.420  -0.242  1.00  0.00    -0.321 OA
HETATM    6  C10 UNL     1      -1.359  -1.577   0.215  1.00  0.00     0.150 A 
HETATM    7  C11 UNL     1      -0.651  -0.415   0.511  1.00  0.00    -0.022 A 
HETATM    8  C20 UNL     1       0.667  -0.644   0.201  1.00  0.00     0.007 A 
HETATM    9  C21 UNL     1       1.801   0.130   0.283  1.00  0.00     0.029 A 
ENDROOT
BRANCH   7  10
HETATM   10  C12 UNL     1      -1.202   0.832   1.055  1.00  0.00     0.054 C 
BRANCH  10  11
HETATM   11  C13 UNL     1      -2.698   0.772   1.290  1.00  0.00     0.119 C 
BRANCH  11  12
HETATM   12  S1  UNL     1      -3.521   0.442  -0.275  1.00  0.00     0.050 S 
HETATM   13  O3  UNL     1      -3.250   1.559  -1.273  1.00  0.00    -0.253 OA
BRANCH  12  14
HETATM   14  C14 UNL     1      -5.277   0.358  -0.076  1.00  0.00     0.032 C 
HETATM   15  C15 UNL     1      -5.852  -0.805  -0.387  1.00  0.00     0.022 C 
HETATM   16  C16 UNL     1      -7.294  -0.842  -0.213  1.00  0.00     0.014 C 
HETATM   17  C17 UNL     1      -7.973   0.185   0.259  1.00  0.00    -0.014 C 
HETATM   18  C18 UNL     1      -7.283   1.078   0.869  1.00  0.00    -0.013 C 
HETATM   19  C19 UNL     1      -6.109   1.462   0.396  1.00  0.00     0.034 C 
ENDBRANCH  12  14
ENDBRANCH  11  12
ENDBRANCH  10  11
ENDBRANCH   7  10
BRANCH   1  20
HETATM   20  C5  UNL     1       4.188   0.607   0.043  1.00  0.00     0.091 A 
HETATM   21  C2  UNL     1       5.523   0.481  -0.232  1.00  0.00    -0.025 A 
HETATM   22  C1  UNL     1       6.192  -0.720  -0.777  1.00  0.00     0.051 C 
HETATM   23  C3  UNL     1       6.194   1.648   0.072  1.00  0.00     0.034 A 
HETATM   24  C4  UNL     1       5.185   2.460   0.536  1.00  0.00     0.143 A 
HETATM   25  O1  UNL     1       4.059   1.810   0.496  1.00  0.00    -0.321 OA
ENDBRANCH   1  20
TORSDOF 5
