REMARK  4 active torsions:
REMARK  status: ('A' for Active; 'I' for Inactive)
REMARK    1  A    between atoms: C2_2  and  S1_3 
REMARK    2  A    between atoms: S1_3  and  C3_5 
REMARK    3  A    between atoms: C6_8  and  C7_9 
REMARK    4  A    between atoms: C12_15  and  C13_16 
ROOT
HETATM    1  C7  UNL     1       0.557   1.347  -0.118  1.00  0.00     0.006 A 
HETATM    2  C8  UNL     1       0.925   2.644  -0.514  1.00  0.00     0.155 A 
HETATM    3  O2  UNL     1      -0.128   3.348  -0.840  1.00  0.00    -0.321 OA
HETATM    4  C9  UNL     1      -1.227   2.649  -0.706  1.00  0.00     0.086 A 
HETATM    5  C10 UNL     1      -2.561   2.915  -0.912  1.00  0.00     0.039 A 
HETATM    6  C11 UNL     1      -3.542   1.950  -0.680  1.00  0.00     0.017 A 
HETATM    7  C12 UNL     1      -3.103   0.704  -0.229  1.00  0.00    -0.001 A 
HETATM    8  C18 UNL     1      -1.763   0.487  -0.040  1.00  0.00     0.029 A 
HETATM    9  C19 UNL     1      -0.789   1.431  -0.265  1.00  0.00     0.011 A 
ENDROOT
BRANCH   1  10
HETATM   10  C6  UNL     1       1.491   0.315   0.305  1.00  0.00    -0.040 A 
HETATM   11  C5  UNL     1       1.346  -0.928   0.703  1.00  0.00     0.009 A 
HETATM   12  C4  UNL     1       2.589  -1.609   1.037  1.00  0.00     0.017 A 
HETATM   13  C3  UNL     1       3.521  -0.701   0.820  1.00  0.00     0.013 A 
HETATM   14  C20 UNL     1       2.954   0.574   0.348  1.00  0.00     0.087 A 
BRANCH  13  15
HETATM   15  S1  UNL     1       5.272  -0.774   0.999  1.00  0.00     0.045 S 
HETATM   16  O1  UNL     1       5.819   0.038   2.133  1.00  0.00    -0.253 OA
BRANCH  15  17
HETATM   17  C2  UNL     1       6.154  -0.511  -0.540  1.00  0.00     0.109 C 
HETATM   18  C1  UNL     1       7.640  -0.604  -0.222  1.00  0.00     0.019 C 
ENDBRANCH  15  17
ENDBRANCH  13  15
ENDBRANCH   1  10
BRANCH   7  19
HETATM   19  C13 UNL     1      -4.100  -0.331   0.024  1.00  0.00     0.086 A 
HETATM   20  C14 UNL     1      -3.879  -1.607   0.465  1.00  0.00     0.040 A 
HETATM   21  C15 UNL     1      -5.119  -2.205   0.553  1.00  0.00     0.035 A 
HETATM   22  C16 UNL     1      -6.039  -1.261   0.160  1.00  0.00     0.050 A 
HETATM   23  C17 UNL     1      -7.484  -1.621   0.151  1.00  0.00     0.076 C 
HETATM   24  O3  UNL     1      -5.390  -0.158  -0.147  1.00  0.00    -0.315 OA
ENDBRANCH   7  19
TORSDOF 4
