REMARK  3 active torsions:
REMARK  status: ('A' for Active; 'I' for Inactive)
REMARK    1  A    between atoms: O1_2  and  C2_3 
REMARK    2  A    between atoms: C10_14  and  N4_15 
REMARK    3  A    between atoms: N4_15  and  C11_16 
ROOT
HETATM    1  C2  UNL     1       4.661  -0.079   1.716  1.00  0.00     0.068 A 
HETATM    2  C3  UNL     1       4.008   0.951   2.325  1.00  0.00     0.039 A 
HETATM    3  C4  UNL     1       2.727   1.223   1.921  1.00  0.00     0.040 A 
HETATM    4  C5  UNL     1       2.073   0.516   0.940  1.00  0.00     0.076 A 
HETATM    5  C6  UNL     1       2.689  -0.534   0.293  1.00  0.00    -0.008 A 
HETATM    6  C7  UNL     1       3.996  -0.777   0.736  1.00  0.00     0.048 A 
HETATM    7  C8  UNL     1       2.167  -1.401  -0.781  1.00  0.00     0.151 C 
HETATM    8  N1  UNL     1       1.470  -2.549  -0.294  1.00  0.00    -0.235 NA
HETATM    9  N2  UNL     1       0.297  -2.264   0.406  1.00  0.00    -0.315 N 
HETATM   10  C9  UNL     1      -0.699  -1.324  -0.048  1.00  0.00     0.220 C 
HETATM   11  N3  UNL     1      -0.987  -0.293   0.665  1.00  0.00    -0.226 NA
HETATM   12  C10 UNL     1      -1.967   0.610   0.190  1.00  0.00     0.127 C 
HETATM   13  C17 UNL     1      -1.265   1.732  -0.063  1.00  0.00     0.050 C 
HETATM   14  C18 UNL     1       0.215   1.982   0.116  1.00  0.00     0.207 C 
HETATM   15  O2  UNL     1       0.813   0.847   0.603  1.00  0.00    -0.347 OA
HETATM   16  H9  UNL     1       1.262  -3.185  -1.079  1.00  0.00     0.146 HD
HETATM   17  H10 UNL     1      -0.092  -2.619   1.304  1.00  0.00     0.181 HD
ENDROOT
BRANCH  12  18
HETATM   18  N4  UNL     1      -3.327   0.712  -0.082  1.00  0.00    -0.341 N 
HETATM   19  H12 UNL     1      -3.755   1.336   0.643  1.00  0.00     0.167 HD
BRANCH  18  20
HETATM   20  C11 UNL     1      -4.361   0.307  -0.952  1.00  0.00     0.035 A 
HETATM   21  C12 UNL     1      -5.017  -0.875  -0.603  1.00  0.00     0.032 A 
HETATM   22  C13 UNL     1      -6.050  -1.312  -1.433  1.00  0.00     0.046 A 
HETATM   23  C14 UNL     1      -6.376  -0.562  -2.556  1.00  0.00     0.138 A 
HETATM   24  F1  UNL     1      -7.378  -0.938  -3.409  1.00  0.00    -0.204 F 
HETATM   25  C15 UNL     1      -5.692   0.599  -2.851  1.00  0.00     0.074 A 
HETATM   26 CL1  UNL     1      -6.067   1.594  -4.267  1.00  0.00    -0.081 Cl
HETATM   27  C16 UNL     1      -4.665   1.074  -2.064  1.00  0.00     0.056 A 
ENDBRANCH  18  20
ENDBRANCH  12  18
BRANCH   1  28
HETATM   28  O1  UNL     1       5.948  -0.399   2.080  1.00  0.00    -0.356 OA
HETATM   29  C1  UNL     1       6.622   0.323   3.085  1.00  0.00     0.210 C 
ENDBRANCH   1  28
TORSDOF 3
