REMARK  2 active torsions:
REMARK  status: ('A' for Active; 'I' for Inactive)
REMARK    1  A    between atoms: O1_2  and  C2_3 
REMARK    2  A    between atoms: C15_20  and  C16_21 
ROOT
HETATM    1  C2  UNL     1       2.769  -2.806  -0.713  1.00  0.00     0.069 A 
HETATM    2  C3  UNL     1       1.787  -3.024  -1.643  1.00  0.00     0.039 A 
HETATM    3  C4  UNL     1       0.823  -2.062  -1.828  1.00  0.00     0.040 A 
HETATM    4  C5  UNL     1       0.731  -0.844  -1.147  1.00  0.00     0.078 A 
HETATM    5  C6  UNL     1       1.780  -0.720  -0.221  1.00  0.00     0.006 A 
HETATM    6  C7  UNL     1       2.760  -1.648  -0.002  1.00  0.00     0.048 A 
HETATM    7  C8  UNL     1       1.550   0.621   0.431  1.00  0.00     0.315 C 
HETATM    8  N1  UNL     1       1.204   1.607  -0.520  1.00  0.00     0.123 N 
HETATM    9  C9  UNL     1       0.547   2.801   0.042  1.00  0.00     0.281 A 
HETATM   10  C10 UNL     1       0.610   3.762  -1.086  1.00  0.00     0.156 A 
HETATM   11  N2  UNL     1       1.203   4.927  -1.101  1.00  0.00    -0.254 NA
HETATM   12  C11 UNL     1       1.883   5.397   0.056  1.00  0.00     0.226 A 
HETATM   13  N3  UNL     1       1.845   4.626   1.019  1.00  0.00    -0.278 NA
HETATM   14  C12 UNL     1       1.248   3.356   1.197  1.00  0.00     0.220 A 
HETATM   15  N4  UNL     1      -0.842   2.483   0.248  1.00  0.00    -0.364 N 
HETATM   16  C13 UNL     1      -1.275   1.985   1.476  1.00  0.00     0.148 C 
HETATM   17  C14 UNL     1      -1.910   0.613   1.402  1.00  0.00     0.003 C 
HETATM   18  C15 UNL     1      -1.885  -0.158   0.353  1.00  0.00    -0.019 C 
HETATM   19  C22 UNL     1      -1.444   0.414  -0.921  1.00  0.00     0.184 C 
HETATM   20  O2  UNL     1      -0.291  -0.056  -1.490  1.00  0.00    -0.339 OA
HETATM   21  C23 UNL     1      -1.492   1.951  -0.897  1.00  0.00     0.112 C 
HETATM   22  C24 UNL     1      -2.962   2.383  -0.829  1.00  0.00     0.035 C 
HETATM   23  H9  UNL     1       2.070   1.949  -1.037  1.00  0.00     0.320 HD
ENDROOT
BRANCH  18  24
HETATM   24  C16 UNL     1      -2.291  -1.554   0.441  1.00  0.00    -0.028 A 
HETATM   25  C17 UNL     1      -2.327  -2.398  -0.649  1.00  0.00     0.012 A 
HETATM   26  C18 UNL     1      -2.696  -3.727  -0.624  1.00  0.00     0.001 A 
HETATM   27  C19 UNL     1      -3.063  -4.275   0.588  1.00  0.00     0.000 A 
HETATM   28  C20 UNL     1      -3.054  -3.495   1.725  1.00  0.00     0.001 A 
HETATM   29  C21 UNL     1      -2.671  -2.175   1.610  1.00  0.00     0.012 A 
ENDBRANCH  18  24
BRANCH   1  30
HETATM   30  O1  UNL     1       3.767  -3.704  -0.462  1.00  0.00    -0.356 OA
HETATM   31  C1  UNL     1       4.794  -3.497   0.498  1.00  0.00     0.210 C 
ENDBRANCH   1  30
TORSDOF 2
