REMARK  4 active torsions:
REMARK  status: ('A' for Active; 'I' for Inactive)
REMARK    1  A    between atoms: C2_2  and  S1_3 
REMARK    2  A    between atoms: S1_3  and  C3_5 
REMARK    3  A    between atoms: C6_8  and  C7_9 
REMARK    4  A    between atoms: C12_15  and  C13_16 
ROOT
HETATM    1  C7  UNL     1      -0.203  -2.308  -1.081  1.00  0.00     0.009 A 
HETATM    2  C8  UNL     1      -0.416  -3.577  -1.586  1.00  0.00     0.155 A 
HETATM    3  O2  UNL     1      -1.710  -3.748  -1.671  1.00  0.00    -0.321 OA
HETATM    4  C9  UNL     1      -2.360  -2.695  -1.263  1.00  0.00     0.086 A 
HETATM    5  C10 UNL     1      -3.701  -2.391  -1.160  1.00  0.00     0.039 A 
HETATM    6  C11 UNL     1      -4.131  -1.170  -0.682  1.00  0.00     0.017 A 
HETATM    7  C12 UNL     1      -3.230  -0.188  -0.282  1.00  0.00    -0.002 A 
HETATM    8  C18 UNL     1      -1.903  -0.528  -0.398  1.00  0.00     0.029 A 
HETATM    9  C19 UNL     1      -1.443  -1.741  -0.872  1.00  0.00     0.012 A 
ENDROOT
BRANCH   1  10
HETATM   10  C6  UNL     1       1.082  -1.672  -0.811  1.00  0.00    -0.023 A 
HETATM   11  C5  UNL     1       1.449  -0.383  -1.137  1.00  0.00     0.014 A 
HETATM   12  C4  UNL     1       2.700   0.106  -0.828  1.00  0.00     0.022 A 
HETATM   13  C3  UNL     1       3.629  -0.685  -0.179  1.00  0.00     0.031 A 
HETATM   14  C21 UNL     1       3.268  -1.977   0.150  1.00  0.00     0.022 A 
HETATM   15  C20 UNL     1       2.016  -2.478  -0.155  1.00  0.00     0.014 A 
BRANCH  13  16
HETATM   16  S1  UNL     1       5.186   0.070   0.153  1.00  0.00     0.049 S 
HETATM   17  O1  UNL     1       6.324  -0.934   0.028  1.00  0.00    -0.253 OA
BRANCH  16  18
HETATM   18  C2  UNL     1       5.231   0.893   1.735  1.00  0.00     0.109 C 
HETATM   19  C1  UNL     1       6.607   1.507   1.924  1.00  0.00     0.019 C 
ENDBRANCH  16  18
ENDBRANCH  13  16
ENDBRANCH   1  10
BRANCH   7  20
HETATM   20  C13 UNL     1      -3.692   1.099   0.222  1.00  0.00     0.079 A 
HETATM   21  C14 UNL     1      -2.903   2.084   0.623  1.00  0.00     0.037 A 
HETATM   22  C15 UNL     1      -3.406   3.363   1.123  1.00  0.00     0.001 A 
HETATM   23  C16 UNL     1      -4.693   3.556   1.182  1.00  0.00    -0.000 A 
HETATM   24  C17 UNL     1      -5.648   2.506   0.753  1.00  0.00     0.203 A 
HETATM   25  O3  UNL     1      -5.051   1.331   0.296  1.00  0.00    -0.347 OA
ENDBRANCH   7  20
TORSDOF 4
