REMARK  7 active torsions:
REMARK  status: ('A' for Active; 'I' for Inactive)
REMARK    1  A    between atoms: C2_2  and  C3_3 
REMARK    2  A    between atoms: C11_14  and  N4_15 
REMARK       I    between atoms: N4_15  and  C12_16 
REMARK    3  A    between atoms: C12_16  and  C13_18 
REMARK    4  A    between atoms: C13_18  and  C14_19 
REMARK    5  A    between atoms: C14_19  and  N5_20 
REMARK       I    between atoms: N5_20  and  C15_21 
REMARK    6  A    between atoms: C15_21  and  C16_23 
REMARK    7  A    between atoms: N6_26  and  S1_27 
ROOT
HETATM    1  N4  UNL     1      -0.124  -1.045   0.358  1.00  0.00    -0.156 N 
HETATM    2  C12 UNL     1       0.710  -0.580  -0.698  1.00  0.00     0.237 C 
HETATM    3  O1  UNL     1       0.109  -0.427  -1.809  1.00  0.00    -0.273 OA
HETATM    4  H14 UNL     1       0.036  -1.270   1.360  1.00  0.00     0.187 HD
ENDROOT
BRANCH   1   5
HETATM    5  C11 UNL     1      -1.528  -1.318   0.176  1.00  0.00     0.729 A 
HETATM    6  N3  UNL     1      -1.797  -2.583  -0.196  1.00  0.00    -0.074 NA
HETATM    7  C10 UNL     1      -3.088  -2.960  -0.398  1.00  0.00     0.146 A 
HETATM    8  C9  UNL     1      -4.113  -2.023  -0.216  1.00  0.00    -0.008 A 
HETATM    9  C8  UNL     1      -5.451  -2.596  -0.476  1.00  0.00     0.047 A 
HETATM   10  C20 UNL     1      -3.758  -0.751   0.164  1.00  0.00     0.112 A 
HETATM   11  C7  UNL     1      -6.556  -1.616  -0.288  1.00  0.00     0.048 A 
HETATM   12  C6  UNL     1      -6.110  -0.259   0.123  1.00  0.00    -0.001 A 
HETATM   13  C3  UNL     1      -6.944   0.808   0.355  1.00  0.00     0.063 A 
HETATM   14  C5  UNL     1      -4.838   0.204   0.347  1.00  0.00     0.090 A 
HETATM   15  N1  UNL     1      -6.173   1.846   0.702  1.00  0.00    -0.176 NA
HETATM   16  N2  UNL     1      -4.891   1.500   0.703  1.00  0.00    -0.271 N 
HETATM   17  C4  UNL     1      -3.755   2.317   1.016  1.00  0.00     0.180 C 
HETATM   18  N7  UNL     1      -2.473  -0.408   0.357  1.00  0.00    -0.060 NA
BRANCH  13  19
HETATM   19  C2  UNL     1      -8.432   0.901   0.268  1.00  0.00     0.057 C 
HETATM   20  C1  UNL     1      -8.942   2.263   0.608  1.00  0.00     0.011 C 
ENDBRANCH  13  19
ENDBRANCH   1   5
BRANCH   2  21
HETATM   21  C13 UNL     1       2.108  -0.381  -0.244  1.00  0.00     0.123 C 
BRANCH  21  22
HETATM   22  C14 UNL     1       3.008   0.107  -1.329  1.00  0.00     0.132 C 
BRANCH  22  23
HETATM   23  N5  UNL     1       4.370   0.297  -0.866  1.00  0.00    -0.359 N 
HETATM   24  C15 UNL     1       5.142  -0.772  -0.331  1.00  0.00     0.236 C 
HETATM   25  O2  UNL     1       4.709  -1.948  -0.219  1.00  0.00    -0.272 OA
HETATM   26  H19 UNL     1       4.864   1.204  -0.893  1.00  0.00     0.162 HD
BRANCH  24  27
HETATM   27  C16 UNL     1       6.526  -0.712   0.171  1.00  0.00     0.167 C 
HETATM   28  C17 UNL     1       6.668  -0.582   1.688  1.00  0.00     0.046 C 
HETATM   29  C18 UNL     1       7.946   0.151   1.268  1.00  0.00     0.110 C 
HETATM   30  N6  UNL     1       7.167   0.602   0.104  1.00  0.00    -0.197 NA
BRANCH  30  31
HETATM   31  S1  UNL     1       8.138   0.819  -1.307  1.00  0.00     0.208 S 
HETATM   32  C19 UNL     1       9.377   2.052  -1.078  1.00  0.00     0.180 C 
HETATM   33  O3  UNL     1       8.808  -0.451  -1.743  1.00  0.00    -0.212 OA
HETATM   34  O4  UNL     1       7.180   1.213  -2.418  1.00  0.00    -0.212 OA
ENDBRANCH  30  31
ENDBRANCH  24  27
ENDBRANCH  22  23
ENDBRANCH  21  22
ENDBRANCH   2  21
TORSDOF 7
