REMARK  4 active torsions:
REMARK  status: ('A' for Active; 'I' for Inactive)
REMARK    1  A    between atoms: C3_5  and  N3_6 
REMARK    2  A    between atoms: N3_6  and  C4_7 
REMARK    3  A    between atoms: N4_10  and  P1_11 
REMARK    4  A    between atoms: P1_11  and  C7_12 
ROOT
HETATM    1  C1  UNL     1      -2.839  -1.956  -1.121  1.00  0.00     0.174 C 
HETATM    2  N1  UNL     1      -2.813  -1.769   0.307  1.00  0.00    -0.285 N 
HETATM    3  N2  UNL     1      -1.956  -2.297   1.321  1.00  0.00    -0.229 NA
HETATM    4  C2  UNL     1      -0.698  -2.674   0.718  1.00  0.00     0.188 C 
HETATM    5  C3  UNL     1      -0.058  -1.453   0.062  1.00  0.00     0.109 C 
HETATM    6  N5  UNL     1      -0.765  -0.459   0.260  1.00  0.00    -0.275 NA
HETATM    7  C10 UNL     1      -0.854   0.894   0.007  1.00  0.00     0.157 C 
HETATM    8  C11 UNL     1      -2.134   1.567   0.443  1.00  0.00     0.078 C 
HETATM    9  C12 UNL     1      -3.359   1.076  -0.145  1.00  0.00     0.008 C 
HETATM   10  C13 UNL     1      -4.169   0.473  -1.038  1.00  0.00     0.032 C 
HETATM   11  C14 UNL     1      -4.845  -0.088   0.191  1.00  0.00     0.202 C 
HETATM   12  C15 UNL     1      -3.812  -0.897   0.877  1.00  0.00     0.260 C 
HETATM   13  O2  UNL     1      -3.949  -0.684   2.131  1.00  0.00    -0.269 OA
HETATM   14  N6  UNL     1      -4.599   1.304   0.573  1.00  0.00    -0.372 N 
HETATM   15  C16 UNL     1      -5.079   2.514   1.259  1.00  0.00     0.150 C 
HETATM   16  H4  UNL     1      -1.834  -1.607   2.093  1.00  0.00     0.147 HD
ENDROOT
BRANCH   5  17
HETATM   17  N3  UNL     1       1.169  -1.518  -0.655  1.00  0.00    -0.373 N 
HETATM   18  H7  UNL     1       1.295  -2.417  -1.214  1.00  0.00     0.161 HD
BRANCH  17  19
HETATM   19  C4  UNL     1       2.043  -0.383  -0.520  1.00  0.00     0.085 C 
HETATM   20  C5  UNL     1       2.499  -0.189   0.887  1.00  0.00     0.040 C 
HETATM   21  C6  UNL     1       3.704   0.708   1.004  1.00  0.00     0.097 C 
HETATM   22  N4  UNL     1       4.766   0.339   0.106  1.00  0.00    -0.287 NA
HETATM   23  C8  UNL     1       4.475  -0.881  -0.594  1.00  0.00     0.097 C 
HETATM   24  C9  UNL     1       3.238  -0.611  -1.457  1.00  0.00     0.040 C 
BRANCH  22  25
HETATM   25  P1  UNL     1       5.085   1.606  -1.131  1.00  0.00     0.010 P 
HETATM   26  H13 UNL     1       4.230   2.748  -0.995  1.00  0.00     0.081 HD
BRANCH  25  27
HETATM   27  C7  UNL     1       6.871   2.019  -1.090  1.00  0.00     0.276 C 
HETATM   28  O1  UNL     1       7.766   1.715  -0.320  1.00  0.00    -0.301 OA
ENDBRANCH  25  27
ENDBRANCH  22  25
ENDBRANCH  17  19
ENDBRANCH   5  17
TORSDOF 4
