REMARK  7 active torsions:
REMARK  status: ('A' for Active; 'I' for Inactive)
REMARK    1  A    between atoms: C2_2  and  N1_3 
REMARK    2  A    between atoms: N1_3  and  C3_4 
REMARK       I    between atoms: N1_3  and  C17_25 
REMARK    3  A    between atoms: C3_4  and  C4_5 
REMARK    4  A    between atoms: C4_5  and  C5_6 
REMARK    5  A    between atoms: C5_6  and  N2_7 
REMARK    6  A    between atoms: N2_7  and  C6_8 
REMARK    7  A    between atoms: C12_16  and  C13_17 
REMARK       I    between atoms: C13_17  and  N5_18 
ROOT
HETATM    1  C6  UNL     1      -0.179   0.765   1.148  1.00  0.00     0.722 A 
HETATM    2  N3  UNL     1       0.144  -0.519   1.151  1.00  0.00    -0.075 NA
HETATM    3  C7  UNL     1      -0.742  -1.500   0.920  1.00  0.00     0.146 A 
HETATM    4  C8  UNL     1      -2.067  -1.215   0.661  1.00  0.00    -0.008 A 
HETATM    5  C9  UNL     1      -2.411   0.100   0.654  1.00  0.00     0.112 A 
HETATM    6  N4  UNL     1      -1.471   1.031   0.894  1.00  0.00    -0.060 NA
HETATM    7  C10 UNL     1      -3.807   0.432   0.382  1.00  0.00     0.091 A 
HETATM    8  C11 UNL     1      -4.702  -0.596   0.147  1.00  0.00     0.009 A 
HETATM    9  C12 UNL     1      -5.893   0.031  -0.069  1.00  0.00     0.153 A 
HETATM   10  N6  UNL     1      -5.718   1.361   0.032  1.00  0.00    -0.166 NA
HETATM   11  N7  UNL     1      -4.450   1.609   0.306  1.00  0.00    -0.271 N 
HETATM   12  C14 UNL     1      -3.810   2.916   0.503  1.00  0.00     0.180 C 
HETATM   13  C15 UNL     1      -4.377  -2.019   0.144  1.00  0.00     0.048 A 
HETATM   14  C16 UNL     1      -2.957  -2.351   0.421  1.00  0.00     0.047 A 
ENDROOT
BRANCH   1  15
HETATM   15  N2  UNL     1       0.721   1.836   1.386  1.00  0.00    -0.222 N 
HETATM   16  H12 UNL     1       0.384   2.821   1.369  1.00  0.00     0.177 HD
BRANCH  15  17
HETATM   17  C5  UNL     1       2.127   1.630   1.660  1.00  0.00     0.140 C 
BRANCH  17  18
HETATM   18  C4  UNL     1       2.774   0.943   0.498  1.00  0.00     0.040 C 
BRANCH  18  19
HETATM   19  C3  UNL     1       4.240   0.747   0.819  1.00  0.00     0.127 C 
BRANCH  19  20
HETATM   20  N1  UNL     1       4.887   0.084  -0.289  1.00  0.00    -0.353 N 
HETATM   21  C17 UNL     1       5.468   0.837  -1.349  1.00  0.00     0.215 C 
HETATM   22  C18 UNL     1       6.129   0.127  -2.478  1.00  0.00     0.117 C 
HETATM   23  O2  UNL     1       5.407   2.113  -1.304  1.00  0.00    -0.274 OA
BRANCH  20  24
HETATM   24  C2  UNL     1       4.894  -1.361  -0.232  1.00  0.00     0.121 C 
HETATM   25  C1  UNL     1       6.122  -1.868   0.485  1.00  0.00     0.026 C 
ENDBRANCH  20  24
ENDBRANCH  19  20
ENDBRANCH  18  19
ENDBRANCH  17  18
ENDBRANCH  15  17
ENDBRANCH   1  15
BRANCH   9  26
HETATM   26  C13 UNL     1      -7.166  -0.603  -0.363  1.00  0.00     0.270 C 
HETATM   27  N5  UNL     1      -8.353   0.152  -0.571  1.00  0.00    -0.365 N 
HETATM   28  H14 UNL     1      -8.371   1.186  -0.375  1.00  0.00     0.159 HD
HETATM   29  H15 UNL     1      -9.213  -0.293  -0.916  1.00  0.00     0.159 HD
HETATM   30  O1  UNL     1      -7.215  -1.851  -0.434  1.00  0.00    -0.266 OA
ENDBRANCH   9  26
TORSDOF 7
