REMARK  6 active torsions:
REMARK  status: ('A' for Active; 'I' for Inactive)
REMARK    1  A    between atoms: C2_2  and  P1_3 
REMARK    2  A    between atoms: C4_6  and  N2_7 
REMARK    3  A    between atoms: N2_7  and  C5_8 
REMARK       I    between atoms: N3_11  and  C8_12 
REMARK    4  A    between atoms: C12_18  and  C13_19 
REMARK    5  A    between atoms: C13_19  and  C14_20 
REMARK    6  A    between atoms: C16_22  and  C17_23 
REMARK       I    between atoms: C17_23  and  N5_24 
ROOT
HETATM    1  P1  UNL     1      -1.492  -2.609   0.920  1.00  0.00    -0.027 P 
HETATM    2  C3  UNL     1       0.108  -2.714   1.161  1.00  0.00     0.148 A 
HETATM    3  N1  UNL     1       0.976  -1.895   0.388  1.00  0.00    -0.076 NA
HETATM    4  C4  UNL     1       0.557  -1.066  -0.502  1.00  0.00     0.700 A 
HETATM    5  N4  UNL     1      -0.809  -0.842  -0.846  1.00  0.00    -0.193 N 
HETATM    6  C12 UNL     1      -1.902  -1.520  -0.238  1.00  0.00     0.041 A 
HETATM    7  H20 UNL     1      -1.005  -0.152  -1.576  1.00  0.00     0.184 HD
ENDROOT
BRANCH   6   8
HETATM    8  C13 UNL     1      -3.322  -1.306  -0.576  1.00  0.00     0.117 C 
BRANCH   8   9
HETATM    9  C14 UNL     1      -3.812   0.060  -0.368  1.00  0.00     0.038 A 
HETATM   10  C15 UNL     1      -4.344   0.537   0.811  1.00  0.00     0.066 A 
HETATM   11  C16 UNL     1      -4.694   1.870   0.614  1.00  0.00     0.146 A 
HETATM   12  N6  UNL     1      -4.383   2.194  -0.646  1.00  0.00    -0.167 NA
HETATM   13  N7  UNL     1      -3.864   1.117  -1.213  1.00  0.00    -0.277 N 
HETATM   14  C18 UNL     1      -3.411   1.097  -2.589  1.00  0.00     0.179 C 
BRANCH  11  15
HETATM   15  C17 UNL     1      -5.295   2.721   1.649  1.00  0.00     0.269 C 
HETATM   16  N5  UNL     1      -5.607   4.076   1.320  1.00  0.00    -0.365 N 
HETATM   17  H24 UNL     1      -6.347   4.629   1.816  1.00  0.00     0.159 HD
HETATM   18  H25 UNL     1      -5.070   4.539   0.543  1.00  0.00     0.159 HD
HETATM   19  O2  UNL     1      -5.510   2.220   2.783  1.00  0.00    -0.266 OA
ENDBRANCH  11  15
ENDBRANCH   8   9
ENDBRANCH   6   8
BRANCH   1  20
HETATM   20  C2  UNL     1      -2.742  -3.577   1.815  1.00  0.00     0.041 C 
HETATM   21  C1  UNL     1      -3.301  -2.836   2.984  1.00  0.00     0.010 C 
ENDBRANCH   1  20
BRANCH   4  22
HETATM   22  N2  UNL     1       1.570  -0.330  -1.177  1.00  0.00    -0.220 N 
HETATM   23  H7  UNL     1       1.294   0.572  -1.664  1.00  0.00     0.178 HD
BRANCH  22  24
HETATM   24  C5  UNL     1       2.954  -0.838  -1.178  1.00  0.00     0.102 C 
HETATM   25  C6  UNL     1       3.526  -0.970   0.176  1.00  0.00     0.045 C 
HETATM   26  C7  UNL     1       4.928  -0.473   0.342  1.00  0.00     0.127 C 
HETATM   27  N3  UNL     1       5.154   0.845  -0.156  1.00  0.00    -0.352 N 
HETATM   28  C8  UNL     1       6.084   1.723   0.470  1.00  0.00     0.215 C 
HETATM   29  C10 UNL     1       4.392   1.215  -1.313  1.00  0.00     0.127 C 
HETATM   30  C9  UNL     1       6.359   3.095   0.001  1.00  0.00     0.117 C 
HETATM   31  O1  UNL     1       6.610   1.136   1.463  1.00  0.00    -0.274 OA
HETATM   32  C11 UNL     1       3.822   0.035  -2.047  1.00  0.00     0.045 C 
ENDBRANCH  22  24
ENDBRANCH   4  22
TORSDOF 6
