REMARK  0 active torsions:
REMARK  status: ('A' for Active; 'I' for Inactive)
ROOT
HETATM    1  C1  UNL     1      -4.104   2.515   0.408  1.00  0.00     0.181 C 
HETATM    2  N1  UNL     1      -4.060   1.088   0.139  1.00  0.00    -0.258 N 
HETATM    3  N2  UNL     1      -5.116   0.348  -0.153  1.00  0.00    -0.183 NA
HETATM    4  C2  UNL     1      -4.741  -0.929  -0.347  1.00  0.00     0.150 A 
HETATM    5  C3  UNL     1      -3.382  -0.978  -0.165  1.00  0.00     0.010 A 
HETATM    6  C4  UNL     1      -2.939   0.313   0.147  1.00  0.00     0.129 A 
HETATM    7  N3  UNL     1      -1.547   0.606   0.399  1.00  0.00    -0.342 N 
HETATM    8  C5  UNL     1      -0.800  -0.587   0.827  1.00  0.00     0.355 C 
HETATM    9  N4  UNL     1       0.560  -0.342   1.128  1.00  0.00     0.139 N 
HETATM   10  C6  UNL     1       1.499  -0.468   0.054  1.00  0.00     0.234 C 
HETATM   11  C7  UNL     1       2.744  -1.094   0.666  1.00  0.00     0.084 C 
HETATM   12  C8  UNL     1       3.318  -0.077   1.630  1.00  0.00     0.127 C 
HETATM   13  N5  UNL     1       4.324   0.670   0.860  1.00  0.00    -0.361 N 
HETATM   14  C9  UNL     1       4.218   1.113  -0.488  1.00  0.00     0.217 C 
HETATM   15  O1  UNL     1       5.254   1.584  -1.044  1.00  0.00    -0.274 OA
HETATM   16  C10 UNL     1       2.963   1.072  -1.323  1.00  0.00     0.107 C 
HETATM   17  C11 UNL     1       1.757   0.933  -0.453  1.00  0.00     0.073 C 
HETATM   18  N6  UNL     1       1.093  -1.359  -1.004  1.00  0.00    -0.365 N 
HETATM   19  C12 UNL     1      -0.174  -1.987  -1.147  1.00  0.00     0.092 C 
HETATM   20  C13 UNL     1      -1.051  -1.583  -0.243  1.00  0.00    -0.009 C 
HETATM   21  C14 UNL     1      -2.444  -2.154  -0.260  1.00  0.00     0.083 C 
HETATM   22  H5  UNL     1      -1.325   1.611   0.231  1.00  0.00     0.163 HD
HETATM   23  H7  UNL     1       0.597   0.611   1.582  1.00  0.00     0.322 HD
HETATM   24  H12 UNL     1       5.237   0.915   1.346  1.00  0.00     0.162 HD
HETATM   25  H17 UNL     1       1.849  -1.525  -1.711  1.00  0.00     0.161 HD
ENDROOT
TORSDOF 0
