REMARK  6 active torsions:
REMARK  status: ('A' for Active; 'I' for Inactive)
REMARK    1  A    between atoms: C2_2  and  N1_3 
REMARK    2  A    between atoms: N1_3  and  C3_4 
REMARK       I    between atoms: N1_3  and  C15_23 
REMARK    3  A    between atoms: C3_4  and  C4_5 
REMARK    4  A    between atoms: C4_5  and  C5_6 
REMARK    5  A    between atoms: C5_6  and  N2_7 
REMARK    6  A    between atoms: N2_7  and  C6_8 
ROOT
HETATM    1  C6  UNL     1       0.794   0.162  -1.321  1.00  0.00     0.724 A 
HETATM    2  N3  UNL     1       1.251  -0.029  -2.562  1.00  0.00    -0.075 NA
HETATM    3  C7  UNL     1       2.558  -0.138  -2.863  1.00  0.00     0.147 A 
HETATM    4  C8  UNL     1       3.491  -0.050  -1.849  1.00  0.00     0.008 A 
HETATM    5  C9  UNL     1       3.050   0.148  -0.555  1.00  0.00     0.174 A 
HETATM    6  N4  UNL     1       1.724   0.244  -0.354  1.00  0.00    -0.043 NA
HETATM    7  N5  UNL     1       3.993   0.242   0.506  1.00  0.00    -0.227 N 
HETATM    8  N6  UNL     1       3.544   0.282   1.829  1.00  0.00    -0.176 NA
HETATM    9  C10 UNL     1       4.373   0.214   2.818  1.00  0.00     0.213 C 
HETATM   10  C11 UNL     1       5.826   0.091   2.582  1.00  0.00     0.262 C 
HETATM   11  O1  UNL     1       6.691   0.020   3.482  1.00  0.00    -0.267 OA
HETATM   12  N7  UNL     1       6.273   0.050   1.229  1.00  0.00    -0.333 N 
HETATM   13  C12 UNL     1       5.402   0.289   0.104  1.00  0.00     0.212 C 
HETATM   14  C13 UNL     1       5.664  -0.699  -1.016  1.00  0.00     0.053 C 
HETATM   15  C14 UNL     1       4.912  -0.176  -2.233  1.00  0.00     0.048 C 
HETATM   16  H15 UNL     1       7.245  -0.149   0.908  1.00  0.00     0.165 HD
ENDROOT
BRANCH   1  17
HETATM   17  N2  UNL     1      -0.611   0.277  -1.014  1.00  0.00    -0.222 N 
HETATM   18  H12 UNL     1      -1.265   0.201  -1.833  1.00  0.00     0.177 HD
BRANCH  17  19
HETATM   19  C5  UNL     1      -0.998   0.481   0.349  1.00  0.00     0.140 C 
BRANCH  19  20
HETATM   20  C4  UNL     1      -2.499   0.577   0.478  1.00  0.00     0.040 C 
BRANCH  20  21
HETATM   21  C3  UNL     1      -3.128  -0.686  -0.009  1.00  0.00     0.127 C 
BRANCH  21  22
HETATM   22  N1  UNL     1      -4.566  -0.567   0.126  1.00  0.00    -0.353 N 
HETATM   23  C15 UNL     1      -5.266  -0.032  -0.976  1.00  0.00     0.215 C 
HETATM   24  C16 UNL     1      -6.708   0.199  -1.115  1.00  0.00     0.117 C 
HETATM   25  O2  UNL     1      -4.704   0.343  -2.061  1.00  0.00    -0.274 OA
BRANCH  22  26
HETATM   26  C2  UNL     1      -5.287  -0.969   1.322  1.00  0.00     0.121 C 
HETATM   27  C1  UNL     1      -5.413   0.158   2.313  1.00  0.00     0.026 C 
ENDBRANCH  22  26
ENDBRANCH  21  22
ENDBRANCH  20  21
ENDBRANCH  19  20
ENDBRANCH  17  19
ENDBRANCH   1  17
TORSDOF 6
