REMARK  3 active torsions:
REMARK  status: ('A' for Active; 'I' for Inactive)
REMARK    1  A    between atoms: C2_2  and  C3_3 
REMARK    2  A    between atoms: C3_3  and  C5_5 
REMARK       I    between atoms: C5_5  and  N1_7 
REMARK    3  A    between atoms: C15_20  and  C16_21 
REMARK       I    between atoms: C16_21  and  N5_22 
ROOT
HETATM    1  C5  UNL     1      -4.333  -0.817   1.787  1.00  0.00     0.249 C 
HETATM    2  O1  UNL     1      -5.377  -1.007   1.155  1.00  0.00    -0.268 OA
HETATM    3  N1  UNL     1      -3.238  -0.788   0.881  1.00  0.00    -0.348 N 
HETATM    4  C6  UNL     1      -3.438  -0.962  -0.514  1.00  0.00     0.127 C 
HETATM    5  C7  UNL     1      -3.235  -2.201  -1.236  1.00  0.00     0.040 C 
HETATM    6  C8  UNL     1      -1.962  -2.884  -1.456  1.00  0.00     0.140 C 
HETATM    7  N2  UNL     1      -0.878  -2.234  -2.133  1.00  0.00    -0.222 N 
HETATM    8  C9  UNL     1       0.052  -1.242  -1.821  1.00  0.00     0.723 A 
HETATM    9  N3  UNL     1      -0.566  -0.512  -0.974  1.00  0.00    -0.067 NA
HETATM   10  C10 UNL     1      -0.063   0.547  -0.345  1.00  0.00     0.064 A 
HETATM   11  C11 UNL     1       1.204   0.904  -0.606  1.00  0.00    -0.001 A 
HETATM   12  C12 UNL     1       1.891   0.140  -1.513  1.00  0.00     0.113 A 
HETATM   13  N4  UNL     1       1.312  -0.941  -2.127  1.00  0.00    -0.060 NA
HETATM   14  C13 UNL     1       3.243   0.586  -1.725  1.00  0.00     0.091 A 
HETATM   15  C14 UNL     1       3.597   1.692  -0.983  1.00  0.00     0.009 A 
HETATM   16  C15 UNL     1       4.917   1.857  -1.402  1.00  0.00     0.153 A 
HETATM   17  N6  UNL     1       5.218   0.892  -2.304  1.00  0.00    -0.166 NA
HETATM   18  N7  UNL     1       4.192   0.093  -2.518  1.00  0.00    -0.271 N 
HETATM   19  C17 UNL     1       4.067  -1.052  -3.390  1.00  0.00     0.180 C 
HETATM   20  C18 UNL     1       2.859   2.523  -0.006  1.00  0.00     0.048 A 
HETATM   21  C19 UNL     1       1.442   2.068   0.230  1.00  0.00     0.048 A 
HETATM   22  C20 UNL     1      -1.335   0.764   0.399  1.00  0.00     0.080 C 
HETATM   23  C21 UNL     1      -1.860  -0.588   0.835  1.00  0.00     0.132 C 
HETATM   24  H12 UNL     1      -0.591  -2.459  -3.131  1.00  0.00     0.177 HD
ENDROOT
BRANCH   1  25
HETATM   25  C3  UNL     1      -4.391  -0.668   3.220  1.00  0.00     0.005 C 
HETATM   26  C4  UNL     1      -5.543  -0.732   3.853  1.00  0.00     0.025 C 
BRANCH  25  27
HETATM   27  C2  UNL     1      -3.748  -0.458   4.479  1.00  0.00     0.050 C 
HETATM   28  C1  UNL     1      -2.658  -0.256   5.180  1.00  0.00    -0.007 C 
ENDBRANCH  25  27
ENDBRANCH   1  25
BRANCH  16  29
HETATM   29  C16 UNL     1       5.852   2.900  -0.953  1.00  0.00     0.270 C 
HETATM   30  N5  UNL     1       7.168   2.947  -1.468  1.00  0.00    -0.365 N 
HETATM   31  H13 UNL     1       7.753   3.472  -2.149  1.00  0.00     0.159 HD
HETATM   32  H14 UNL     1       7.947   2.320  -1.183  1.00  0.00     0.159 HD
HETATM   33  O2  UNL     1       5.493   3.750  -0.118  1.00  0.00    -0.266 OA
ENDBRANCH  16  29
TORSDOF 3
