REMARK  5 active torsions:
REMARK  status: ('A' for Active; 'I' for Inactive)
REMARK    1  A    between atoms: C2_4  and  C3_5 
REMARK       I    between atoms: C3_5  and  N3_6 
REMARK    2  A    between atoms: C7_12  and  N5_13 
REMARK    3  A    between atoms: N5_13  and  C8_14 
REMARK    4  A    between atoms: C11_17  and  C12_18 
REMARK    5  A    between atoms: C12_18  and  C13_19 
ROOT
HETATM    1  C1  UNL     1       2.001   1.939  -1.942  1.00  0.00     0.180 C 
HETATM    2  N1  UNL     1       3.072   1.397  -1.125  1.00  0.00    -0.271 N 
HETATM    3  N2  UNL     1       4.342   1.748  -0.987  1.00  0.00    -0.166 NA
HETATM    4  C2  UNL     1       4.950   0.949  -0.106  1.00  0.00     0.153 A 
HETATM    5  C4  UNL     1       4.023   0.027   0.354  1.00  0.00     0.009 A 
HETATM    6  C5  UNL     1       2.858   0.350  -0.315  1.00  0.00     0.091 A 
HETATM    7  C6  UNL     1       1.709  -0.466   0.033  1.00  0.00     0.112 A 
HETATM    8  N4  UNL     1       0.520  -0.306  -0.517  1.00  0.00    -0.060 NA
HETATM    9  C7  UNL     1      -0.547  -1.063  -0.210  1.00  0.00     0.723 A 
HETATM   10  N6  UNL     1      -0.380  -2.034   0.709  1.00  0.00    -0.075 NA
HETATM   11  C15 UNL     1       0.821  -2.235   1.301  1.00  0.00     0.146 A 
HETATM   12  C16 UNL     1       1.930  -1.441   0.977  1.00  0.00    -0.008 A 
HETATM   13  C17 UNL     1       3.142  -1.818   1.749  1.00  0.00     0.047 C 
HETATM   14  C18 UNL     1       4.347  -1.042   1.319  1.00  0.00     0.048 C 
ENDROOT
BRANCH   9  15
HETATM   15  N5  UNL     1      -1.788  -0.833  -0.864  1.00  0.00    -0.218 N 
HETATM   16  H6  UNL     1      -1.779  -0.050  -1.592  1.00  0.00     0.178 HD
BRANCH  15  17
HETATM   17  C8  UNL     1      -3.062  -1.499  -0.686  1.00  0.00     0.100 C 
HETATM   18  C9  UNL     1      -4.041  -1.010  -1.754  1.00  0.00     0.026 C 
HETATM   19  C10 UNL     1      -4.545   0.310  -1.127  1.00  0.00     0.007 C 
HETATM   20  C11 UNL     1      -4.853  -0.149   0.254  1.00  0.00    -0.006 C 
HETATM   21  C14 UNL     1      -3.653  -1.011   0.627  1.00  0.00     0.030 C 
BRANCH  20  22
HETATM   22  C12 UNL     1      -5.009   0.981   1.251  1.00  0.00     0.074 C 
BRANCH  22  23
HETATM   23  C13 UNL     1      -6.106   1.896   0.832  1.00  0.00     0.231 C 
HETATM   24  O2  UNL     1      -6.063   2.327  -0.321  1.00  0.00    -0.307 OA
ENDBRANCH  22  23
ENDBRANCH  20  22
ENDBRANCH  15  17
ENDBRANCH   9  15
BRANCH   4  25
HETATM   25  C3  UNL     1       6.362   1.130   0.228  1.00  0.00     0.270 C 
HETATM   26  N3  UNL     1       7.202   2.130  -0.294  1.00  0.00    -0.365 N 
HETATM   27  H4  UNL     1       7.880   1.876  -1.050  1.00  0.00     0.159 HD
HETATM   28  H5  UNL     1       7.446   3.139  -0.218  1.00  0.00     0.159 HD
HETATM   29  O1  UNL     1       6.854   0.304   1.065  1.00  0.00    -0.266 OA
ENDBRANCH   4  25
TORSDOF 5
