REMARK  2 active torsions:
REMARK  status: ('A' for Active; 'I' for Inactive)
REMARK    1  A    between atoms: C2_2  and  C3_3 
REMARK    2  A    between atoms: C18_21  and  C19_22 
REMARK       I    between atoms: C19_22  and  N3_23 
ROOT
HETATM    1  C3  UNL     1       0.204  -2.432  -1.443  1.00  0.00     0.113 C 
HETATM    2  C4  UNL     1       1.491  -1.937  -2.027  1.00  0.00     0.074 C 
HETATM    3  C5  UNL     1       2.341  -1.157  -1.116  1.00  0.00     0.092 C 
HETATM    4  N1  UNL     1       2.327  -0.704   0.089  1.00  0.00    -0.262 NA
HETATM    5  C6  UNL     1       3.368   0.056   0.687  1.00  0.00     0.089 A 
HETATM    6  C7  UNL     1       4.305  -0.327   1.620  1.00  0.00     0.034 A 
HETATM    7  C8  UNL     1       5.249   0.556   2.093  1.00  0.00     0.002 A 
HETATM    8  C9  UNL     1       5.287   1.859   1.646  1.00  0.00     0.003 A 
HETATM    9  C10 UNL     1       4.359   2.267   0.711  1.00  0.00     0.040 A 
HETATM   10  C11 UNL     1       3.402   1.380   0.229  1.00  0.00     0.105 A 
HETATM   11  O1  UNL     1       2.557   1.936  -0.691  1.00  0.00    -0.302 OA
HETATM   12  C12 UNL     1       2.025   3.206  -0.670  1.00  0.00     0.258 C 
HETATM   13  N2  UNL     1       0.866   2.931  -1.214  1.00  0.00    -0.248 NA
HETATM   14  C13 UNL     1       0.526   1.618  -1.611  1.00  0.00     0.128 C 
HETATM   15  C14 UNL     1      -0.346   0.923  -0.907  1.00  0.00    -0.009 C 
HETATM   16  C15 UNL     1      -0.748   1.813   0.191  1.00  0.00     0.047 C 
HETATM   17  C16 UNL     1      -2.201   2.261  -0.003  1.00  0.00     0.048 C 
HETATM   18  C17 UNL     1      -3.065   1.021   0.015  1.00  0.00     0.009 A 
HETATM   19  C18 UNL     1      -4.360   0.895   0.367  1.00  0.00     0.153 A 
HETATM   20  N4  UNL     1      -4.595  -0.419   0.241  1.00  0.00    -0.166 NA
HETATM   21  N5  UNL     1      -3.499  -1.036  -0.164  1.00  0.00    -0.271 N 
HETATM   22  C20 UNL     1      -3.445  -2.451  -0.396  1.00  0.00     0.180 C 
HETATM   23  C21 UNL     1      -2.450  -0.187  -0.340  1.00  0.00     0.090 A 
HETATM   24  C22 UNL     1      -1.059  -0.382  -0.823  1.00  0.00     0.088 C 
HETATM   25  N6  UNL     1      -0.769  -1.565  -1.034  1.00  0.00    -0.281 NA
ENDROOT
BRANCH  19  26
HETATM   26  C19 UNL     1      -5.254   1.956   0.778  1.00  0.00     0.270 C 
HETATM   27  N3  UNL     1      -4.796   3.297   0.844  1.00  0.00    -0.365 N 
HETATM   28  H20 UNL     1      -4.788   3.470   1.879  1.00  0.00     0.159 HD
HETATM   29  H21 UNL     1      -4.526   3.969   0.080  1.00  0.00     0.159 HD
HETATM   30  O2  UNL     1      -6.447   1.626   1.070  1.00  0.00    -0.266 OA
ENDBRANCH  19  26
BRANCH   1  31
HETATM   31  C2  UNL     1       0.637  -3.320  -0.256  1.00  0.00     0.023 C 
HETATM   32  C1  UNL     1      -0.524  -3.920   0.464  1.00  0.00     0.007 C 
ENDBRANCH   1  31
TORSDOF 2
