REMARK  5 active torsions:
REMARK  status: ('A' for Active; 'I' for Inactive)
REMARK    1  A    between atoms: C4_4  and  C5_5 
REMARK    2  A    between atoms: C6_6  and  C7_7 
REMARK    3  A    between atoms: C10_11  and  N2_12 
REMARK    4  A    between atoms: N2_12  and  C11_13 
REMARK    5  A    between atoms: C17_21  and  C18_22 
REMARK       I    between atoms: C18_22  and  N5_23 
ROOT
HETATM    1  C1  UNL     1       7.777  -2.781  -0.211  1.00  0.00     0.017 C 
HETATM    2  C2  UNL     1       6.691  -2.612  -0.749  1.00  0.00    -0.089 C 
HETATM    3  C3  UNL     1       5.407  -2.434  -1.371  1.00  0.00     0.063 C 
HETATM    4  C4  UNL     1       4.647  -1.393  -1.001  1.00  0.00     0.009 C 
ENDROOT
BRANCH   4   5
HETATM    5  C5  UNL     1       5.144  -0.476   0.016  1.00  0.00    -0.001 C 
HETATM    6  C6  UNL     1       4.389   0.564   0.388  1.00  0.00     0.010 C 
BRANCH   6   7
HETATM    7  C7  UNL     1       3.059   0.778  -0.231  1.00  0.00     0.266 C 
HETATM    8  N1  UNL     1       3.186   1.407  -1.550  1.00  0.00     0.093 N 
HETATM    9  C8  UNL     1       3.307   2.818  -1.346  1.00  0.00     0.272 C 
HETATM   10  H7  UNL     1       4.113   1.049  -1.928  1.00  0.00     0.316 HD
HETATM   11  C9  UNL     1       3.126   3.075   0.132  1.00  0.00     0.058 C 
HETATM   12  C10 UNL     1       2.344   1.850   0.540  1.00  0.00     0.138 C 
BRANCH  12  13
HETATM   13  N2  UNL     1       0.949   1.960   0.286  1.00  0.00    -0.215 N 
HETATM   14  H13 UNL     1       0.558   2.849  -0.091  1.00  0.00     0.178 HD
BRANCH  13  15
HETATM   15  C11 UNL     1       0.075   0.872   0.540  1.00  0.00     0.723 A 
HETATM   16  N3  UNL     1       0.499  -0.299   1.023  1.00  0.00    -0.075 NA
HETATM   17  C12 UNL     1      -0.315  -1.355   1.274  1.00  0.00     0.146 A 
HETATM   18  C13 UNL     1      -1.682  -1.236   1.020  1.00  0.00    -0.008 A 
HETATM   19  C14 UNL     1      -2.110  -0.024   0.521  1.00  0.00     0.112 A 
HETATM   20  C21 UNL     1      -2.439  -2.453   1.338  1.00  0.00     0.047 A 
HETATM   21  N4  UNL     1      -1.254   0.986   0.293  1.00  0.00    -0.060 NA
HETATM   22  C15 UNL     1      -3.542   0.075   0.264  1.00  0.00     0.091 A 
HETATM   23  C16 UNL     1      -4.318  -1.032   0.539  1.00  0.00     0.009 A 
HETATM   24  N7  UNL     1      -4.309   1.072  -0.211  1.00  0.00    -0.271 N 
HETATM   25  C17 UNL     1      -5.592  -0.638   0.201  1.00  0.00     0.153 A 
HETATM   26  C20 UNL     1      -3.900  -2.346   1.073  1.00  0.00     0.048 A 
HETATM   27  N6  UNL     1      -5.541   0.634  -0.245  1.00  0.00    -0.166 NA
HETATM   28  C19 UNL     1      -3.835   2.382  -0.605  1.00  0.00     0.180 C 
BRANCH  25  29
HETATM   29  C18 UNL     1      -6.827  -1.443   0.297  1.00  0.00     0.270 C 
HETATM   30  N5  UNL     1      -8.071  -0.890  -0.094  1.00  0.00    -0.365 N 
HETATM   31  H15 UNL     1      -8.656  -0.725  -0.944  1.00  0.00     0.159 HD
HETATM   32  H16 UNL     1      -8.912  -0.421   0.315  1.00  0.00     0.159 HD
HETATM   33  O1  UNL     1      -6.792  -2.607   0.718  1.00  0.00    -0.266 OA
ENDBRANCH  25  29
ENDBRANCH  13  15
ENDBRANCH  12  13
ENDBRANCH   6   7
ENDBRANCH   4   5
TORSDOF 5
