REMARK  6 active torsions:
REMARK  status: ('A' for Active; 'I' for Inactive)
REMARK    1  A    between atoms: C2_2  and  C3_3 
REMARK    2  A    between atoms: C2_2  and  N1_9 
REMARK    3  A    between atoms: C12_13  and  N2_14 
REMARK    4  A    between atoms: N2_14  and  C13_15 
REMARK    5  A    between atoms: N3_16  and  C14_17 
REMARK    6  A    between atoms: C21_26  and  C22_27 
REMARK       I    between atoms: C22_27  and  N6_28 
ROOT
HETATM    1  C13 UNL     1       0.612   1.302   0.513  1.00  0.00     0.198 C 
HETATM    2  N3  UNL     1       1.289   0.246   0.677  1.00  0.00    -0.274 NA
ENDROOT
BRANCH   1   3
HETATM    3  N2  UNL     1      -0.809   1.185   0.282  1.00  0.00    -0.364 N 
HETATM    4  H17 UNL     1      -1.313   2.014  -0.159  1.00  0.00     0.162 HD
BRANCH   3   5
HETATM    5  C12 UNL     1      -1.429  -0.063   0.674  1.00  0.00     0.180 C 
HETATM    6  N1  UNL     1      -2.826   0.149   0.533  1.00  0.00    -0.384 N 
HETATM    7  C9  UNL     1      -3.259   0.803   1.707  1.00  0.00     0.119 C 
HETATM    8  C10 UNL     1      -2.180   0.655   2.759  1.00  0.00     0.023 C 
HETATM    9  C11 UNL     1      -1.310  -0.393   2.112  1.00  0.00     0.048 C 
BRANCH   6  10
HETATM   10  C2  UNL     1      -3.367   0.462  -0.694  1.00  0.00     0.110 C 
HETATM   11  C1  UNL     1      -2.866  -0.264  -1.906  1.00  0.00     0.037 C 
BRANCH  10  12
HETATM   12  C3  UNL     1      -4.854   0.196  -0.683  1.00  0.00    -0.036 A 
HETATM   13  C4  UNL     1      -5.860   1.005  -1.170  1.00  0.00     0.009 A 
HETATM   14  C5  UNL     1      -7.159   0.555  -1.052  1.00  0.00     0.001 A 
HETATM   15  C6  UNL     1      -7.448  -0.661  -0.468  1.00  0.00     0.000 A 
HETATM   16  C7  UNL     1      -6.446  -1.487   0.026  1.00  0.00     0.001 A 
HETATM   17  C8  UNL     1      -5.150  -1.022  -0.099  1.00  0.00     0.009 A 
ENDBRANCH  10  12
ENDBRANCH   6  10
ENDBRANCH   3   5
ENDBRANCH   1   3
BRANCH   2  18
HETATM   18  C14 UNL     1       2.713   0.186   0.917  1.00  0.00     0.161 C 
HETATM   19  C15 UNL     1       3.463   1.403   0.446  1.00  0.00     0.038 C 
HETATM   20  C16 UNL     1       4.749   1.111  -0.300  1.00  0.00     0.043 C 
HETATM   21  C17 UNL     1       4.792  -0.396  -0.582  1.00  0.00    -0.022 C 
HETATM   22  C18 UNL     1       3.658  -0.935  -1.143  1.00  0.00     0.038 C 
HETATM   23  C21 UNL     1       6.073  -1.062  -0.149  1.00  0.00     0.126 C 
HETATM   24  C19 UNL     1       3.328  -1.079   0.327  1.00  0.00     0.056 C 
HETATM   25  N4  UNL     1       3.608  -2.197   1.007  1.00  0.00    -0.271 NA
HETATM   26  C20 UNL     1       4.894  -2.944   1.014  1.00  0.00     0.298 C 
HETATM   27  N5  UNL     1       6.014  -2.186   0.514  1.00  0.00    -0.262 NA
BRANCH  23  28
HETATM   28  C22 UNL     1       7.225  -0.240  -0.579  1.00  0.00     0.268 C 
HETATM   29  N6  UNL     1       7.205   0.959  -1.297  1.00  0.00    -0.365 N 
HETATM   30  H27 UNL     1       6.767   0.585  -2.167  1.00  0.00     0.159 HD
HETATM   31  H28 UNL     1       7.567   1.853  -0.906  1.00  0.00     0.159 HD
HETATM   32  O1  UNL     1       8.212  -0.877  -0.144  1.00  0.00    -0.266 OA
ENDBRANCH  23  28
ENDBRANCH   2  18
TORSDOF 6
