REMARK  4 active torsions:
REMARK  status: ('A' for Active; 'I' for Inactive)
REMARK    1  A    between atoms: N1_1  and  C1_2 
REMARK    2  A    between atoms: C2_3  and  C3_4 
REMARK    3  A    between atoms: C13_17  and  C14_18 
REMARK    4  A    between atoms: C13_17  and  C15_20 
ROOT
HETATM    1  C1  UNL     1       0.921   0.213   0.194  1.00  0.00     0.268 C 
HETATM    2  C2  UNL     1      -0.158   0.220   1.232  1.00  0.00     0.095 C 
HETATM    3  C11 UNL     1      -0.107  -1.104   1.964  1.00  0.00     0.034 C 
HETATM    4  C12 UNL     1       1.350  -1.465   2.151  1.00  0.00     0.116 C 
HETATM    5  N4  UNL     1       2.215  -0.337   2.118  1.00  0.00    -0.402 N 
HETATM    6  C13 UNL     1       2.257   0.395   0.903  1.00  0.00     0.138 C 
HETATM    7  H16 UNL     1       3.056  -0.386   2.687  1.00  0.00     0.154 HD
ENDROOT
BRANCH   2   8
HETATM    8  C3  UNL     1      -1.511   0.422   0.664  1.00  0.00     0.132 A 
HETATM    9  N2  UNL     1      -2.314   1.482   0.973  1.00  0.00    -0.244 NA
HETATM   10  C4  UNL     1      -3.537   1.634   0.438  1.00  0.00     0.128 A 
HETATM   11  C5  UNL     1      -4.009   0.694  -0.455  1.00  0.00    -0.011 A 
HETATM   12  C6  UNL     1      -3.215  -0.368  -0.771  1.00  0.00     0.066 A 
HETATM   13  C10 UNL     1      -5.385   1.007  -0.959  1.00  0.00     0.046 A 
HETATM   14  N3  UNL     1      -1.995  -0.482  -0.211  1.00  0.00    -0.233 NA
HETATM   15  C7  UNL     1      -3.754  -1.334  -1.717  1.00  0.00     0.028 A 
HETATM   16  C8  UNL     1      -4.957  -1.115  -2.195  1.00  0.00    -0.024 A 
HETATM   17  C9  UNL     1      -5.898  -0.008  -1.925  1.00  0.00     0.032 A 
ENDBRANCH   2   8
BRANCH   1  18
HETATM   18  N1  UNL     1       0.939  -1.059  -0.506  1.00  0.00     0.086 N 
HETATM   19  H1  UNL     1       1.906  -1.319  -0.803  1.00  0.00     0.313 HD
HETATM   20  H2  UNL     1       0.394  -0.993  -1.404  1.00  0.00     0.313 HD
ENDBRANCH   1  18
BRANCH   6  21
HETATM   21  C14 UNL     1       2.308   1.855   1.271  1.00  0.00     0.269 C 
HETATM   22  O1  UNL     1       2.355   3.071   1.146  1.00  0.00    -0.304 OA
ENDBRANCH   6  21
BRANCH   6  23
HETATM   23  C15 UNL     1       3.417   0.117   0.046  1.00  0.00    -0.021 A 
HETATM   24  C16 UNL     1       4.309  -0.945   0.091  1.00  0.00     0.010 A 
HETATM   25  C17 UNL     1       5.344  -1.019  -0.820  1.00  0.00     0.001 A 
HETATM   26  C18 UNL     1       5.543  -0.076  -1.792  1.00  0.00     0.000 A 
HETATM   27  C19 UNL     1       4.668   0.965  -1.837  1.00  0.00     0.001 A 
HETATM   28  C20 UNL     1       3.611   1.080  -0.940  1.00  0.00     0.010 A 
ENDBRANCH   6  23
TORSDOF 4
