REMARK  1 active torsions:
REMARK  status: ('A' for Active; 'I' for Inactive)
REMARK    1  A    between atoms: C2_4  and  C3_5 
REMARK       I    between atoms: C3_5  and  N3_6 
ROOT
HETATM    1  C1  UNL     1       2.723  -3.272   1.733  1.00  0.00     0.180 C 
HETATM    2  N1  UNL     1       3.279  -2.107   1.106  1.00  0.00    -0.271 N 
HETATM    3  N2  UNL     1       4.545  -2.001   0.748  1.00  0.00    -0.166 NA
HETATM    4  C2  UNL     1       4.796  -0.812   0.186  1.00  0.00     0.153 A 
HETATM    5  C4  UNL     1       3.620  -0.103   0.179  1.00  0.00     0.009 A 
HETATM    6  C5  UNL     1       2.705  -0.947   0.761  1.00  0.00     0.084 A 
HETATM    7  C6  UNL     1       1.311  -0.640   0.969  1.00  0.00     0.065 C 
HETATM    8  N4  UNL     1       0.482  -1.504   1.542  1.00  0.00    -0.162 NA
HETATM    9  C7  UNL     1      -0.833  -1.061   1.670  1.00  0.00     0.248 A 
HETATM   10  N5  UNL     1      -0.817  -2.147   0.934  1.00  0.00    -0.202 NA
HETATM   11  N6  UNL     1      -2.240  -0.994   1.509  1.00  0.00    -0.293 N 
HETATM   12  N7  UNL     1      -2.717  -0.102   0.570  1.00  0.00    -0.311 N 
HETATM   13  C8  UNL     1      -2.946   1.203   1.010  1.00  0.00     0.144 C 
HETATM   14  C9  UNL     1      -2.326   2.349   0.322  1.00  0.00     0.030 C 
HETATM   15  C10 UNL     1      -1.227   2.044  -0.667  1.00  0.00     0.014 C 
HETATM   16  C11 UNL     1      -0.064   1.413  -0.061  1.00  0.00    -0.013 C 
HETATM   17  C12 UNL     1       0.913   0.713   0.489  1.00  0.00    -0.036 C 
HETATM   18  C13 UNL     1       2.047   1.623   0.727  1.00  0.00     0.045 C 
HETATM   19  C14 UNL     1       3.147   1.216  -0.259  1.00  0.00     0.048 C 
HETATM   20  C15 UNL     1      -1.756   1.305  -1.874  1.00  0.00     0.045 C 
HETATM   21  C16 UNL     1      -3.114   0.730  -1.562  1.00  0.00    -0.046 A 
HETATM   22  C17 UNL     1      -4.351   1.067  -1.924  1.00  0.00     0.005 A 
HETATM   23  C18 UNL     1      -5.288   0.147  -1.312  1.00  0.00    -0.001 A 
HETATM   24  C19 UNL     1      -4.663  -0.746  -0.585  1.00  0.00     0.010 A 
HETATM   25  C20 UNL     1      -3.198  -0.485  -0.657  1.00  0.00     0.085 A 
HETATM   26  C21 UNL     1      -2.590  -1.660  -1.359  1.00  0.00     0.050 C 
HETATM   27  H6  UNL     1       0.096  -2.586   0.756  1.00  0.00     0.145 HD
HETATM   28  H7  UNL     1      -2.938  -1.576   2.064  1.00  0.00     0.184 HD
ENDROOT
BRANCH   4  29
HETATM   29  C3  UNL     1       6.063  -0.325  -0.333  1.00  0.00     0.270 C 
HETATM   30  N3  UNL     1       6.178   0.968  -0.905  1.00  0.00    -0.365 N 
HETATM   31  H4  UNL     1       6.026   1.704  -1.635  1.00  0.00     0.159 HD
HETATM   32  H5  UNL     1       6.716   1.676  -0.334  1.00  0.00     0.159 HD
HETATM   33  O1  UNL     1       7.107  -0.995  -0.310  1.00  0.00    -0.266 OA
ENDBRANCH   4  29
TORSDOF 1
