REMARK  4 active torsions:
REMARK  status: ('A' for Active; 'I' for Inactive)
REMARK    1  A    between atoms: C2_2  and  C3_3 
REMARK    2  A    between atoms: C5_6  and  N2_7 
REMARK    3  A    between atoms: C9_13  and  C10_14 
REMARK    4  A    between atoms: C12_16  and  C13_17 
REMARK       I    between atoms: C13_17  and  N5_18 
ROOT
HETATM    1  C3  UNL     1      -0.050   2.022  -0.096  1.00  0.00    -0.009 A 
HETATM    2  C4  UNL     1       1.218   2.446   0.245  1.00  0.00     0.146 A 
HETATM    3  N1  UNL     1       2.161   1.493   0.418  1.00  0.00    -0.073 NA
HETATM    4  C5  UNL     1       1.886   0.187   0.266  1.00  0.00     0.739 A 
HETATM    5  N4  UNL     1       0.642  -0.164  -0.065  1.00  0.00    -0.059 NA
HETATM    6  C9  UNL     1      -0.383   0.703  -0.265  1.00  0.00     0.112 A 
ENDROOT
BRANCH   6   7
HETATM    7  C10 UNL     1      -1.647   0.084  -0.587  1.00  0.00     0.085 A 
HETATM    8  C11 UNL     1      -2.133  -0.893   0.295  1.00  0.00     0.072 A 
HETATM    9  C12 UNL     1      -3.325  -1.441  -0.115  1.00  0.00     0.146 A 
HETATM   10  N6  UNL     1      -3.580  -0.787  -1.278  1.00  0.00    -0.167 NA
HETATM   11  N7  UNL     1      -2.613   0.065  -1.514  1.00  0.00    -0.271 N 
HETATM   12  C14 UNL     1      -2.576   0.890  -2.698  1.00  0.00     0.180 C 
BRANCH   9  13
HETATM   13  C13 UNL     1      -4.189  -2.456   0.449  1.00  0.00     0.269 C 
HETATM   14  N5  UNL     1      -3.850  -3.096   1.676  1.00  0.00    -0.365 N 
HETATM   15  H15 UNL     1      -3.556  -3.869   2.302  1.00  0.00     0.159 HD
HETATM   16  H16 UNL     1      -3.879  -2.544   2.556  1.00  0.00     0.159 HD
HETATM   17  O1  UNL     1      -5.250  -2.816  -0.093  1.00  0.00    -0.266 OA
ENDBRANCH   9  13
ENDBRANCH   6   7
BRANCH   1  18
HETATM   18  C2  UNL     1      -1.112   3.039  -0.255  1.00  0.00     0.038 C 
HETATM   19  C1  UNL     1      -2.049   3.056   0.938  1.00  0.00     0.010 C 
ENDBRANCH   1  18
BRANCH   4  20
HETATM   20  N2  UNL     1       2.939  -0.745   0.467  1.00  0.00    -0.142 N 
HETATM   21  C6  UNL     1       4.305  -0.404   0.815  1.00  0.00     0.163 C 
HETATM   22  C7  UNL     1       5.032  -1.174  -0.299  1.00  0.00     0.038 C 
HETATM   23  C8  UNL     1       4.276  -2.492  -0.182  1.00  0.00     0.113 C 
HETATM   24  N3  UNL     1       3.009  -2.136   0.408  1.00  0.00    -0.223 NA
HETATM   25  H13 UNL     1       2.921  -2.568   1.374  1.00  0.00     0.147 HD
ENDBRANCH   4  20
TORSDOF 4
