REMARK  4 active torsions:
REMARK  status: ('A' for Active; 'I' for Inactive)
REMARK    1  A    between atoms: C3_5  and  C4_6 
REMARK    2  A    between atoms: C4_6  and  O2_7 
REMARK    3  A    between atoms: C5_8  and  C6_9 
REMARK    4  A    between atoms: C6_9  and  O3_10 
ROOT
HETATM    1  O1  UNL     1       1.765  -4.068   0.378  1.00  0.00    -0.271 OA
HETATM    2  C1  UNL     1       1.421  -2.901   0.041  1.00  0.00     0.248 C 
HETATM    3  N1  UNL     1       0.133  -2.404   0.179  1.00  0.00    -0.226 NA
HETATM    4  C2  UNL     1      -0.995  -3.044  -0.126  1.00  0.00     0.130 C 
HETATM    5  C3  UNL     1      -2.220  -2.216   0.114  1.00  0.00    -0.008 C 
HETATM    6  C5  UNL     1      -2.363  -0.930   0.403  1.00  0.00    -0.018 C 
HETATM    7  C7  UNL     1      -1.108  -0.253  -0.131  1.00  0.00    -0.044 C 
HETATM    8  C8  UNL     1       0.015  -0.519  -0.832  1.00  0.00     0.028 C 
HETATM    9  C9  UNL     1       1.076  -1.162  -1.609  1.00  0.00     0.026 C 
HETATM   10  C10 UNL     1       2.040  -1.648  -0.565  1.00  0.00     0.098 C 
HETATM   11  C11 UNL     1       2.026  -0.568   0.543  1.00  0.00     0.134 C 
HETATM   12  N2  UNL     1       2.222   0.755   0.059  1.00  0.00    -0.388 N 
HETATM   13  C12 UNL     1       2.402   2.083  -0.272  1.00  0.00     0.038 A 
HETATM   14  C13 UNL     1       3.557   2.677  -0.704  1.00  0.00     0.031 A 
HETATM   15  C14 UNL     1       3.611   3.995  -1.041  1.00  0.00     0.021 A 
HETATM   16  C15 UNL     1       2.435   4.676  -0.920  1.00  0.00     0.011 A 
HETATM   17 BR1  UNL     1       2.443   6.515  -1.376  1.00  0.00    -0.051 Br
HETATM   18  C16 UNL     1       1.291   4.076  -0.490  1.00  0.00     0.032 A 
HETATM   19  C17 UNL     1       1.165   2.748  -0.129  1.00  0.00    -0.009 A 
HETATM   20  C18 UNL     1      -0.118   2.285   0.352  1.00  0.00     0.014 C 
HETATM   21  C19 UNL     1      -0.626   1.088   0.146  1.00  0.00     0.009 C 
HETATM   22  H14 UNL     1       2.302   0.550  -0.959  1.00  0.00     0.159 HD
ENDROOT
BRANCH   5  23
HETATM   23  C4  UNL     1      -3.515  -2.920   0.031  1.00  0.00     0.205 C 
BRANCH  23  24
HETATM   24  O2  UNL     1      -3.578  -3.961   0.978  1.00  0.00    -0.396 OA
HETATM   25  H4  UNL     1      -2.748  -4.493   0.943  1.00  0.00     0.209 HD
ENDBRANCH  23  24
ENDBRANCH   5  23
BRANCH   6  26
HETATM   26  C6  UNL     1      -3.329   0.122   0.707  1.00  0.00     0.204 C 
BRANCH  26  27
HETATM   27  O3  UNL     1      -4.643  -0.315   0.718  1.00  0.00    -0.396 OA
HETATM   28  H7  UNL     1      -5.066  -0.344   1.607  1.00  0.00     0.209 HD
ENDBRANCH  26  27
ENDBRANCH   6  26
TORSDOF 4
