REMARK  4 active torsions:
REMARK  status: ('A' for Active; 'I' for Inactive)
REMARK    1  A    between atoms: O1_2  and  C2_3 
REMARK    2  A    between atoms: C3_4  and  O2_5 
REMARK    3  A    between atoms: C8_10  and  C9_11 
REMARK    4  A    between atoms: C9_11  and  C10_12 
ROOT
HETATM    1  C2  UNL     1      -2.802   1.275  -0.141  1.00  0.00     0.104 C 
HETATM    2  C3  UNL     1      -2.842   0.116  -0.827  1.00  0.00     0.135 C 
HETATM    3  C5  UNL     1      -1.907  -1.006  -0.869  1.00  0.00     0.106 C 
HETATM    4  C6  UNL     1      -0.826  -1.005  -0.125  1.00  0.00     0.052 C 
HETATM    5  C7  UNL     1       0.003   0.184   0.268  1.00  0.00    -0.021 C 
HETATM    6  C8  UNL     1       1.295   0.126   0.029  1.00  0.00     0.035 C 
HETATM    7  C16 UNL     1       1.662  -1.025  -0.759  1.00  0.00     0.384 C 
HETATM    8  O3  UNL     1       2.593  -1.609  -1.213  1.00  0.00    -0.257 OA
HETATM    9  N1  UNL     1       1.103  -2.129  -1.468  1.00  0.00     0.195 N 
HETATM   10  C17 UNL     1       0.030  -2.918  -2.017  1.00  0.00     0.213 A 
HETATM   11  O4  UNL     1       1.159  -3.370  -2.190  1.00  0.00     0.000 OA
HETATM   12  C18 UNL     1      -1.434  -3.068  -2.222  1.00  0.00     0.246 C 
HETATM   13  O5  UNL     1      -2.195  -2.035  -1.697  1.00  0.00    -0.342 OA
HETATM   14  C19 UNL     1      -0.422   1.447   0.833  1.00  0.00     0.015 C 
HETATM   15  C20 UNL     1      -1.659   1.869   0.595  1.00  0.00     0.040 C 
HETATM   16  H14 UNL     1       1.890  -2.721  -1.822  1.00  0.00     0.335 HD
ENDROOT
BRANCH   6  17
HETATM   17  C9  UNL     1       2.302   1.096   0.310  1.00  0.00     0.083 C 
BRANCH  17  18
HETATM   18  C10 UNL     1       3.353   0.626   1.280  1.00  0.00    -0.052 A 
HETATM   19  C11 UNL     1       3.015   0.906   2.603  1.00  0.00     0.007 A 
HETATM   20  C12 UNL     1       3.913   0.517   3.575  1.00  0.00     0.002 A 
HETATM   21  C13 UNL     1       5.106  -0.123   3.314  1.00  0.00     0.018 A 
HETATM   22  C14 UNL     1       5.402  -0.382   1.972  1.00  0.00     0.006 A 
HETATM   23  I1  UNL     1       7.167  -1.346   1.342  1.00  0.00    -0.045 I 
HETATM   24  C15 UNL     1       4.519  -0.001   0.984  1.00  0.00     0.025 A 
ENDBRANCH  17  18
ENDBRANCH   6  17
BRANCH   2  25
HETATM   25  O2  UNL     1      -3.959  -0.055  -1.636  1.00  0.00    -0.351 OA
HETATM   26  C4  UNL     1      -5.258  -0.305  -1.202  1.00  0.00     0.210 C 
ENDBRANCH   2  25
BRANCH   1  27
HETATM   27  O1  UNL     1      -3.958   2.032  -0.098  1.00  0.00    -0.353 OA
HETATM   28  C1  UNL     1      -4.091   3.208  -0.910  1.00  0.00     0.210 C 
ENDBRANCH   1  27
TORSDOF 4
