REMARK  5 active torsions:
REMARK  status: ('A' for Active; 'I' for Inactive)
REMARK    1  A    between atoms: O1_2  and  C2_3 
REMARK    2  A    between atoms: C4_5  and  C5_6 
REMARK    3  A    between atoms: C6_7  and  C7_8 
REMARK    4  A    between atoms: C16_21  and  O4_22 
REMARK    5  A    between atoms: C18_24  and  O5_25 
ROOT
HETATM    1  C5  UNL     1       0.252   1.469  -1.305  1.00  0.00     0.059 A 
HETATM    2  C6  UNL     1       1.536   1.533  -1.120  1.00  0.00     0.060 A 
HETATM    3  C13 UNL     1       2.082   2.456  -2.103  1.00  0.00     0.260 A 
HETATM    4  O2  UNL     1       3.261   2.879  -2.369  1.00  0.00    -0.267 OA
HETATM    5  N2  UNL     1       1.063   2.985  -2.935  1.00  0.00    -0.289 N 
HETATM    6  C14 UNL     1      -0.128   2.361  -2.436  1.00  0.00     0.260 A 
HETATM    7  O3  UNL     1      -1.249   2.645  -2.999  1.00  0.00    -0.267 OA
HETATM    8  H13 UNL     1       1.121   3.666  -3.729  1.00  0.00     0.172 HD
ENDROOT
BRANCH   1   9
HETATM    9  C4  UNL     1      -0.908   0.809  -0.753  1.00  0.00    -0.014 A 
HETATM   10  C3  UNL     1      -1.512   0.825   0.502  1.00  0.00     0.052 A 
HETATM   11  C2  UNL     1      -2.615   0.118   0.879  1.00  0.00     0.105 A 
HETATM   12  C18 UNL     1      -3.216  -0.700  -0.042  1.00  0.00     0.135 A 
HETATM   13  C16 UNL     1      -2.741  -0.826  -1.327  1.00  0.00     0.105 A 
HETATM   14  C15 UNL     1      -1.615  -0.064  -1.607  1.00  0.00     0.052 A 
BRANCH  11  15
HETATM   15  O1  UNL     1      -3.061   0.270   2.174  1.00  0.00    -0.353 OA
HETATM   16  C1  UNL     1      -2.461   1.098   3.124  1.00  0.00     0.210 C 
ENDBRANCH  11  15
BRANCH  12  17
HETATM   17  O5  UNL     1      -4.324  -1.410   0.338  1.00  0.00    -0.351 OA
HETATM   18  C19 UNL     1      -4.220  -2.713   0.897  1.00  0.00     0.210 C 
ENDBRANCH  12  17
BRANCH  13  19
HETATM   19  O4  UNL     1      -3.320  -1.639  -2.280  1.00  0.00    -0.353 OA
HETATM   20  C17 UNL     1      -2.755  -1.700  -3.575  1.00  0.00     0.210 C 
ENDBRANCH  13  19
ENDBRANCH   1   9
BRANCH   2  21
HETATM   21  C7  UNL     1       2.356   0.842  -0.145  1.00  0.00    -0.005 C 
HETATM   22  C8  UNL     1       1.859  -0.014   0.723  1.00  0.00     0.095 C 
HETATM   23  N1  UNL     1       2.435  -0.812   1.768  1.00  0.00    -0.398 N 
HETATM   24  C9  UNL     1       3.808  -1.212   1.913  1.00  0.00     0.122 C 
HETATM   25  H6  UNL     1       1.796  -1.151   2.520  1.00  0.00     0.158 HD
HETATM   26  C10 UNL     1       4.680  -1.042   0.727  1.00  0.00     0.047 C 
HETATM   27  C11 UNL     1       4.787   0.342   0.220  1.00  0.00    -0.024 C 
HETATM   28  C12 UNL     1       3.775   1.146  -0.153  1.00  0.00     0.010 C 
ENDBRANCH   2  21
TORSDOF 5
