REMARK  5 active torsions:
REMARK  status: ('A' for Active; 'I' for Inactive)
REMARK    1  A    between atoms: O1_2  and  C2_3 
REMARK    2  A    between atoms: C4_5  and  C5_6 
REMARK    3  A    between atoms: C6_7  and  C7_8 
REMARK    4  A    between atoms: C16_21  and  O4_22 
REMARK    5  A    between atoms: C18_24  and  O5_25 
ROOT
HETATM    1  C5  UNL     1      -0.009  -1.847  -0.862  1.00  0.00     0.058 A 
HETATM    2  C6  UNL     1      -0.994  -2.364  -0.173  1.00  0.00     0.051 A 
HETATM    3  C13 UNL     1      -1.210  -3.759  -0.610  1.00  0.00     0.259 A 
HETATM    4  O2  UNL     1      -2.087  -4.578  -0.160  1.00  0.00    -0.267 OA
HETATM    5  N2  UNL     1      -0.279  -4.064  -1.625  1.00  0.00    -0.289 N 
HETATM    6  C14 UNL     1       0.486  -2.883  -1.802  1.00  0.00     0.260 A 
HETATM    7  O3  UNL     1       1.378  -3.041  -2.713  1.00  0.00    -0.267 OA
HETATM    8  H13 UNL     1      -0.299  -5.033  -2.050  1.00  0.00     0.172 HD
ENDROOT
BRANCH   1   9
HETATM    9  C4  UNL     1       0.825  -0.680  -1.120  1.00  0.00    -0.014 A 
HETATM   10  C3  UNL     1       0.316   0.511  -1.591  1.00  0.00     0.052 A 
HETATM   11  C2  UNL     1       1.003   1.674  -1.848  1.00  0.00     0.104 A 
HETATM   12  C18 UNL     1       2.347   1.587  -1.591  1.00  0.00     0.133 A 
HETATM   13  C16 UNL     1       2.991   0.465  -1.120  1.00  0.00     0.104 A 
HETATM   14  C15 UNL     1       2.207  -0.631  -0.901  1.00  0.00     0.052 A 
BRANCH  11  15
HETATM   15  O1  UNL     1       0.440   2.840  -2.320  1.00  0.00    -0.353 OA
HETATM   16  C1  UNL     1      -0.933   2.996  -2.605  1.00  0.00     0.210 C 
ENDBRANCH  11  15
BRANCH  12  17
HETATM   17  O5  UNL     1       3.140   2.713  -1.819  1.00  0.00    -0.356 OA
HETATM   18  H18 UNL     1       3.132   3.033  -2.798  1.00  0.00     0.218 HD
ENDBRANCH  12  17
BRANCH  13  19
HETATM   19  O4  UNL     1       4.357   0.471  -0.889  1.00  0.00    -0.353 OA
HETATM   20  C17 UNL     1       5.089  -0.612  -0.416  1.00  0.00     0.210 C 
ENDBRANCH  13  19
ENDBRANCH   1   9
BRANCH   2  21
HETATM   21  C7  UNL     1      -1.706  -1.649   0.826  1.00  0.00     0.047 C 
HETATM   22  C8  UNL     1      -1.923  -0.596   1.532  1.00  0.00     0.028 C 
HETATM   23  C9  UNL     1      -1.241   0.685   1.532  1.00  0.00     0.025 C 
HETATM   24  N1  UNL     1      -2.976  -0.479   2.492  1.00  0.00    -0.390 N 
HETATM   25  C10 UNL     1      -1.502   1.751   2.243  1.00  0.00    -0.023 C 
HETATM   26  C11 UNL     1      -2.596   1.835   3.220  1.00  0.00     0.047 C 
HETATM   27  C12 UNL     1      -3.325   0.546   3.419  1.00  0.00     0.123 C 
HETATM   28  H12 UNL     1      -3.683  -1.267   2.608  1.00  0.00     0.159 HD
ENDBRANCH   2  21
TORSDOF 5
