REMARK  5 active torsions:
REMARK  status: ('A' for Active; 'I' for Inactive)
REMARK    1  A    between atoms: O1_2  and  C2_3 
REMARK    2  A    between atoms: C4_5  and  C5_6 
REMARK    3  A    between atoms: C6_7  and  C7_8 
REMARK    4  A    between atoms: C11_16  and  O3_17 
REMARK    5  A    between atoms: C13_19  and  O4_20 
ROOT
HETATM    1  C2  UNL     1       1.385   0.940  -0.597  1.00  0.00     0.105 A 
HETATM    2  C3  UNL     1       0.095   0.977  -0.107  1.00  0.00     0.052 A 
HETATM    3  C4  UNL     1      -0.595  -0.144   0.353  1.00  0.00    -0.021 A 
HETATM    4  C10 UNL     1       0.114  -1.323   0.283  1.00  0.00     0.052 A 
HETATM    5  C11 UNL     1       1.400  -1.435  -0.193  1.00  0.00     0.105 A 
HETATM    6  C13 UNL     1       2.032  -0.303  -0.632  1.00  0.00     0.135 A 
ENDROOT
BRANCH   3   7
HETATM    7  C5  UNL     1      -1.964   0.037   0.822  1.00  0.00    -0.002 A 
HETATM    8  C6  UNL     1      -2.781   0.785   0.054  1.00  0.00     0.029 A 
HETATM    9  C8  UNL     1      -4.088   0.811   0.748  1.00  0.00     0.250 A 
HETATM   10  O2  UNL     1      -5.245   1.293   0.607  1.00  0.00    -0.268 OA
HETATM   11  N1  UNL     1      -3.985   0.044   1.951  1.00  0.00    -0.339 N 
HETATM   12  C9  UNL     1      -2.632  -0.471   2.052  1.00  0.00     0.192 A 
HETATM   13  H7  UNL     1      -4.558  -0.262   2.768  1.00  0.00     0.164 HD
HETATM   14 BR2  UNL     1      -2.613  -2.397   1.981  1.00  0.00    -0.063 Br
BRANCH   8  15
HETATM   15  C7  UNL     1      -2.779   1.545  -1.196  1.00  0.00     0.130 C 
HETATM   16 BR1  UNL     1      -4.148   0.756  -2.353  1.00  0.00    -0.091 Br
ENDBRANCH   8  15
ENDBRANCH   3   7
BRANCH   1  17
HETATM   17  O1  UNL     1       2.152   1.951  -1.066  1.00  0.00    -0.353 OA
HETATM   18  C1  UNL     1       1.904   3.308  -1.201  1.00  0.00     0.210 C 
ENDBRANCH   1  17
BRANCH   5  19
HETATM   19  O3  UNL     1       1.999  -2.687  -0.207  1.00  0.00    -0.353 OA
HETATM   20  C12 UNL     1       1.299  -3.828   0.259  1.00  0.00     0.210 C 
ENDBRANCH   5  19
BRANCH   6  21
HETATM   21  O4  UNL     1       3.325  -0.490  -1.097  1.00  0.00    -0.351 OA
HETATM   22  C14 UNL     1       4.472  -0.411  -0.296  1.00  0.00     0.210 C 
ENDBRANCH   6  21
TORSDOF 5
