REMARK  1 active torsions:
REMARK  status: ('A' for Active; 'I' for Inactive)
REMARK    1  A    between atoms: C15_22  and  C16_24 
ROOT
HETATM    1  C1  UNL     1      -2.399   2.318   1.685  1.00  0.00     0.038 C 
HETATM    2  C2  UNL     1      -2.759   0.897   1.636  1.00  0.00    -0.001 C 
HETATM    3  C3  UNL     1      -2.130   0.326   0.631  1.00  0.00     0.033 C 
HETATM    4  N1  UNL     1      -1.241   0.820  -0.326  1.00  0.00    -0.372 N 
HETATM    5  C4  UNL     1      -1.273   1.202  -1.732  1.00  0.00     0.272 C 
HETATM    6  N2  UNL     1       0.055   1.654  -2.170  1.00  0.00    -0.264 NA
HETATM    7  C5  UNL     1       0.545   2.700  -1.594  1.00  0.00     0.228 C 
HETATM    8  N3  UNL     1       0.948   3.856  -0.873  1.00  0.00    -0.254 NA
HETATM    9  C6  UNL     1       1.838   3.613   0.060  1.00  0.00     0.120 C 
HETATM   10  C7  UNL     1       2.383   2.294   0.355  1.00  0.00     0.043 C 
HETATM   11  C8  UNL     1       3.087   1.318   0.908  1.00  0.00     0.136 C 
HETATM   12  O1  UNL     1       3.361  -0.039   0.892  1.00  0.00    -0.363 OA
HETATM   13  C9  UNL     1       3.907  -0.614  -0.305  1.00  0.00     0.183 C 
HETATM   14  C10 UNL     1       4.186  -2.070  -0.058  1.00  0.00     0.131 C 
HETATM   15  C11 UNL     1       2.985  -2.856   0.287  1.00  0.00     0.243 C 
HETATM   16  O2  UNL     1       2.394  -1.776   0.041  1.00  0.00    -0.271 OA
HETATM   17  N4  UNL     1       1.775  -3.510   0.596  1.00  0.00    -0.235 N 
HETATM   18  O3  UNL     1       0.449  -3.433   0.705  1.00  0.00    -0.277 OA
HETATM   19  C12 UNL     1      -0.131  -2.245   0.356  1.00  0.00     0.206 C 
HETATM   20  C13 UNL     1      -1.619  -2.334   0.747  1.00  0.00     0.071 C 
HETATM   21  C14 UNL     1      -2.309  -1.085   0.353  1.00  0.00    -0.010 C 
HETATM   22  C15 UNL     1      -3.354  -1.174  -0.452  1.00  0.00     0.048 C 
HETATM   23 CL1  UNL     1      -3.910  -2.732  -1.031  1.00  0.00    -0.086 Cl
HETATM   24  H5  UNL     1      -0.425   0.848   0.327  1.00  0.00     0.161 HD
HETATM   25  H16 UNL     1       2.370  -4.340   0.777  1.00  0.00     0.197 HD
ENDROOT
BRANCH  22  26
HETATM   26  C16 UNL     1      -4.282  -0.190  -1.059  1.00  0.00     0.274 C 
HETATM   27  F1  UNL     1      -4.202  -0.299  -2.434  1.00  0.00    -0.250 F 
ENDBRANCH  22  26
TORSDOF 1
