REMARK  10 active torsions:
REMARK  status: ('A' for Active; 'I' for Inactive)
REMARK    1  A    between atoms: C2_2  and  C3_3 
REMARK    2  A    between atoms: C2_2  and  C4_5 
REMARK    3  A    between atoms: C3_3  and  O1_4 
REMARK    4  A    between atoms: C4_5  and  O2_6 
REMARK    5  A    between atoms: C6_8  and  C8_10 
REMARK    6  A    between atoms: C8_10  and  C9_11 
REMARK    7  A    between atoms: C9_11  and  C10_12 
REMARK    8  A    between atoms: C10_12  and  C11_13 
REMARK       I    between atoms: C11_13  and  N1_15 
REMARK       I    between atoms: N1_15  and  C12_16 
REMARK    9  A    between atoms: C12_16  and  C13_18 
REMARK   10  A    between atoms: C15_20  and  C16_21 
ROOT
HETATM    1  C11 UNL     1       0.645   0.177  -1.236  1.00  0.00     0.227 C 
HETATM    2  O3  UNL     1       0.177  -0.403  -0.197  1.00  0.00    -0.273 OA
HETATM    3  N1  UNL     1       1.731   0.942  -0.757  1.00  0.00    -0.293 N 
HETATM    4  C12 UNL     1       2.284   1.079   0.518  1.00  0.00     0.254 C 
HETATM    5  O4  UNL     1       1.708   0.494   1.455  1.00  0.00    -0.268 OA
HETATM    6  H16 UNL     1       1.727   1.147  -1.763  1.00  0.00     0.172 HD
ENDROOT
BRANCH   1   7
HETATM    7  C10 UNL     1      -0.475  -0.596  -1.814  1.00  0.00     0.130 C 
BRANCH   7   8
HETATM    8  C9  UNL     1      -1.148  -1.498  -0.809  1.00  0.00    -0.021 C 
BRANCH   8   9
HETATM    9  C8  UNL     1      -1.981  -2.157   0.028  1.00  0.00    -0.016 C 
BRANCH   9  10
HETATM   10  C6  UNL     1      -3.324  -1.738   0.056  1.00  0.00     0.026 A 
HETATM   11  C4  UNL     1      -4.645  -1.513   0.294  1.00  0.00     0.094 A 
HETATM   12  C7  UNL     1      -3.690  -2.652   1.238  1.00  0.00     0.071 A 
BRANCH  11  13
HETATM   13  C2  UNL     1      -5.112  -0.472  -0.717  1.00  0.00    -0.031 C 
HETATM   14  C1  UNL     1      -6.252   0.199  -1.026  1.00  0.00     0.019 C 
BRANCH  13  15
HETATM   15  C3  UNL     1      -4.165   0.055  -1.748  1.00  0.00     0.200 C 
BRANCH  15  16
HETATM   16  O1  UNL     1      -3.677  -0.975  -2.567  1.00  0.00    -0.397 OA
HETATM   17  H5  UNL     1      -3.253  -0.523  -3.366  1.00  0.00     0.209 HD
ENDBRANCH  15  16
ENDBRANCH  13  15
ENDBRANCH  11  13
BRANCH  11  18
HETATM   18  O2  UNL     1      -5.906  -1.362   0.593  1.00  0.00    -0.380 OA
HETATM   19  C5  UNL     1      -6.688  -2.452   1.097  1.00  0.00     0.203 C 
ENDBRANCH  11  18
ENDBRANCH   9  10
ENDBRANCH   8   9
ENDBRANCH   7   8
ENDBRANCH   1   7
BRANCH   4  20
HETATM   20  C13 UNL     1       3.457   1.927   0.347  1.00  0.00     0.008 A 
HETATM   21  C14 UNL     1       4.232   2.615  -0.407  1.00  0.00    -0.005 A 
HETATM   22  C15 UNL     1       5.105   3.002   0.670  1.00  0.00     0.038 A 
HETATM   23  C19 UNL     1       4.222   2.224   1.559  1.00  0.00     0.056 A 
BRANCH  22  24
HETATM   24  C16 UNL     1       6.500   2.496   0.468  1.00  0.00     0.019 C 
HETATM   25  C17 UNL     1       7.278   1.504   0.852  1.00  0.00     0.087 C 
HETATM   26  C18 UNL     1       8.700   1.242   0.469  1.00  0.00     0.082 C 
HETATM   27  F1  UNL     1       6.788   0.551   1.714  1.00  0.00    -0.212 F 
ENDBRANCH  22  24
ENDBRANCH   4  20
TORSDOF 10
