REMARK  7 active torsions:
REMARK  status: ('A' for Active; 'I' for Inactive)
REMARK    1  A    between atoms: O1_2  and  C2_3 
REMARK    2  A    between atoms: C4_5  and  C5_6 
REMARK    3  A    between atoms: C6_7  and  C7_8 
REMARK    4  A    between atoms: C7_8  and  C8_9 
REMARK    5  A    between atoms: C8_9  and  C9_10 
REMARK    6  A    between atoms: C12_17  and  O3_18 
REMARK    7  A    between atoms: C14_20  and  O4_21 
ROOT
HETATM    1  C2  UNL     1      -2.053   2.139   0.069  1.00  0.00     0.140 A 
HETATM    2  C3  UNL     1      -0.957   2.034  -0.664  1.00  0.00     0.045 A 
HETATM    3  C4  UNL     1      -0.221   0.832  -1.231  1.00  0.00     0.112 A 
HETATM    4  C12 UNL     1      -1.017  -0.327  -0.802  1.00  0.00     0.109 A 
HETATM    5  C14 UNL     1      -2.121  -0.395  -0.074  1.00  0.00     0.174 A 
HETATM    6  N2  UNL     1      -2.621   0.866   0.352  1.00  0.00    -0.316 N 
HETATM    7  H20 UNL     1      -3.498   0.836   0.933  1.00  0.00     0.170 HD
ENDROOT
BRANCH   3   8
HETATM    8  C5  UNL     1       1.151   0.895  -0.673  1.00  0.00     0.031 C 
HETATM    9  C6  UNL     1       1.969   0.241   0.145  1.00  0.00    -0.014 C 
HETATM   10  C10 UNL     1       3.199   1.071   0.424  1.00  0.00     0.302 C 
HETATM   11  F1  UNL     1       2.850   1.958   1.496  1.00  0.00    -0.222 F 
HETATM   12  N1  UNL     1       3.265   1.934  -0.715  1.00  0.00    -0.323 N 
HETATM   13  C11 UNL     1       1.955   2.003  -1.247  1.00  0.00     0.251 C 
HETATM   14  H13 UNL     1       4.164   2.376  -1.008  1.00  0.00     0.166 HD
HETATM   15  O2  UNL     1       1.729   2.955  -2.074  1.00  0.00    -0.268 OA
BRANCH   9  16
HETATM   16  C7  UNL     1       1.844  -0.980   0.936  1.00  0.00     0.041 C 
BRANCH  16  17
HETATM   17  C8  UNL     1       2.411  -2.241   0.453  1.00  0.00     0.019 C 
BRANCH  17  18
HETATM   18  C9  UNL     1       3.833  -2.355   0.079  1.00  0.00     0.115 C 
HETATM   19 CL1  UNL     1       4.177  -1.350  -1.348  1.00  0.00    -0.130 Cl
ENDBRANCH  17  18
ENDBRANCH  16  17
ENDBRANCH   9  16
ENDBRANCH   3   8
BRANCH   4  20
HETATM   20  O3  UNL     1      -0.475  -1.492  -1.270  1.00  0.00    -0.355 OA
HETATM   21  C13 UNL     1      -1.019  -2.774  -1.221  1.00  0.00     0.209 C 
ENDBRANCH   4  20
BRANCH   1  22
HETATM   22  O1  UNL     1      -2.597   3.331   0.513  1.00  0.00    -0.341 OA
HETATM   23  C1  UNL     1      -2.738   3.663   1.876  1.00  0.00     0.211 C 
ENDBRANCH   1  22
BRANCH   5  24
HETATM   24  O4  UNL     1      -2.782  -1.565   0.271  1.00  0.00    -0.339 OA
HETATM   25  C15 UNL     1      -4.170  -1.632  -0.096  1.00  0.00     0.211 C 
ENDBRANCH   5  24
TORSDOF 7
