REMARK  3 active torsions:
REMARK  status: ('A' for Active; 'I' for Inactive)
REMARK    1  A    between atoms: C2_2  and  C3_3 
REMARK    2  A    between atoms: C3_3  and  O1_4 
REMARK    3  A    between atoms: C17_21  and  O2_22 
ROOT
HETATM    1  C3  UNL     1      -2.878  -1.041  -0.193  1.00  0.00     0.144 A 
HETATM    2  C5  UNL     1      -2.189  -2.244   0.453  1.00  0.00     0.023 A 
HETATM    3  C6  UNL     1      -0.880  -2.161   0.553  1.00  0.00     0.011 A 
HETATM    4  C7  UNL     1       0.059  -1.123   0.165  1.00  0.00    -0.036 A 
HETATM    5  C8  UNL     1       1.277  -1.514   0.497  1.00  0.00    -0.116 C 
HETATM    6  C9  UNL     1       1.792  -2.733   1.147  1.00  0.00     0.031 C 
HETATM    7  B1  UNL     1       2.577  -0.714   0.187  1.00  0.00     0.191 B 
HETATM    8  C10 UNL     1       3.618  -0.226   1.252  1.00  0.00    -0.029 C 
HETATM    9  C11 UNL     1       4.720   0.598   0.687  1.00  0.00     0.104 C 
HETATM   10  N1  UNL     1       4.432   1.854   0.205  1.00  0.00    -0.419 N 
HETATM   11  C12 UNL     1       3.713   2.183  -0.948  1.00  0.00     0.154 C 
HETATM   12  C13 UNL     1       2.263   1.871  -0.952  1.00  0.00     0.206 A 
HETATM   13  C14 UNL     1       1.288   1.205  -1.619  1.00  0.00     0.067 A 
HETATM   14  F1  UNL     1       2.468   1.030  -2.266  1.00  0.00    -0.363 F 
HETATM   15  C15 UNL     1      -0.044   1.357  -0.957  1.00  0.00     0.107 C 
HETATM   16  C16 UNL     1      -0.507   0.065  -0.443  1.00  0.00    -0.010 A 
HETATM   17  C17 UNL     1      -1.846  -0.027  -0.527  1.00  0.00     0.095 A 
HETATM   18  H12 UNL     1       3.087  -1.123  -0.847  1.00  0.00    -0.021 HD
HETATM   19  H17 UNL     1       4.960   2.658   0.640  1.00  0.00     0.153 HD
ENDROOT
BRANCH   1  20
HETATM   20  C2  UNL     1      -3.789  -0.539   0.838  1.00  0.00     0.012 C 
HETATM   21  C1  UNL     1      -3.989  -0.549   2.170  1.00  0.00     0.010 C 
ENDBRANCH   1  20
BRANCH   1  22
HETATM   22  O1  UNL     1      -3.496  -1.576  -1.289  1.00  0.00    -0.370 OA
HETATM   23  C4  UNL     1      -4.326  -0.814  -2.036  1.00  0.00     0.204 C 
ENDBRANCH   1  22
BRANCH  17  24
HETATM   24  O2  UNL     1      -2.644   0.992  -1.024  1.00  0.00    -0.356 OA
HETATM   25  C18 UNL     1      -3.057   2.134  -0.347  1.00  0.00     0.209 C 
ENDBRANCH  17  24
TORSDOF 3
