REMARK  6 active torsions:
REMARK  status: ('A' for Active; 'I' for Inactive)
REMARK    1  A    between atoms: C15_19  and  C16_20 
REMARK    2  A    between atoms: C16_20  and  C17_21 
REMARK    3  A    between atoms: C17_21  and  C18_22 
REMARK    4  A    between atoms: C18_22  and  C19_23 
REMARK    5  A    between atoms: C19_23  and  N2_24 
REMARK    6  A    between atoms: N2_24  and  O2_25 
ROOT
HETATM    1  C1  UNL     1       2.915   3.739   0.144  1.00  0.00     0.042 C 
HETATM    2  C2  UNL     1       3.018   2.439   0.305  1.00  0.00     0.020 C 
HETATM    3  C3  UNL     1       4.426   2.071   0.513  1.00  0.00     0.061 C 
HETATM    4  C4  UNL     1       4.924   0.816   0.718  1.00  0.00     0.204 A 
HETATM    5 CL1  UNL     1       6.679   0.582   0.947  1.00  0.00    -0.126 Cl
HETATM    6  C5  UNL     1       5.166  -0.633   0.933  1.00  0.00     0.203 A 
HETATM    7  F1  UNL     1       3.931  -0.182   0.803  1.00  0.00    -0.345 F 
HETATM    8  C6  UNL     1       4.474  -1.743   1.044  1.00  0.00     0.044 C 
HETATM    9  C7  UNL     1       3.230  -2.463   1.068  1.00  0.00    -0.035 A 
HETATM   10  C8  UNL     1       2.872  -3.742   1.251  1.00  0.00     0.014 A 
HETATM   11  C9  UNL     1       1.526  -4.007   1.154  1.00  0.00     0.038 A 
HETATM   12  C10 UNL     1       0.559  -3.032   0.884  1.00  0.00     0.077 A 
HETATM   13  C11 UNL     1       0.831  -1.668   0.678  1.00  0.00     0.005 A 
HETATM   14  C12 UNL     1       2.191  -1.630   0.816  1.00  0.00     0.024 A 
HETATM   15  C13 UNL     1      -0.237  -0.714   0.389  1.00  0.00     0.165 C 
HETATM   16  O1  UNL     1      -0.041   0.295  -0.455  1.00  0.00    -0.362 OA
HETATM   17  C14 UNL     1       1.038   0.969  -0.760  1.00  0.00     0.291 C 
HETATM   18  N1  UNL     1       1.760   1.736   0.235  1.00  0.00    -0.369 N 
HETATM   19  C15 UNL     1      -1.334  -1.592  -0.267  1.00  0.00     0.044 C 
HETATM   20  C20 UNL     1      -1.832  -2.632   0.675  1.00  0.00     0.183 C 
HETATM   21  O3  UNL     1      -0.743  -3.562   0.838  1.00  0.00    -0.350 OA
HETATM   22  H11 UNL     1       1.304   1.851   1.171  1.00  0.00     0.161 HD
ENDROOT
BRANCH  19  23
HETATM   23  C16 UNL     1      -2.341  -0.803  -1.004  1.00  0.00     0.010 C 
BRANCH  23  24
HETATM   24  C17 UNL     1      -3.125   0.202  -0.241  1.00  0.00     0.002 C 
BRANCH  24  25
HETATM   25  C18 UNL     1      -4.092   0.862  -1.239  1.00  0.00     0.017 C 
BRANCH  25  26
HETATM   26  C19 UNL     1      -4.943   1.907  -0.595  1.00  0.00     0.117 C 
BRANCH  26  27
HETATM   27  N2  UNL     1      -5.824   2.471  -1.594  1.00  0.00    -0.209 NA
HETATM   28  H21 UNL     1      -6.365   3.234  -1.095  1.00  0.00     0.153 HD
BRANCH  27  29
HETATM   29  O2  UNL     1      -5.186   3.047  -2.620  1.00  0.00    -0.316 OA
HETATM   30  H22 UNL     1      -5.474   4.003  -2.749  1.00  0.00     0.236 HD
ENDBRANCH  27  29
ENDBRANCH  26  27
ENDBRANCH  25  26
ENDBRANCH  24  25
ENDBRANCH  23  24
ENDBRANCH  19  23
TORSDOF 6
