REMARK  1 active torsions:
REMARK  status: ('A' for Active; 'I' for Inactive)
REMARK    1  A    between atoms: O1_2  and  C2_3 
ROOT
HETATM    1  C2  UNL     1      -0.891   2.521  -0.648  1.00  0.00     0.118 C 
HETATM    2  C3  UNL     1       0.186   3.308  -0.684  1.00  0.00     0.173 C 
HETATM    3  O2  UNL     1       1.480   3.055  -0.182  1.00  0.00    -0.360 OA
HETATM    4  C4  UNL     1       1.755   1.645  -0.113  1.00  0.00     0.174 C 
HETATM    5  C5  UNL     1       3.196   1.327   0.113  1.00  0.00     0.027 C 
HETATM    6  C6  UNL     1       3.362  -0.169   0.088  1.00  0.00     0.002 C 
HETATM    7  C7  UNL     1       2.652  -0.876   1.203  1.00  0.00     0.001 C 
HETATM    8  C8  UNL     1       2.798  -2.379   1.078  1.00  0.00     0.009 C 
HETATM    9  C9  UNL     1       2.152  -2.915  -0.167  1.00  0.00     0.105 C 
HETATM   10  C10 UNL     1       0.687  -2.712  -0.170  1.00  0.00     0.241 C 
HETATM   11  O3  UNL     1       0.079  -2.218   0.843  1.00  0.00    -0.271 OA
HETATM   12  N1  UNL     1      -0.676  -2.674  -0.544  1.00  0.00    -0.232 N 
HETATM   13  O4  UNL     1      -1.790  -2.286   0.057  1.00  0.00    -0.241 OA
HETATM   14  C11 UNL     1      -2.166  -0.991  -0.190  1.00  0.00     0.179 C 
HETATM   15  C12 UNL     1      -3.312  -0.941  -1.222  1.00  0.00     0.078 C 
HETATM   16  C13 UNL     1      -1.090  -0.069  -0.589  1.00  0.00     0.070 C 
HETATM   17  C14 UNL     1      -1.216   1.195  -0.142  1.00  0.00     0.094 C 
HETATM   18  N2  UNL     1      -1.817   1.468   1.145  1.00  0.00    -0.242 NA
HETATM   19  C15 UNL     1      -2.251   0.482   1.900  1.00  0.00     0.205 C 
HETATM   20  N3  UNL     1      -2.819  -0.535   1.061  1.00  0.00    -0.348 N 
HETATM   21  H17 UNL     1      -0.358  -3.085  -1.475  1.00  0.00     0.197 HD
HETATM   22  H23 UNL     1      -3.738  -1.038   1.268  1.00  0.00     0.163 HD
ENDROOT
BRANCH   1  23
HETATM   23  O1  UNL     1      -2.067   3.035  -1.234  1.00  0.00    -0.352 OA
HETATM   24  C1  UNL     1      -3.319   2.999  -0.605  1.00  0.00     0.210 C 
ENDBRANCH   1  23
TORSDOF 1
