REMARK  1 active torsions:
REMARK  status: ('A' for Active; 'I' for Inactive)
REMARK    1  A    between atoms: N1_9  and  C7_10 
ROOT
HETATM    1  C7  UNL     1       1.502  -0.038   1.247  1.00  0.00     0.231 C 
HETATM    2  C8  UNL     1       0.787   1.222   0.910  1.00  0.00     0.024 C 
HETATM    3  C9  UNL     1      -0.194   1.326  -0.048  1.00  0.00    -0.078 C 
HETATM    4  C10 UNL     1      -0.827   2.640  -0.269  1.00  0.00     0.034 C 
HETATM    5  C11 UNL     1      -2.239   2.931  -0.157  1.00  0.00     0.010 A 
HETATM    6  C12 UNL     1      -3.131   2.756   0.981  1.00  0.00     0.061 A 
HETATM    7  C13 UNL     1      -3.533   1.386   1.333  1.00  0.00     0.059 A 
HETATM    8  O1  UNL     1      -2.773   1.644   0.440  1.00  0.00     0.000 OA
HETATM    9  N2  UNL     1      -4.042   0.157   1.828  1.00  0.00    -0.237 N 
HETATM   10  O2  UNL     1      -3.934  -1.201   1.587  1.00  0.00    -0.112 OA
HETATM   11  O3  UNL     1      -3.140  -1.616   0.880  1.00  0.00    -0.209 OA
HETATM   12  C14 UNL     1      -2.243  -2.086   0.081  1.00  0.00     0.191 C 
HETATM   13  C15 UNL     1      -1.008  -2.688   0.625  1.00  0.00     0.083 C 
HETATM   14  C16 UNL     1      -0.134  -1.915   1.543  1.00  0.00     0.089 C 
HETATM   15  N3  UNL     1       0.685  -1.051   1.742  1.00  0.00    -0.276 NA
HETATM   16  C17 UNL     1      -2.265  -1.594  -1.356  1.00  0.00     0.203 C 
HETATM   17  O4  UNL     1      -1.134  -1.585  -2.116  1.00  0.00    -0.388 OA
HETATM   18  C18 UNL     1      -0.579  -0.223  -2.182  1.00  0.00     0.172 C 
HETATM   19  C19 UNL     1      -0.500   0.109  -0.799  1.00  0.00     0.060 C 
HETATM   20  H15 UNL     1      -4.469   0.910   2.391  1.00  0.00     0.197 HD
ENDROOT
BRANCH   1  21
HETATM   21  N1  UNL     1       2.627  -0.402   0.466  1.00  0.00    -0.353 N 
HETATM   22  C2  UNL     1       3.308   0.174  -0.639  1.00  0.00     0.030 A 
HETATM   23  C1  UNL     1       2.749   1.448  -1.159  1.00  0.00     0.070 C 
HETATM   24  C3  UNL     1       4.382  -0.361  -1.194  1.00  0.00     0.094 A 
HETATM   25 CL1  UNL     1       5.100   0.489  -2.551  1.00  0.00    -0.079 Cl
HETATM   26  C4  UNL     1       4.958  -1.610  -0.720  1.00  0.00     0.137 A 
HETATM   27  F1  UNL     1       6.046  -2.181  -1.263  1.00  0.00    -0.204 F 
HETATM   28  C5  UNL     1       4.280  -2.101   0.298  1.00  0.00     0.037 A 
HETATM   29  C6  UNL     1       3.086  -1.651   1.034  1.00  0.00     0.155 A 
ENDBRANCH   1  21
TORSDOF 1
