REMARK  4 active torsions:
REMARK  status: ('A' for Active; 'I' for Inactive)
REMARK    1  A    between atoms: C7_7  and  N1_8 
REMARK    2  A    between atoms: N1_8  and  C8_9 
REMARK    3  A    between atoms: C12_15  and  C13_16 
REMARK    4  A    between atoms: C14_17  and  O1_18 
ROOT
HETATM    1  C1  UNL     1       8.974   1.389  -0.395  1.00  0.00     0.018 C 
HETATM    2  C2  UNL     1       7.905   1.351   0.173  1.00  0.00    -0.078 C 
HETATM    3  C3  UNL     1       6.620   1.294   0.852  1.00  0.00     0.019 A 
HETATM    4  C4  UNL     1       6.594   1.477   2.223  1.00  0.00     0.021 A 
HETATM    5  C5  UNL     1       5.384   1.425   2.883  1.00  0.00     0.004 A 
HETATM    6  C6  UNL     1       4.192   1.198   2.234  1.00  0.00     0.029 A 
HETATM    7  C7  UNL     1       4.231   1.018   0.868  1.00  0.00     0.035 A 
HETATM    8  C23 UNL     1       5.439   1.064   0.172  1.00  0.00     0.050 A 
ENDROOT
BRANCH   7   9
HETATM    9  N1  UNL     1       3.142   0.765  -0.048  1.00  0.00    -0.340 N 
HETATM   10  H5  UNL     1       2.604   1.557  -0.521  1.00  0.00     0.167 HD
BRANCH   9  11
HETATM   11  C8  UNL     1       2.729  -0.572  -0.374  1.00  0.00     0.137 A 
HETATM   12  N2  UNL     1       3.680  -1.413  -0.528  1.00  0.00    -0.224 NA
HETATM   13  C9  UNL     1       3.422  -2.765  -0.848  1.00  0.00     0.229 A 
HETATM   14  N3  UNL     1       2.201  -3.117  -0.971  1.00  0.00    -0.278 NA
HETATM   15  C10 UNL     1       1.039  -2.309  -0.821  1.00  0.00     0.192 A 
HETATM   16  C11 UNL     1       1.297  -0.872  -0.551  1.00  0.00     0.010 A 
HETATM   17  C12 UNL     1       0.399   0.078  -0.460  1.00  0.00     0.052 C 
BRANCH  17  18
HETATM   18  C13 UNL     1      -1.051   0.114  -0.584  1.00  0.00     0.100 C 
HETATM   19  C14 UNL     1      -1.587   1.352  -0.409  1.00  0.00     0.105 C 
HETATM   20  C16 UNL     1      -3.005   1.799  -0.465  1.00  0.00     0.268 C 
HETATM   21  O2  UNL     1      -3.332   2.335   0.784  1.00  0.00    -0.272 OA
HETATM   22  N4  UNL     1      -4.039   1.463   1.524  1.00  0.00    -0.246 N 
HETATM   23  C17 UNL     1      -4.795   0.279   1.462  1.00  0.00     0.160 A 
HETATM   24  H15 UNL     1      -4.385   1.204   2.468  1.00  0.00     0.196 HD
HETATM   25  O3  UNL     1      -4.900  -0.116   0.301  1.00  0.00    -0.331 OA
HETATM   26  C18 UNL     1      -5.564  -0.947   1.294  1.00  0.00     0.233 A 
HETATM   27  C19 UNL     1      -5.861  -1.477  -0.030  1.00  0.00     0.033 C 
HETATM   28  C20 UNL     1      -4.886  -1.792  -1.068  1.00  0.00     0.004 C 
HETATM   29  C21 UNL     1      -3.670  -2.569  -0.824  1.00  0.00     0.027 C 
HETATM   30  C22 UNL     1      -2.514  -1.887  -0.118  1.00  0.00     0.176 C 
HETATM   31  O4  UNL     1      -2.015  -0.812  -0.838  1.00  0.00    -0.349 OA
BRANCH  19  32
HETATM   32  O1  UNL     1      -0.850   2.512  -0.130  1.00  0.00    -0.355 OA
HETATM   33  C15 UNL     1      -0.448   3.313  -1.226  1.00  0.00     0.209 C 
ENDBRANCH  19  32
ENDBRANCH  17  18
ENDBRANCH   9  11
ENDBRANCH   7   9
TORSDOF 4
