REMARK  4 active torsions:
REMARK  status: ('A' for Active; 'I' for Inactive)
REMARK    1  A    between atoms: C7_7  and  N1_8 
REMARK    2  A    between atoms: N1_8  and  C8_9 
REMARK    3  A    between atoms: C14_18  and  N4_19 
REMARK    4  A    between atoms: C21_27  and  O3_28 
ROOT
HETATM    1  C1  UNL     1      -6.983  -1.557   0.919  1.00  0.00     0.018 C 
HETATM    2  C2  UNL     1      -6.188  -1.579   0.014  1.00  0.00    -0.075 C 
HETATM    3  C3  UNL     1      -5.232  -1.626  -1.061  1.00  0.00     0.057 A 
HETATM    4  C4  UNL     1      -5.057  -2.747  -1.824  1.00  0.00     0.024 A 
HETATM    5  C5  UNL     1      -4.179  -2.882  -2.860  1.00  0.00     0.004 A 
HETATM    6  C6  UNL     1      -3.393  -1.803  -3.175  1.00  0.00     0.033 A 
HETATM    7  C7  UNL     1      -3.500  -0.615  -2.452  1.00  0.00     0.074 A 
HETATM    8  C24 UNL     1      -4.430  -0.558  -1.399  1.00  0.00     0.161 A 
HETATM    9  F1  UNL     1      -4.628   0.553  -0.616  1.00  0.00    -0.202 F 
ENDROOT
BRANCH   7  10
HETATM   10  N1  UNL     1      -2.817   0.615  -2.607  1.00  0.00    -0.338 N 
HETATM   11  H5  UNL     1      -3.268   0.751  -3.559  1.00  0.00     0.167 HD
BRANCH  10  12
HETATM   12  C8  UNL     1      -1.926   1.595  -2.105  1.00  0.00     0.141 A 
HETATM   13  N2  UNL     1      -1.971   2.721  -2.828  1.00  0.00    -0.224 NA
HETATM   14  C9  UNL     1      -1.264   3.808  -2.612  1.00  0.00     0.236 A 
HETATM   15  N3  UNL     1      -0.473   3.688  -1.578  1.00  0.00    -0.241 NA
HETATM   16  C10 UNL     1      -0.304   2.646  -0.756  1.00  0.00     0.072 A 
HETATM   17  C11 UNL     1      -1.070   1.535  -1.031  1.00  0.00     0.037 A 
HETATM   18  C23 UNL     1       0.591   2.912   0.177  1.00  0.00     0.065 C 
HETATM   19  C12 UNL     1      -1.115   0.349  -0.451  1.00  0.00     0.017 C 
HETATM   20  C13 UNL     1      -0.596  -0.488   0.635  1.00  0.00     0.198 C 
HETATM   21  O1  UNL     1       0.293  -1.384   0.131  1.00  0.00    -0.364 OA
HETATM   22  C14 UNL     1       0.883  -2.296   0.949  1.00  0.00     0.214 C 
HETATM   23  C15 UNL     1       2.358  -1.956   1.169  1.00  0.00     0.053 C 
HETATM   24  C16 UNL     1       3.062  -1.780  -0.141  1.00  0.00     0.004 C 
HETATM   25  C17 UNL     1       4.489  -1.331   0.061  1.00  0.00     0.000 C 
HETATM   26  C18 UNL     1       4.542  -0.092   0.933  1.00  0.00     0.002 C 
HETATM   27  C19 UNL     1       3.623   1.009   0.431  1.00  0.00     0.026 C 
HETATM   28  C20 UNL     1       3.700   2.181   1.348  1.00  0.00     0.171 C 
HETATM   29  O2  UNL     1       2.814   3.195   1.132  1.00  0.00    -0.358 OA
HETATM   30  C21 UNL     1       1.477   2.801   1.320  1.00  0.00     0.285 C 
BRANCH  22  31
HETATM   31  N4  UNL     1       0.641  -3.647   0.584  1.00  0.00    -0.406 N 
HETATM   32  H11 UNL     1       0.187  -3.810  -0.332  1.00  0.00     0.152 HD
HETATM   33  H12 UNL     1       1.392  -4.319   0.835  1.00  0.00     0.152 HD
ENDBRANCH  22  31
BRANCH  30  34
HETATM   34  O3  UNL     1       0.973   3.352   2.509  1.00  0.00    -0.363 OA
HETATM   35  C22 UNL     1       0.821   2.459   3.533  1.00  0.00     0.205 C 
ENDBRANCH  30  34
ENDBRANCH  10  12
ENDBRANCH   7  10
TORSDOF 4
