REMARK  5 active torsions:
REMARK  status: ('A' for Active; 'I' for Inactive)
REMARK    1  A    between atoms: N1_1  and  C1_2 
REMARK    2  A    between atoms: C1_2  and  O1_3 
REMARK    3  A    between atoms: O1_3  and  C2_4 
REMARK    4  A    between atoms: C7_12  and  C8_13 
REMARK    5  A    between atoms: C12_17  and  C13_18 
ROOT
HETATM    1  C2  UNL     1      -4.857  -0.401   1.307  1.00  0.00     0.084 C 
HETATM    2  C3  UNL     1      -4.469   0.530   2.172  1.00  0.00     0.035 C 
HETATM    3  C4  UNL     1      -4.049   1.617   1.514  1.00  0.00     0.159 C 
HETATM    4  O2  UNL     1      -2.787   1.088   1.532  1.00  0.00    -0.301 OA
HETATM    5  C5  UNL     1      -1.895   1.360   0.526  1.00  0.00     0.199 A 
HETATM    6  N2  UNL     1      -2.173   2.336  -0.347  1.00  0.00    -0.215 NA
HETATM    7  C6  UNL     1      -1.377   2.690  -1.367  1.00  0.00     0.236 A 
HETATM    8  N3  UNL     1      -0.236   1.991  -1.481  1.00  0.00    -0.239 NA
HETATM    9  C7  UNL     1       0.123   0.991  -0.644  1.00  0.00     0.099 A 
HETATM   10  C20 UNL     1      -0.716   0.649   0.394  1.00  0.00     0.112 A 
HETATM   11  N4  UNL     1      -0.232  -0.436   1.165  1.00  0.00    -0.381 N 
HETATM   12  C21 UNL     1      -1.284  -1.006   1.962  1.00  0.00     0.147 C 
HETATM   13  C22 UNL     1      -2.386  -1.544   1.129  1.00  0.00    -0.005 C 
HETATM   14  C23 UNL     1      -3.623  -1.114   1.095  1.00  0.00     0.035 C 
HETATM   15  H16 UNL     1       0.734  -0.762   1.138  1.00  0.00     0.160 HD
ENDROOT
BRANCH   9  16
HETATM   16  C8  UNL     1       1.408   0.459  -1.059  1.00  0.00    -0.004 A 
HETATM   17  C9  UNL     1       1.576   0.071  -2.394  1.00  0.00     0.014 A 
HETATM   18  C10 UNL     1       2.739  -0.429  -2.954  1.00  0.00     0.002 A 
HETATM   19  C11 UNL     1       3.815  -0.554  -2.128  1.00  0.00     0.012 A 
HETATM   20  C12 UNL     1       3.733  -0.194  -0.801  1.00  0.00    -0.025 A 
HETATM   21  C19 UNL     1       2.548   0.295  -0.316  1.00  0.00     0.026 A 
BRANCH  20  22
HETATM   22  C13 UNL     1       4.889  -0.327   0.089  1.00  0.00    -0.026 A 
HETATM   23  C14 UNL     1       5.740  -1.371  -0.201  1.00  0.00     0.012 A 
HETATM   24  C15 UNL     1       6.870  -1.573   0.598  1.00  0.00     0.001 A 
HETATM   25  C16 UNL     1       7.133  -0.736   1.667  1.00  0.00     0.000 A 
HETATM   26  C17 UNL     1       6.279   0.293   1.939  1.00  0.00     0.001 A 
HETATM   27  C18 UNL     1       5.153   0.512   1.160  1.00  0.00     0.012 A 
ENDBRANCH  20  22
ENDBRANCH   9  16
BRANCH   1  28
HETATM   28  O1  UNL     1      -6.201  -0.194   1.071  1.00  0.00    -0.321 OA
BRANCH  28  29
HETATM   29  C1  UNL     1      -6.686   0.084  -0.254  1.00  0.00     0.441 C 
BRANCH  29  30
HETATM   30  N1  UNL     1      -8.129   0.093  -0.162  1.00  0.00     0.101 N 
HETATM   31  H1  UNL     1      -8.456   0.081   0.828  1.00  0.00     0.315 HD
HETATM   32  H2  UNL     1      -8.567  -0.687  -0.713  1.00  0.00     0.315 HD
ENDBRANCH  29  30
ENDBRANCH  28  29
ENDBRANCH   1  28
TORSDOF 5
