REMARK  6 active torsions:
REMARK  status: ('A' for Active; 'I' for Inactive)
REMARK    1  A    between atoms: C5_6  and  C6_7 
REMARK    2  A    between atoms: C6_7  and  O1_8 
REMARK    3  A    between atoms: O1_8  and  C7_9 
REMARK    4  A    between atoms: C7_9  and  C8_10 
REMARK    5  A    between atoms: C8_10  and  C9_11 
REMARK    6  A    between atoms: C8_10  and  N1_14 
ROOT
HETATM    1  C7  UNL     1      -0.450  -1.072   0.516  1.00  0.00     0.164 C 
ENDROOT
BRANCH   1   2
HETATM    2  O1  UNL     1       0.850  -0.668   0.467  1.00  0.00    -0.356 OA
BRANCH   2   3
HETATM    3  C6  UNL     1       1.256   0.242  -0.544  1.00  0.00     0.213 C 
BRANCH   3   4
HETATM    4  C5  UNL     1       2.695   0.516  -0.372  1.00  0.00    -0.031 A 
HETATM    5  C4  UNL     1       3.121   1.575   0.438  1.00  0.00     0.009 A 
HETATM    6  C3  UNL     1       4.459   1.816   0.587  1.00  0.00     0.004 A 
HETATM    7  C2  UNL     1       5.378   1.017  -0.061  1.00  0.00     0.042 A 
HETATM    8  C1  UNL     1       4.964  -0.021  -0.856  1.00  0.00     0.117 A 
HETATM    9  F1  UNL     1       5.904  -0.792  -1.483  1.00  0.00    -0.206 F 
HETATM   10  C14 UNL     1       3.623  -0.292  -1.027  1.00  0.00     0.051 A 
ENDBRANCH   3   4
ENDBRANCH   2   3
ENDBRANCH   1   2
BRANCH   1  11
HETATM   11  C8  UNL     1      -1.759  -1.119   0.388  1.00  0.00     0.059 C 
BRANCH  11  12
HETATM   12  C9  UNL     1      -2.389  -2.311   0.902  1.00  0.00     0.043 C 
HETATM   13  C10 UNL     1      -3.698  -2.408   0.799  1.00  0.00     0.087 C 
HETATM   14 CL1  UNL     1      -4.643  -3.773   1.362  1.00  0.00    -0.097 Cl
ENDBRANCH  11  12
BRANCH  11  15
HETATM   15  N1  UNL     1      -2.483  -0.068  -0.214  1.00  0.00    -0.321 N 
HETATM   16  C11 UNL     1      -2.425   1.172   0.487  1.00  0.00     0.212 A 
HETATM   17  N2  UNL     1      -3.063   2.191   0.004  1.00  0.00    -0.237 NA
HETATM   18  C12 UNL     1      -3.804   2.036  -1.220  1.00  0.00     0.229 A 
HETATM   19  N3  UNL     1      -3.869   0.937  -1.861  1.00  0.00    -0.263 NA
HETATM   20  C13 UNL     1      -3.207  -0.283  -1.439  1.00  0.00     0.281 A 
ENDBRANCH  11  15
ENDBRANCH   1  11
TORSDOF 6
