REMARK  9 active torsions:
REMARK  status: ('A' for Active; 'I' for Inactive)
REMARK    1  A    between atoms: C7_7  and  N1_8 
REMARK    2  A    between atoms: N1_8  and  C8_9 
REMARK    3  A    between atoms: C12_14  and  C13_15 
REMARK    4  A    between atoms: C13_15  and  C14_16 
REMARK    5  A    between atoms: C14_16  and  O1_17 
REMARK    6  A    between atoms: C16_19  and  O2_20 
REMARK    7  A    between atoms: O2_20  and  C17_21 
REMARK    8  A    between atoms: C17_21  and  C18_22 
REMARK    9  A    between atoms: C18_22  and  O3_23 
ROOT
HETATM    1  C1  UNL     1       8.032  -0.280   0.424  1.00  0.00     0.018 C 
HETATM    2  C2  UNL     1       7.021   0.378   0.485  1.00  0.00    -0.078 C 
HETATM    3  C3  UNL     1       5.806   1.160   0.582  1.00  0.00     0.019 A 
HETATM    4  C4  UNL     1       5.614   2.130   1.558  1.00  0.00     0.021 A 
HETATM    5  C5  UNL     1       4.404   2.832   1.607  1.00  0.00     0.004 A 
HETATM    6  C6  UNL     1       3.378   2.598   0.711  1.00  0.00     0.029 A 
HETATM    7  C7  UNL     1       3.640   1.624  -0.228  1.00  0.00     0.034 A 
HETATM    8  C22 UNL     1       4.796   0.888  -0.349  1.00  0.00     0.050 A 
ENDROOT
BRANCH   7   9
HETATM    9  N1  UNL     1       2.644   1.271  -1.214  1.00  0.00    -0.353 N 
HETATM   10  H5  UNL     1       2.545   2.056  -1.925  1.00  0.00     0.166 HD
BRANCH   9  11
HETATM   11  C8  UNL     1       2.058   0.000  -0.994  1.00  0.00     0.077 A 
HETATM   12  C9  UNL     1       2.672  -1.134  -1.177  1.00  0.00     0.116 A 
HETATM   13  N2  UNL     1       1.979  -2.177  -0.974  1.00  0.00    -0.243 NA
HETATM   14  C10 UNL     1       0.672  -1.757  -0.529  1.00  0.00     0.070 A 
HETATM   15  C11 UNL     1      -0.483  -2.402  -0.142  1.00  0.00     0.042 A 
HETATM   16  C21 UNL     1       0.732  -0.386  -0.546  1.00  0.00     0.025 A 
HETATM   17  C12 UNL     1      -1.575  -1.601   0.229  1.00  0.00    -0.021 A 
HETATM   18  C16 UNL     1      -1.559  -0.194   0.228  1.00  0.00     0.076 A 
HETATM   19  C20 UNL     1      -0.361   0.348  -0.174  1.00  0.00     0.053 A 
BRANCH  17  20
HETATM   20  C13 UNL     1      -2.806  -2.390   0.635  1.00  0.00     0.067 C 
BRANCH  20  21
HETATM   21  C14 UNL     1      -2.534  -3.850   0.735  1.00  0.00     0.171 C 
BRANCH  21  22
HETATM   22  O1  UNL     1      -3.661  -4.535   1.126  1.00  0.00    -0.396 OA
HETATM   23  C15 UNL     1      -4.716  -4.407   0.262  1.00  0.00     0.201 C 
ENDBRANCH  21  22
ENDBRANCH  20  21
ENDBRANCH  17  20
BRANCH  18  24
HETATM   24  O2  UNL     1      -2.712   0.258   0.623  1.00  0.00    -0.348 OA
BRANCH  24  25
HETATM   25  C17 UNL     1      -3.391   1.391   0.843  1.00  0.00     0.201 C 
BRANCH  25  26
HETATM   26  C18 UNL     1      -3.616   2.270  -0.366  1.00  0.00     0.193 C 
BRANCH  26  27
HETATM   27  O3  UNL     1      -2.454   2.700  -0.951  1.00  0.00    -0.394 OA
HETATM   28  C19 UNL     1      -2.630   3.506  -2.059  1.00  0.00     0.201 C 
ENDBRANCH  26  27
ENDBRANCH  25  26
ENDBRANCH  24  25
ENDBRANCH  18  24
ENDBRANCH   9  11
ENDBRANCH   7   9
TORSDOF 9
