REMARK  8 active torsions:
REMARK  status: ('A' for Active; 'I' for Inactive)
REMARK    1  A    between atoms: C9_13  and  C10_14 
REMARK    2  A    between atoms: C10_14  and  C11_15 
REMARK    3  A    between atoms: C11_15  and  O1_16 
REMARK    4  A    between atoms: O1_16  and  C12_17 
REMARK    5  A    between atoms: C12_17  and  C13_18 
REMARK    6  A    between atoms: C13_18  and  C14_19 
REMARK    7  A    between atoms: C14_19  and  C15_20 
REMARK    8  A    between atoms: C15_20  and  P1_21 
ROOT
HETATM    1  F1  UNL     1      -6.620   2.798  -2.519  1.00  0.00    -0.204 F 
HETATM    2  C1  UNL     1      -6.083   1.905  -1.641  1.00  0.00     0.140 A 
HETATM    3  C2  UNL     1      -6.802   1.229  -0.680  1.00  0.00     0.046 A 
HETATM    4  C3  UNL     1      -6.140   0.350   0.149  1.00  0.00     0.034 A 
HETATM    5  C4  UNL     1      -4.783   0.132   0.042  1.00  0.00     0.059 A 
HETATM    6  C5  UNL     1      -4.090   0.855  -0.965  1.00  0.00     0.109 A 
HETATM    7  C6  UNL     1      -4.727   1.729  -1.795  1.00  0.00     0.103 A 
HETATM    8 CL1  UNL     1      -3.631   2.455  -2.913  1.00  0.00    -0.078 Cl
HETATM    9  N1  UNL     1      -2.727   0.407  -0.816  1.00  0.00    -0.240 NA
HETATM   10  C7  UNL     1      -2.115   0.520   0.287  1.00  0.00     0.208 C 
HETATM   11  N2  UNL     1      -1.087   0.443   1.275  1.00  0.00    -0.354 N 
HETATM   12  C8  UNL     1      -1.168  -0.970   1.217  1.00  0.00     0.007 C 
HETATM   13  C9  UNL     1       0.050  -1.314   0.840  1.00  0.00     0.000 C 
HETATM   14  C16 UNL     1      -2.128  -2.083   1.431  1.00  0.00     0.076 C 
HETATM   15  C17 UNL     1      -3.337  -1.959   0.537  1.00  0.00     0.126 C 
HETATM   16  N3  UNL     1      -4.091  -0.788   0.931  1.00  0.00    -0.388 N 
HETATM   17  H4  UNL     1      -0.544   1.104   1.812  1.00  0.00     0.166 HD
HETATM   18  H24 UNL     1      -4.264  -0.440   1.901  1.00  0.00     0.159 HD
ENDROOT
BRANCH  13  19
HETATM   19  C10 UNL     1       1.268  -0.501   0.529  1.00  0.00     0.055 C 
BRANCH  19  20
HETATM   20  C11 UNL     1       2.330  -0.935   1.508  1.00  0.00     0.171 C 
BRANCH  20  21
HETATM   21  O1  UNL     1       3.527  -0.287   1.384  1.00  0.00    -0.391 OA
BRANCH  21  22
HETATM   22  C12 UNL     1       4.067  -0.507   0.126  1.00  0.00     0.167 C 
BRANCH  22  23
HETATM   23  C13 UNL     1       5.404   0.227   0.108  1.00  0.00     0.027 C 
BRANCH  23  24
HETATM   24  C14 UNL     1       6.087   0.045  -1.226  1.00  0.00     0.006 C 
BRANCH  24  25
HETATM   25  C15 UNL     1       5.253   0.584  -2.364  1.00  0.00     0.028 C 
BRANCH  25  26
HETATM   26  P1  UNL     1       4.985   2.395  -2.048  1.00  0.00    -0.141 P 
HETATM   27  H18 UNL     1       3.703   2.800  -2.597  1.00  0.00     0.054 HD
HETATM   28  H19 UNL     1       6.057   3.194  -2.637  1.00  0.00     0.054 HD
ENDBRANCH  25  26
ENDBRANCH  24  25
ENDBRANCH  23  24
ENDBRANCH  22  23
ENDBRANCH  21  22
ENDBRANCH  20  21
ENDBRANCH  19  20
ENDBRANCH  13  19
TORSDOF 8
