REMARK  7 active torsions:
REMARK  status: ('A' for Active; 'I' for Inactive)
REMARK    1  A    between atoms: C2_2  and  C3_3 
REMARK    2  A    between atoms: C3_3  and  C4_4 
REMARK    3  A    between atoms: C4_4  and  C5_5 
REMARK    4  A    between atoms: C5_5  and  C6_6 
REMARK    5  A    between atoms: C6_6  and  C7_7 
REMARK    6  A    between atoms: C7_7  and  O1_8 
REMARK    7  A    between atoms: O1_8  and  C8_9 
ROOT
HETATM    1  C8  UNL     1       0.672   0.380   0.334  1.00  0.00     0.088 A 
HETATM    2  C9  UNL     1       0.689  -0.218  -1.019  1.00  0.00     0.040 A 
HETATM    3  C10 UNL     1       1.623  -0.076  -2.118  1.00  0.00    -0.015 A 
HETATM    4  C11 UNL     1       2.788   0.756  -2.001  1.00  0.00    -0.016 A 
HETATM    5  C12 UNL     1       2.769   1.314  -0.661  1.00  0.00     0.029 A 
HETATM    6  C13 UNL     1       1.972   1.309   0.569  1.00  0.00     0.031 A 
HETATM    7  N1  UNL     1       1.391   0.613  -0.160  1.00  0.00     0.000 N 
HETATM    8  C14 UNL     1       2.101   0.363   1.174  1.00  0.00     0.070 A 
HETATM    9  C15 UNL     1       1.993  -1.158   1.448  1.00  0.00     0.020 C 
HETATM   10  C16 UNL     1       3.179  -1.802   1.427  1.00  0.00     0.134 C 
HETATM   11  F1  UNL     1       2.978  -3.145   1.712  1.00  0.00    -0.205 F 
HETATM   12  C17 UNL     1       4.608  -1.758   0.986  1.00  0.00     0.070 C 
HETATM   13 CL1  UNL     1       5.610  -3.137   1.557  1.00  0.00    -0.081 Cl
HETATM   14  C18 UNL     1       5.018  -0.699   0.243  1.00  0.00     0.029 C 
HETATM   15  C19 UNL     1       5.543   0.453  -0.587  1.00  0.00     0.298 C 
HETATM   16  N2  UNL     1       5.179   1.738  -0.135  1.00  0.00     0.087 N 
HETATM   17  C20 UNL     1       3.886   2.214  -0.500  1.00  0.00     0.285 C 
HETATM   18  H24 UNL     1       5.336   1.753   0.913  1.00  0.00     0.316 HD
ENDROOT
BRANCH   1  19
HETATM   19  O1  UNL     1      -0.585  -0.084   1.045  1.00  0.00    -0.378 OA
BRANCH  19  20
HETATM   20  C7  UNL     1      -1.794   0.612   0.956  1.00  0.00     0.169 C 
BRANCH  20  21
HETATM   21  C6  UNL     1      -2.391   0.698  -0.416  1.00  0.00     0.026 C 
BRANCH  21  22
HETATM   22  C5  UNL     1      -2.798  -0.558  -1.053  1.00  0.00     0.002 C 
BRANCH  22  23
HETATM   23  C4  UNL     1      -3.791  -1.463  -0.456  1.00  0.00     0.000 C 
BRANCH  23  24
HETATM   24  C3  UNL     1      -5.185  -1.039  -0.209  1.00  0.00    -0.000 C 
BRANCH  24  25
HETATM   25  C2  UNL     1      -5.425   0.043   0.781  1.00  0.00    -0.005 C 
HETATM   26  C1  UNL     1      -6.961   0.276   0.807  1.00  0.00     0.005 C 
ENDBRANCH  24  25
ENDBRANCH  23  24
ENDBRANCH  22  23
ENDBRANCH  21  22
ENDBRANCH  20  21
ENDBRANCH  19  20
ENDBRANCH   1  19
TORSDOF 7
