REMARK  3 active torsions:
REMARK  status: ('A' for Active; 'I' for Inactive)
REMARK    1  A    between atoms: O1_2  and  C2_3 
REMARK    2  A    between atoms: C6_9  and  N3_10 
REMARK    3  A    between atoms: N3_10  and  C7_11 
ROOT
HETATM    1  C2  UNL     1       3.534   0.318   0.645  1.00  0.00     0.089 A 
HETATM    2  C3  UNL     1       2.943   1.389   0.019  1.00  0.00     0.070 A 
HETATM    3  C4  UNL     1       1.610   1.328  -0.265  1.00  0.00     0.075 A 
HETATM    4  N1  UNL     1       1.126   2.420  -0.878  1.00  0.00    -0.241 NA
HETATM    5  C5  UNL     1      -0.162   2.520  -1.227  1.00  0.00     0.236 A 
HETATM    6  N2  UNL     1      -0.931   1.478  -0.932  1.00  0.00    -0.224 NA
HETATM    7  C6  UNL     1      -0.577   0.349  -0.332  1.00  0.00     0.142 A 
HETATM    8  C13 UNL     1       0.756   0.286   0.010  1.00  0.00     0.040 A 
HETATM    9  C14 UNL     1       1.348  -0.786   0.637  1.00  0.00     0.041 A 
HETATM   10  C15 UNL     1       2.692  -0.731   0.926  1.00  0.00     0.059 A 
HETATM   11  S1  UNL     1       3.292  -1.987   1.637  1.00  0.00     0.037 SA
HETATM   12  N4  UNL     1       3.789  -2.994   2.221  1.00  0.00    -0.103 N 
ENDROOT
BRANCH   1  13
HETATM   13  O1  UNL     1       4.874   0.254   0.988  1.00  0.00    -0.354 OA
HETATM   14  C1  UNL     1       5.783   1.304   0.722  1.00  0.00     0.210 C 
ENDBRANCH   1  13
BRANCH   7  15
HETATM   15  N3  UNL     1      -1.424  -0.739  -0.032  1.00  0.00    -0.340 N 
HETATM   16  H6  UNL     1      -1.093  -1.591   0.451  1.00  0.00     0.167 HD
BRANCH  15  17
HETATM   17  C7  UNL     1      -2.805  -0.861  -0.321  1.00  0.00     0.035 A 
HETATM   18  C8  UNL     1      -3.482   0.009  -1.145  1.00  0.00     0.029 A 
HETATM   19  C9  UNL     1      -4.826  -0.074  -1.436  1.00  0.00     0.004 A 
HETATM   20  C10 UNL     1      -5.585  -1.072  -0.895  1.00  0.00     0.024 A 
HETATM   21  C11 UNL     1      -4.961  -1.971  -0.064  1.00  0.00     0.036 A 
HETATM   22 CL1  UNL     1      -5.871  -3.274   0.665  1.00  0.00    -0.084 Cl
HETATM   23  C12 UNL     1      -3.623  -1.839   0.190  1.00  0.00     0.053 A 
ENDBRANCH  15  17
ENDBRANCH   7  15
TORSDOF 3
