REMARK  5 active torsions:
REMARK  status: ('A' for Active; 'I' for Inactive)
REMARK    1  A    between atoms: C2_2  and  C3_3 
REMARK    2  A    between atoms: C6_6  and  C7_7 
REMARK    3  A    between atoms: C7_7  and  N1_8 
REMARK    4  A    between atoms: N1_8  and  C8_9 
REMARK    5  A    between atoms: C19_23  and  N4_24 
ROOT
HETATM    1  N1  UNL     1      -0.016  -2.523   1.462  1.00  0.00    -0.392 N 
HETATM    2  H8  UNL     1      -0.603  -3.393   1.476  1.00  0.00     0.159 HD
ENDROOT
BRANCH   1   3
HETATM    3  C7  UNL     1       1.443  -2.299   1.681  1.00  0.00     0.147 C 
BRANCH   3   4
HETATM    4  C6  UNL     1       1.961  -1.871   0.390  1.00  0.00    -0.000 C 
HETATM    5  C5  UNL     1       2.540  -0.708   0.005  1.00  0.00    -0.056 C 
HETATM    6  C4  UNL     1       2.680   0.308   1.048  1.00  0.00     0.021 C 
HETATM    7  C17 UNL     1       2.908  -0.564  -1.423  1.00  0.00     0.067 C 
HETATM    8  C3  UNL     1       2.748   1.535   0.567  1.00  0.00    -0.008 C 
HETATM    9  C19 UNL     1       2.874   1.882  -0.833  1.00  0.00     0.062 C 
HETATM   10  C18 UNL     1       2.944   0.913  -1.739  1.00  0.00     0.010 C 
BRANCH   8  11
HETATM   11  C2  UNL     1       2.871   2.580   1.558  1.00  0.00     0.003 C 
HETATM   12  C1  UNL     1       2.931   3.883   1.404  1.00  0.00     0.012 C 
ENDBRANCH   8  11
BRANCH   9  13
HETATM   13  N4  UNL     1       2.939   3.109  -1.452  1.00  0.00    -0.271 NA
HETATM   14  C20 UNL     1       3.731   4.089  -1.309  1.00  0.00     0.149 C 
ENDBRANCH   9  13
ENDBRANCH   3   4
ENDBRANCH   1   3
BRANCH   1  15
HETATM   15  C8  UNL     1      -0.647  -1.245   1.193  1.00  0.00     0.134 C 
HETATM   16  C9  UNL     1      -1.327  -0.562   0.236  1.00  0.00     0.140 C 
HETATM   17  N2  UNL     1      -1.132  -1.796  -0.465  1.00  0.00    -0.219 NA
HETATM   18  N3  UNL     1      -1.679   0.797   0.681  1.00  0.00    -0.373 N 
HETATM   19  C10 UNL     1      -2.027  -2.774  -0.477  1.00  0.00     0.253 C 
HETATM   20  O1  UNL     1      -3.079  -3.818  -0.439  1.00  0.00    -0.345 OA
HETATM   21  C11 UNL     1      -4.339  -3.069  -0.781  1.00  0.00     0.177 C 
HETATM   22  C12 UNL     1      -3.969  -1.742  -0.162  1.00  0.00     0.001 C 
HETATM   23  C13 UNL     1      -3.911  -0.736  -1.071  1.00  0.00     0.027 C 
HETATM   24  C14 UNL     1      -3.827   0.368  -1.950  1.00  0.00     0.001 C 
HETATM   25  C15 UNL     1      -3.377   1.227  -1.013  1.00  0.00     0.014 C 
HETATM   26  C16 UNL     1      -3.103   1.050   0.405  1.00  0.00     0.126 C 
HETATM   27  H19 UNL     1      -0.837   1.267   1.084  1.00  0.00     0.161 HD
ENDBRANCH   1  15
TORSDOF 5
