REMARK  4 active torsions:
REMARK  status: ('A' for Active; 'I' for Inactive)
REMARK    1  A    between atoms: C4_5  and  N1_6 
REMARK    2  A    between atoms: N1_6  and  C5_7 
REMARK    3  A    between atoms: C10_15  and  O2_16 
REMARK    4  A    between atoms: O2_16  and  C11_17 
ROOT
HETATM    1  C5  UNL     1      -0.378  -0.631  -0.353  1.00  0.00     0.140 A 
HETATM    2  N2  UNL     1      -0.744  -1.749  -0.961  1.00  0.00    -0.224 NA
HETATM    3  C6  UNL     1       0.065  -2.725  -1.397  1.00  0.00     0.235 A 
HETATM    4  N3  UNL     1       1.387  -2.558  -1.200  1.00  0.00    -0.241 NA
HETATM    5  C7  UNL     1       1.884  -1.460  -0.592  1.00  0.00     0.075 A 
HETATM    6  C8  UNL     1       0.985  -0.512  -0.178  1.00  0.00     0.041 A 
HETATM    7  C9  UNL     1       1.513   0.704   0.494  1.00  0.00     0.223 A 
HETATM    8  O1  UNL     1       2.918   0.711   0.615  1.00  0.00    -0.326 OA
HETATM    9  C10 UNL     1       3.763  -0.284   0.173  1.00  0.00     0.183 A 
HETATM   10  C12 UNL     1       3.326  -1.377  -0.428  1.00  0.00     0.096 A 
ENDROOT
BRANCH   1  11
HETATM   11  N1  UNL     1      -1.220   0.386   0.101  1.00  0.00    -0.340 N 
HETATM   12  H3  UNL     1      -0.787   1.230   0.573  1.00  0.00     0.167 HD
BRANCH  11  13
HETATM   13  C4  UNL     1      -2.633   0.449   0.016  1.00  0.00     0.035 A 
HETATM   14  C3  UNL     1      -3.463  -0.495  -0.539  1.00  0.00     0.032 A 
HETATM   15  C2  UNL     1      -4.828  -0.420  -0.614  1.00  0.00     0.046 A 
HETATM   16  C1  UNL     1      -5.458   0.680  -0.100  1.00  0.00     0.138 A 
HETATM   17  F1  UNL     1      -6.799   0.788  -0.157  1.00  0.00    -0.204 F 
HETATM   18  C14 UNL     1      -4.699   1.661   0.468  1.00  0.00     0.074 A 
HETATM   19  C13 UNL     1      -3.350   1.531   0.513  1.00  0.00     0.056 A 
HETATM   20 CL2  UNL     1      -5.496   3.067   1.126  1.00  0.00    -0.081 Cl
ENDBRANCH  11  13
ENDBRANCH   1  11
BRANCH   9  21
HETATM   21  O2  UNL     1       5.134  -0.151   0.356  1.00  0.00    -0.316 OA
BRANCH  21  22
HETATM   22  C11 UNL     1       5.748   0.949   0.970  1.00  0.00     0.292 C 
HETATM   23 CL1  UNL     1       7.515   0.786   1.037  1.00  0.00    -0.101 Cl
ENDBRANCH  21  22
ENDBRANCH   9  21
TORSDOF 4
