REMARK  5 active torsions:
REMARK  status: ('A' for Active; 'I' for Inactive)
REMARK    1  A    between atoms: O1_2  and  C2_3 
REMARK    2  A    between atoms: C6_9  and  N3_10 
REMARK    3  A    between atoms: N3_10  and  C7_11 
REMARK    4  A    between atoms: C15_22  and  N4_23 
REMARK    5  A    between atoms: N4_23  and  C16_24 
ROOT
HETATM    1  C2  UNL     1      -3.245  -0.799  -0.353  1.00  0.00     0.106 C 
HETATM    2  C3  UNL     1      -2.334  -1.748  -0.631  1.00  0.00     0.069 C 
HETATM    3  C4  UNL     1      -0.862  -1.726  -0.484  1.00  0.00     0.072 A 
HETATM    4  N1  UNL     1      -0.298  -2.971  -0.461  1.00  0.00    -0.241 NA
HETATM    5  C5  UNL     1       1.051  -3.063  -0.314  1.00  0.00     0.235 A 
HETATM    6  N2  UNL     1       1.753  -1.933  -0.199  1.00  0.00    -0.224 NA
HETATM    7  C6  UNL     1       1.267  -0.686  -0.213  1.00  0.00     0.140 A 
HETATM    8  C13 UNL     1      -0.089  -0.564  -0.361  1.00  0.00     0.040 A 
HETATM    9  C14 UNL     1      -0.557   0.866  -0.383  1.00  0.00     0.216 C 
HETATM   10  O2  UNL     1      -1.879   1.011  -0.705  1.00  0.00    -0.348 OA
HETATM   11  C15 UNL     1      -2.793   0.534   0.201  1.00  0.00     0.415 C 
ENDROOT
BRANCH   7  12
HETATM   12  N3  UNL     1       2.095   0.455  -0.073  1.00  0.00    -0.340 N 
HETATM   13  H6  UNL     1       1.613   1.385  -0.068  1.00  0.00     0.167 HD
BRANCH  12  14
HETATM   14  C7  UNL     1       3.500   0.515   0.069  1.00  0.00     0.035 A 
HETATM   15  C8  UNL     1       4.378  -0.544   0.046  1.00  0.00     0.032 A 
HETATM   16  C9  UNL     1       5.731  -0.451   0.191  1.00  0.00     0.046 A 
HETATM   17  C10 UNL     1       6.291   0.794   0.377  1.00  0.00     0.138 A 
HETATM   18  F1  UNL     1       7.626   0.942   0.526  1.00  0.00    -0.204 F 
HETATM   19  C11 UNL     1       5.489   1.896   0.412  1.00  0.00     0.074 A 
HETATM   20 CL1  UNL     1       6.179   3.478   0.647  1.00  0.00    -0.081 Cl
HETATM   21  C12 UNL     1       4.135   1.723   0.259  1.00  0.00     0.056 A 
ENDBRANCH  12  14
ENDBRANCH   7  12
BRANCH   1  22
HETATM   22  O1  UNL     1      -4.536  -1.230  -0.639  1.00  0.00    -0.356 OA
HETATM   23  C1  UNL     1      -5.292  -1.930   0.335  1.00  0.00     0.209 C 
ENDBRANCH   1  22
BRANCH  11  24
HETATM   24  N4  UNL     1      -3.915   1.390   0.452  1.00  0.00     0.132 N 
HETATM   25  H13 UNL     1      -4.468   0.918   1.230  1.00  0.00     0.321 HD
BRANCH  24  26
HETATM   26  C16 UNL     1      -3.544   2.679   0.973  1.00  0.00     0.387 C 
HETATM   27 CL2  UNL     1      -5.050   3.604   1.229  1.00  0.00    -0.098 Cl
ENDBRANCH  24  26
ENDBRANCH  11  24
TORSDOF 5
