REMARK  10 active torsions:
REMARK  status: ('A' for Active; 'I' for Inactive)
REMARK    1  A    between atoms: O1_2  and  C2_3 
REMARK    2  A    between atoms: C6_8  and  C7_9 
REMARK    3  A    between atoms: C7_9  and  C8_10 
REMARK    4  A    between atoms: C8_10  and  C9_11 
REMARK    5  A    between atoms: C9_11  and  C10_12 
REMARK    6  A    between atoms: C10_12  and  C11_13 
REMARK    7  A    between atoms: C11_13  and  C12_14 
REMARK    8  A    between atoms: C12_14  and  O2_15 
REMARK    9  A    between atoms: O2_15  and  C13_16 
REMARK   10  A    between atoms: C14_19  and  O4_20 
ROOT
HETATM    1  C2  UNL     1      -3.861  -0.125   1.059  1.00  0.00     0.102 C 
HETATM    2  C3  UNL     1      -3.269   1.061   1.220  1.00  0.00     0.063 C 
HETATM    3  C4  UNL     1      -1.862   1.458   1.146  1.00  0.00     0.030 C 
HETATM    4  C5  UNL     1      -1.601   2.911   1.010  1.00  0.00     0.070 C 
HETATM    5  N1  UNL     1      -0.903   0.592   1.195  1.00  0.00    -0.263 NA
HETATM    6  C6  UNL     1      -0.893  -0.833   1.321  1.00  0.00     0.247 C 
HETATM    7  O3  UNL     1      -2.064  -1.440   1.651  1.00  0.00    -0.329 OA
HETATM    8  C14 UNL     1      -3.078  -1.375   0.739  1.00  0.00     0.319 C 
ENDROOT
BRANCH   6   9
HETATM    9  C7  UNL     1      -0.191  -1.399   0.103  1.00  0.00     0.056 C 
BRANCH   9  10
HETATM   10  C8  UNL     1       1.217  -0.804   0.138  1.00  0.00     0.004 C 
BRANCH  10  11
HETATM   11  C9  UNL     1       2.054  -1.265  -1.007  1.00  0.00     0.000 C 
BRANCH  11  12
HETATM   12  C10 UNL     1       3.451  -0.692  -0.997  1.00  0.00     0.002 C 
BRANCH  12  13
HETATM   13  C11 UNL     1       3.476   0.802  -1.064  1.00  0.00     0.026 C 
BRANCH  13  14
HETATM   14  C12 UNL     1       4.916   1.264  -1.048  1.00  0.00     0.170 C 
BRANCH  14  15
HETATM   15  O2  UNL     1       5.513   0.819   0.138  1.00  0.00    -0.362 OA
BRANCH  15  16
HETATM   16  C13 UNL     1       6.851   1.221   0.203  1.00  0.00     0.391 C 
HETATM   17  F1  UNL     1       6.877   2.599   0.157  1.00  0.00    -0.227 F 
ENDBRANCH  15  16
ENDBRANCH  14  15
ENDBRANCH  13  14
ENDBRANCH  12  13
ENDBRANCH  11  12
ENDBRANCH  10  11
ENDBRANCH   9  10
ENDBRANCH   6   9
BRANCH   8  18
HETATM   18  O4  UNL     1      -3.910  -2.486   0.739  1.00  0.00    -0.360 OA
HETATM   19  C15 UNL     1      -3.970  -3.024  -0.531  1.00  0.00     0.205 C 
ENDBRANCH   8  18
BRANCH   1  20
HETATM   20  O1  UNL     1      -5.239  -0.051   1.219  1.00  0.00    -0.355 OA
HETATM   21  C1  UNL     1      -6.030   0.670   0.289  1.00  0.00     0.209 C 
ENDBRANCH   1  20
TORSDOF 10
