REMARK  6 active torsions:
REMARK  status: ('A' for Active; 'I' for Inactive)
REMARK    1  A    between atoms: C2_2  and  C3_3 
REMARK    2  A    between atoms: C3_3  and  O1_4 
REMARK    3  A    between atoms: O1_4  and  C4_5 
REMARK    4  A    between atoms: C7_8  and  N1_9 
REMARK    5  A    between atoms: N1_9  and  C8_10 
REMARK    6  A    between atoms: C22_27  and  O3_28 
ROOT
HETATM    1  C4  UNL     1       3.191   0.882   0.090  1.00  0.00     0.103 A 
HETATM    2  C5  UNL     1       1.830   0.671   0.166  1.00  0.00     0.057 A 
HETATM    3  C6  UNL     1       0.890   1.642   0.432  1.00  0.00     0.041 A 
HETATM    4  C7  UNL     1      -0.457   1.360   0.493  1.00  0.00     0.138 A 
HETATM    5  N2  UNL     1      -1.192   2.424   0.760  1.00  0.00    -0.224 NA
HETATM    6  C19 UNL     1      -0.742   3.672   0.960  1.00  0.00     0.235 A 
HETATM    7  N3  UNL     1       0.590   3.918   0.894  1.00  0.00    -0.241 NA
HETATM    8  C20 UNL     1       1.428   2.883   0.624  1.00  0.00     0.075 A 
HETATM    9  C21 UNL     1       2.772   3.171   0.565  1.00  0.00     0.072 A 
HETATM   10  C22 UNL     1       3.673   2.161   0.294  1.00  0.00     0.103 A 
ENDROOT
BRANCH   4  11
HETATM   11  N1  UNL     1      -0.955   0.022   0.279  1.00  0.00    -0.358 N 
HETATM   12  H9  UNL     1      -0.337  -0.765   0.079  1.00  0.00     0.162 HD
BRANCH  11  13
HETATM   13  C8  UNL     1      -2.383  -0.033   0.390  1.00  0.00     0.186 C 
HETATM   14  C9  UNL     1      -3.045   0.887  -0.616  1.00  0.00     0.153 C 
HETATM   15  O2  UNL     1      -2.473   1.565  -1.473  1.00  0.00    -0.295 OA
HETATM   16  C10 UNL     1      -4.544   1.006  -0.593  1.00  0.00     0.081 C 
HETATM   17  C11 UNL     1      -5.138   0.848   0.764  1.00  0.00     0.012 C 
HETATM   18  C12 UNL     1      -5.382  -0.591   1.176  1.00  0.00     0.039 C 
HETATM   19  C13 UNL     1      -4.355  -1.518   0.588  1.00  0.00    -0.049 A 
HETATM   20  C14 UNL     1      -4.954  -2.750   0.422  1.00  0.00     0.007 A 
HETATM   21  C18 UNL     1      -3.012  -1.335   0.215  1.00  0.00    -0.022 A 
HETATM   22  C15 UNL     1      -4.313  -3.832  -0.094  1.00  0.00     0.001 A 
HETATM   23  C16 UNL     1      -2.997  -3.650  -0.459  1.00  0.00     0.001 A 
HETATM   24  C17 UNL     1      -2.389  -2.447  -0.304  1.00  0.00     0.010 A 
ENDBRANCH  11  13
ENDBRANCH   4  11
BRANCH   1  25
HETATM   25  O1  UNL     1       4.105  -0.109  -0.178  1.00  0.00    -0.348 OA
BRANCH  25  26
HETATM   26  C3  UNL     1       3.863  -1.457  -0.415  1.00  0.00     0.175 C 
BRANCH  26  27
HETATM   27  C2  UNL     1       5.254  -2.063  -0.650  1.00  0.00     0.022 C 
HETATM   28  C1  UNL     1       5.197  -3.535  -0.928  1.00  0.00     0.007 C 
ENDBRANCH  26  27
ENDBRANCH  25  26
ENDBRANCH   1  25
BRANCH  10  29
HETATM   29  O3  UNL     1       5.038   2.398   0.223  1.00  0.00    -0.353 OA
HETATM   30  C23 UNL     1       5.632   3.645   0.412  1.00  0.00     0.210 C 
ENDBRANCH  10  29
TORSDOF 6
