REMARK  4 active torsions:
REMARK  status: ('A' for Active; 'I' for Inactive)
REMARK    1  A    between atoms: O1_2  and  C2_3 
REMARK    2  A    between atoms: C6_9  and  N3_10 
REMARK    3  A    between atoms: N3_10  and  C7_11 
REMARK    4  A    between atoms: C14_20  and  N4_21 
ROOT
HETATM    1  N4  UNL     1      -1.763   0.625  -1.273  1.00  0.00    -0.313 N 
HETATM    2  C15 UNL     1      -2.169   1.724  -0.506  1.00  0.00     0.178 C 
HETATM    3  N5  UNL     1      -2.495   2.645   0.135  1.00  0.00    -0.172 NA
HETATM    4  H11 UNL     1      -1.478   0.708  -2.284  1.00  0.00     0.172 HD
ENDROOT
BRANCH   1   5
HETATM    5  C14 UNL     1      -1.745  -0.660  -0.628  1.00  0.00     0.188 A 
HETATM    6  C2  UNL     1      -3.083  -1.058  -0.126  1.00  0.00     0.076 A 
HETATM    7  C3  UNL     1      -3.099  -1.275   1.172  1.00  0.00     0.067 A 
HETATM    8  C4  UNL     1      -1.755  -1.035   1.639  1.00  0.00     0.073 A 
HETATM    9  N1  UNL     1      -1.241  -1.120   2.897  1.00  0.00    -0.241 NA
HETATM   10  C13 UNL     1      -0.921  -0.668   0.605  1.00  0.00     0.046 A 
HETATM   11  C5  UNL     1       0.047  -0.846   3.075  1.00  0.00     0.235 A 
HETATM   12  N2  UNL     1       0.851  -0.490   2.066  1.00  0.00    -0.224 NA
HETATM   13  C6  UNL     1       0.434  -0.382   0.806  1.00  0.00     0.140 A 
BRANCH   6  14
HETATM   14  O1  UNL     1      -4.251  -1.209  -0.884  1.00  0.00    -0.358 OA
HETATM   15  C1  UNL     1      -5.158  -0.151  -1.039  1.00  0.00     0.209 C 
ENDBRANCH   6  14
BRANCH  13  16
HETATM   16  N3  UNL     1       1.204  -0.017  -0.309  1.00  0.00    -0.340 N 
HETATM   17  H6  UNL     1       0.742   0.029  -1.253  1.00  0.00     0.167 HD
BRANCH  16  18
HETATM   18  C7  UNL     1       2.580   0.311  -0.327  1.00  0.00     0.035 A 
HETATM   19  C8  UNL     1       3.443   0.339   0.745  1.00  0.00     0.032 A 
HETATM   20  C9  UNL     1       4.766   0.657   0.711  1.00  0.00     0.046 A 
HETATM   21  C10 UNL     1       5.324   0.989  -0.503  1.00  0.00     0.138 A 
HETATM   22  F1  UNL     1       6.634   1.311  -0.580  1.00  0.00    -0.204 F 
HETATM   23  C11 UNL     1       4.541   0.987  -1.612  1.00  0.00     0.074 A 
HETATM   24 CL1  UNL     1       5.253   1.408  -3.149  1.00  0.00    -0.081 Cl
HETATM   25  C12 UNL     1       3.229   0.659  -1.509  1.00  0.00     0.056 A 
ENDBRANCH  16  18
ENDBRANCH  13  16
ENDBRANCH   1   5
TORSDOF 4
