REMARK  8 active torsions:
REMARK  status: ('A' for Active; 'I' for Inactive)
REMARK    1  A    between atoms: O1_2  and  C2_3 
REMARK    2  A    between atoms: C6_9  and  N3_10 
REMARK    3  A    between atoms: N3_10  and  C8_12 
REMARK    4  A    between atoms: C16_22  and  O3_23 
REMARK    5  A    between atoms: O3_23  and  C17_24 
REMARK    6  A    between atoms: C17_24  and  C18_25 
REMARK    7  A    between atoms: C19_26  and  C20_27 
REMARK    8  A    between atoms: C20_27  and  C21_28 
REMARK       I    between atoms: C21_28  and  N4_29 
ROOT
HETATM    1  C2  UNL     1       0.375  -0.092  -3.273  1.00  0.00     0.102 C 
HETATM    2  C3  UNL     1      -0.864  -0.536  -3.409  1.00  0.00     0.069 C 
HETATM    3  C4  UNL     1      -1.713  -0.957  -2.288  1.00  0.00     0.072 A 
HETATM    4  N1  UNL     1      -2.928  -1.355  -2.694  1.00  0.00    -0.241 NA
HETATM    5  C5  UNL     1      -3.801  -1.765  -1.752  1.00  0.00     0.235 A 
HETATM    6  N2  UNL     1      -3.505  -1.792  -0.431  1.00  0.00    -0.224 NA
HETATM    7  C6  UNL     1      -2.304  -1.407   0.045  1.00  0.00     0.142 A 
HETATM    8  C14 UNL     1      -1.430  -0.992  -0.938  1.00  0.00     0.041 A 
HETATM    9  C15 UNL     1      -0.109  -0.574  -0.355  1.00  0.00     0.216 C 
HETATM   10  O2  UNL     1       0.430   0.490  -1.057  1.00  0.00    -0.350 OA
HETATM   11  C16 UNL     1       1.283   0.128  -2.067  1.00  0.00     0.318 C 
ENDROOT
BRANCH  11  12
HETATM   12  O3  UNL     1       1.909  -1.088  -1.814  1.00  0.00    -0.351 OA
BRANCH  12  13
HETATM   13  C17 UNL     1       3.257  -0.963  -2.039  1.00  0.00     0.198 C 
BRANCH  13  14
HETATM   14  C18 UNL     1       3.979  -0.017  -1.201  1.00  0.00    -0.004 C 
HETATM   15  C19 UNL     1       4.004   0.899  -0.206  1.00  0.00    -0.019 C 
BRANCH  15  16
HETATM   16  C20 UNL     1       3.241   1.642   0.816  1.00  0.00     0.129 C 
BRANCH  16  17
HETATM   17  C21 UNL     1       3.760   1.385   2.203  1.00  0.00     0.218 C 
HETATM   18  N4  UNL     1       2.993   2.125   3.149  1.00  0.00    -0.370 N 
HETATM   19  H22 UNL     1       2.036   1.733   3.309  1.00  0.00     0.159 HD
HETATM   20  H23 UNL     1       3.730   2.826   3.337  1.00  0.00     0.159 HD
HETATM   21  O4  UNL     1       4.729   0.583   2.108  1.00  0.00    -0.274 OA
ENDBRANCH  16  17
ENDBRANCH  15  16
ENDBRANCH  13  14
ENDBRANCH  12  13
ENDBRANCH  11  12
BRANCH   1  22
HETATM   22  O1  UNL     1       0.945   0.237  -4.506  1.00  0.00    -0.355 OA
HETATM   23  C1  UNL     1       1.442   1.491  -4.856  1.00  0.00     0.209 C 
ENDBRANCH   1  22
BRANCH   7  24
HETATM   24  N3  UNL     1      -1.956  -1.422   1.425  1.00  0.00    -0.336 N 
HETATM   25  C7  UNL     1      -0.910  -2.165   2.093  1.00  0.00     0.158 C 
BRANCH  24  26
HETATM   26  C8  UNL     1      -2.757  -0.582   2.262  1.00  0.00     0.035 A 
HETATM   27  C9  UNL     1      -2.512  -0.520   3.619  1.00  0.00     0.033 A 
HETATM   28  C10 UNL     1      -3.253   0.275   4.471  1.00  0.00     0.044 A 
HETATM   29  C11 UNL     1      -4.284   1.052   3.989  1.00  0.00     0.116 A 
HETATM   30  F1  UNL     1      -5.026   1.841   4.809  1.00  0.00    -0.206 F 
HETATM   31  C12 UNL     1      -4.542   1.002   2.638  1.00  0.00     0.044 A 
HETATM   32  C13 UNL     1      -3.800   0.210   1.805  1.00  0.00     0.033 A 
ENDBRANCH  24  26
ENDBRANCH   7  24
TORSDOF 8
