REMARK  1 active torsions:
REMARK  status: ('A' for Active; 'I' for Inactive)
REMARK    1  A    between atoms: O1_2  and  C2_3 
ROOT
HETATM    1  C2  UNL     1       2.604  -0.572   0.146  1.00  0.00     0.075 A 
HETATM    2  C3  UNL     1       2.586  -1.842   0.692  1.00  0.00     0.040 A 
HETATM    3  C4  UNL     1       1.556  -2.752   0.630  1.00  0.00     0.041 A 
HETATM    4  C5  UNL     1       0.393  -2.352  -0.068  1.00  0.00     0.086 A 
HETATM    5  C6  UNL     1       0.479  -1.036  -0.625  1.00  0.00     0.002 A 
HETATM    6  C7  UNL     1       1.503  -0.118  -0.549  1.00  0.00    -0.014 A 
HETATM    7  C8  UNL     1       1.328   1.375  -0.883  1.00  0.00     0.042 C 
HETATM    8  C9  UNL     1       0.011   1.682  -0.296  1.00  0.00     0.006 C 
HETATM    9  C10 UNL     1      -0.630   2.954   0.052  1.00  0.00     0.020 C 
HETATM   10  C11 UNL     1      -1.966   2.494   0.677  1.00  0.00     0.121 C 
HETATM   11  N1  UNL     1      -2.783   1.589  -0.103  1.00  0.00    -0.373 N 
HETATM   12  C12 UNL     1      -2.951   0.228   0.393  1.00  0.00     0.155 A 
HETATM   13  N2  UNL     1      -3.778  -0.133   1.358  1.00  0.00    -0.222 NA
HETATM   14  C13 UNL     1      -3.716  -1.430   1.804  1.00  0.00     0.238 A 
HETATM   15  N3  UNL     1      -2.948  -2.478   1.454  1.00  0.00    -0.215 NA
HETATM   16  C14 UNL     1      -2.003  -2.312   0.453  1.00  0.00     0.202 A 
HETATM   17  C15 UNL     1      -2.255  -0.939   0.153  1.00  0.00     0.128 A 
HETATM   18  N4  UNL     1      -1.829  -0.492  -1.184  1.00  0.00    -0.379 N 
HETATM   19  C16 UNL     1      -0.537  -0.672  -1.713  1.00  0.00     0.162 C 
HETATM   20  O2  UNL     1      -0.918  -3.046  -0.295  1.00  0.00    -0.289 OA
HETATM   21  H14 UNL     1      -3.388   1.311  -0.899  1.00  0.00     0.161 HD
HETATM   22  H16 UNL     1      -2.304  -0.001  -2.009  1.00  0.00     0.160 HD
ENDROOT
BRANCH   1  23
HETATM   23  O1  UNL     1       3.720   0.201   0.314  1.00  0.00    -0.355 OA
HETATM   24  C1  UNL     1       4.895  -0.122   0.986  1.00  0.00     0.210 C 
ENDBRANCH   1  23
TORSDOF 1
