REMARK  5 active torsions:
REMARK  status: ('A' for Active; 'I' for Inactive)
REMARK    1  A    between atoms: C2_2  and  N1_3 
REMARK    2  A    between atoms: C2_2  and  C19_28 
REMARK    3  A    between atoms: N1_3  and  C3_4 
REMARK    4  A    between atoms: C4_5  and  C5_6 
REMARK    5  A    between atoms: C17_24  and  O4_25 
ROOT
HETATM    1  C5  UNL     1      -0.541  -0.446  -0.349  1.00  0.00     0.104 C 
HETATM    2  C6  UNL     1      -0.725   0.904  -0.897  1.00  0.00     0.130 C 
HETATM    3  N2  UNL     1      -0.432   2.133  -1.077  1.00  0.00    -0.253 NA
HETATM    4  C7  UNL     1       0.709   2.700  -0.457  1.00  0.00     0.264 C 
HETATM    5  N3  UNL     1       1.499   3.527  -1.039  1.00  0.00    -0.093 NA
HETATM    6  O1  UNL     1       2.578   4.049  -0.417  1.00  0.00    -0.021 OA
HETATM    7  N4  UNL     1       3.881   3.848  -0.778  1.00  0.00     0.238 N 
HETATM    8  C8  UNL     1       5.216   3.366  -0.924  1.00  0.00     0.390 A 
HETATM    9  O2  UNL     1       4.480   2.745  -0.117  1.00  0.00    -0.120 OA
HETATM   10  C9  UNL     1       6.119   2.326  -0.435  1.00  0.00     0.084 C 
HETATM   11  C10 UNL     1       5.507   1.229   0.375  1.00  0.00     0.005 C 
HETATM   12  C11 UNL     1       4.549   0.338  -0.298  1.00  0.00     0.000 C 
HETATM   13  C12 UNL     1       5.104  -0.499  -1.433  1.00  0.00     0.002 C 
HETATM   14  C13 UNL     1       3.954  -1.245  -2.123  1.00  0.00     0.027 C 
HETATM   15  C14 UNL     1       3.159  -2.070  -1.158  1.00  0.00     0.176 C 
HETATM   16  O3  UNL     1       2.047  -2.654  -1.869  1.00  0.00    -0.348 OA
HETATM   17  C15 UNL     1       0.748  -2.409  -1.380  1.00  0.00     0.102 C 
HETATM   18  C16 UNL     1       0.608  -1.106  -1.031  1.00  0.00     0.053 C 
HETATM   19  C17 UNL     1      -0.414  -3.243  -1.189  1.00  0.00     0.114 C 
HETATM   20  C18 UNL     1      -1.508  -2.692  -0.698  1.00  0.00     0.124 C 
HETATM   21  N5  UNL     1      -1.716  -1.288  -0.641  1.00  0.00    -0.376 N 
HETATM   22  H10 UNL     1       3.780   4.700  -1.423  1.00  0.00     0.365 HD
HETATM   23  H26 UNL     1      -2.717  -0.983  -0.818  1.00  0.00     0.160 HD
ENDROOT
BRANCH   1  24
HETATM   24  C4  UNL     1      -0.380  -0.494   1.115  1.00  0.00     0.030 C 
HETATM   25  C3  UNL     1      -1.391  -0.170   1.904  1.00  0.00     0.082 C 
BRANCH  25  26
HETATM   26  N1  UNL     1      -2.654   0.232   1.385  1.00  0.00    -0.391 N 
HETATM   27  H5  UNL     1      -2.750   0.945   0.605  1.00  0.00     0.159 HD
BRANCH  26  28
HETATM   28  C2  UNL     1      -3.833  -0.390   1.986  1.00  0.00     0.110 C 
HETATM   29  C1  UNL     1      -3.816  -1.892   1.826  1.00  0.00     0.037 C 
BRANCH  28  30
HETATM   30  C19 UNL     1      -5.082   0.118   1.372  1.00  0.00    -0.036 A 
HETATM   31  C20 UNL     1      -5.241   1.486   1.160  1.00  0.00     0.009 A 
HETATM   32  C21 UNL     1      -6.420   1.926   0.584  1.00  0.00     0.001 A 
HETATM   33  C22 UNL     1      -7.427   1.062   0.221  1.00  0.00     0.000 A 
HETATM   34  C23 UNL     1      -7.294  -0.307   0.422  1.00  0.00     0.001 A 
HETATM   35  C24 UNL     1      -6.098  -0.730   1.004  1.00  0.00     0.009 A 
ENDBRANCH  28  30
ENDBRANCH  26  28
ENDBRANCH  25  26
ENDBRANCH   1  24
BRANCH  19  36
HETATM   36  O4  UNL     1      -0.171  -4.547  -1.571  1.00  0.00    -0.357 OA
HETATM   37  H24 UNL     1      -0.723  -5.260  -1.082  1.00  0.00     0.218 HD
ENDBRANCH  19  36
TORSDOF 5
