REMARK  9 active torsions:
REMARK  status: ('A' for Active; 'I' for Inactive)
REMARK    1  A    between atoms: C2_2  and  C3_3 
REMARK    2  A    between atoms: C3_3  and  C4_5 
REMARK    3  A    between atoms: C4_5  and  C5_6 
REMARK    4  A    between atoms: C5_6  and  C6_7 
REMARK    5  A    between atoms: C6_7  and  C7_8 
REMARK    6  A    between atoms: C10_11  and  N1_12 
REMARK    7  A    between atoms: N1_12  and  C11_13 
REMARK    8  A    between atoms: C11_13  and  C13_15 
REMARK    9  A    between atoms: C22_25  and  O2_26 
ROOT
HETATM    1  C7  UNL     1       0.860  -0.429   1.141  1.00  0.00     0.057 A 
HETATM    2  C8  UNL     1      -0.420  -0.365   0.885  1.00  0.00     0.049 A 
HETATM    3  C9  UNL     1      -1.093  -1.632   0.623  1.00  0.00     0.023 A 
HETATM    4  C10 UNL     1      -2.400  -1.577   0.361  1.00  0.00     0.134 A 
HETATM    5  N2  UNL     1      -3.084  -2.792   0.102  1.00  0.00    -0.246 NA
HETATM    6  C19 UNL     1      -2.499  -3.943   0.109  1.00  0.00     0.097 A 
HETATM    7  C20 UNL     1      -1.062  -4.196   0.378  1.00  0.00     0.091 A 
HETATM    8  C21 UNL     1      -0.381  -2.905   0.644  1.00  0.00     0.019 A 
HETATM    9  C22 UNL     1       0.921  -2.869   0.914  1.00  0.00     0.192 A 
HETATM   10  O3  UNL     1       1.543  -1.636   1.162  1.00  0.00    -0.292 OA
ENDROOT
BRANCH   4  11
HETATM   11  N1  UNL     1      -3.160  -0.376   0.323  1.00  0.00    -0.366 N 
HETATM   12  H13 UNL     1      -3.252  -0.137   1.335  1.00  0.00     0.161 HD
BRANCH  11  13
HETATM   13  C11 UNL     1      -3.588   0.182  -0.957  1.00  0.00     0.112 C 
HETATM   14  C12 UNL     1      -2.446   0.529  -1.861  1.00  0.00     0.037 C 
BRANCH  13  15
HETATM   15  C13 UNL     1      -4.504   1.334  -0.752  1.00  0.00    -0.036 A 
HETATM   16  C14 UNL     1      -4.096   2.233   0.224  1.00  0.00     0.009 A 
HETATM   17  C15 UNL     1      -4.819   3.379   0.566  1.00  0.00     0.001 A 
HETATM   18  C16 UNL     1      -5.986   3.619  -0.100  1.00  0.00     0.000 A 
HETATM   19  C17 UNL     1      -6.411   2.731  -1.079  1.00  0.00     0.001 A 
HETATM   20  C18 UNL     1      -5.690   1.607  -1.405  1.00  0.00     0.009 A 
ENDBRANCH  13  15
ENDBRANCH  11  13
ENDBRANCH   4  11
BRANCH   1  21
HETATM   21  C6  UNL     1       1.719   0.771   1.435  1.00  0.00     0.065 C 
BRANCH  21  22
HETATM   22  C5  UNL     1       2.834   0.875   0.396  1.00  0.00     0.014 C 
BRANCH  22  23
HETATM   23  C4  UNL     1       3.738   2.046   0.617  1.00  0.00     0.078 C 
BRANCH  23  24
HETATM   24  C3  UNL     1       4.798   2.056  -0.458  1.00  0.00     0.126 C 
HETATM   25  O1  UNL     1       4.442   2.490  -1.542  1.00  0.00    -0.298 OA
BRANCH  24  26
HETATM   26  C2  UNL     1       6.128   1.532  -0.036  1.00  0.00     0.074 C 
HETATM   27  C1  UNL     1       7.119   1.582  -1.175  1.00  0.00     0.013 C 
ENDBRANCH  24  26
ENDBRANCH  23  24
ENDBRANCH  22  23
ENDBRANCH  21  22
ENDBRANCH   1  21
BRANCH   9  28
HETATM   28  O2  UNL     1       1.694  -4.020   0.960  1.00  0.00    -0.335 OA
HETATM   29  C23 UNL     1       2.679  -4.332   0.016  1.00  0.00     0.212 C 
ENDBRANCH   9  28
TORSDOF 9
