REMARK  7 active torsions:
REMARK  status: ('A' for Active; 'I' for Inactive)
REMARK    1  A    between atoms: O1_2  and  C2_3 
REMARK    2  A    between atoms: C6_9  and  N3_10 
REMARK    3  A    between atoms: N3_10  and  C7_11 
REMARK    4  A    between atoms: C15_20  and  O2_21 
REMARK    5  A    between atoms: O2_21  and  C16_22 
REMARK    6  A    between atoms: C16_22  and  C17_23 
REMARK    7  A    between atoms: C17_23  and  C18_24 
ROOT
HETATM    1  C2  UNL     1      -1.642  -2.248   0.438  1.00  0.00     0.099 C 
HETATM    2  C3  UNL     1      -0.986  -3.373   0.349  1.00  0.00     0.036 C 
HETATM    3  C4  UNL     1      -0.014  -4.369   0.063  1.00  0.00     0.261 C 
HETATM    4  N1  UNL     1       0.898  -3.723  -0.620  1.00  0.00    -0.295 NA
HETATM    5  C5  UNL     1       0.729  -2.341  -0.893  1.00  0.00     0.165 C 
HETATM    6  N2  UNL     1       1.300  -1.224  -0.648  1.00  0.00    -0.261 NA
HETATM    7  C6  UNL     1       0.660  -0.023  -1.206  1.00  0.00     0.233 C 
HETATM    8  C14 UNL     1      -0.696  -0.002  -0.536  1.00  0.00     0.060 C 
HETATM    9  C15 UNL     1      -1.522  -0.874   0.071  1.00  0.00     0.101 C 
ENDROOT
BRANCH   7  10
HETATM   10  N3  UNL     1       1.433   1.127  -0.890  1.00  0.00    -0.364 N 
HETATM   11  H8  UNL     1       0.999   1.891  -0.324  1.00  0.00     0.162 HD
BRANCH  10  12
HETATM   12  C7  UNL     1       2.771   1.236  -1.336  1.00  0.00     0.036 A 
HETATM   13  C8  UNL     1       3.351   0.240  -2.081  1.00  0.00     0.033 A 
HETATM   14  C9  UNL     1       4.668   0.371  -2.509  1.00  0.00     0.044 A 
HETATM   15  C10 UNL     1       5.410   1.491  -2.198  1.00  0.00     0.117 A 
HETATM   16  F1  UNL     1       6.706   1.682  -2.587  1.00  0.00    -0.206 F 
HETATM   17  C11 UNL     1       4.835   2.504  -1.446  1.00  0.00     0.051 A 
HETATM   18  C12 UNL     1       3.510   2.372  -1.016  1.00  0.00    -0.033 A 
HETATM   19  C13 UNL     1       2.825   3.421  -0.202  1.00  0.00     0.050 C 
ENDBRANCH  10  12
ENDBRANCH   7  10
BRANCH   9  20
HETATM   20  O2  UNL     1      -2.657  -0.133   0.473  1.00  0.00    -0.348 OA
BRANCH  20  21
HETATM   21  C16 UNL     1      -2.560   0.442   1.761  1.00  0.00     0.176 C 
BRANCH  21  22
HETATM   22  C17 UNL     1      -3.855   1.189   2.013  1.00  0.00     0.042 C 
BRANCH  22  23
HETATM   23  C18 UNL     1      -3.731   1.804   3.409  1.00  0.00     0.116 C 
HETATM   24 CL1  UNL     1      -2.319   2.886   3.342  1.00  0.00    -0.130 Cl
ENDBRANCH  22  23
ENDBRANCH  21  22
ENDBRANCH  20  21
ENDBRANCH   9  20
BRANCH   1  25
HETATM   25  O1  UNL     1      -2.808  -2.624   1.134  1.00  0.00    -0.353 OA
HETATM   26  C1  UNL     1      -3.959  -2.792   0.318  1.00  0.00     0.210 C 
ENDBRANCH   1  25
TORSDOF 7
