REMARK  8 active torsions:
REMARK  status: ('A' for Active; 'I' for Inactive)
REMARK    1  A    between atoms: O1_2  and  C2_3 
REMARK    2  A    between atoms: C6_9  and  N3_10 
REMARK    3  A    between atoms: N3_10  and  C7_11 
REMARK    4  A    between atoms: C7_11  and  C9_13 
REMARK    5  A    between atoms: C16_21  and  C17_22 
REMARK    6  A    between atoms: C17_22  and  C18_23 
REMARK    7  A    between atoms: C17_22  and  N4_25 
REMARK    8  A    between atoms: N4_25  and  O4_26 
ROOT
HETATM    1  C2  UNL     1       3.522  -0.356  -0.115  1.00  0.00     0.054 C 
HETATM    2  C3  UNL     1       3.401  -1.270   0.792  1.00  0.00     0.046 C 
HETATM    3  C4  UNL     1       2.427  -1.768   1.703  1.00  0.00     0.219 C 
HETATM    4  N1  UNL     1       1.665  -2.295   2.547  1.00  0.00    -0.278 NA
HETATM    5  C5  UNL     1       0.326  -1.761   2.627  1.00  0.00     0.171 C 
HETATM    6  N2  UNL     1      -0.645  -1.065   2.182  1.00  0.00    -0.231 NA
HETATM    7  C6  UNL     1      -0.697  -0.305   0.971  1.00  0.00     0.487 C 
HETATM    8  O2  UNL     1       0.517  -0.533   0.257  1.00  0.00    -0.340 OA
HETATM    9  C15 UNL     1       1.225   0.620   0.203  1.00  0.00     0.185 C 
HETATM   10  C16 UNL     1       2.528   0.639  -0.570  1.00  0.00     0.089 C 
ENDROOT
BRANCH   7  11
HETATM   11  N3  UNL     1      -1.852  -0.538   0.173  1.00  0.00     0.142 N 
HETATM   12  H8  UNL     1      -1.876  -1.528  -0.182  1.00  0.00     0.322 HD
BRANCH  11  13
HETATM   13  C7  UNL     1      -3.091  -0.139   0.785  1.00  0.00     0.255 C 
HETATM   14  C8  UNL     1      -3.269  -0.817   2.095  1.00  0.00     0.048 C 
BRANCH  13  15
HETATM   15  C9  UNL     1      -4.166  -0.378  -0.203  1.00  0.00    -0.026 A 
HETATM   16  C10 UNL     1      -3.890   0.025  -1.518  1.00  0.00     0.009 A 
HETATM   17  C11 UNL     1      -4.819  -0.149  -2.539  1.00  0.00     0.001 A 
HETATM   18  C12 UNL     1      -6.058  -0.726  -2.307  1.00  0.00     0.000 A 
HETATM   19  C13 UNL     1      -6.338  -1.126  -1.013  1.00  0.00     0.001 A 
HETATM   20  C14 UNL     1      -5.408  -0.943  -0.036  1.00  0.00     0.009 A 
ENDBRANCH  13  15
ENDBRANCH  11  13
ENDBRANCH   7  11
BRANCH  10  21
HETATM   21  C17 UNL     1       3.034   2.070  -0.380  1.00  0.00     0.129 C 
BRANCH  21  22
HETATM   22  C18 UNL     1       1.996   3.016  -0.872  1.00  0.00     0.413 C 
HETATM   23  O3  UNL     1       2.104   4.003  -1.610  1.00  0.00    -0.428 OA
ENDBRANCH  21  22
BRANCH  21  24
HETATM   24  N4  UNL     1       4.313   2.374  -0.895  1.00  0.00    -0.201 NA
HETATM   25  H23 UNL     1       5.109   2.015  -0.289  1.00  0.00     0.154 HD
BRANCH  24  26
HETATM   26  O4  UNL     1       4.455   3.749  -0.743  1.00  0.00    -0.315 OA
HETATM   27  H24 UNL     1       4.360   3.953   0.236  1.00  0.00     0.236 HD
ENDBRANCH  24  26
ENDBRANCH  21  24
ENDBRANCH  10  21
BRANCH   1  28
HETATM   28  O1  UNL     1       4.582  -0.029  -0.913  1.00  0.00    -0.360 OA
HETATM   29  C1  UNL     1       5.213  -1.118  -1.602  1.00  0.00     0.209 C 
ENDBRANCH   1  28
TORSDOF 8
