REMARK  6 active torsions:
REMARK  status: ('A' for Active; 'I' for Inactive)
REMARK    1  A    between atoms: O1_2  and  C2_3 
REMARK    2  A    between atoms: C4_5  and  C5_6 
REMARK    3  A    between atoms: C5_6  and  N1_7 
REMARK    4  A    between atoms: N1_7  and  C6_8 
REMARK    5  A    between atoms: C6_8  and  C7_9 
REMARK    6  A    between atoms: C14_17  and  O2_18 
ROOT
HETATM    1  C2  UNL     1      -1.160   1.685  -1.834  1.00  0.00     0.098 C 
HETATM    2  C3  UNL     1      -0.455   0.577  -1.746  1.00  0.00     0.029 C 
HETATM    3  C4  UNL     1       0.151  -0.717  -1.210  1.00  0.00     0.036 A 
HETATM    4  C13 UNL     1       0.965  -1.355  -2.216  1.00  0.00     0.022 A 
HETATM    5  C14 UNL     1       0.114  -2.303  -2.341  1.00  0.00     0.046 A 
HETATM    6  C15 UNL     1      -0.786  -1.773  -1.353  1.00  0.00     0.060 A 
HETATM    7  C16 UNL     1      -1.074  -2.832  -0.347  1.00  0.00     0.013 C 
HETATM    8  C17 UNL     1      -2.418  -2.569   0.323  1.00  0.00     0.001 C 
HETATM    9  C18 UNL     1      -2.299  -1.261   1.003  1.00  0.00     0.000 C 
HETATM   10  C19 UNL     1      -3.368  -0.591   1.738  1.00  0.00     0.006 C 
HETATM   11  C20 UNL     1      -2.793   0.726   2.291  1.00  0.00     0.072 C 
HETATM   12  C21 UNL     1      -2.310   1.688   1.302  1.00  0.00     0.217 A 
HETATM   13  O3  UNL     1      -2.444   1.532   0.077  1.00  0.00     0.000 OA
HETATM   14  N2  UNL     1      -1.835   2.636   0.344  1.00  0.00     0.338 N 
HETATM   15  O4  UNL     1      -2.028   2.364  -1.018  1.00  0.00     0.000 OA
HETATM   16  H27 UNL     1      -1.351   3.507   0.756  1.00  0.00     0.366 HD
ENDROOT
BRANCH   3  17
HETATM   17  C5  UNL     1       0.824  -0.374   0.082  1.00  0.00     0.288 C 
BRANCH  17  18
HETATM   18  N1  UNL     1       1.464  -1.416   0.784  1.00  0.00     0.088 N 
HETATM   19  H7  UNL     1       2.263  -1.840   0.243  1.00  0.00     0.316 HD
BRANCH  18  20
HETATM   20  C6  UNL     1       2.044  -0.880   2.002  1.00  0.00     0.308 C 
BRANCH  20  21
HETATM   21  C7  UNL     1       3.043   0.190   1.749  1.00  0.00    -0.030 A 
HETATM   22  C8  UNL     1       2.749   1.548   1.662  1.00  0.00     0.012 A 
HETATM   23  C9  UNL     1       3.768   2.444   1.424  1.00  0.00     0.043 A 
HETATM   24  C10 UNL     1       5.062   2.033   1.271  1.00  0.00     0.116 A 
HETATM   25  F1  UNL     1       5.972   3.013   1.041  1.00  0.00    -0.206 F 
HETATM   26  C11 UNL     1       5.379   0.681   1.354  1.00  0.00     0.043 A 
HETATM   27  C12 UNL     1       4.357  -0.203   1.591  1.00  0.00     0.012 A 
ENDBRANCH  20  21
ENDBRANCH  18  20
ENDBRANCH  17  18
ENDBRANCH   3  17
BRANCH   1  28
HETATM   28  O1  UNL     1      -1.625   2.837  -2.460  1.00  0.00    -0.353 OA
HETATM   29  C1  UNL     1      -2.102   2.676  -3.786  1.00  0.00     0.210 C 
ENDBRANCH   1  28
BRANCH   5  30
HETATM   30  O2  UNL     1       0.166  -3.428  -3.196  1.00  0.00    -0.365 OA
HETATM   31  H15 UNL     1      -0.643  -3.615  -3.778  1.00  0.00     0.217 HD
ENDBRANCH   5  30
TORSDOF 6
