REMARK  3 active torsions:
REMARK  status: ('A' for Active; 'I' for Inactive)
REMARK    1  A    between atoms: C7_9  and  N3_10 
REMARK    2  A    between atoms: N3_10  and  C8_11 
REMARK    3  A    between atoms: N4_20  and  O1_21 
ROOT
HETATM    1  C1  UNL     1      -0.476   3.650   0.955  1.00  0.00     0.046 C 
HETATM    2  C2  UNL     1      -0.188   2.255   0.529  1.00  0.00    -0.059 C 
HETATM    3  C3  UNL     1      -0.967   1.227   0.842  1.00  0.00     0.022 C 
HETATM    4  C4  UNL     1      -1.159  -0.223   0.706  1.00  0.00     0.037 A 
HETATM    5  C5  UNL     1      -0.288  -1.230   1.030  1.00  0.00     0.070 A 
HETATM    6  N1  UNL     1      -0.646  -2.482   0.825  1.00  0.00    -0.244 NA
HETATM    7  C6  UNL     1      -1.849  -2.782   0.304  1.00  0.00     0.235 A 
HETATM    8  N2  UNL     1      -2.735  -1.842  -0.029  1.00  0.00    -0.224 NA
HETATM    9  C7  UNL     1      -2.407  -0.555   0.165  1.00  0.00     0.141 A 
HETATM   10  C14 UNL     1       1.046  -1.079   1.573  1.00  0.00     0.219 C 
HETATM   11  N4  UNL     1       1.777  -2.233   1.910  1.00  0.00    -0.223 N 
HETATM   12  C15 UNL     1       2.481  -2.650   0.742  1.00  0.00     0.243 C 
HETATM   13  O2  UNL     1       3.084  -3.523   1.366  1.00  0.00    -0.271 OA
HETATM   14  C16 UNL     1       2.694  -2.429  -0.695  1.00  0.00     0.105 C 
HETATM   15  C17 UNL     1       4.164  -2.223  -1.069  1.00  0.00     0.009 C 
HETATM   16  C18 UNL     1       4.671  -1.005  -0.319  1.00  0.00     0.001 C 
HETATM   17  C19 UNL     1       3.911   0.254  -0.712  1.00  0.00     0.002 C 
HETATM   18  C20 UNL     1       4.242   1.346   0.247  1.00  0.00     0.026 C 
HETATM   19  C21 UNL     1       3.451   2.600   0.193  1.00  0.00     0.168 C 
HETATM   20  O3  UNL     1       2.152   2.613   0.432  1.00  0.00    -0.387 OA
HETATM   21  C22 UNL     1       1.127   2.158  -0.253  1.00  0.00     0.201 C 
ENDROOT
BRANCH   9  22
HETATM   22  N3  UNL     1      -3.355   0.415  -0.204  1.00  0.00    -0.340 N 
HETATM   23  H6  UNL     1      -3.060   1.412  -0.078  1.00  0.00     0.167 HD
BRANCH  22  24
HETATM   24  C8  UNL     1      -4.660   0.287  -0.730  1.00  0.00     0.035 A 
HETATM   25  C9  UNL     1      -5.395   1.423  -1.094  1.00  0.00     0.032 A 
HETATM   26  C10 UNL     1      -6.660   1.347  -1.604  1.00  0.00     0.046 A 
HETATM   27  C11 UNL     1      -7.263   0.125  -1.780  1.00  0.00     0.138 A 
HETATM   28  F1  UNL     1      -8.502   0.134  -2.284  1.00  0.00    -0.204 F 
HETATM   29  C12 UNL     1      -6.602  -1.034  -1.444  1.00  0.00     0.074 A 
HETATM   30 CL1  UNL     1      -7.391  -2.576  -1.676  1.00  0.00    -0.081 Cl
HETATM   31  C13 UNL     1      -5.343  -0.889  -0.939  1.00  0.00     0.056 A 
ENDBRANCH  22  24
ENDBRANCH   9  22
BRANCH  11  32
HETATM   32  O1  UNL     1       1.666  -2.680   3.168  1.00  0.00    -0.284 OA
HETATM   33  H12 UNL     1       2.241  -3.438   3.401  1.00  0.00     0.245 HD
ENDBRANCH  11  32
TORSDOF 3
