REMARK  9 active torsions:
REMARK  status: ('A' for Active; 'I' for Inactive)
REMARK    1  A    between atoms: C2_2  and  N1_3 
REMARK    2  A    between atoms: N1_3  and  C3_4 
REMARK    3  A    between atoms: N1_3  and  C5_6 
REMARK    4  A    between atoms: C5_6  and  C6_7 
REMARK    5  A    between atoms: C6_7  and  N2_8 
REMARK       I    between atoms: N2_8  and  C7_9 
REMARK    6  A    between atoms: C7_9  and  C8_11 
REMARK    7  A    between atoms: C8_11  and  C10_13 
REMARK    8  A    between atoms: C13_18  and  N5_19 
REMARK    9  A    between atoms: N5_19  and  C14_20 
ROOT
HETATM    1  C10 UNL     1      -1.586  -0.393  -0.039  1.00  0.00     0.004 A 
HETATM    2  C11 UNL     1      -0.941  -1.582   0.212  1.00  0.00     0.033 A 
HETATM    3  C12 UNL     1      -1.453  -2.596   0.973  1.00  0.00     0.141 A 
HETATM    4  N3  UNL     1      -2.668  -2.445   1.526  1.00  0.00    -0.161 NA
HETATM    5  N4  UNL     1      -3.342  -1.329   1.325  1.00  0.00    -0.132 NA
HETATM    6  C13 UNL     1      -2.844  -0.313   0.570  1.00  0.00     0.156 A 
ENDROOT
BRANCH   1   7
HETATM    7  C8  UNL     1      -1.205   0.795  -0.810  1.00  0.00     0.110 C 
HETATM    8  C9  UNL     1      -0.846   1.965   0.118  1.00  0.00     0.025 C 
BRANCH   7   9
HETATM    9  C7  UNL     1       0.097   0.518  -1.531  1.00  0.00     0.226 C 
HETATM   10  N2  UNL     1       1.196   0.269  -0.625  1.00  0.00    -0.359 N 
HETATM   11  H15 UNL     1       1.027   0.306   0.426  1.00  0.00     0.162 HD
HETATM   12  O1  UNL     1       0.348   0.479  -2.779  1.00  0.00    -0.273 OA
BRANCH  10  13
HETATM   13  C6  UNL     1       2.549  -0.013  -1.129  1.00  0.00     0.152 C 
BRANCH  13  14
HETATM   14  C5  UNL     1       3.397  -0.267   0.101  1.00  0.00     0.292 C 
BRANCH  14  15
HETATM   15  N1  UNL     1       4.740  -0.558  -0.252  1.00  0.00     0.089 N 
BRANCH  15  16
HETATM   16  C2  UNL     1       5.532  -0.987   0.896  1.00  0.00     0.268 C 
HETATM   17  C1  UNL     1       5.596  -0.036   2.031  1.00  0.00     0.037 C 
ENDBRANCH  15  16
BRANCH  15  18
HETATM   18  C3  UNL     1       5.408   0.550  -0.924  1.00  0.00     0.268 C 
HETATM   19  C4  UNL     1       6.687  -0.017  -1.534  1.00  0.00     0.037 C 
ENDBRANCH  15  18
ENDBRANCH  14  15
ENDBRANCH  13  14
ENDBRANCH  10  13
ENDBRANCH   7   9
ENDBRANCH   1   7
BRANCH   6  20
HETATM   20  N5  UNL     1      -3.753   0.785   0.487  1.00  0.00    -0.348 N 
HETATM   21  H22 UNL     1      -3.861   1.679   1.013  1.00  0.00     0.167 HD
BRANCH  20  22
HETATM   22  C14 UNL     1      -4.605   0.368  -0.605  1.00  0.00     0.101 C 
HETATM   23  C15 UNL     1      -5.802   0.026  -0.215  1.00  0.00    -0.015 A 
HETATM   24  C16 UNL     1      -6.213   0.070   1.180  1.00  0.00     0.037 A 
HETATM   25  C19 UNL     1      -6.829  -0.430  -1.176  1.00  0.00     0.062 A 
HETATM   26  C17 UNL     1      -7.440  -0.271   1.619  1.00  0.00     0.144 A 
HETATM   27  O2  UNL     1      -8.358  -0.694   0.644  1.00  0.00    -0.311 OA
HETATM   28  C18 UNL     1      -8.008  -0.753  -0.700  1.00  0.00     0.145 A 
HETATM   29 CL1  UNL     1      -9.226  -1.291  -1.834  1.00  0.00    -0.057 Cl
ENDBRANCH  20  22
ENDBRANCH   6  20
TORSDOF 9
