REMARK  9 active torsions:
REMARK  status: ('A' for Active; 'I' for Inactive)
REMARK    1  A    between atoms: O1_2  and  C2_3 
REMARK    2  A    between atoms: C6_9  and  N3_10 
REMARK    3  A    between atoms: N3_10  and  C7_11 
REMARK    4  A    between atoms: C12_17  and  O2_18 
REMARK    5  A    between atoms: C16_22  and  C17_23 
REMARK    6  A    between atoms: C17_23  and  C18_24 
REMARK    7  A    between atoms: C18_24  and  C19_25 
REMARK    8  A    between atoms: C19_25  and  S1_26 
REMARK    9  A    between atoms: S1_26  and  C20_27 
ROOT
HETATM    1  C2  UNL     1       2.756  -1.666   0.432  1.00  0.00     0.076 A 
HETATM    2  C3  UNL     1       1.827  -2.679   0.310  1.00  0.00     0.070 A 
HETATM    3  C4  UNL     1       0.488  -2.428   0.167  1.00  0.00     0.074 A 
HETATM    4  N1  UNL     1      -0.360  -3.493   0.060  1.00  0.00    -0.241 NA
HETATM    5  C5  UNL     1      -1.695  -3.281  -0.077  1.00  0.00     0.236 A 
HETATM    6  N2  UNL     1      -2.150  -2.045  -0.104  1.00  0.00    -0.224 NA
HETATM    7  C6  UNL     1      -1.362  -0.986  -0.004  1.00  0.00     0.141 A 
HETATM    8  C14 UNL     1      -0.004  -1.155   0.137  1.00  0.00     0.039 A 
HETATM    9  C15 UNL     1       0.936  -0.163   0.259  1.00  0.00     0.027 A 
HETATM   10  C16 UNL     1       2.290  -0.354   0.405  1.00  0.00    -0.023 A 
ENDROOT
BRANCH   7  11
HETATM   11  N3  UNL     1      -1.854   0.342  -0.027  1.00  0.00    -0.343 N 
HETATM   12  H6  UNL     1      -1.265   1.173  -0.018  1.00  0.00     0.167 HD
BRANCH  11  13
HETATM   13  C7  UNL     1      -3.210   0.845  -0.079  1.00  0.00     0.017 C 
HETATM   14  C8  UNL     1      -3.484   1.833   0.784  1.00  0.00     0.027 C 
HETATM   15  C9  UNL     1      -4.702   2.623   1.071  1.00  0.00     0.026 C 
HETATM   16  C10 UNL     1      -5.927   2.131   0.821  1.00  0.00     0.036 C 
HETATM   17 CL1  UNL     1      -7.225   3.232   1.235  1.00  0.00    -0.084 Cl
HETATM   18  C11 UNL     1      -6.330   0.824   0.260  1.00  0.00     0.056 C 
HETATM   19  C12 UNL     1      -5.486   0.160  -0.495  1.00  0.00     0.050 C 
HETATM   20  C13 UNL     1      -4.126   0.229  -1.068  1.00  0.00     0.121 C 
BRANCH  19  21
HETATM   21  O2  UNL     1      -6.151  -1.026  -0.869  1.00  0.00    -0.365 OA
HETATM   22  H10 UNL     1      -6.331  -1.673  -0.088  1.00  0.00     0.217 HD
ENDBRANCH  19  21
ENDBRANCH  11  13
ENDBRANCH   7  11
BRANCH  10  23
HETATM   23  C17 UNL     1       3.230   0.766   0.539  1.00  0.00     0.053 C 
BRANCH  23  24
HETATM   24  C18 UNL     1       4.040   1.058  -0.707  1.00  0.00     0.098 C 
BRANCH  24  25
HETATM   25  C19 UNL     1       4.907   2.165  -0.426  1.00  0.00    -0.105 C 
BRANCH  25  26
HETATM   26  S1  UNL     1       5.669   3.169  -0.186  1.00  0.00    -0.023 SA
BRANCH  26  27
HETATM   27  C20 UNL     1       6.574   4.344   0.115  1.00  0.00     0.316 C 
HETATM   28  O3  UNL     1       7.624   4.514  -0.506  1.00  0.00    -0.294 OA
ENDBRANCH  26  27
ENDBRANCH  25  26
ENDBRANCH  24  25
ENDBRANCH  23  24
ENDBRANCH  10  23
BRANCH   1  29
HETATM   29  O1  UNL     1       4.099  -1.936   0.576  1.00  0.00    -0.355 OA
HETATM   30  C1  UNL     1       4.567  -3.285   0.602  1.00  0.00     0.210 C 
ENDBRANCH   1  29
TORSDOF 9
