REMARK  3 active torsions:
REMARK  status: ('A' for Active; 'I' for Inactive)
REMARK    1  A    between atoms: O1_2  and  C2_3 
REMARK    2  A    between atoms: C10_12  and  N2_13 
REMARK    3  A    between atoms: N2_13  and  C11_14 
ROOT
HETATM    1  C2  UNL     1       6.332   0.083   0.371  1.00  0.00     0.069 A 
HETATM    2  C3  UNL     1       6.391  -0.299  -0.948  1.00  0.00     0.039 A 
HETATM    3  C4  UNL     1       5.253  -0.680  -1.626  1.00  0.00     0.040 A 
HETATM    4  C5  UNL     1       4.028  -0.682  -0.980  1.00  0.00     0.086 A 
HETATM    5  C6  UNL     1       3.916  -0.301   0.362  1.00  0.00    -0.004 A 
HETATM    6  C7  UNL     1       5.100   0.077   1.006  1.00  0.00     0.048 A 
HETATM    7  C8  UNL     1       2.771  -0.202   1.306  1.00  0.00     0.161 C 
HETATM    8  N1  UNL     1       1.560   0.292   0.672  1.00  0.00    -0.379 N 
HETATM    9  C9  UNL     1       1.048  -0.193  -0.551  1.00  0.00     0.129 A 
HETATM   10  C10 UNL     1      -0.316  -0.004  -0.633  1.00  0.00     0.160 A 
HETATM   11  N3  UNL     1      -1.039  -0.377  -1.694  1.00  0.00    -0.222 NA
HETATM   12  C23 UNL     1      -0.457  -0.966  -2.752  1.00  0.00     0.238 A 
HETATM   13  N4  UNL     1       0.870  -1.175  -2.725  1.00  0.00    -0.215 NA
HETATM   14  C24 UNL     1       1.596  -0.800  -1.659  1.00  0.00     0.202 A 
HETATM   15  O2  UNL     1       2.968  -1.092  -1.796  1.00  0.00    -0.289 OA
HETATM   16  H9  UNL     1       0.943   1.048   1.040  1.00  0.00     0.160 HD
ENDROOT
BRANCH  10  17
HETATM   17  N2  UNL     1      -1.096   0.599   0.389  1.00  0.00    -0.339 N 
HETATM   18  H10 UNL     1      -1.051   1.026   1.336  1.00  0.00     0.167 HD
BRANCH  17  19
HETATM   19  C11 UNL     1      -2.475   0.830   0.382  1.00  0.00     0.034 C 
HETATM   20  C12 UNL     1      -2.915   2.054   0.093  1.00  0.00     0.029 C 
HETATM   21  C13 UNL     1      -4.292   2.559  -0.184  1.00  0.00     0.003 C 
HETATM   22  C14 UNL     1      -5.552   2.035  -0.127  1.00  0.00     0.011 C 
HETATM   23  C15 UNL     1      -5.894   0.775   0.643  1.00  0.00    -0.035 C 
HETATM   24  C16 UNL     1      -5.479   0.171   1.843  1.00  0.00     0.022 C 
HETATM   25  C22 UNL     1      -6.850   0.231  -0.403  1.00  0.00     0.011 C 
HETATM   26  C17 UNL     1      -4.413  -0.632   1.067  1.00  0.00    -0.033 C 
HETATM   27  C18 UNL     1      -3.086  -0.505   0.718  1.00  0.00     0.041 C 
HETATM   28  C19 UNL     1      -4.612  -1.923   0.290  1.00  0.00     0.011 C 
HETATM   29  C20 UNL     1      -5.809  -2.133  -0.344  1.00  0.00     0.001 C 
HETATM   30  C21 UNL     1      -6.864  -1.113  -0.666  1.00  0.00     0.001 C 
ENDBRANCH  17  19
ENDBRANCH  10  17
BRANCH   1  31
HETATM   31  O1  UNL     1       7.410   0.481   1.136  1.00  0.00    -0.356 OA
HETATM   32  C1  UNL     1       8.733   0.543   0.640  1.00  0.00     0.210 C 
ENDBRANCH   1  31
TORSDOF 3
