REMARK  4 active torsions:
REMARK  status: ('A' for Active; 'I' for Inactive)
REMARK    1  A    between atoms: O1_2  and  C2_3 
REMARK    2  A    between atoms: C10_11  and  N1_12 
REMARK    3  A    between atoms: C10_11  and  C11_14 
REMARK    4  A    between atoms: N1_12  and  N2_13 
ROOT
HETATM    1  C2  UNL     1       3.901  -0.404   0.457  1.00  0.00     0.068 A 
HETATM    2  C3  UNL     1       3.850  -0.253   1.847  1.00  0.00     0.039 A 
HETATM    3  C4  UNL     1       2.665   0.148   2.473  1.00  0.00     0.040 A 
HETATM    4  C5  UNL     1       1.540   0.394   1.705  1.00  0.00     0.075 A 
HETATM    5  C6  UNL     1       1.605   0.240   0.329  1.00  0.00    -0.018 A 
HETATM    6  C7  UNL     1       2.771  -0.154  -0.293  1.00  0.00     0.047 A 
HETATM    7  C8  UNL     1       0.436   0.485  -0.580  1.00  0.00     0.080 C 
HETATM    8  C9  UNL     1      -0.793   0.694   0.235  1.00  0.00    -0.023 C 
HETATM    9  C10 UNL     1      -1.894   0.123  -0.245  1.00  0.00     0.058 C 
HETATM   10  C16 UNL     1      -0.558   1.508   1.441  1.00  0.00     0.212 C 
HETATM   11  O3  UNL     1       0.336   0.794   2.269  1.00  0.00    -0.346 OA
ENDROOT
BRANCH   9  12
HETATM   12  N1  UNL     1      -1.637  -0.574  -1.459  1.00  0.00    -0.323 N 
HETATM   13  H9  UNL     1      -1.269  -1.506  -1.796  1.00  0.00     0.180 HD
BRANCH  12  14
HETATM   14  N2  UNL     1      -1.862  -0.072  -2.756  1.00  0.00    -0.249 NA
HETATM   15  H10 UNL     1      -2.536   0.738  -2.761  1.00  0.00     0.143 HD
HETATM   16  H11 UNL     1      -0.978   0.305  -3.186  1.00  0.00     0.143 HD
ENDBRANCH  12  14
ENDBRANCH   9  12
BRANCH   9  17
HETATM   17  C11 UNL     1      -3.231   0.124   0.278  1.00  0.00     0.007 C 
HETATM   18  C12 UNL     1      -3.576   0.730   1.380  1.00  0.00     0.012 C 
HETATM   19  C13 UNL     1      -4.636   1.488   1.348  1.00  0.00     0.154 C 
HETATM   20  O2  UNL     1      -5.729   0.875   0.741  1.00  0.00    -0.334 OA
HETATM   21  C14 UNL     1      -5.590  -0.188  -0.163  1.00  0.00     0.142 C 
HETATM   22  C15 UNL     1      -4.341  -0.577  -0.406  1.00  0.00     0.039 C 
ENDBRANCH   9  17
BRANCH   1  23
HETATM   23  O1  UNL     1       5.163  -0.804   0.064  1.00  0.00    -0.356 OA
HETATM   24  C1  UNL     1       5.421  -1.012  -1.310  1.00  0.00     0.210 C 
ENDBRANCH   1  23
TORSDOF 4
