REMARK  8 active torsions:
REMARK  status: ('A' for Active; 'I' for Inactive)
REMARK    1  A    between atoms: C3_3  and  C4_4 
REMARK       I    between atoms: C4_4  and  N1_6 
REMARK    2  A    between atoms: N1_6  and  C5_7 
REMARK    3  A    between atoms: C5_7  and  C6_8 
REMARK    4  A    between atoms: C6_8  and  N2_9 
REMARK    5  A    between atoms: C15_23  and  C16_24 
REMARK    6  A    between atoms: C17_25  and  O3_26 
REMARK    7  A    between atoms: O3_26  and  C18_27 
REMARK    8  A    between atoms: C18_27  and  C19_28 
ROOT
HETATM    1  C1  UNL     1      -0.234  -0.247  -2.159  1.00  0.00     0.053 C 
HETATM    2  C2  UNL     1      -0.658   0.048  -0.805  1.00  0.00    -0.004 C 
HETATM    3  C3  UNL     1       0.390   0.649  -0.432  1.00  0.00     0.105 C 
HETATM    4  N3  UNL     1      -0.028   0.305   0.966  1.00  0.00    -0.373 N 
HETATM    5  C11 UNL     1      -0.761  -0.903   1.424  1.00  0.00     0.152 C 
HETATM    6  C12 UNL     1      -1.306  -2.145   1.465  1.00  0.00     0.141 C 
HETATM    7  N4  UNL     1      -1.331  -3.257   0.545  1.00  0.00    -0.168 NA
HETATM    8  N5  UNL     1      -2.104  -3.346  -0.384  1.00  0.00    -0.174 NA
HETATM    9  C13 UNL     1      -3.130  -2.520  -0.852  1.00  0.00     0.295 C 
HETATM   10  N6  UNL     1      -2.741  -1.270  -1.425  1.00  0.00    -0.370 N 
HETATM   11  C14 UNL     1      -2.038  -0.243  -0.799  1.00  0.00     0.037 C 
HETATM   12  C15 UNL     1      -2.336   0.697   0.048  1.00  0.00     0.031 C 
HETATM   13  H17 UNL     1       0.119   0.835   1.848  1.00  0.00     0.160 HD
HETATM   14  H22 UNL     1      -2.777  -0.676  -2.277  1.00  0.00     0.161 HD
ENDROOT
BRANCH   3  15
HETATM   15  C4  UNL     1       1.666   1.230  -0.438  1.00  0.00     0.268 C 
HETATM   16  O1  UNL     1       2.200   1.782   0.545  1.00  0.00    -0.266 OA
HETATM   17  N1  UNL     1       2.555   1.298  -1.548  1.00  0.00    -0.354 N 
HETATM   18  H4  UNL     1       2.244   0.878  -2.479  1.00  0.00     0.162 HD
BRANCH  17  19
HETATM   19  C5  UNL     1       3.862   1.912  -1.505  1.00  0.00     0.153 C 
BRANCH  19  20
HETATM   20  C6  UNL     1       4.819   1.281  -0.553  1.00  0.00     0.292 C 
BRANCH  20  21
HETATM   21  N2  UNL     1       5.092  -0.105  -0.811  1.00  0.00     0.094 N 
HETATM   22  C7  UNL     1       5.798  -0.355  -2.014  1.00  0.00     0.298 C 
HETATM   23  C8  UNL     1       7.284  -0.529  -1.826  1.00  0.00     0.198 C 
HETATM   24  O2  UNL     1       7.599  -1.421  -0.839  1.00  0.00    -0.388 OA
HETATM   25  C9  UNL     1       7.045  -1.085   0.374  1.00  0.00     0.198 C 
HETATM   26  C10 UNL     1       5.580  -0.812   0.343  1.00  0.00     0.298 C 
ENDBRANCH  20  21
ENDBRANCH  19  20
ENDBRANCH  17  19
ENDBRANCH   3  15
BRANCH  12  27
HETATM   27  C16 UNL     1      -3.799   0.531   0.173  1.00  0.00     0.026 C 
HETATM   28  C17 UNL     1      -4.460   1.341   0.983  1.00  0.00     0.135 C 
BRANCH  28  29
HETATM   29  O3  UNL     1      -5.778   1.458   1.319  1.00  0.00    -0.357 OA
BRANCH  29  30
HETATM   30  C18 UNL     1      -6.321   0.961   2.535  1.00  0.00     0.233 C 
BRANCH  30  31
HETATM   31  C19 UNL     1      -7.736   1.307   2.670  1.00  0.00     0.059 A 
HETATM   32  C20 UNL     1      -8.689   1.917   3.352  1.00  0.00     0.048 A 
HETATM   33  C21 UNL     1      -9.676   1.460   2.366  1.00  0.00     0.119 A 
HETATM   34  N7  UNL     1      -8.719   0.870   1.718  1.00  0.00    -0.263 NA
ENDBRANCH  30  31
ENDBRANCH  29  30
ENDBRANCH  28  29
ENDBRANCH  12  27
TORSDOF 8
