REMARK  10 active torsions:
REMARK  status: ('A' for Active; 'I' for Inactive)
REMARK    1  A    between atoms: C2_2  and  O1_3 
REMARK    2  A    between atoms: O1_3  and  C3_4 
REMARK    3  A    between atoms: C3_4  and  C4_6 
REMARK    4  A    between atoms: C4_6  and  N1_7 
REMARK    5  A    between atoms: N1_7  and  C5_8 
REMARK    6  A    between atoms: C10_15  and  N4_16 
REMARK    7  A    between atoms: N4_16  and  C11_17 
REMARK    8  A    between atoms: C14_20  and  O3_21 
REMARK    9  A    between atoms: O3_21  and  C15_22 
REMARK   10  A    between atoms: C15_22  and  C16_23 
ROOT
HETATM    1  N4  UNL     1      -0.110   0.084   1.157  1.00  0.00    -0.376 N 
HETATM    2  H15 UNL     1      -0.695   0.865   1.547  1.00  0.00     0.160 HD
ENDROOT
BRANCH   1   3
HETATM    3  C10 UNL     1      -0.819  -0.968   0.518  1.00  0.00     0.161 A 
HETATM    4  C7  UNL     1      -2.295  -0.707   0.441  1.00  0.00     0.011 A 
HETATM    5  C5  UNL     1      -2.703   0.376  -0.186  1.00  0.00     0.011 C 
HETATM    6  C8  UNL     1      -3.336  -1.559   1.005  1.00  0.00     0.152 A 
HETATM    7  C6  UNL     1      -1.829   1.386  -0.838  1.00  0.00     0.068 C 
HETATM    8  N2  UNL     1      -3.054  -2.644   1.641  1.00  0.00    -0.163 NA
HETATM    9  N3  UNL     1      -1.700  -2.966   1.763  1.00  0.00    -0.165 NA
HETATM   10  C9  UNL     1      -0.728  -2.262   1.289  1.00  0.00     0.143 A 
BRANCH   5  11
HETATM   11  N1  UNL     1      -4.090   0.679  -0.295  1.00  0.00    -0.384 N 
HETATM   12  H8  UNL     1      -4.250   0.049  -1.133  1.00  0.00     0.160 HD
BRANCH  11  13
HETATM   13  C4  UNL     1      -5.181   1.443   0.271  1.00  0.00     0.230 C 
BRANCH  13  14
HETATM   14  C3  UNL     1      -6.426   1.191  -0.477  1.00  0.00     0.276 C 
HETATM   15  O2  UNL     1      -7.427   1.818  -0.050  1.00  0.00    -0.263 OA
BRANCH  14  16
HETATM   16  O1  UNL     1      -6.589   0.353  -1.573  1.00  0.00    -0.321 OA
BRANCH  16  17
HETATM   17  C2  UNL     1      -7.872   0.233  -2.170  1.00  0.00     0.174 C 
HETATM   18  C1  UNL     1      -8.822  -0.288  -1.127  1.00  0.00     0.034 C 
ENDBRANCH  16  17
ENDBRANCH  14  16
ENDBRANCH  13  14
ENDBRANCH  11  13
ENDBRANCH   5  11
ENDBRANCH   1   3
BRANCH   1  19
HETATM   19  C11 UNL     1       1.300   0.177   1.316  1.00  0.00     0.030 A 
HETATM   20  C12 UNL     1       2.051  -0.844   0.778  1.00  0.00     0.032 A 
HETATM   21  C13 UNL     1       3.409  -0.745   0.943  1.00  0.00     0.041 A 
HETATM   22  C14 UNL     1       4.100   0.236   1.571  1.00  0.00     0.091 A 
HETATM   23  C22 UNL     1       3.287   1.257   2.104  1.00  0.00     0.069 A 
HETATM   24 CL1  UNL     1       3.801   2.700   2.989  1.00  0.00    -0.081 Cl
HETATM   25  C23 UNL     1       1.892   1.230   1.979  1.00  0.00     0.056 A 
BRANCH  22  26
HETATM   26  O3  UNL     1       5.362   0.565   1.864  1.00  0.00    -0.345 OA
BRANCH  26  27
HETATM   27  C15 UNL     1       6.543  -0.080   1.570  1.00  0.00     0.214 C 
BRANCH  27  28
HETATM   28  C16 UNL     1       6.759  -0.184   0.119  1.00  0.00    -0.031 A 
HETATM   29  C17 UNL     1       6.544  -1.141  -0.829  1.00  0.00     0.009 A 
HETATM   30  C18 UNL     1       6.827  -0.968  -2.157  1.00  0.00     0.004 A 
HETATM   31  C19 UNL     1       7.355   0.197  -2.633  1.00  0.00     0.042 A 
HETATM   32  C20 UNL     1       7.595   1.205  -1.716  1.00  0.00     0.117 A 
HETATM   33  F1  UNL     1       8.119   2.342  -2.231  1.00  0.00    -0.206 F 
HETATM   34  C21 UNL     1       7.303   1.010  -0.382  1.00  0.00     0.051 A 
ENDBRANCH  27  28
ENDBRANCH  26  27
ENDBRANCH  22  26
ENDBRANCH   1  19
TORSDOF 10
