REMARK  6 active torsions:
REMARK  status: ('A' for Active; 'I' for Inactive)
REMARK    1  A    between atoms: N1_1  and  C1_2 
REMARK    2  A    between atoms: C6_9  and  N4_10 
REMARK    3  A    between atoms: N4_10  and  C7_11 
REMARK    4  A    between atoms: C10_14  and  O1_15 
REMARK    5  A    between atoms: O1_15  and  C11_16 
REMARK    6  A    between atoms: C11_16  and  C12_17 
ROOT
HETATM    1  C7  UNL     1       1.193  -0.551   0.748  1.00  0.00     0.035 A 
HETATM    2  C8  UNL     1       0.537   0.352  -0.008  1.00  0.00     0.032 A 
HETATM    3  C9  UNL     1      -0.753   0.244  -0.487  1.00  0.00     0.041 A 
HETATM    4  C10 UNL     1      -1.431  -0.905  -0.155  1.00  0.00     0.091 A 
HETATM    5  C18 UNL     1      -0.785  -1.876   0.634  1.00  0.00     0.069 A 
HETATM    6 CL1  UNL     1      -1.403  -3.431   1.207  1.00  0.00    -0.081 Cl
HETATM    7  C19 UNL     1       0.524  -1.741   1.108  1.00  0.00     0.056 A 
ENDROOT
BRANCH   1   8
HETATM    8  N4  UNL     1       2.547  -0.330   1.203  1.00  0.00    -0.345 N 
HETATM    9  H5  UNL     1       2.922  -1.006   1.900  1.00  0.00     0.167 HD
BRANCH   8  10
HETATM   10  C6  UNL     1       3.171   0.849   0.627  1.00  0.00     0.108 A 
HETATM   11  C3  UNL     1       4.272   0.114   0.259  1.00  0.00     0.017 A 
HETATM   12  C2  UNL     1       5.530  -0.722  -0.161  1.00  0.00     0.034 A 
HETATM   13  C4  UNL     1       4.726   1.673  -0.318  1.00  0.00     0.205 A 
HETATM   14  C1  UNL     1       6.445  -0.052  -0.759  1.00  0.00     0.014 A 
HETATM   15  C5  UNL     1       5.792   1.279  -0.746  1.00  0.00     0.130 A 
HETATM   16  N2  UNL     1       4.693   2.061  -0.391  1.00  0.00    -0.197 NA
HETATM   17  N3  UNL     1       3.546   1.993   0.181  1.00  0.00    -0.172 NA
BRANCH  14  18
HETATM   18  N1  UNL     1       7.560  -0.706  -1.159  1.00  0.00    -0.304 N 
HETATM   19  H1  UNL     1       8.355  -0.518  -0.533  1.00  0.00     0.124 HD
HETATM   20  H2  UNL     1       8.186  -0.384  -0.381  1.00  0.00     0.124 HD
ENDBRANCH  14  18
ENDBRANCH   8  10
ENDBRANCH   1   8
BRANCH   4  21
HETATM   21  O1  UNL     1      -2.606  -1.409  -0.377  1.00  0.00    -0.345 OA
BRANCH  21  22
HETATM   22  C11 UNL     1      -3.829  -1.344  -0.899  1.00  0.00     0.214 C 
BRANCH  22  23
HETATM   23  C12 UNL     1      -4.706  -0.227  -0.433  1.00  0.00    -0.031 A 
HETATM   24  C13 UNL     1      -4.777   1.011  -1.032  1.00  0.00     0.009 A 
HETATM   25  C14 UNL     1      -5.626   1.945  -0.486  1.00  0.00     0.004 A 
HETATM   26  C15 UNL     1      -6.395   1.675   0.626  1.00  0.00     0.042 A 
HETATM   27  C16 UNL     1      -6.315   0.413   1.229  1.00  0.00     0.117 A 
HETATM   28  F1  UNL     1      -7.068   0.110   2.336  1.00  0.00    -0.206 F 
HETATM   29  C17 UNL     1      -5.459  -0.559   0.699  1.00  0.00     0.051 A 
ENDBRANCH  22  23
ENDBRANCH  21  22
ENDBRANCH   4  21
TORSDOF 6
