REMARK  2 active torsions:
REMARK  status: ('A' for Active; 'I' for Inactive)
REMARK    1  A    between atoms: C6_7  and  O1_8 
REMARK    2  A    between atoms: O1_8  and  C7_9 
ROOT
HETATM    1  C1  UNL     1       0.217   5.002   0.702  1.00  0.00     0.038 C 
HETATM    2  C2  UNL     1      -0.752   4.052   1.289  1.00  0.00    -0.007 C 
HETATM    3  C3  UNL     1      -0.714   2.799   0.929  1.00  0.00     0.011 C 
HETATM    4  C4  UNL     1       0.414   2.824  -0.038  1.00  0.00     0.045 C 
HETATM    5  C5  UNL     1       1.087   1.963  -0.814  1.00  0.00     0.043 A 
HETATM    6 CL1  UNL     1       2.013   0.910  -1.852  1.00  0.00    -0.146 Cl
HETATM    7  C6  UNL     1       0.989   0.584  -0.332  1.00  0.00     0.241 A 
HETATM    8  C13 UNL     1      -0.149  -0.188  -0.785  1.00  0.00    -0.013 C 
HETATM    9  C14 UNL     1      -0.760  -0.346  -2.024  1.00  0.00     0.023 C 
HETATM   10  P1  UNL     1      -2.348  -1.092  -2.120  1.00  0.00    -0.048 P 
HETATM   11  C15 UNL     1      -3.799  -0.143  -2.392  1.00  0.00     0.150 C 
HETATM   12  N1  UNL     1      -3.747   0.854  -1.468  1.00  0.00    -0.160 NA
HETATM   13  N2  UNL     1      -3.573   0.633  -0.201  1.00  0.00    -0.138 NA
HETATM   14  C16 UNL     1      -2.357   0.751   0.444  1.00  0.00     0.138 C 
HETATM   15  N3  UNL     1      -1.225   1.485   0.967  1.00  0.00    -0.242 NA
HETATM   16  C17 UNL     1      -1.991  -0.590   0.722  1.00  0.00     0.008 C 
HETATM   17  C18 UNL     1      -0.730  -0.959   0.253  1.00  0.00     0.023 C 
HETATM   18  C19 UNL     1      -3.083  -1.313   1.472  1.00  0.00     0.209 C 
HETATM   19  O2  UNL     1      -4.057  -1.642   0.577  1.00  0.00    -0.386 OA
HETATM   20  C20 UNL     1      -3.864  -2.616  -0.329  1.00  0.00     0.173 C 
HETATM   21  C21 UNL     1      -2.664  -2.655  -1.182  1.00  0.00     0.070 C 
HETATM   22  H15 UNL     1      -1.894   2.062   0.412  1.00  0.00     0.135 HD
ENDROOT
BRANCH   7  23
HETATM   23  O1  UNL     1       2.217  -0.044  -0.655  1.00  0.00    -0.354 OA
BRANCH  23  24
HETATM   24  C7  UNL     1       2.793  -0.574   0.472  1.00  0.00     0.184 A 
HETATM   25  C8  UNL     1       2.933  -2.048   0.207  1.00  0.00     0.008 A 
HETATM   26  C9  UNL     1       3.916  -2.922   0.168  1.00  0.00    -0.002 A 
HETATM   27  C10 UNL     1       5.236  -2.386   0.446  1.00  0.00    -0.001 A 
HETATM   28  C11 UNL     1       5.231  -1.089   0.697  1.00  0.00     0.013 A 
HETATM   29  C12 UNL     1       4.153  -0.042   0.759  1.00  0.00     0.225 A 
HETATM   30  F1  UNL     1       4.471   1.018  -0.042  1.00  0.00    -0.242 F 
ENDBRANCH  23  24
ENDBRANCH   7  23
TORSDOF 2
