REMARK  11 active torsions:
REMARK  status: ('A' for Active; 'I' for Inactive)
REMARK    1  A    between atoms: C2_2  and  O1_3 
REMARK    2  A    between atoms: O1_3  and  C3_4 
REMARK    3  A    between atoms: C3_4  and  C4_6 
REMARK    4  A    between atoms: C4_6  and  N1_7 
REMARK    5  A    between atoms: N1_7  and  C5_8 
REMARK    6  A    between atoms: C5_8  and  C6_9 
REMARK    7  A    between atoms: C6_9  and  N2_10 
REMARK    8  A    between atoms: C8_14  and  C9_15 
REMARK    9  A    between atoms: C12_18  and  O3_19 
REMARK   10  A    between atoms: O3_19  and  C13_20 
REMARK   11  A    between atoms: C13_20  and  C14_21 
ROOT
HETATM    1  C5  UNL     1      -2.680   0.826  -1.442  1.00  0.00     0.224 A 
HETATM    2  C7  UNL     1      -2.862   1.984  -0.481  1.00  0.00     0.157 A 
HETATM    3  N3  UNL     1      -2.128   2.601   0.408  1.00  0.00    -0.164 NA
HETATM    4  N4  UNL     1      -0.822   2.071   0.520  1.00  0.00    -0.155 NA
HETATM    5  C8  UNL     1      -0.481   1.063  -0.241  1.00  0.00     0.070 A 
HETATM    6  C22 UNL     1      -1.250   0.338  -1.268  1.00  0.00     0.111 A 
ENDROOT
BRANCH   5   7
HETATM    7  C9  UNL     1       0.886   0.596  -0.040  1.00  0.00    -0.008 A 
HETATM    8  C10 UNL     1       1.705   1.220   0.908  1.00  0.00     0.016 A 
HETATM    9  C11 UNL     1       3.017   0.817   1.144  1.00  0.00     0.039 A 
HETATM   10  C12 UNL     1       3.553  -0.224   0.437  1.00  0.00     0.090 A 
HETATM   11  C20 UNL     1       2.767  -0.836  -0.485  1.00  0.00     0.068 A 
HETATM   12 CL1  UNL     1       3.436  -2.178  -1.406  1.00  0.00    -0.081 Cl
HETATM   13  C21 UNL     1       1.473  -0.448  -0.726  1.00  0.00     0.040 A 
BRANCH  10  14
HETATM   14  O3  UNL     1       4.873  -0.577   0.722  1.00  0.00    -0.345 OA
BRANCH  14  15
HETATM   15  C13 UNL     1       5.645   0.103   1.701  1.00  0.00     0.214 C 
BRANCH  15  16
HETATM   16  C14 UNL     1       7.006  -0.488   1.793  1.00  0.00    -0.031 A 
HETATM   17  C15 UNL     1       8.065  -0.043   1.033  1.00  0.00     0.009 A 
HETATM   18  C16 UNL     1       9.283  -0.676   1.216  1.00  0.00     0.004 A 
HETATM   19  C17 UNL     1       9.452  -1.712   2.117  1.00  0.00     0.042 A 
HETATM   20  C18 UNL     1       8.356  -2.127   2.863  1.00  0.00     0.117 A 
HETATM   21  F1  UNL     1       8.487  -3.138   3.753  1.00  0.00    -0.206 F 
HETATM   22  C19 UNL     1       7.127  -1.529   2.715  1.00  0.00     0.051 A 
ENDBRANCH  15  16
ENDBRANCH  14  15
ENDBRANCH  10  14
ENDBRANCH   5   7
BRANCH   1  23
HETATM   23  N1  UNL     1      -3.616  -0.180  -1.061  1.00  0.00     0.109 NA
HETATM   24  H8  UNL     1      -3.363  -1.057  -1.576  1.00  0.00     0.318 HD
BRANCH  23  25
HETATM   25  C4  UNL     1      -4.961   0.173  -1.227  1.00  0.00     0.381 C 
BRANCH  25  26
HETATM   26  C3  UNL     1      -5.899  -0.867  -0.652  1.00  0.00     0.287 C 
HETATM   27  O2  UNL     1      -5.571  -1.931  -0.102  1.00  0.00    -0.263 OA
BRANCH  26  28
HETATM   28  O1  UNL     1      -7.242  -0.507  -0.802  1.00  0.00    -0.321 OA
BRANCH  28  29
HETATM   29  C2  UNL     1      -8.307  -1.303  -0.351  1.00  0.00     0.174 C 
HETATM   30  C1  UNL     1      -8.255  -1.536   1.143  1.00  0.00     0.034 C 
ENDBRANCH  28  29
ENDBRANCH  26  28
ENDBRANCH  25  26
ENDBRANCH  23  25
ENDBRANCH   1  23
BRANCH   1  31
HETATM   31  C6  UNL     1      -2.829   1.307  -2.841  1.00  0.00     0.314 C 
BRANCH  31  32
HETATM   32  N2  UNL     1      -4.118   1.906  -3.039  1.00  0.00     0.081 N 
HETATM   33  H11 UNL     1      -4.068   2.929  -2.815  1.00  0.00     0.312 HD
HETATM   34  H12 UNL     1      -4.492   1.730  -3.988  1.00  0.00     0.312 HD
ENDBRANCH  31  32
ENDBRANCH   1  31
TORSDOF 11
