REMARK  6 active torsions:
REMARK  status: ('A' for Active; 'I' for Inactive)
REMARK    1  A    between atoms: C1_2  and  C2_3 
REMARK    2  A    between atoms: C2_3  and  C3_4 
REMARK    3  A    between atoms: C3_4  and  C4_5 
REMARK    4  A    between atoms: N2_11  and  C9_12 
REMARK    5  A    between atoms: C12_15  and  O2_16 
REMARK    6  A    between atoms: O2_16  and  C13_17 
ROOT
HETATM    1  C9  UNL     1      -0.005   0.770  -0.929  1.00  0.00     0.039 A 
HETATM    2  C10 UNL     1      -0.002   0.178   0.317  1.00  0.00     0.032 A 
HETATM    3  C11 UNL     1      -1.143   0.061   1.097  1.00  0.00     0.041 A 
HETATM    4  C12 UNL     1      -2.349   0.550   0.632  1.00  0.00     0.098 A 
HETATM    5  C19 UNL     1      -2.401   1.150  -0.606  1.00  0.00     0.070 A 
HETATM    6 CL1  UNL     1      -3.923   1.799  -1.236  1.00  0.00    -0.081 Cl
HETATM    7  C20 UNL     1      -1.236   1.238  -1.337  1.00  0.00     0.056 A 
ENDROOT
BRANCH   1   8
HETATM    8  N2  UNL     1       1.176   0.881  -1.706  1.00  0.00    -0.315 N 
HETATM    9  C8  UNL     1       1.193   1.413  -3.024  1.00  0.00     0.211 C 
HETATM   10  N1  UNL     1       2.234   1.657  -3.744  1.00  0.00    -0.255 NA
HETATM   11  C7  UNL     1       3.509   1.369  -3.186  1.00  0.00     0.129 C 
HETATM   12  C6  UNL     1       3.611   0.867  -1.994  1.00  0.00     0.004 C 
HETATM   13  C5  UNL     1       4.665   0.435  -1.045  1.00  0.00     0.037 C 
HETATM   14  C21 UNL     1       2.430   0.452  -1.179  1.00  0.00     0.226 C 
HETATM   15  C4  UNL     1       4.184   0.514   0.221  1.00  0.00     0.007 C 
HETATM   16  N3  UNL     1       2.815   0.989   0.105  1.00  0.00    -0.368 N 
HETATM   17  H17 UNL     1       2.470   1.566   0.926  1.00  0.00     0.161 HD
BRANCH  15  18
HETATM   18  C3  UNL     1       5.022   0.145   1.401  1.00  0.00     0.063 C 
BRANCH  18  19
HETATM   19  C2  UNL     1       4.351  -0.985   2.137  1.00  0.00     0.075 C 
BRANCH  19  20
HETATM   20  C1  UNL     1       4.235  -2.131   1.193  1.00  0.00     0.231 C 
HETATM   21  O1  UNL     1       4.634  -2.113   0.019  1.00  0.00    -0.307 OA
ENDBRANCH  19  20
ENDBRANCH  18  19
ENDBRANCH  15  18
ENDBRANCH   1   8
BRANCH   4  22
HETATM   22  O2  UNL     1      -3.449   0.417   1.428  1.00  0.00    -0.309 OA
BRANCH  22  23
HETATM   23  C13 UNL     1      -4.607  -0.277   1.141  1.00  0.00     0.079 A 
HETATM   24  C14 UNL     1      -5.517  -0.111   2.191  1.00  0.00     0.037 A 
HETATM   25  C15 UNL     1      -6.778  -0.713   2.154  1.00  0.00     0.006 A 
HETATM   26  C16 UNL     1      -7.123  -1.481   1.063  1.00  0.00     0.042 A 
HETATM   27  C17 UNL     1      -6.223  -1.640   0.035  1.00  0.00     0.119 A 
HETATM   28  F1  UNL     1      -6.459  -2.368  -1.076  1.00  0.00    -0.206 F 
HETATM   29  C18 UNL     1      -4.991  -1.053   0.068  1.00  0.00     0.079 A 
ENDBRANCH  22  23
ENDBRANCH   4  22
TORSDOF 6
