REMARK  6 active torsions:
REMARK  status: ('A' for Active; 'I' for Inactive)
REMARK    1  A    between atoms: C5_6  and  C6_7 
REMARK    2  A    between atoms: C6_7  and  O1_8 
REMARK    3  A    between atoms: O1_8  and  C7_9 
REMARK    4  A    between atoms: C10_12  and  N1_13 
REMARK    5  A    between atoms: N1_13  and  C11_14 
REMARK    6  A    between atoms: C11_14  and  N2_15 
ROOT
HETATM    1  C7  UNL     1      -1.073  -1.150   0.238  1.00  0.00     0.127 A 
HETATM    2  C8  UNL     1      -1.108  -1.719  -1.168  1.00  0.00     0.050 C 
HETATM    3  C9  UNL     1      -2.623  -1.486  -1.184  1.00  0.00     0.042 C 
HETATM    4  C10 UNL     1      -2.471  -0.793   0.106  1.00  0.00     0.083 A 
HETATM    5  C12 UNL     1      -2.620  -1.762   1.246  1.00  0.00     0.029 A 
HETATM    6  C13 UNL     1      -1.337  -2.066   1.339  1.00  0.00     0.048 A 
HETATM    7 CL2  UNL     1      -0.408  -3.128   2.370  1.00  0.00    -0.086 Cl
ENDROOT
BRANCH   1   8
HETATM    8  O1  UNL     1      -0.088  -0.205   0.426  1.00  0.00    -0.367 OA
BRANCH   8   9
HETATM    9  C6  UNL     1       1.126  -0.841   0.169  1.00  0.00     0.208 C 
BRANCH   9  10
HETATM   10  C5  UNL     1       2.279   0.076   0.339  1.00  0.00    -0.032 A 
HETATM   11  C4  UNL     1       2.728   0.811  -0.740  1.00  0.00     0.009 A 
HETATM   12  C3  UNL     1       3.782   1.701  -0.741  1.00  0.00     0.004 A 
HETATM   13  C2  UNL     1       4.427   1.842   0.481  1.00  0.00     0.042 A 
HETATM   14  C1  UNL     1       4.040   1.143   1.609  1.00  0.00     0.117 A 
HETATM   15  F1  UNL     1       4.678   1.294   2.780  1.00  0.00    -0.206 F 
HETATM   16  C14 UNL     1       2.967   0.267   1.518  1.00  0.00     0.051 A 
ENDBRANCH   9  10
ENDBRANCH   8   9
ENDBRANCH   1   8
BRANCH   4  17
HETATM   17  N1  UNL     1      -2.994   0.454   0.387  1.00  0.00    -0.394 N 
HETATM   18  H10 UNL     1      -3.479   0.538   1.279  1.00  0.00     0.155 HD
BRANCH  17  19
HETATM   19  C11 UNL     1      -2.506   1.632  -0.194  1.00  0.00     0.222 C 
BRANCH  19  20
HETATM   20  N2  UNL     1      -2.514   1.748  -1.613  1.00  0.00    -0.220 NA
HETATM   21 CL1  UNL     1      -1.947   3.315  -2.146  1.00  0.00    -0.023 Cl
HETATM   22  H13 UNL     1      -1.808   1.072  -2.048  1.00  0.00     0.142 HD
ENDBRANCH  19  20
ENDBRANCH  17  19
ENDBRANCH   4  17
TORSDOF 6
