REMARK  3 active torsions:
REMARK  status: ('A' for Active; 'I' for Inactive)
REMARK    1  A    between atoms: O1_2  and  C2_3 
REMARK    2  A    between atoms: C10_12  and  N2_13 
REMARK    3  A    between atoms: N2_13  and  C11_14 
ROOT
HETATM    1  C2  UNL     1       6.134   0.802   0.121  1.00  0.00     0.069 A 
HETATM    2  C3  UNL     1       6.575  -0.520  -0.010  1.00  0.00     0.039 A 
HETATM    3  C4  UNL     1       5.682  -1.594  -0.078  1.00  0.00     0.040 A 
HETATM    4  C5  UNL     1       4.332  -1.280  -0.007  1.00  0.00     0.086 A 
HETATM    5  C6  UNL     1       3.877   0.024   0.123  1.00  0.00    -0.004 A 
HETATM    6  C7  UNL     1       4.792   1.062   0.187  1.00  0.00     0.048 A 
HETATM    7  C8  UNL     1       2.552   0.629   0.217  1.00  0.00     0.161 C 
HETATM    8  N1  UNL     1       1.461  -0.274   0.244  1.00  0.00    -0.379 N 
HETATM    9  C9  UNL     1       1.287  -1.607  -0.208  1.00  0.00     0.129 A 
HETATM   10  C10 UNL     1      -0.015  -1.964  -0.530  1.00  0.00     0.160 A 
HETATM   11  N3  UNL     1      -0.373  -3.207  -0.965  1.00  0.00    -0.222 NA
HETATM   12  C23 UNL     1       0.616  -4.117  -1.079  1.00  0.00     0.238 A 
HETATM   13  N4  UNL     1       1.916  -3.819  -0.778  1.00  0.00    -0.215 NA
HETATM   14  C24 UNL     1       2.227  -2.582  -0.350  1.00  0.00     0.202 A 
HETATM   15  O2  UNL     1       3.587  -2.446  -0.088  1.00  0.00    -0.289 OA
HETATM   16  H9  UNL     1       0.571   0.102   0.701  1.00  0.00     0.160 HD
ENDROOT
BRANCH  10  17
HETATM   17  N2  UNL     1      -1.008  -0.953  -0.415  1.00  0.00    -0.338 N 
HETATM   18  H10 UNL     1      -0.727  -0.009  -0.761  1.00  0.00     0.167 HD
BRANCH  17  19
HETATM   19  C11 UNL     1      -2.310  -1.143   0.089  1.00  0.00     0.046 C 
HETATM   20  C12 UNL     1      -2.774  -2.225   0.669  1.00  0.00     0.015 C 
HETATM   21  C13 UNL     1      -4.001  -2.559   0.474  1.00  0.00    -0.011 C 
HETATM   22  C14 UNL     1      -4.840  -1.774  -0.151  1.00  0.00     0.025 C 
HETATM   23  C15 UNL     1      -4.563  -0.344  -0.129  1.00  0.00    -0.023 C 
HETATM   24  C16 UNL     1      -5.583   0.680  -0.191  1.00  0.00    -0.026 A 
HETATM   25  C22 UNL     1      -3.277  -0.043  -0.011  1.00  0.00     0.042 C 
HETATM   26  C17 UNL     1      -6.923   0.361  -0.321  1.00  0.00     0.012 A 
HETATM   27  C21 UNL     1      -5.209   2.003  -0.089  1.00  0.00     0.012 A 
HETATM   28  C18 UNL     1      -7.910   1.348  -0.350  1.00  0.00     0.001 A 
HETATM   29  C19 UNL     1      -7.493   2.667  -0.244  1.00  0.00     0.000 A 
HETATM   30  C20 UNL     1      -6.166   3.018  -0.114  1.00  0.00     0.001 A 
ENDBRANCH  17  19
ENDBRANCH  10  17
BRANCH   1  31
HETATM   31  O1  UNL     1       7.266   1.571   0.152  1.00  0.00    -0.356 OA
HETATM   32  C1  UNL     1       7.434   2.938   0.260  1.00  0.00     0.210 C 
ENDBRANCH   1  31
TORSDOF 3
