REMARK  8 active torsions:
REMARK  status: ('A' for Active; 'I' for Inactive)
REMARK    1  A    between atoms: C5_7  and  N3_8 
REMARK    2  A    between atoms: N3_8  and  C6_9 
REMARK    3  A    between atoms: C13_17  and  C14_18 
REMARK    4  A    between atoms: C14_18  and  N4_19 
REMARK    5  A    between atoms: N4_19  and  O1_20 
REMARK    6  A    between atoms: N4_19  and  C15_21 
REMARK    7  A    between atoms: C15_21  and  C16_22 
REMARK    8  A    between atoms: C17_24  and  C18_25 
ROOT
HETATM    1  C1  UNL     1      -0.198  -4.469   0.283  1.00  0.00     0.038 C 
HETATM    2  C2  UNL     1      -0.115  -2.992   0.385  1.00  0.00    -0.003 C 
HETATM    3  C3  UNL     1      -1.156  -2.193   0.214  1.00  0.00     0.044 A 
HETATM    4  N1  UNL     1      -2.334  -2.908  -0.073  1.00  0.00    -0.246 NA
HETATM    5  C4  UNL     1      -3.487  -2.379  -0.262  1.00  0.00     0.235 A 
HETATM    6  N2  UNL     1      -3.626  -0.977  -0.187  1.00  0.00    -0.228 NA
HETATM    7  C5  UNL     1      -2.579  -0.237   0.072  1.00  0.00     0.117 A 
HETATM    8  C13 UNL     1      -1.190  -0.730   0.294  1.00  0.00     0.122 A 
ENDROOT
BRANCH   8   9
HETATM    9  C14 UNL     1      -0.218  -0.099  -0.669  1.00  0.00     0.139 C 
BRANCH   9  10
HETATM   10  N4  UNL     1       1.118  -0.497  -0.378  1.00  0.00    -0.192 NA
BRANCH  10  11
HETATM   11  O1  UNL     1       1.966  -0.234  -1.396  1.00  0.00    -0.313 OA
HETATM   12  H16 UNL     1       2.311  -1.096  -1.725  1.00  0.00     0.237 HD
ENDBRANCH  10  11
BRANCH  10  13
HETATM   13  C15 UNL     1       1.653   0.046   0.857  1.00  0.00     0.189 C 
BRANCH  13  14
HETATM   14  C16 UNL     1       3.092  -0.467   1.040  1.00  0.00     0.110 A 
HETATM   15  N5  UNL     1       4.153   0.009   0.656  1.00  0.00    -0.227 NA
HETATM   16  C17 UNL     1       5.308  -0.578   0.913  1.00  0.00     0.139 A 
HETATM   17  N6  UNL     1       5.322  -1.749   1.629  1.00  0.00    -0.194 NA
HETATM   18  S1  UNL     1       3.494  -1.982   1.932  1.00  0.00     0.030 SA
BRANCH  16  19
HETATM   19  C18 UNL     1       6.544   0.082   0.400  1.00  0.00     0.050 C 
HETATM   20  C19 UNL     1       6.704   1.479   0.975  1.00  0.00     0.018 C 
HETATM   21  C20 UNL     1       6.505   0.220  -1.106  1.00  0.00     0.018 C 
ENDBRANCH  16  19
ENDBRANCH  13  14
ENDBRANCH  10  13
ENDBRANCH   9  10
ENDBRANCH   8   9
BRANCH   7  22
HETATM   22  N3  UNL     1      -2.721   1.183   0.150  1.00  0.00    -0.343 N 
HETATM   23  H6  UNL     1      -1.938   1.883   0.195  1.00  0.00     0.167 HD
BRANCH  22  24
HETATM   24  C6  UNL     1      -4.025   1.756   0.173  1.00  0.00     0.040 A 
HETATM   25  C7  UNL     1      -4.641   1.923   1.419  1.00  0.00     0.030 A 
HETATM   26  C8  UNL     1      -5.919   2.480   1.496  1.00  0.00     0.004 A 
HETATM   27  C9  UNL     1      -6.589   2.873   0.356  1.00  0.00     0.020 A 
HETATM   28  C10 UNL     1      -5.988   2.713  -0.884  1.00  0.00     0.019 A 
HETATM   29 BR1  UNL     1      -6.859   3.233  -2.495  1.00  0.00    -0.051 Br
HETATM   30  C11 UNL     1      -4.728   2.162  -0.948  1.00  0.00    -0.018 A 
HETATM   31  C12 UNL     1      -4.032   1.965  -2.236  1.00  0.00     0.052 C 
ENDBRANCH  22  24
ENDBRANCH   7  22
TORSDOF 8
