REMARK  7 active torsions:
REMARK  status: ('A' for Active; 'I' for Inactive)
REMARK    1  A    between atoms: C3_3  and  C4_4 
REMARK    2  A    between atoms: C3_3  and  N1_17 
REMARK    3  A    between atoms: C5_5  and  C6_7 
REMARK    4  A    between atoms: C6_7  and  O1_8 
REMARK    5  A    between atoms: O1_8  and  C7_9 
REMARK    6  A    between atoms: C7_9  and  C8_10 
REMARK    7  A    between atoms: N1_17  and  C14_18 
ROOT
HETATM    1  C4  UNL     1       1.103  -1.170  -0.968  1.00  0.00     0.050 C 
HETATM    2  C5  UNL     1       0.017  -1.037  -0.227  1.00  0.00     0.037 C 
HETATM    3 CL1  UNL     1       0.172  -0.027   1.190  1.00  0.00    -0.087 Cl
ENDROOT
BRANCH   1   4
HETATM    4  C3  UNL     1       2.439  -0.569  -0.743  1.00  0.00     0.026 C 
HETATM    5  C2  UNL     1       3.353  -0.832  -1.693  1.00  0.00    -0.002 C 
HETATM    6  C1  UNL     1       4.752  -0.540  -2.012  1.00  0.00     0.038 C 
BRANCH   4   7
HETATM    7  N1  UNL     1       2.789   0.212   0.370  1.00  0.00    -0.374 N 
HETATM    8  H14 UNL     1       2.173   1.028   0.083  1.00  0.00     0.161 HD
BRANCH   7   9
HETATM    9  C14 UNL     1       3.560   0.321   1.566  1.00  0.00     0.176 C 
HETATM   10  B1  UNL     1       3.247  -1.040   2.613  1.00  0.00     0.244 B 
HETATM   11  C15 UNL     1       5.346  -1.333   3.415  1.00  0.00    -0.086 C 
HETATM   12  C16 UNL     1       5.438  -0.036   3.639  1.00  0.00     0.134 C 
HETATM   13  N2  UNL     1       5.755   0.382   2.344  1.00  0.00    -0.167 NA
HETATM   14  N3  UNL     1       4.962   0.558   1.380  1.00  0.00    -0.179 NA
ENDBRANCH   7   9
ENDBRANCH   4   7
ENDBRANCH   1   4
BRANCH   2  15
HETATM   15  C6  UNL     1      -1.204  -1.766  -0.635  1.00  0.00     0.219 C 
BRANCH  15  16
HETATM   16  O1  UNL     1      -2.308  -1.012  -0.921  1.00  0.00    -0.381 OA
BRANCH  16  17
HETATM   17  C7  UNL     1      -2.720  -0.267   0.135  1.00  0.00     0.206 C 
BRANCH  17  18
HETATM   18  C8  UNL     1      -3.991   0.503  -0.194  1.00  0.00    -0.032 A 
HETATM   19  C9  UNL     1      -4.010   1.770  -0.734  1.00  0.00     0.009 A 
HETATM   20  C10 UNL     1      -5.218   2.380  -0.995  1.00  0.00     0.004 A 
HETATM   21  C11 UNL     1      -6.421   1.748  -0.725  1.00  0.00     0.042 A 
HETATM   22  C12 UNL     1      -6.398   0.469  -0.179  1.00  0.00     0.117 A 
HETATM   23  F1  UNL     1      -7.603  -0.109   0.068  1.00  0.00    -0.206 F 
HETATM   24  C13 UNL     1      -5.190  -0.146   0.084  1.00  0.00     0.051 A 
ENDBRANCH  17  18
ENDBRANCH  16  17
ENDBRANCH  15  16
ENDBRANCH   2  15
TORSDOF 7
