REMARK  3 active torsions:
REMARK  status: ('A' for Active; 'I' for Inactive)
REMARK    1  A    between atoms: S1_2  and  C2_3 
REMARK       I    between atoms: C2_3  and  N1_5 
REMARK    2  A    between atoms: C7_12  and  N4_13 
REMARK    3  A    between atoms: N4_13  and  C8_14 
ROOT
HETATM    1  C2  UNL     1      -2.833  -0.031   1.257  1.00  0.00     0.282 C 
HETATM    2  O1  UNL     1      -3.543  -0.493   2.205  1.00  0.00    -0.260 OA
HETATM    3  N1  UNL     1      -1.598  -0.682   1.512  1.00  0.00    -0.338 N 
HETATM    4  C3  UNL     1      -1.688  -1.539   2.680  1.00  0.00     0.155 C 
HETATM    5  C4  UNL     1      -0.293  -1.745   3.148  1.00  0.00     0.021 C 
HETATM    6  C5  UNL     1       0.834  -1.804   2.415  1.00  0.00     0.046 A 
HETATM    7  N2  UNL     1       2.122  -2.008   3.001  1.00  0.00    -0.246 NA
HETATM    8  C6  UNL     1       3.153  -2.024   2.205  1.00  0.00     0.235 A 
HETATM    9  N3  UNL     1       3.013  -1.846   0.800  1.00  0.00    -0.228 NA
HETATM   10  C7  UNL     1       1.824  -1.661   0.267  1.00  0.00     0.117 A 
HETATM   11  C14 UNL     1       0.551  -1.626   0.965  1.00  0.00     0.125 A 
HETATM   12  C15 UNL     1      -0.385  -0.509   0.691  1.00  0.00     0.145 C 
ENDROOT
BRANCH  10  13
HETATM   13  N4  UNL     1       1.840  -1.496  -1.154  1.00  0.00    -0.344 N 
HETATM   14  H8  UNL     1       1.031  -1.956  -1.667  1.00  0.00     0.167 HD
BRANCH  13  15
HETATM   15  C8  UNL     1       2.807  -0.795  -1.880  1.00  0.00     0.034 A 
HETATM   16  C9  UNL     1       3.874  -0.122  -1.391  1.00  0.00     0.029 A 
HETATM   17  C10 UNL     1       4.805   0.553  -2.160  1.00  0.00     0.004 A 
HETATM   18  C11 UNL     1       4.659   0.555  -3.530  1.00  0.00     0.019 A 
HETATM   19  C12 UNL     1       3.605  -0.105  -4.085  1.00  0.00     0.013 A 
HETATM   20 BR1  UNL     1       3.341  -0.143  -5.974  1.00  0.00    -0.051 Br
HETATM   21  C13 UNL     1       2.706  -0.761  -3.273  1.00  0.00     0.048 A 
ENDBRANCH  13  15
ENDBRANCH  10  13
BRANCH   1  22
HETATM   22  S1  UNL     1      -3.338   1.113   0.005  1.00  0.00    -0.076 SA
HETATM   23  C1  UNL     1      -4.007   0.361  -1.467  1.00  0.00     0.102 C 
HETATM   24  C16 UNL     1      -2.210   2.534  -0.266  1.00  0.00     0.090 C 
HETATM   25  C17 UNL     1      -2.505   3.286   1.014  1.00  0.00     0.058 C 
HETATM   26  C18 UNL     1      -3.967   3.197   1.129  1.00  0.00     0.097 C 
HETATM   27  N5  UNL     1      -4.674   2.241   0.722  1.00  0.00    -0.246 NA
ENDBRANCH   1  22
TORSDOF 3
