REMARK  3 active torsions:
REMARK  status: ('A' for Active; 'I' for Inactive)
REMARK    1  A    between atoms: N2_2  and  C1_3 
REMARK    2  A    between atoms: C5_10  and  N5_11 
REMARK    3  A    between atoms: N5_11  and  C6_12 
ROOT
HETATM    1  C1  UNL     1      -3.357  -1.003   0.373  1.00  0.00     0.073 A 
HETATM    2  C2  UNL     1      -4.077   0.045   0.720  1.00  0.00    -0.001 A 
HETATM    3  C3  UNL     1      -3.703   1.481   0.788  1.00  0.00     0.014 A 
HETATM    4  B1  UNL     1      -2.205   1.607   0.352  1.00  0.00     0.359 B 
HETATM    5  N3  UNL     1      -1.414   2.902   0.275  1.00  0.00    -0.341 NA
HETATM    6  C4  UNL     1      -0.181   2.766  -0.112  1.00  0.00     0.211 A 
HETATM    7  N4  UNL     1       0.540   1.594  -0.475  1.00  0.00    -0.227 NA
HETATM    8  C5  UNL     1      -0.001   0.401  -0.460  1.00  0.00     0.127 A 
HETATM    9  C12 UNL     1      -1.420   0.319  -0.044  1.00  0.00    -0.022 A 
HETATM   10  C13 UNL     1      -1.964  -0.876  -0.030  1.00  0.00     0.034 A 
ENDROOT
BRANCH   8  11
HETATM   11  N5  UNL     1       0.777  -0.756  -0.838  1.00  0.00    -0.341 N 
HETATM   12  H6  UNL     1       0.224  -1.506  -1.306  1.00  0.00     0.167 HD
BRANCH  11  13
HETATM   13  C6  UNL     1       2.169  -0.601  -0.475  1.00  0.00     0.035 A 
HETATM   14  C7  UNL     1       2.906  -0.056  -1.509  1.00  0.00     0.029 A 
HETATM   15  C8  UNL     1       4.259   0.182  -1.373  1.00  0.00     0.004 A 
HETATM   16  C9  UNL     1       4.872  -0.139  -0.164  1.00  0.00     0.024 A 
HETATM   17  C10 UNL     1       4.128  -0.674   0.839  1.00  0.00     0.036 A 
HETATM   18 CL1  UNL     1       4.838  -1.102   2.392  1.00  0.00    -0.084 Cl
HETATM   19  C11 UNL     1       2.784  -0.919   0.724  1.00  0.00     0.053 A 
ENDBRANCH  11  13
ENDBRANCH   8  11
BRANCH   1  20
HETATM   20  N2  UNL     1      -4.127  -2.203   0.455  1.00  0.00    -0.159 NA
HETATM   21  N1  UNL     1      -3.637  -3.354   0.324  1.00  0.00    -0.203 NA
HETATM   22  H1  UNL     1      -2.616  -3.445   0.146  1.00  0.00     0.212 HD
ENDBRANCH   1  20
TORSDOF 3
