REMARK  3 active torsions:
REMARK  status: ('A' for Active; 'I' for Inactive)
REMARK    1  A    between atoms: C1_2  and  C2_3 
REMARK       I    between atoms: C2_3  and  N2_5 
REMARK    2  A    between atoms: N2_5  and  C3_6 
REMARK    3  A    between atoms: N3_13  and  C10_14 
ROOT
HETATM    1  C3  UNL     1       2.849  -0.076   0.406  1.00  0.00     0.035 A 
HETATM    2  C4  UNL     1       3.078  -1.395   0.680  1.00  0.00     0.032 A 
HETATM    3  C5  UNL     1       2.118  -2.360   0.816  1.00  0.00     0.034 A 
HETATM    4  C6  UNL     1       0.793  -1.990   0.667  1.00  0.00     0.066 A 
HETATM    5  C7  UNL     1       0.492  -0.672   0.389  1.00  0.00    -0.007 A 
HETATM    6  C8  UNL     1       1.520   0.247   0.266  1.00  0.00     0.040 A 
HETATM    7  C9  UNL     1      -0.775   0.025   0.178  1.00  0.00     0.190 C 
HETATM    8  N3  UNL     1      -1.969  -0.711   0.370  1.00  0.00    -0.287 N 
HETATM    9  N4  UNL     1      -2.183  -1.958   0.962  1.00  0.00    -0.291 N 
HETATM   10  C16 UNL     1      -1.350  -3.092   0.962  1.00  0.00     0.224 C 
HETATM   11  N5  UNL     1      -0.089  -3.090   0.836  1.00  0.00    -0.242 NA
HETATM   12  H13 UNL     1      -3.104  -2.056   1.484  1.00  0.00     0.188 HD
ENDROOT
BRANCH   1  13
HETATM   13  N2  UNL     1       3.824   0.932   0.264  1.00  0.00    -0.322 N 
HETATM   14  C2  UNL     1       5.221   0.835   0.366  1.00  0.00     0.262 C 
HETATM   15  O1  UNL     1       5.736  -0.263   0.616  1.00  0.00    -0.267 OA
HETATM   16  H3  UNL     1       3.514   1.912   0.050  1.00  0.00     0.169 HD
BRANCH  14  17
HETATM   17  C1  UNL     1       6.116   1.981   0.191  1.00  0.00     0.181 C 
HETATM   18  N1  UNL     1       5.614   3.121  -0.066  1.00  0.00    -0.307 NA
HETATM   19  H1  UNL     1       6.207   3.969  -0.200  1.00  0.00     0.186 HD
ENDBRANCH  14  17
ENDBRANCH   1  13
BRANCH   8  20
HETATM   20  C10 UNL     1      -3.121  -0.039  -0.127  1.00  0.00     0.052 A 
HETATM   21  C11 UNL     1      -4.384  -0.590  -0.186  1.00  0.00     0.031 A 
HETATM   22  C12 UNL     1      -5.503   0.042  -0.655  1.00  0.00     0.004 A 
HETATM   23  C13 UNL     1      -5.391   1.334  -1.114  1.00  0.00     0.019 A 
HETATM   24  C14 UNL     1      -4.153   1.968  -1.093  1.00  0.00     0.013 A 
HETATM   25 BR1  UNL     1      -4.016   3.740  -1.726  1.00  0.00    -0.051 Br
HETATM   26  C15 UNL     1      -3.081   1.254  -0.602  1.00  0.00     0.050 A 
ENDBRANCH   8  20
TORSDOF 3
