REMARK  4 active torsions:
REMARK  status: ('A' for Active; 'I' for Inactive)
REMARK    1  A    between atoms: C2_2  and  C4_4 
REMARK    2  A    between atoms: C5_7  and  C6_8 
REMARK       I    between atoms: C6_8  and  N2_10 
REMARK    3  A    between atoms: N2_10  and  C7_11 
REMARK    4  A    between atoms: C11_15  and  C12_16 
ROOT
HETATM    1  C7  UNL     1      -0.720   1.195   0.154  1.00  0.00     0.038 A 
HETATM    2  C8  UNL     1      -0.963   1.443   1.509  1.00  0.00     0.063 A 
HETATM    3  C9  UNL     1      -2.177   1.136   2.080  1.00  0.00     0.080 A 
HETATM    4  C10 UNL     1      -3.150   0.572   1.270  1.00  0.00     0.097 A 
HETATM    5  C11 UNL     1      -2.914   0.325  -0.072  1.00  0.00     0.007 A 
HETATM    6  C18 UNL     1      -1.705   0.637  -0.618  1.00  0.00     0.044 A 
HETATM    7  N3  UNL     1      -4.425   0.229   1.787  1.00  0.00    -0.240 NA
HETATM    8  C19 UNL     1      -4.719   0.429   3.025  1.00  0.00     0.224 A 
HETATM    9  N4  UNL     1      -3.777   0.999   3.911  1.00  0.00    -0.294 N 
HETATM   10  N5  UNL     1      -2.492   1.361   3.450  1.00  0.00    -0.297 N 
HETATM   11  H16 UNL     1      -3.914   1.201   4.919  1.00  0.00     0.187 HD
HETATM   12  H17 UNL     1      -1.757   1.788   4.071  1.00  0.00     0.187 HD
ENDROOT
BRANCH   1  13
HETATM   13  N2  UNL     1       0.610   1.600  -0.200  1.00  0.00    -0.321 N 
HETATM   14  C6  UNL     1       1.520   0.528  -0.020  1.00  0.00     0.283 C 
HETATM   15  O1  UNL     1       0.988  -0.541   0.406  1.00  0.00    -0.265 OA
HETATM   16  H8  UNL     1       1.004   2.511  -0.553  1.00  0.00     0.169 HD
BRANCH  14  17
HETATM   17  C5  UNL     1       2.951   0.658  -0.306  1.00  0.00     0.185 A 
HETATM   18  S1  UNL     1       3.692   2.156  -0.901  1.00  0.00     0.039 SA
HETATM   19  N1  UNL     1       5.416   1.412  -0.963  1.00  0.00    -0.194 NA
HETATM   20  C4  UNL     1       5.068   0.059  -0.480  1.00  0.00     0.139 A 
HETATM   21  N6  UNL     1       3.797  -0.249  -0.166  1.00  0.00    -0.218 NA
BRANCH  20  22
HETATM   22  C2  UNL     1       6.264  -0.820  -0.410  1.00  0.00     0.050 C 
HETATM   23  C1  UNL     1       7.283  -0.295   0.579  1.00  0.00     0.018 C 
HETATM   24  C3  UNL     1       6.925  -0.956  -1.753  1.00  0.00     0.018 C 
ENDBRANCH  20  22
ENDBRANCH  14  17
ENDBRANCH   1  13
BRANCH   5  25
HETATM   25  C12 UNL     1      -3.877  -0.263  -0.997  1.00  0.00    -0.022 A 
HETATM   26  C13 UNL     1      -4.161   0.172  -2.278  1.00  0.00     0.012 A 
HETATM   27  C14 UNL     1      -5.078  -0.438  -3.078  1.00  0.00     0.002 A 
HETATM   28  C15 UNL     1      -5.768  -1.540  -2.610  1.00  0.00     0.019 A 
HETATM   29  C16 UNL     1      -5.525  -2.019  -1.335  1.00  0.00     0.011 A 
HETATM   30 BR1  UNL     1      -6.483  -3.553  -0.679  1.00  0.00    -0.051 Br
HETATM   31  C17 UNL     1      -4.587  -1.377  -0.548  1.00  0.00     0.031 A 
ENDBRANCH   5  25
TORSDOF 4
