REMARK  5 active torsions:
REMARK  status: ('A' for Active; 'I' for Inactive)
REMARK    1  A    between atoms: C1_2  and  C2_3 
REMARK       I    between atoms: C1_2  and  N1_11 
REMARK    2  A    between atoms: C2_3  and  O2_4 
REMARK    3  A    between atoms: O2_4  and  C3_5 
REMARK    4  A    between atoms: C13_18  and  N4_19 
REMARK    5  A    between atoms: N4_19  and  C14_20 
ROOT
HETATM    1  O1  UNL     1      -2.821   0.930   1.135  1.00  0.00    -0.271 OA
HETATM    2  C1  UNL     1      -2.016   0.156   0.510  1.00  0.00     0.244 C 
HETATM    3  N1  UNL     1      -0.894   0.988   0.390  1.00  0.00    -0.342 N 
HETATM    4  C9  UNL     1      -1.122   2.277   0.990  1.00  0.00     0.155 C 
HETATM    5  C10 UNL     1       0.182   2.930   1.232  1.00  0.00     0.025 C 
HETATM    6  C11 UNL     1       1.384   2.545   0.849  1.00  0.00     0.067 A 
HETATM    7  N2  UNL     1       2.529   3.319   1.186  1.00  0.00    -0.244 NA
HETATM    8  C12 UNL     1       3.721   2.963   0.821  1.00  0.00     0.209 A 
HETATM    9  N3  UNL     1       3.843   1.758   0.064  1.00  0.00    -0.336 N 
HETATM   10  C13 UNL     1       2.705   0.963  -0.287  1.00  0.00     0.117 A 
HETATM   11  C20 UNL     1       1.488   1.314   0.078  1.00  0.00     0.032 A 
HETATM   12  C21 UNL     1       0.297   0.501  -0.277  1.00  0.00     0.171 C 
HETATM   13  H12 UNL     1       4.835   1.545  -0.188  1.00  0.00     0.168 HD
ENDROOT
BRANCH   2  14
HETATM   14  C2  UNL     1      -2.236  -1.236   0.050  1.00  0.00     0.278 C 
BRANCH  14  15
HETATM   15  O2  UNL     1      -3.536  -1.632   0.389  1.00  0.00    -0.342 OA
BRANCH  15  16
HETATM   16  C3  UNL     1      -4.693  -1.026  -0.060  1.00  0.00     0.069 A 
HETATM   17  C4  UNL     1      -4.919   0.031  -0.891  1.00  0.00     0.037 A 
HETATM   18  C5  UNL     1      -6.169   0.466  -1.199  1.00  0.00     0.003 A 
HETATM   19  C6  UNL     1      -7.271  -0.168  -0.663  1.00  0.00     0.000 A 
HETATM   20  C7  UNL     1      -7.095  -1.243   0.183  1.00  0.00     0.003 A 
HETATM   21  C8  UNL     1      -5.804  -1.676   0.488  1.00  0.00     0.037 A 
ENDBRANCH  15  16
ENDBRANCH  14  15
ENDBRANCH   2  14
BRANCH  10  22
HETATM   22  N4  UNL     1       2.924  -0.221  -1.041  1.00  0.00    -0.342 N 
HETATM   23  H13 UNL     1       2.531  -0.649  -1.905  1.00  0.00     0.167 HD
BRANCH  22  24
HETATM   24  C14 UNL     1       3.940  -1.040  -0.478  1.00  0.00     0.034 A 
HETATM   25  C15 UNL     1       3.549  -1.973   0.488  1.00  0.00     0.029 A 
HETATM   26  C16 UNL     1       4.504  -2.800   1.070  1.00  0.00     0.004 A 
HETATM   27  C17 UNL     1       5.840  -2.705   0.698  1.00  0.00     0.019 A 
HETATM   28  C18 UNL     1       6.237  -1.789  -0.253  1.00  0.00     0.013 A 
HETATM   29 BR1  UNL     1       8.057  -1.641  -0.776  1.00  0.00    -0.051 Br
HETATM   30  C19 UNL     1       5.276  -0.978  -0.819  1.00  0.00     0.048 A 
ENDBRANCH  22  24
ENDBRANCH  10  22
TORSDOF 5
