REMARK  6 active torsions:
REMARK  status: ('A' for Active; 'I' for Inactive)
REMARK    1  A    between atoms: N1_1  and  C1_2 
REMARK    2  A    between atoms: C2_3  and  C3_4 
REMARK    3  A    between atoms: C3_4  and  C4_6 
REMARK    4  A    between atoms: C4_6  and  O2_7 
REMARK    5  A    between atoms: O2_7  and  C5_8 
REMARK    6  A    between atoms: N4_21  and  C16_22 
ROOT
HETATM    1  C1  UNL     1      -0.583  -0.397   1.201  1.00  0.00     0.220 C 
HETATM    2  C2  UNL     1      -0.394   0.422  -0.038  1.00  0.00     0.032 C 
HETATM    3  C11 UNL     1      -0.789   1.670  -0.057  1.00  0.00     0.016 C 
HETATM    4  C12 UNL     1      -1.410   2.450   0.978  1.00  0.00     0.014 C 
HETATM    5  C13 UNL     1      -1.799   2.329   2.224  1.00  0.00     0.217 C 
HETATM    6  N2  UNL     1      -2.296   2.412   3.578  1.00  0.00    -0.278 NA
HETATM    7  C14 UNL     1      -3.447   1.761   3.759  1.00  0.00     0.173 C 
HETATM    8  N3  UNL     1      -3.740   1.219   2.501  1.00  0.00    -0.245 NA
HETATM    9  C15 UNL     1      -3.075   0.389   1.809  1.00  0.00     0.212 C 
HETATM   10  N4  UNL     1      -1.967  -0.446   1.596  1.00  0.00    -0.325 N 
ENDROOT
BRANCH   2  11
HETATM   11  C3  UNL     1       0.243  -0.110  -1.221  1.00  0.00     0.183 C 
HETATM   12  O1  UNL     1       0.612  -1.308  -1.184  1.00  0.00    -0.290 OA
BRANCH  11  13
HETATM   13  C4  UNL     1       0.466   0.709  -2.463  1.00  0.00     0.259 C 
BRANCH  13  14
HETATM   14  O2  UNL     1       1.204  -0.056  -3.389  1.00  0.00    -0.344 OA
BRANCH  14  15
HETATM   15  C5  UNL     1       2.489  -0.491  -3.103  1.00  0.00     0.069 A 
HETATM   16  C6  UNL     1       3.072  -0.150  -1.898  1.00  0.00     0.037 A 
HETATM   17  C7  UNL     1       4.358  -0.549  -1.538  1.00  0.00     0.003 A 
HETATM   18  C8  UNL     1       5.030  -1.330  -2.493  1.00  0.00     0.000 A 
HETATM   19  C9  UNL     1       4.422  -1.646  -3.676  1.00  0.00     0.003 A 
HETATM   20  C10 UNL     1       3.143  -1.250  -4.033  1.00  0.00     0.037 A 
ENDBRANCH  14  15
ENDBRANCH  13  14
ENDBRANCH  11  13
ENDBRANCH   2  11
BRANCH   1  21
HETATM   21  N1  UNL     1       0.256   0.064   2.235  1.00  0.00    -0.407 N 
HETATM   22  H1  UNL     1       1.157   0.475   1.992  1.00  0.00     0.152 HD
HETATM   23  H2  UNL     1       0.218  -0.489   3.118  1.00  0.00     0.152 HD
ENDBRANCH   1  21
BRANCH  10  24
HETATM   24  C16 UNL     1      -2.778  -1.545   1.986  1.00  0.00     0.106 C 
HETATM   25  C17 UNL     1      -3.271  -2.258   0.976  1.00  0.00     0.102 C 
HETATM   26 CL1  UNL     1      -3.062  -2.036  -0.753  1.00  0.00    -0.096 Cl
ENDBRANCH  10  24
TORSDOF 6
