REMARK  8 active torsions:
REMARK  status: ('A' for Active; 'I' for Inactive)
REMARK    1  A    between atoms: O1_1  and  C1_2 
REMARK    2  A    between atoms: C6_7  and  O2_8 
REMARK    3  A    between atoms: O2_8  and  C7_9 
REMARK    4  A    between atoms: C7_9  and  O3_10 
REMARK    5  A    between atoms: O3_10  and  C8_11 
REMARK    6  A    between atoms: C8_11  and  N1_12 
REMARK    7  A    between atoms: N1_12  and  C9_13 
REMARK    8  A    between atoms: N4_22  and  C16_23 
ROOT
HETATM    1  C9  UNL     1       0.803   0.790  -0.386  1.00  0.00     0.008 C 
HETATM    2  C10 UNL     1       1.964   0.167  -0.257  1.00  0.00     0.031 C 
HETATM    3  C11 UNL     1       3.020   0.994   0.402  1.00  0.00     0.184 A 
HETATM    4  C12 UNL     1       2.383   1.515   1.648  1.00  0.00     0.061 A 
HETATM    5  C13 UNL     1       1.212   2.123   1.524  1.00  0.00     0.009 C 
HETATM    6  C14 UNL     1       0.689   2.202   0.126  1.00  0.00     0.085 C 
HETATM    7  N2  UNL     1       3.020   1.356   2.911  1.00  0.00    -0.245 NA
HETATM    8  C15 UNL     1       4.131   0.714   3.059  1.00  0.00     0.223 A 
HETATM    9  N3  UNL     1       4.782   0.123   1.940  1.00  0.00    -0.291 N 
HETATM   10  N4  UNL     1       4.207   0.243   0.670  1.00  0.00    -0.281 N 
HETATM   11  H17 UNL     1       5.680  -0.388   2.105  1.00  0.00     0.188 HD
ENDROOT
BRANCH   1  12
HETATM   12  N1  UNL     1      -0.352   0.206  -0.983  1.00  0.00    -0.372 N 
HETATM   13  H10 UNL     1      -0.368   0.063  -2.016  1.00  0.00     0.161 HD
BRANCH  12  14
HETATM   14  C8  UNL     1      -1.277  -0.055   0.112  1.00  0.00     0.293 C 
BRANCH  14  15
HETATM   15  O3  UNL     1      -2.451  -0.628  -0.339  1.00  0.00    -0.348 OA
BRANCH  15  16
HETATM   16  C7  UNL     1      -3.069   0.231  -1.240  1.00  0.00     0.347 C 
BRANCH  16  17
HETATM   17  O2  UNL     1      -4.271  -0.349  -1.705  1.00  0.00    -0.323 OA
BRANCH  17  18
HETATM   18  C6  UNL     1      -5.295  -0.677  -0.826  1.00  0.00     0.104 A 
HETATM   19  C1  UNL     1      -6.448  -1.241  -1.332  1.00  0.00     0.099 A 
HETATM   20  C2  UNL     1      -7.432  -1.549  -0.430  1.00  0.00     0.039 A 
HETATM   21  C3  UNL     1      -7.335  -1.331   0.930  1.00  0.00     0.003 A 
HETATM   22  C4  UNL     1      -6.188  -0.770   1.437  1.00  0.00     0.003 A 
HETATM   23  C5  UNL     1      -5.184  -0.453   0.538  1.00  0.00     0.040 A 
BRANCH  19  24
HETATM   24  O1  UNL     1      -6.537  -1.456  -2.697  1.00  0.00    -0.358 OA
HETATM   25  H1  UNL     1      -7.058  -2.258  -3.051  1.00  0.00     0.217 HD
ENDBRANCH  19  24
ENDBRANCH  17  18
ENDBRANCH  16  17
ENDBRANCH  15  16
ENDBRANCH  14  15
ENDBRANCH  12  14
ENDBRANCH   1  12
BRANCH  10  26
HETATM   26  C16 UNL     1       4.811  -0.407  -0.445  1.00  0.00     0.033 A 
HETATM   27  C17 UNL     1       4.958  -1.645  -0.879  1.00  0.00     0.027 A 
HETATM   28  C18 UNL     1       5.699  -1.697  -2.136  1.00  0.00    -0.002 A 
HETATM   29  C19 UNL     1       6.001  -0.445  -2.458  1.00  0.00    -0.021 A 
HETATM   30  C20 UNL     1       5.472   0.493  -1.425  1.00  0.00     0.086 A 
ENDBRANCH  10  26
TORSDOF 8
