REMARK  0 active torsions:
REMARK  status: ('A' for Active; 'I' for Inactive)
ROOT
HETATM    1  C1  UNL     1      -4.713  -1.850  -0.330  1.00  0.00     0.051 C 
HETATM    2  C2  UNL     1      -3.373  -2.041  -0.926  1.00  0.00    -0.029 A 
HETATM    3  C3  UNL     1      -3.055  -3.048  -1.789  1.00  0.00     0.012 A 
HETATM    4  C4  UNL     1      -1.804  -3.217  -2.341  1.00  0.00     0.032 A 
HETATM    5  C5  UNL     1      -0.871  -2.278  -1.955  1.00  0.00     0.060 A 
HETATM    6  C6  UNL     1      -1.216  -1.241  -1.060  1.00  0.00     0.069 A 
HETATM    7  C7  UNL     1      -2.487  -1.079  -0.506  1.00  0.00     0.077 A 
HETATM    8  O1  UNL     1      -2.509  -0.001   0.312  1.00  0.00    -0.343 OA
HETATM    9  C8  UNL     1      -3.365   0.405   1.308  1.00  0.00     0.255 C 
HETATM   10  C9  UNL     1      -2.791   1.710   1.832  1.00  0.00     0.166 C 
HETATM   11  O2  UNL     1      -3.481   2.186   2.743  1.00  0.00    -0.294 OA
HETATM   12  C10 UNL     1      -1.552   2.397   1.359  1.00  0.00     0.057 C 
HETATM   13  C11 UNL     1      -1.314   3.555   2.273  1.00  0.00     0.032 C 
HETATM   14  C12 UNL     1      -1.746   2.916  -0.036  1.00  0.00    -0.003 C 
HETATM   15  C13 UNL     1      -0.512   2.895  -0.540  1.00  0.00     0.028 C 
HETATM   16  C14 UNL     1       0.307   1.988   0.271  1.00  0.00     0.045 C 
HETATM   17  C15 UNL     1      -0.426   1.475   1.245  1.00  0.00     0.025 C 
HETATM   18  N1  UNL     1       1.649   1.861  -0.144  1.00  0.00    -0.301 N 
HETATM   19  N2  UNL     1       2.673   1.173  -0.746  1.00  0.00    -0.298 N 
HETATM   20  C16 UNL     1       3.605   0.139  -0.497  1.00  0.00     0.076 A 
HETATM   21  C17 UNL     1       4.729   0.730   0.103  1.00  0.00     0.052 A 
HETATM   22  C18 UNL     1       5.867   0.015   0.508  1.00  0.00     0.013 A 
HETATM   23 BR1  UNL     1       7.379   0.863   1.323  1.00  0.00    -0.051 Br
HETATM   24  C19 UNL     1       5.896  -1.336   0.316  1.00  0.00     0.021 A 
HETATM   25  C20 UNL     1       4.786  -1.901  -0.275  1.00  0.00     0.033 A 
HETATM   26  C21 UNL     1       3.663  -1.219  -0.680  1.00  0.00     0.061 A 
HETATM   27  N3  UNL     1       2.727  -2.095  -1.264  1.00  0.00    -0.349 N 
HETATM   28  C22 UNL     1       1.324  -2.165  -1.324  1.00  0.00     0.208 C 
HETATM   29  N4  UNL     1       0.522  -2.215  -2.383  1.00  0.00    -0.244 NA
HETATM   30  H15 UNL     1       2.257   2.701   0.100  1.00  0.00     0.187 HD
HETATM   31  H16 UNL     1       3.009   1.374  -1.709  1.00  0.00     0.187 HD
HETATM   32  H20 UNL     1       2.963  -2.941  -1.815  1.00  0.00     0.167 HD
ENDROOT
TORSDOF 0
