REMARK  0 active torsions:
REMARK  status: ('A' for Active; 'I' for Inactive)
ROOT
HETATM    1  C1  UNL     1      -3.730  -0.165  -1.545  1.00  0.00     0.027 C 
HETATM    2  C2  UNL     1      -2.874  -0.112  -0.289  1.00  0.00     0.024 A 
HETATM    3  C3  UNL     1      -1.673  -0.966  -0.439  1.00  0.00    -0.010 C 
HETATM    4  C4  UNL     1      -1.099  -2.141  -0.320  1.00  0.00    -0.002 C 
HETATM    5  C5  UNL     1       0.070  -2.965  -0.467  1.00  0.00     0.017 C 
HETATM    6  C6  UNL     1       1.251  -2.630  -0.904  1.00  0.00     0.089 C 
HETATM    7  N1  UNL     1       2.066  -1.582  -1.407  1.00  0.00    -0.353 N 
HETATM    8  C7  UNL     1       2.897  -0.823  -0.496  1.00  0.00     0.125 C 
HETATM    9  N2  UNL     1       3.913  -1.617  -0.430  1.00  0.00    -0.271 NA
HETATM   10  C8  UNL     1       5.019  -1.171   0.439  1.00  0.00     0.178 C 
HETATM   11  C9  UNL     1       5.238   0.258  -0.004  1.00  0.00    -0.007 C 
HETATM   12  C10 UNL     1       4.225   1.113  -0.087  1.00  0.00     0.003 C 
HETATM   13  C11 UNL     1       2.953   0.442   0.307  1.00  0.00     0.176 C 
HETATM   14  N3  UNL     1       1.791   1.244   0.117  1.00  0.00    -0.344 N 
HETATM   15  C12 UNL     1       0.961   2.372  -0.142  1.00  0.00     0.242 C 
HETATM   16  O1  UNL     1       2.069   2.948  -0.239  1.00  0.00    -0.271 OA
HETATM   17  C13 UNL     1      -0.530   2.608  -0.227  1.00  0.00     0.271 C 
HETATM   18  O2  UNL     1      -1.061   1.343   0.028  1.00  0.00    -0.371 OA
HETATM   19  C14 UNL     1      -2.426   1.305  -0.015  1.00  0.00     0.160 A 
HETATM   20  C15 UNL     1      -2.929   1.714   1.319  1.00  0.00     0.009 A 
HETATM   21  C16 UNL     1      -3.633   1.185   2.277  1.00  0.00     0.040 A 
HETATM   22  C17 UNL     1      -4.069  -0.178   2.014  1.00  0.00     0.113 A 
HETATM   23  F1  UNL     1      -4.807  -0.885   2.889  1.00  0.00    -0.206 F 
HETATM   24  C18 UNL     1      -3.661  -0.619   0.846  1.00  0.00     0.031 A 
HETATM   25  H8  UNL     1       2.159  -1.261  -2.397  1.00  0.00     0.166 HD
HETATM   26  H14 UNL     1       1.024   0.553   0.281  1.00  0.00     0.163 HD
ENDROOT
TORSDOF 0
