REMARK  9 active torsions:
REMARK  status: ('A' for Active; 'I' for Inactive)
REMARK    1  A    between atoms: C2_3  and  C3_4 
REMARK    2  A    between atoms: C2_3  and  N5_15 
REMARK    3  A    between atoms: C6_9  and  N4_10 
REMARK    4  A    between atoms: N4_10  and  C7_11 
REMARK    5  A    between atoms: C7_11  and  C8_12 
REMARK    6  A    between atoms: C8_12  and  C9_13 
REMARK       I    between atoms: N5_15  and  C10_16 
REMARK    7  A    between atoms: C10_16  and  C11_18 
REMARK    8  A    between atoms: C11_18  and  O2_19 
REMARK    9  A    between atoms: O2_19  and  C12_20 
ROOT
HETATM    1  C1  UNL     1       0.217   2.404  -1.599  1.00  0.00     0.179 C 
HETATM    2  N1  UNL     1       0.845   1.510  -0.619  1.00  0.00    -0.278 NA
HETATM    3  C2  UNL     1       0.061   0.778   0.132  1.00  0.00     0.126 C 
ENDROOT
BRANCH   3   4
HETATM    4  C3  UNL     1      -1.390   0.816   0.035  1.00  0.00     0.085 C 
HETATM    5  C4  UNL     1      -2.276   0.134   0.729  1.00  0.00     0.107 A 
HETATM    6  N2  UNL     1      -2.075  -0.822   1.759  1.00  0.00    -0.238 NA
HETATM    7  C6  UNL     1      -3.715   0.218   0.580  1.00  0.00     0.154 A 
HETATM    8  C5  UNL     1      -3.231  -1.234   2.151  1.00  0.00     0.236 A 
HETATM    9  N3  UNL     1      -4.248  -0.577   1.407  1.00  0.00    -0.222 NA
BRANCH   7  10
HETATM   10  N4  UNL     1      -4.437   1.055  -0.344  1.00  0.00    -0.369 N 
HETATM   11  H6  UNL     1      -3.987   1.979  -0.604  1.00  0.00     0.161 HD
BRANCH  10  12
HETATM   12  C7  UNL     1      -5.718   0.633  -0.882  1.00  0.00     0.149 C 
BRANCH  12  13
HETATM   13  C8  UNL     1      -6.290   1.637  -1.807  1.00  0.00    -0.000 C 
BRANCH  13  14
HETATM   14  C9  UNL     1      -7.483   2.186  -1.528  1.00  0.00     0.053 C 
HETATM   15 BR1  UNL     1      -9.126   3.166  -1.463  1.00  0.00    -0.064 Br
ENDBRANCH  13  14
ENDBRANCH  12  13
ENDBRANCH  10  12
ENDBRANCH   7  10
ENDBRANCH   3   4
BRANCH   3  16
HETATM   16  N5  UNL     1       0.809  -0.031   1.023  1.00  0.00    -0.310 N 
HETATM   17  C10 UNL     1       2.228  -0.102   1.144  1.00  0.00     0.247 C 
HETATM   18  O1  UNL     1       2.839   0.673   0.333  1.00  0.00    -0.271 OA
HETATM   19  H11 UNL     1       0.268  -0.659   1.679  1.00  0.00     0.170 HD
BRANCH  17  20
HETATM   20  C11 UNL     1       2.827  -1.035   2.164  1.00  0.00     0.278 C 
BRANCH  20  21
HETATM   21  O2  UNL     1       4.227  -0.909   2.068  1.00  0.00    -0.342 OA
BRANCH  21  22
HETATM   22  C12 UNL     1       4.949  -1.211   0.939  1.00  0.00     0.069 A 
HETATM   23  C13 UNL     1       4.510  -1.687  -0.278  1.00  0.00     0.037 A 
HETATM   24  C14 UNL     1       5.331  -1.953  -1.345  1.00  0.00     0.003 A 
HETATM   25  C15 UNL     1       6.689  -1.732  -1.197  1.00  0.00     0.000 A 
HETATM   26  C16 UNL     1       7.149  -1.259   0.005  1.00  0.00     0.003 A 
HETATM   27  C17 UNL     1       6.320  -0.990   1.083  1.00  0.00     0.037 A 
ENDBRANCH  21  22
ENDBRANCH  20  21
ENDBRANCH  17  20
ENDBRANCH   3  16
TORSDOF 9
