REMARK  9 active torsions:
REMARK  status: ('A' for Active; 'I' for Inactive)
REMARK    1  A    between atoms: C2_2  and  C3_3 
REMARK    2  A    between atoms: C5_7  and  N3_8 
REMARK    3  A    between atoms: N3_8  and  C6_9 
REMARK    4  A    between atoms: C9_13  and  C10_14 
REMARK    5  A    between atoms: C10_14  and  C11_15 
REMARK    6  A    between atoms: C11_15  and  N5_16 
REMARK       I    between atoms: N5_16  and  C12_17 
REMARK    7  A    between atoms: C12_17  and  C13_19 
REMARK    8  A    between atoms: C13_19  and  O2_20 
REMARK    9  A    between atoms: O2_20  and  C14_21 
ROOT
HETATM    1  C6  UNL     1      -2.656   3.797  -0.325  1.00  0.00     0.100 C 
HETATM    2  C7  UNL     1      -3.449   4.447   0.542  1.00  0.00     0.110 C 
HETATM    3  C8  UNL     1      -3.654   3.731   1.791  1.00  0.00     0.089 C 
HETATM    4  N4  UNL     1      -3.824   3.176   2.797  1.00  0.00    -0.192 NA
ENDROOT
BRANCH   1   5
HETATM    5  N3  UNL     1      -2.203   2.553   0.191  1.00  0.00    -0.349 N 
HETATM    6  H6  UNL     1      -1.360   2.835   0.723  1.00  0.00     0.166 HD
BRANCH   5   7
HETATM    7  C5  UNL     1      -2.916   1.372  -0.105  1.00  0.00     0.141 A 
HETATM    8  N2  UNL     1      -4.008   1.496  -0.874  1.00  0.00    -0.224 NA
HETATM    9  C4  UNL     1      -4.755   0.434  -1.212  1.00  0.00     0.235 A 
HETATM   10  N1  UNL     1      -4.431  -0.799  -0.787  1.00  0.00    -0.241 NA
HETATM   11  C3  UNL     1      -3.346  -0.977  -0.013  1.00  0.00     0.068 A 
HETATM   12  C9  UNL     1      -2.583   0.110   0.331  1.00  0.00     0.036 A 
BRANCH  11  13
HETATM   13  C2  UNL     1      -3.148  -2.229   0.325  1.00  0.00     0.002 C 
HETATM   14  C1  UNL     1      -4.108  -3.249  -0.169  1.00  0.00     0.038 C 
ENDBRANCH  11  13
BRANCH  12  15
HETATM   15  C10 UNL     1      -1.529  -0.044   1.087  1.00  0.00     0.010 C 
BRANCH  15  16
HETATM   16  C11 UNL     1      -0.573  -0.812   1.878  1.00  0.00     0.151 C 
BRANCH  16  17
HETATM   17  N5  UNL     1       0.752  -0.740   1.230  1.00  0.00    -0.356 N 
HETATM   18  C12 UNL     1       0.814  -1.252  -0.095  1.00  0.00     0.242 C 
HETATM   19  O1  UNL     1      -0.125  -1.753  -0.766  1.00  0.00    -0.271 OA
HETATM   20  H12 UNL     1       1.666  -0.370   1.588  1.00  0.00     0.162 HD
BRANCH  18  21
HETATM   21  C13 UNL     1       2.087  -1.252  -0.891  1.00  0.00     0.278 C 
BRANCH  21  22
HETATM   22  O2  UNL     1       3.077  -0.686  -0.086  1.00  0.00    -0.342 OA
BRANCH  22  23
HETATM   23  C14 UNL     1       4.399  -0.514  -0.481  1.00  0.00     0.069 A 
HETATM   24  C15 UNL     1       4.988  -0.847  -1.687  1.00  0.00     0.040 A 
HETATM   25  C16 UNL     1       6.331  -0.590  -1.880  1.00  0.00     0.045 A 
HETATM   26  C17 UNL     1       7.063  -0.003  -0.864  1.00  0.00     0.116 A 
HETATM   27  F1  UNL     1       8.399   0.242  -1.084  1.00  0.00    -0.206 F 
HETATM   28  C18 UNL     1       6.509   0.343   0.352  1.00  0.00     0.045 A 
HETATM   29  C19 UNL     1       5.167   0.078   0.527  1.00  0.00     0.040 A 
ENDBRANCH  22  23
ENDBRANCH  21  22
ENDBRANCH  18  21
ENDBRANCH  16  17
ENDBRANCH  15  16
ENDBRANCH  12  15
ENDBRANCH   5   7
ENDBRANCH   1   5
TORSDOF 9
