REMARK  0 active torsions:
REMARK  status: ('A' for Active; 'I' for Inactive)
ROOT
HETATM    1  F1  UNL     1      -5.860   0.237  -0.562  1.00  0.00    -0.241 F 
HETATM    2  C1  UNL     1      -4.905  -0.114   0.395  1.00  0.00     0.217 A 
HETATM    3  C2  UNL     1      -4.186  -1.353   0.027  1.00  0.00     0.015 A 
HETATM    4  C3  UNL     1      -2.920  -1.005  -0.030  1.00  0.00     0.012 A 
HETATM    5  C4  UNL     1      -2.634   0.382   0.263  1.00  0.00    -0.006 A 
HETATM    6  C5  UNL     1      -1.508   1.277   0.284  1.00  0.00     0.099 A 
HETATM    7  N1  UNL     1      -1.705   2.611   0.309  1.00  0.00    -0.239 NA
HETATM    8  C6  UNL     1      -0.686   3.485   0.313  1.00  0.00     0.236 A 
HETATM    9  N2  UNL     1       0.603   3.143   0.295  1.00  0.00    -0.215 NA
HETATM   10  C7  UNL     1       0.886   1.808   0.271  1.00  0.00     0.200 A 
HETATM   11  C8  UNL     1      -0.186   0.895   0.269  1.00  0.00     0.112 A 
HETATM   12  N3  UNL     1      -0.067  -0.546   0.334  1.00  0.00    -0.380 N 
HETATM   13  C9  UNL     1       0.876  -1.378  -0.430  1.00  0.00     0.161 C 
HETATM   14  C10 UNL     1       2.257  -0.839  -0.341  1.00  0.00    -0.007 A 
HETATM   15  C11 UNL     1       3.067  -1.935  -0.640  1.00  0.00     0.011 A 
HETATM   16  C12 UNL     1       4.450  -1.845  -0.663  1.00  0.00     0.001 A 
HETATM   17  C13 UNL     1       5.079  -0.648  -0.385  1.00  0.00     0.003 A 
HETATM   18  C14 UNL     1       4.280   0.439  -0.088  1.00  0.00     0.038 A 
HETATM   19  C15 UNL     1       2.903   0.348  -0.066  1.00  0.00     0.086 A 
HETATM   20  O1  UNL     1       2.263   1.539   0.252  1.00  0.00    -0.289 OA
HETATM   21  C16 UNL     1      -3.836   0.882   0.510  1.00  0.00     0.027 A 
HETATM   22  H5  UNL     1      -0.806  -0.833   1.072  1.00  0.00     0.160 HD
ENDROOT
TORSDOF 0
