REMARK  2 active torsions:
REMARK  status: ('A' for Active; 'I' for Inactive)
REMARK    1  A    between atoms: C3_3  and  N1_5 
REMARK    2  A    between atoms: N1_5  and  C4_6 
ROOT
HETATM    1  C4  UNL     1       0.716  -1.093   0.170  1.00  0.00     0.040 C 
HETATM    2  C5  UNL     1       0.200  -2.077   1.057  1.00  0.00     0.030 C 
HETATM    3  C6  UNL     1      -1.394  -2.299   1.195  1.00  0.00     0.041 C 
HETATM    4  C7  UNL     1      -2.438  -1.544   0.431  1.00  0.00     0.336 A 
HETATM    5  N2  UNL     1      -2.770  -2.761  -0.178  1.00  0.00     0.384 N 
HETATM    6  C8  UNL     1      -3.021  -2.674  -1.567  1.00  0.00     0.609 A 
HETATM    7  N3  UNL     1      -2.796  -1.295  -1.789  1.00  0.00     0.384 N 
HETATM    8  C9  UNL     1      -2.464  -0.629  -0.622  1.00  0.00     0.337 A 
HETATM    9  C10 UNL     1      -1.344  -0.077  -1.501  1.00  0.00     0.052 C 
HETATM   10  C11 UNL     1       0.019  -0.270  -0.934  1.00  0.00    -0.009 C 
HETATM   11  C12 UNL     1       1.137   0.419  -1.352  1.00  0.00     0.015 C 
HETATM   12  C13 UNL     1       0.725   1.724  -1.526  1.00  0.00     0.020 C 
HETATM   13  C14 UNL     1      -0.215   2.397  -0.779  1.00  0.00     0.012 C 
HETATM   14 BR1  UNL     1       0.345   4.171  -0.358  1.00  0.00    -0.051 Br
HETATM   15  C15 UNL     1      -1.428   1.934  -0.352  1.00  0.00     0.038 C 
HETATM   16  C16 UNL     1      -2.110   1.034   0.400  1.00  0.00    -0.005 C 
HETATM   17  C17 UNL     1      -3.110   1.106   1.237  1.00  0.00     0.056 C 
HETATM   18  N4  UNL     1      -2.167  -0.251   0.687  1.00  0.00    -0.196 NA
ENDROOT
BRANCH   1  19
HETATM   19  N1  UNL     1       2.056  -0.896   0.378  1.00  0.00    -0.353 N 
HETATM   20  H4  UNL     1       2.498  -1.836   0.167  1.00  0.00     0.163 HD
BRANCH  19  21
HETATM   21  C3  UNL     1       2.964   0.130   0.766  1.00  0.00     0.175 A 
HETATM   22  C2  UNL     1       4.399  -0.108   0.862  1.00  0.00     0.038 A 
HETATM   23  C1  UNL     1       4.207   1.137   1.187  1.00  0.00     0.234 A 
HETATM   24  O1  UNL     1       2.645   1.301   1.055  1.00  0.00    -0.349 OA
ENDBRANCH  19  21
ENDBRANCH   1  19
TORSDOF 2
