REMARK  1 active torsions:
REMARK  status: ('A' for Active; 'I' for Inactive)
REMARK    1  A    between atoms: C4_4  and  C5_5 
ROOT
HETATM    1  C5  UNL     1      -0.964   0.807  -0.999  1.00  0.00     0.059 C 
HETATM    2  N1  UNL     1      -0.948   2.044  -1.234  1.00  0.00    -0.245 NA
HETATM    3  C6  UNL     1      -0.598   3.018  -0.320  1.00  0.00     0.232 C 
HETATM    4  N2  UNL     1      -1.412   2.815   0.676  1.00  0.00    -0.253 NA
HETATM    5  C7  UNL     1      -1.301   3.685   1.826  1.00  0.00     0.131 C 
HETATM    6  C8  UNL     1      -0.164   3.488   2.531  1.00  0.00     0.010 A 
HETATM    7  C9  UNL     1       1.088   3.173   3.187  1.00  0.00     0.045 A 
HETATM    8  C10 UNL     1       0.737   2.539   2.065  1.00  0.00     0.041 A 
HETATM    9  N3  UNL     1       1.146   1.542   1.118  1.00  0.00    -0.379 N 
HETATM   10  C11 UNL     1       0.912   0.208   0.926  1.00  0.00     0.040 C 
HETATM   11  C12 UNL     1       0.497  -0.223  -0.538  1.00  0.00     0.043 A 
HETATM   12  C13 UNL     1      -0.735  -0.291  -0.085  1.00  0.00     0.038 A 
HETATM   13  C14 UNL     1       0.255  -1.243   0.432  1.00  0.00    -0.007 A 
HETATM   14  C15 UNL     1      -0.505  -1.856   1.297  1.00  0.00    -0.039 A 
HETATM   15  C16 UNL     1       0.153  -0.615   1.901  1.00  0.00     0.063 A 
HETATM   16  C17 UNL     1       1.772  -1.834   0.343  1.00  0.00    -0.003 C 
HETATM   17  C18 UNL     1       1.917  -3.064   1.040  1.00  0.00     0.011 C 
HETATM   18  C19 UNL     1       2.365  -0.560   1.005  1.00  0.00     0.037 C 
HETATM   19  H8  UNL     1       1.814   1.741   0.306  1.00  0.00     0.160 HD
ENDROOT
BRANCH   1  20
HETATM   20  C4  UNL     1      -1.384  -0.081  -2.147  1.00  0.00     0.008 A 
HETATM   21  C3  UNL     1      -1.695  -1.393  -2.764  1.00  0.00     0.023 A 
HETATM   22  C2  UNL     1      -1.897  -0.958  -3.981  1.00  0.00    -0.043 A 
HETATM   23  C1  UNL     1      -2.263  -1.774  -5.152  1.00  0.00     0.049 C 
HETATM   24  C20 UNL     1      -1.594   0.325  -3.387  1.00  0.00     0.029 A 
HETATM   25 BR1  UNL     1      -1.602   1.912  -4.491  1.00  0.00    -0.050 Br
ENDBRANCH   1  20
TORSDOF 1
