REMARK  8 active torsions:
REMARK  status: ('A' for Active; 'I' for Inactive)
REMARK    1  A    between atoms: N1_2  and  C2_3 
REMARK    2  A    between atoms: C2_3  and  O1_4 
REMARK    3  A    between atoms: C2_3  and  C3_5 
REMARK    4  A    between atoms: C2_3  and  C12_16 
REMARK    5  A    between atoms: C4_6  and  C5_7 
REMARK    6  A    between atoms: C5_7  and  N2_8 
REMARK    7  A    between atoms: N2_8  and  C6_9 
REMARK    8  A    between atoms: C12_16  and  C13_17 
ROOT
HETATM    1  C2  UNL     1      -1.481  -0.844  -0.684  1.00  0.00     0.277 C 
ENDROOT
BRANCH   1   2
HETATM    2  N1  UNL     1      -1.928  -1.624   0.425  1.00  0.00     0.118 N 
HETATM    3  C1  UNL     1      -1.394  -2.965   0.432  1.00  0.00     0.311 C 
HETATM    4  H4  UNL     1      -1.650  -1.195   1.346  1.00  0.00     0.319 HD
ENDBRANCH   1   2
BRANCH   1   5
HETATM    5  O1  UNL     1      -1.830  -1.580  -1.852  1.00  0.00    -0.360 OA
HETATM    6  H5  UNL     1      -1.023  -1.788  -2.398  1.00  0.00     0.213 HD
ENDBRANCH   1   5
BRANCH   1   7
HETATM    7  C3  UNL     1       0.033  -0.712  -0.672  1.00  0.00     0.041 C 
HETATM    8  C4  UNL     1       1.068  -0.962   0.141  1.00  0.00    -0.007 C 
BRANCH   8   9
HETATM    9  C5  UNL     1       2.489  -0.691  -0.197  1.00  0.00     0.147 C 
BRANCH   9  10
HETATM   10  N2  UNL     1       3.113   0.233   0.717  1.00  0.00    -0.386 N 
HETATM   11  H10 UNL     1       2.713   0.705   1.535  1.00  0.00     0.160 HD
BRANCH  10  12
HETATM   12  C6  UNL     1       4.494   0.516   0.414  1.00  0.00     0.029 A 
HETATM   13  C7  UNL     1       5.128  -0.076  -0.677  1.00  0.00     0.029 A 
HETATM   14  C8  UNL     1       6.455   0.185  -0.981  1.00  0.00     0.004 A 
HETATM   15  C9  UNL     1       7.180   1.062  -0.180  1.00  0.00     0.019 A 
HETATM   16  C10 UNL     1       6.572   1.659   0.904  1.00  0.00     0.013 A 
HETATM   17 BR1  UNL     1       7.629   2.840   1.944  1.00  0.00    -0.051 Br
HETATM   18  C11 UNL     1       5.252   1.380   1.183  1.00  0.00     0.048 A 
ENDBRANCH  10  12
ENDBRANCH   9  10
ENDBRANCH   8   9
ENDBRANCH   1   7
BRANCH   1  19
HETATM   19  C12 UNL     1      -2.018   0.510  -0.840  1.00  0.00     0.112 C 
BRANCH  19  20
HETATM   20  C13 UNL     1      -3.473   0.739  -1.047  1.00  0.00     0.161 A 
HETATM   21  O2  UNL     1      -3.587   2.164  -1.154  1.00  0.00    -0.353 OA
HETATM   22  C14 UNL     1      -4.350   2.990  -0.417  1.00  0.00     0.135 A 
HETATM   23  C15 UNL     1      -5.167   2.551   0.517  1.00  0.00     0.024 A 
HETATM   24  C16 UNL     1      -5.176   1.102   0.694  1.00  0.00     0.007 A 
HETATM   25  C17 UNL     1      -4.403   0.269  -0.027  1.00  0.00    -0.054 A 
HETATM   26  C18 UNL     1      -4.784  -1.117   0.429  1.00  0.00     0.046 C 
ENDBRANCH  19  20
ENDBRANCH   1  19
TORSDOF 8
