REMARK  4 active torsions:
REMARK  status: ('A' for Active; 'I' for Inactive)
REMARK    1  A    between atoms: C4_5  and  C6_7 
REMARK    2  A    between atoms: C6_7  and  C7_8 
REMARK    3  A    between atoms: C7_8  and  C8_9 
REMARK    4  A    between atoms: C10_11  and  C11_12 
ROOT
HETATM    1  C8  UNL     1       0.254  -0.012  -0.215  1.00  0.00     0.041 A 
HETATM    2  C9  UNL     1      -0.427   1.166  -0.887  1.00  0.00     0.119 A 
HETATM    3  C10 UNL     1      -1.224   1.903   0.104  1.00  0.00     0.051 A 
HETATM    4  N1  UNL     1      -1.302   1.641   1.396  1.00  0.00    -0.245 NA
HETATM    5  C17 UNL     1      -0.576   0.539   1.933  1.00  0.00     0.233 A 
HETATM    6  N2  UNL     1       0.141  -0.219   1.206  1.00  0.00    -0.246 NA
ENDROOT
BRANCH   1   7
HETATM    7  C7  UNL     1       0.954  -0.865  -0.999  1.00  0.00     0.028 C 
BRANCH   7   8
HETATM    8  C6  UNL     1       1.550  -1.955  -0.247  1.00  0.00     0.009 C 
BRANCH   8   9
HETATM    9  C4  UNL     1       2.295  -2.997  -0.638  1.00  0.00    -0.055 C 
HETATM   10  C3  UNL     1       2.684  -3.852   0.456  1.00  0.00    -0.040 A 
HETATM   11  C2  UNL     1       2.604  -3.927   1.932  1.00  0.00     0.028 A 
HETATM   12  O1  UNL     1       3.219  -4.896   0.881  1.00  0.00     0.000 OA
HETATM   13  C1  UNL     1       3.066  -5.086   2.463  1.00  0.00     0.011 A 
HETATM   14  C5  UNL     1       2.930  -3.649  -1.785  1.00  0.00     0.049 C 
ENDBRANCH   8   9
ENDBRANCH   7   8
ENDBRANCH   1   7
BRANCH   3  15
HETATM   15  C11 UNL     1      -2.112   3.037  -0.235  1.00  0.00    -0.010 A 
HETATM   16  C12 UNL     1      -2.173   3.429  -1.582  1.00  0.00     0.013 A 
HETATM   17  C13 UNL     1      -3.027   4.467  -1.997  1.00  0.00     0.002 A 
HETATM   18  C14 UNL     1      -3.822   5.110  -1.034  1.00  0.00     0.019 A 
HETATM   19  C15 UNL     1      -3.746   4.712   0.274  1.00  0.00     0.011 A 
HETATM   20 BR1  UNL     1      -4.811   5.524   1.650  1.00  0.00    -0.051 Br
HETATM   21  C16 UNL     1      -2.908   3.690   0.697  1.00  0.00     0.032 A 
ENDBRANCH   3  15
TORSDOF 4
