REMARK  4 active torsions:
REMARK  status: ('A' for Active; 'I' for Inactive)
REMARK    1  A    between atoms: C2_2  and  C3_3 
REMARK       I    between atoms: C3_3  and  N1_5 
REMARK    2  A    between atoms: N1_5  and  C4_6 
REMARK    3  A    between atoms: C9_13  and  N4_14 
REMARK    4  A    between atoms: N4_14  and  C10_15 
ROOT
HETATM    1  C4  UNL     1       2.532  -0.343   0.703  1.00  0.00     0.036 A 
HETATM    2  C5  UNL     1       2.880  -1.169   1.751  1.00  0.00     0.032 A 
HETATM    3  C6  UNL     1       1.938  -1.847   2.480  1.00  0.00     0.035 A 
HETATM    4  C7  UNL     1       0.610  -1.699   2.157  1.00  0.00     0.072 A 
HETATM    5  N2  UNL     1      -0.272  -2.392   2.911  1.00  0.00    -0.241 NA
HETATM    6  C8  UNL     1      -1.586  -2.285   2.640  1.00  0.00     0.236 A 
HETATM    7  N3  UNL     1      -1.940  -1.491   1.631  1.00  0.00    -0.224 NA
HETATM    8  C9  UNL     1      -1.151  -0.773   0.837  1.00  0.00     0.142 A 
HETATM    9  C16 UNL     1       0.169  -0.895   1.127  1.00  0.00     0.041 A 
HETATM   10  C17 UNL     1       1.183  -0.256   0.453  1.00  0.00     0.047 A 
ENDROOT
BRANCH   8  11
HETATM   11  N4  UNL     1      -1.593   0.043  -0.208  1.00  0.00    -0.340 N 
HETATM   12  H8  UNL     1      -0.921   0.580  -0.791  1.00  0.00     0.167 HD
BRANCH  11  13
HETATM   13  C10 UNL     1      -2.912   0.295  -0.661  1.00  0.00     0.035 A 
HETATM   14  C11 UNL     1      -4.015  -0.290  -0.084  1.00  0.00     0.029 A 
HETATM   15  C12 UNL     1      -5.316  -0.079  -0.484  1.00  0.00     0.004 A 
HETATM   16  C13 UNL     1      -5.574   0.774  -1.535  1.00  0.00     0.019 A 
HETATM   17  C14 UNL     1      -4.506   1.384  -2.146  1.00  0.00     0.013 A 
HETATM   18 BR1  UNL     1      -4.791   2.574  -3.604  1.00  0.00    -0.051 Br
HETATM   19  C15 UNL     1      -3.236   1.124  -1.691  1.00  0.00     0.048 A 
ENDBRANCH  11  13
ENDBRANCH   8  11
BRANCH   1  20
HETATM   20  N1  UNL     1       3.583   0.310   0.017  1.00  0.00    -0.324 N 
HETATM   21  C3  UNL     1       3.561   1.201  -1.075  1.00  0.00     0.244 C 
HETATM   22  O1  UNL     1       2.456   1.497  -1.556  1.00  0.00    -0.268 OA
HETATM   23  H4  UNL     1       4.581   0.133   0.339  1.00  0.00     0.169 HD
BRANCH  21  24
HETATM   24  C2  UNL     1       4.764   1.782  -1.658  1.00  0.00     0.064 C 
HETATM   25  C1  UNL     1       6.022   1.573  -1.267  1.00  0.00     0.017 C 
ENDBRANCH  21  24
ENDBRANCH   1  20
TORSDOF 4
