REMARK  7 active torsions:
REMARK  status: ('A' for Active; 'I' for Inactive)
REMARK    1  A    between atoms: C3_3  and  N4_19 
REMARK    2  A    between atoms: C4_4  and  C5_5 
REMARK    3  A    between atoms: C8_10  and  N3_11 
REMARK    4  A    between atoms: N3_11  and  C9_12 
REMARK       I    between atoms: N4_19  and  C15_20 
REMARK    5  A    between atoms: C15_20  and  C16_22 
REMARK    6  A    between atoms: C16_22  and  O2_23 
REMARK    7  A    between atoms: O2_23  and  C17_24 
ROOT
HETATM    1  C1  UNL     1       0.797   1.814   2.410  1.00  0.00     0.099 C 
HETATM    2  C2  UNL     1       0.395   0.992   1.460  1.00  0.00    -0.126 C 
HETATM    3  C3  UNL     1      -0.016   0.022   0.651  1.00  0.00     0.077 C 
HETATM    4  C4  UNL     1      -1.418  -0.287   0.628  1.00  0.00     0.050 C 
ENDROOT
BRANCH   3   5
HETATM    5  N4  UNL     1       0.983  -0.602  -0.133  1.00  0.00    -0.319 N 
HETATM    6  C15 UNL     1       2.302  -0.131   0.018  1.00  0.00     0.246 C 
HETATM    7  O1  UNL     1       2.744   0.811   0.773  1.00  0.00    -0.271 OA
HETATM    8  H12 UNL     1       1.231  -1.320  -0.847  1.00  0.00     0.169 HD
BRANCH   6   9
HETATM    9  C16 UNL     1       3.664  -0.366  -0.473  1.00  0.00     0.278 C 
BRANCH   9  10
HETATM   10  O2  UNL     1       4.584   0.529   0.127  1.00  0.00    -0.342 OA
BRANCH  10  11
HETATM   11  C17 UNL     1       5.917   0.469  -0.183  1.00  0.00     0.069 A 
HETATM   12  C18 UNL     1       6.565  -0.386  -1.038  1.00  0.00     0.040 A 
HETATM   13  C19 UNL     1       7.945  -0.266  -1.205  1.00  0.00     0.045 A 
HETATM   14  C20 UNL     1       8.650   0.691  -0.527  1.00  0.00     0.116 A 
HETATM   15  F1  UNL     1       9.981   0.768  -0.721  1.00  0.00    -0.206 F 
HETATM   16  C21 UNL     1       8.059   1.596   0.359  1.00  0.00     0.045 A 
HETATM   17  C22 UNL     1       6.678   1.423   0.481  1.00  0.00     0.040 A 
ENDBRANCH  10  11
ENDBRANCH   9  10
ENDBRANCH   6   9
ENDBRANCH   3   5
BRANCH   4  18
HETATM   18  C5  UNL     1      -2.034  -1.200  -0.129  1.00  0.00     0.010 A 
HETATM   19  C6  UNL     1      -1.365  -2.082  -1.103  1.00  0.00     0.192 A 
HETATM   20  N1  UNL     1      -2.333  -2.893  -1.782  1.00  0.00    -0.278 NA
HETATM   21  C7  UNL     1      -3.583  -2.895  -1.592  1.00  0.00     0.229 A 
HETATM   22  N2  UNL     1      -4.239  -2.068  -0.650  1.00  0.00    -0.224 NA
HETATM   23  C8  UNL     1      -3.510  -1.256   0.055  1.00  0.00     0.137 A 
BRANCH  23  24
HETATM   24  N3  UNL     1      -4.208  -0.420   0.994  1.00  0.00    -0.340 N 
HETATM   25  H7  UNL     1      -3.708  -0.277   1.922  1.00  0.00     0.167 HD
BRANCH  24  26
HETATM   26  C9  UNL     1      -5.487   0.137   0.618  1.00  0.00     0.035 A 
HETATM   27  C10 UNL     1      -6.696  -0.186   1.182  1.00  0.00     0.029 A 
HETATM   28  C11 UNL     1      -7.836   0.413   0.714  1.00  0.00     0.004 A 
HETATM   29  C12 UNL     1      -7.865   1.332  -0.301  1.00  0.00     0.019 A 
HETATM   30  C13 UNL     1      -6.666   1.692  -0.903  1.00  0.00     0.013 A 
HETATM   31 BR1  UNL     1      -6.403   2.934  -2.332  1.00  0.00    -0.051 Br
HETATM   32  C14 UNL     1      -5.517   1.079  -0.420  1.00  0.00     0.048 A 
ENDBRANCH  24  26
ENDBRANCH  23  24
ENDBRANCH   4  18
TORSDOF 7
