REMARK  1 active torsions:
REMARK  status: ('A' for Active; 'I' for Inactive)
REMARK    1  A    between atoms: N1_1  and  C1_2 
ROOT
HETATM    1  C1  UNL     1      -3.319  -1.206   0.633  1.00  0.00     0.011 C 
HETATM    2  C2  UNL     1      -2.655  -2.006  -0.232  1.00  0.00     0.026 C 
HETATM    3  C3  UNL     1      -1.524  -2.450  -1.039  1.00  0.00     0.021 C 
HETATM    4  C4  UNL     1      -0.294  -2.070  -1.295  1.00  0.00     0.119 C 
HETATM    5  N2  UNL     1       0.883  -1.253  -1.215  1.00  0.00    -0.243 N 
HETATM    6  N3  UNL     1       1.671  -1.214  -2.408  1.00  0.00    -0.163 NA
HETATM    7  C5  UNL     1       2.978  -1.439  -2.548  1.00  0.00     0.230 C 
HETATM    8  N4  UNL     1       3.995  -1.787  -1.573  1.00  0.00    -0.349 N 
HETATM    9  C6  UNL     1       3.833  -1.574  -0.146  1.00  0.00     0.047 A 
HETATM   10  C7  UNL     1       4.893  -2.000   0.626  1.00  0.00     0.030 A 
HETATM   11  C8  UNL     1       4.792  -1.823   1.989  1.00  0.00     0.004 A 
HETATM   12  C9  UNL     1       3.713  -1.252   2.650  1.00  0.00     0.020 A 
HETATM   13  C10 UNL     1       2.631  -0.817   1.880  1.00  0.00     0.025 A 
HETATM   14 BR1  UNL     1       1.054  -0.092   2.686  1.00  0.00    -0.050 Br
HETATM   15  C11 UNL     1       2.707  -0.981   0.492  1.00  0.00     0.036 A 
HETATM   16  C12 UNL     1       1.484  -0.430  -0.181  1.00  0.00     0.070 C 
HETATM   17  C13 UNL     1       1.303   0.790   0.392  1.00  0.00     0.031 C 
HETATM   18  C14 UNL     1       0.269   1.872   0.120  1.00  0.00     0.112 C 
HETATM   19  C15 UNL     1       1.098   3.013  -0.465  1.00  0.00     0.051 C 
HETATM   20  C16 UNL     1       0.278   3.796  -1.408  1.00  0.00     0.152 C 
HETATM   21  N5  UNL     1      -0.042   2.930  -2.538  1.00  0.00    -0.285 NA
HETATM   22  C17 UNL     1      -0.610   1.777  -2.190  1.00  0.00     0.199 C 
HETATM   23  N6  UNL     1      -0.794   1.613  -0.742  1.00  0.00    -0.365 N 
HETATM   24  C18 UNL     1      -2.099   1.166  -0.305  1.00  0.00     0.157 C 
HETATM   25  C19 UNL     1      -2.354   1.091   1.118  1.00  0.00     0.151 C 
HETATM   26  O1  UNL     1      -3.383   1.967   1.610  1.00  0.00    -0.383 OA
HETATM   27  C20 UNL     1      -4.336   1.027   1.208  1.00  0.00     0.181 C 
HETATM   28  C21 UNL     1      -3.275  -0.035   1.492  1.00  0.00     0.089 C 
HETATM   29  H7  UNL     1       4.882  -2.203  -1.854  1.00  0.00     0.167 HD
ENDROOT
BRANCH   1  30
HETATM   30  N1  UNL     1      -4.699  -1.530   0.989  1.00  0.00    -0.402 N 
HETATM   31  H1  UNL     1      -5.154  -2.165   1.689  1.00  0.00     0.156 HD
HETATM   32  H2  UNL     1      -5.627  -1.212   0.636  1.00  0.00     0.156 HD
ENDBRANCH   1  30
TORSDOF 1
