REMARK  2 active torsions:
REMARK  status: ('A' for Active; 'I' for Inactive)
REMARK    1  A    between atoms: C2_2  and  C3_3 
REMARK       I    between atoms: C3_3  and  N1_5 
REMARK    2  A    between atoms: N1_5  and  C4_6 
ROOT
HETATM    1  C4  UNL     1       1.712  -0.877  -0.134  1.00  0.00     0.035 A 
HETATM    2  C5  UNL     1       1.294  -2.216  -0.173  1.00  0.00     0.030 A 
HETATM    3  C6  UNL     1       0.044  -2.779  -0.076  1.00  0.00     0.041 A 
HETATM    4  C7  UNL     1      -0.996  -1.828   0.094  1.00  0.00     0.293 A 
HETATM    5  N2  UNL     1      -2.295  -2.174   0.206  1.00  0.00    -0.020 NA
HETATM    6  C8  UNL     1      -3.323  -1.413   0.357  1.00  0.00     0.243 A 
HETATM    7  N3  UNL     1      -2.234  -0.870   0.280  1.00  0.00     0.109 N 
HETATM    8  C9  UNL     1      -1.647   0.242   0.288  1.00  0.00     0.158 A 
HETATM    9  C10 UNL     1      -0.516  -0.498   0.127  1.00  0.00     0.037 A 
HETATM   10  C11 UNL     1       0.739   0.110   0.031  1.00  0.00     0.043 A 
HETATM   11  C12 UNL     1      -1.370   1.682   0.348  1.00  0.00     0.097 C 
HETATM   12  C13 UNL     1      -2.742   2.360   0.340  1.00  0.00    -0.002 C 
HETATM   13  C14 UNL     1      -3.980   1.922   0.559  1.00  0.00     0.007 C 
HETATM   14 BR1  UNL     1      -5.225   3.255   0.965  1.00  0.00    -0.051 Br
HETATM   15  C15 UNL     1      -4.779   0.702   0.599  1.00  0.00     0.022 C 
HETATM   16  C16 UNL     1      -4.420  -0.590   0.520  1.00  0.00     0.056 C 
ENDROOT
BRANCH   1  17
HETATM   17  N1  UNL     1       3.003  -0.388  -0.242  1.00  0.00    -0.324 N 
HETATM   18  C3  UNL     1       3.909  -0.162   0.831  1.00  0.00     0.244 C 
HETATM   19  O1  UNL     1       3.744  -0.348   2.054  1.00  0.00    -0.268 OA
HETATM   20  H4  UNL     1       3.286  -0.182  -1.225  1.00  0.00     0.169 HD
BRANCH  18  21
HETATM   21  C2  UNL     1       5.214   0.357   0.492  1.00  0.00     0.064 C 
HETATM   22  C1  UNL     1       5.604   0.626  -0.729  1.00  0.00     0.017 C 
ENDBRANCH  18  21
ENDBRANCH   1  17
TORSDOF 2
