REMARK  5 active torsions:
REMARK  status: ('A' for Active; 'I' for Inactive)
REMARK    1  A    between atoms: N1_7  and  C7_8 
REMARK    2  A    between atoms: C7_8  and  O1_9 
REMARK    3  A    between atoms: O1_9  and  C8_10 
REMARK    4  A    between atoms: C8_10  and  C9_11 
REMARK       I    between atoms: C9_11  and  N2_13 
REMARK    5  A    between atoms: N2_13  and  C10_14 
ROOT
HETATM    1  C10 UNL     1       1.449   0.991  -1.787  1.00  0.00     0.132 A 
HETATM    2  C11 UNL     1       2.050  -0.151  -2.517  1.00  0.00     0.000 A 
HETATM    3  C12 UNL     1       2.931  -1.068  -2.237  1.00  0.00     0.001 A 
HETATM    4  C13 UNL     1       3.572  -1.077  -0.852  1.00  0.00     0.139 A 
HETATM    5  N3  UNL     1       3.303  -2.342  -0.241  1.00  0.00    -0.429 NA
HETATM    6  C14 UNL     1       3.684  -2.937   0.773  1.00  0.00     0.291 C 
HETATM    7  C15 UNL     1       4.577  -2.207   1.525  1.00  0.00     0.007 C 
HETATM    8  C16 UNL     1       5.417  -1.686   2.334  1.00  0.00     0.049 C 
HETATM    9  C17 UNL     1       6.281  -0.727   2.908  1.00  0.00    -0.004 C 
HETATM   10  C18 UNL     1       6.598   0.501   2.631  1.00  0.00     0.085 C 
HETATM   11  N4  UNL     1       6.059   1.218   1.507  1.00  0.00    -0.361 N 
HETATM   12  C19 UNL     1       4.601   0.993   1.490  1.00  0.00     0.377 C 
HETATM   13  N5  UNL     1       3.379   0.670   1.170  1.00  0.00    -0.375 NA
HETATM   14  C20 UNL     1       3.104   0.076  -0.097  1.00  0.00     0.024 A 
HETATM   15  C21 UNL     1       2.185   1.007  -0.470  1.00  0.00     0.028 A 
HETATM   16  H25 UNL     1       5.672   1.728   0.708  1.00  0.00     0.166 HD
ENDROOT
BRANCH   1  17
HETATM   17  N2  UNL     1       0.038   0.888  -1.642  1.00  0.00    -0.348 N 
HETATM   18  C9  UNL     1      -0.830   1.821  -2.241  1.00  0.00     0.242 C 
HETATM   19  O2  UNL     1      -0.195   2.700  -2.897  1.00  0.00    -0.271 OA
HETATM   20  H15 UNL     1      -0.471   0.149  -1.126  1.00  0.00     0.163 HD
BRANCH  18  21
HETATM   21  C8  UNL     1      -2.258   2.114  -2.356  1.00  0.00     0.272 C 
BRANCH  21  22
HETATM   22  O1  UNL     1      -3.140   1.301  -1.710  1.00  0.00    -0.363 OA
BRANCH  22  23
HETATM   23  C7  UNL     1      -3.083   1.301  -0.341  1.00  0.00     0.293 C 
BRANCH  23  24
HETATM   24  N1  UNL     1      -4.161   0.398   0.120  1.00  0.00    -0.363 N 
HETATM   25  C2  UNL     1      -3.975  -0.748   0.935  1.00  0.00    -0.001 C 
HETATM   26  C1  UNL     1      -2.854  -0.726   1.673  1.00  0.00     0.038 C 
HETATM   27  C3  UNL     1      -5.077  -1.724   0.761  1.00  0.00     0.056 C 
HETATM   28  C4  UNL     1      -6.359  -0.970   1.031  1.00  0.00     0.007 C 
HETATM   29  C5  UNL     1      -6.615   0.101   0.031  1.00  0.00     0.020 C 
HETATM   30  C6  UNL     1      -5.415   0.886  -0.401  1.00  0.00     0.125 C 
ENDBRANCH  23  24
ENDBRANCH  22  23
ENDBRANCH  21  22
ENDBRANCH  18  21
ENDBRANCH   1  17
TORSDOF 5
