REMARK  6 active torsions:
REMARK  status: ('A' for Active; 'I' for Inactive)
REMARK    1  A    between atoms: C2_2  and  C3_3 
REMARK       I    between atoms: C3_3  and  N1_5 
REMARK    2  A    between atoms: N1_5  and  C4_6 
REMARK    3  A    between atoms: C9_13  and  C10_14 
REMARK    4  A    between atoms: C10_14  and  C11_15 
REMARK    5  A    between atoms: C11_15  and  C12_16 
REMARK    6  A    between atoms: C13_17  and  C14_18 
ROOT
HETATM    1  C4  UNL     1       3.028  -0.990  -0.124  1.00  0.00     0.035 A 
HETATM    2  C5  UNL     1       3.050  -2.365  -0.032  1.00  0.00     0.032 A 
HETATM    3  C6  UNL     1       1.890  -3.103   0.106  1.00  0.00     0.035 A 
HETATM    4  C7  UNL     1       0.708  -2.407   0.148  1.00  0.00     0.070 A 
HETATM    5  N2  UNL     1      -0.468  -3.079   0.288  1.00  0.00    -0.241 NA
HETATM    6  C8  UNL     1      -1.641  -2.422   0.337  1.00  0.00     0.234 A 
HETATM    7  N3  UNL     1      -1.776  -1.065   0.256  1.00  0.00    -0.246 NA
HETATM    8  C9  UNL     1      -0.628  -0.328   0.113  1.00  0.00     0.049 A 
HETATM    9  C18 UNL     1       0.554  -1.028   0.066  1.00  0.00     0.019 A 
HETATM   10  C19 UNL     1       1.783  -0.365  -0.072  1.00  0.00     0.045 A 
ENDROOT
BRANCH   8  11
HETATM   11  C10 UNL     1      -0.668   1.134   0.027  1.00  0.00     0.064 C 
BRANCH  11  12
HETATM   12  C11 UNL     1      -1.986   1.601  -0.535  1.00  0.00     0.041 C 
BRANCH  12  13
HETATM   13  C12 UNL     1      -3.163   1.188   0.232  1.00  0.00    -0.069 A 
HETATM   14  C13 UNL     1      -4.222   0.552  -0.300  1.00  0.00    -0.046 A 
HETATM   15  C15 UNL     1      -5.180   0.298   0.736  1.00  0.00     0.004 A 
HETATM   16  C16 UNL     1      -4.730   0.767   1.910  1.00  0.00    -0.022 A 
HETATM   17  C17 UNL     1      -3.383   1.380   1.667  1.00  0.00     0.061 A 
BRANCH  14  18
HETATM   18  C14 UNL     1      -4.623   0.065  -1.661  1.00  0.00     0.123 C 
HETATM   19 BR1  UNL     1      -4.911  -1.825  -1.640  1.00  0.00    -0.091 Br
ENDBRANCH  14  18
ENDBRANCH  12  13
ENDBRANCH  11  12
ENDBRANCH   8  11
BRANCH   1  20
HETATM   20  N1  UNL     1       4.194  -0.145  -0.265  1.00  0.00    -0.324 N 
HETATM   21  C3  UNL     1       5.071   0.581   0.670  1.00  0.00     0.244 C 
HETATM   22  O1  UNL     1       4.412   0.181   1.624  1.00  0.00    -0.268 OA
HETATM   23  H4  UNL     1       4.156  -0.263  -1.340  1.00  0.00     0.169 HD
BRANCH  21  24
HETATM   24  C2  UNL     1       6.017   1.195  -0.239  1.00  0.00     0.064 C 
HETATM   25  C1  UNL     1       6.947   1.937   0.394  1.00  0.00     0.017 C 
ENDBRANCH  21  24
ENDBRANCH   1  20
TORSDOF 6
