REMARK  0 active torsions:
REMARK  status: ('A' for Active; 'I' for Inactive)
ROOT
HETATM    1  C1  UNL     1       3.875   0.017   0.219  1.00  0.00     0.037 C 
HETATM    2  C2  UNL     1       2.506  -0.230  -0.467  1.00  0.00     0.138 C 
HETATM    3  C3  UNL     1       1.748  -1.259   0.205  1.00  0.00     0.082 C 
HETATM    4  C4  UNL     1       0.792  -2.075   0.734  1.00  0.00     0.085 C 
HETATM    5  F1  UNL     1       1.167  -3.122   1.424  1.00  0.00    -0.214 F 
HETATM    6  C5  UNL     1      -0.755  -1.951   0.725  1.00  0.00     0.077 A 
HETATM    7  C6  UNL     1      -1.262  -2.534  -0.672  1.00  0.00    -0.011 A 
HETATM    8  C7  UNL     1      -2.282  -1.619  -1.563  1.00  0.00    -0.017 A 
HETATM    9  C8  UNL     1      -2.904  -0.302  -1.912  1.00  0.00     0.034 A 
HETATM   10  C9  UNL     1      -2.362   0.676  -1.051  1.00  0.00     0.082 A 
HETATM   11  C10 UNL     1      -1.566  -0.253  -0.398  1.00  0.00    -0.017 A 
HETATM   12  C11 UNL     1      -1.341  -1.520  -0.487  1.00  0.00     0.095 A 
HETATM   13  C12 UNL     1      -0.737  -0.536   0.786  1.00  0.00     0.110 A 
HETATM   14  N1  UNL     1      -1.316   0.246   1.939  1.00  0.00    -0.388 N 
HETATM   15  C13 UNL     1      -1.601   1.690   1.593  1.00  0.00     0.142 C 
HETATM   16  C14 UNL     1      -1.328   2.435   0.437  1.00  0.00     0.186 C 
HETATM   17  N2  UNL     1      -0.439   3.478  -0.029  1.00  0.00    -0.215 NA
HETATM   18  C15 UNL     1       0.838   3.168  -0.297  1.00  0.00     0.259 C 
HETATM   19  N3  UNL     1       1.420   1.947  -0.178  1.00  0.00    -0.148 NA
HETATM   20  N4  UNL     1       1.927   1.052  -0.875  1.00  0.00    -0.186 NA
HETATM   21  O1  UNL     1      -2.247   1.974  -0.585  1.00  0.00    -0.290 OA
HETATM   22  H11 UNL     1      -1.593   0.139   2.911  1.00  0.00     0.159 HD
ENDROOT
TORSDOF 0
