REMARK  0 active torsions:
REMARK  status: ('A' for Active; 'I' for Inactive)
ROOT
HETATM    1  C1  UNL     1       3.523  -3.122   0.438  1.00  0.00     0.079 C 
HETATM    2  C2  UNL     1       3.719  -1.718   0.686  1.00  0.00     0.081 C 
HETATM    3  C3  UNL     1       2.586  -0.978   0.822  1.00  0.00     0.081 C 
HETATM    4  C4  UNL     1       2.835   0.408   1.125  1.00  0.00     0.055 A 
HETATM    5  C5  UNL     1       2.831   1.703   1.372  1.00  0.00     0.007 A 
HETATM    6  C6  UNL     1       1.552   1.163   1.006  1.00  0.00     0.050 A 
HETATM    7  C7  UNL     1       0.450   1.755   0.780  1.00  0.00    -0.018 C 
HETATM    8  C8  UNL     1      -1.010   2.059   0.453  1.00  0.00     0.002 C 
HETATM    9  C9  UNL     1      -1.815   1.060   0.166  1.00  0.00     0.024 C 
HETATM   10  C10 UNL     1      -1.218  -0.290   0.208  1.00  0.00     0.152 C 
HETATM   11  C11 UNL     1      -0.997  -1.648   0.180  1.00  0.00    -0.017 C 
HETATM   12  C12 UNL     1      -2.019  -2.820  -0.047  1.00  0.00     0.008 C 
HETATM   13  C13 UNL     1      -3.328  -2.619  -0.264  1.00  0.00     0.000 C 
HETATM   14  C14 UNL     1      -4.674  -2.060  -0.476  1.00  0.00    -0.000 C 
HETATM   15  C15 UNL     1      -5.397  -0.908  -0.588  1.00  0.00    -0.002 C 
HETATM   16  C16 UNL     1      -5.364   0.601  -0.593  1.00  0.00    -0.006 C 
HETATM   17  C17 UNL     1      -4.437   1.731  -0.494  1.00  0.00     0.103 A 
HETATM   18  N1  UNL     1      -2.906   1.887  -0.324  1.00  0.00    -0.270 NA
HETATM   19  C18 UNL     1      -3.322   0.682   0.344  1.00  0.00     0.147 A 
HETATM   20  C19 UNL     1      -3.058   0.155  -1.012  1.00  0.00     0.100 C 
HETATM   21  N2  UNL     1      -2.256  -0.731  -0.648  1.00  0.00    -0.280 NA
HETATM   22  C20 UNL     1       0.358  -2.158   0.447  1.00  0.00     0.212 C 
HETATM   23  O1  UNL     1       1.338  -1.314   0.719  1.00  0.00    -0.348 OA
HETATM   24  C21 UNL     1       1.132   2.759  -0.177  1.00  0.00     0.085 C 
HETATM   25  S1  UNL     1       2.683   2.756  -0.696  1.00  0.00    -0.138 SA
HETATM   26  C22 UNL     1       4.100   2.241  -1.405  1.00  0.00     0.353 A 
HETATM   27  N3  UNL     1       5.115   1.395  -0.677  1.00  0.00     0.156 N 
HETATM   28  C23 UNL     1       5.046   0.115   0.042  1.00  0.00     0.342 A 
HETATM   29  O2  UNL     1       4.331   0.882  -0.631  1.00  0.00     0.000 OA
HETATM   30  O3  UNL     1       5.015  -1.123   0.747  1.00  0.00    -0.285 OA
HETATM   31  H23 UNL     1       6.160   1.758  -0.622  1.00  0.00     0.327 HD
ENDROOT
TORSDOF 0
