REMARK  5 active torsions:
REMARK  status: ('A' for Active; 'I' for Inactive)
REMARK    1  A    between atoms: C2_2  and  N1_3 
REMARK    2  A    between atoms: C12_15  and  N4_16 
REMARK       I    between atoms: N4_16  and  C13_17 
REMARK    3  A    between atoms: C13_17  and  C14_19 
REMARK    4  A    between atoms: C15_21  and  C16_22 
REMARK    5  A    between atoms: C16_22  and  N5_23 
ROOT
HETATM    1  C1  UNL     1      -6.155  -2.127   0.537  1.00  0.00     0.059 C 
HETATM    2  C2  UNL     1      -5.786  -0.789   1.147  1.00  0.00     0.199 A 
HETATM    3  C3  UNL     1      -5.685  -0.814   2.584  1.00  0.00     0.019 A 
HETATM    4  C4  UNL     1      -4.457  -0.570   2.979  1.00  0.00    -0.001 A 
HETATM    5  C5  UNL     1      -3.745  -0.380   1.744  1.00  0.00     0.012 A 
HETATM    6  C6  UNL     1      -4.405  -0.479   0.629  1.00  0.00     0.013 A 
HETATM    7  C7  UNL     1      -4.278  -0.335  -0.806  1.00  0.00     0.080 A 
HETATM    8  N2  UNL     1      -5.242  -0.804  -1.607  1.00  0.00    -0.241 NA
HETATM    9  C8  UNL     1      -5.219  -0.711  -2.934  1.00  0.00     0.234 A 
HETATM   10  N3  UNL     1      -4.200  -0.125  -3.576  1.00  0.00    -0.241 NA
HETATM   11  C9  UNL     1      -3.154   0.397  -2.888  1.00  0.00     0.070 A 
HETATM   12  C10 UNL     1      -2.135   1.012  -3.543  1.00  0.00     0.035 A 
HETATM   13  C11 UNL     1      -1.096   1.563  -2.826  1.00  0.00     0.032 A 
HETATM   14  C12 UNL     1      -1.153   1.454  -1.432  1.00  0.00     0.035 A 
HETATM   15  C22 UNL     1      -2.218   0.816  -0.848  1.00  0.00     0.045 A 
HETATM   16  C23 UNL     1      -3.269   0.253  -1.527  1.00  0.00     0.024 A 
ENDROOT
BRANCH  14  17
HETATM   17  N4  UNL     1      -0.068   2.037  -0.725  1.00  0.00    -0.325 N 
HETATM   18  C13 UNL     1       1.169   1.374  -0.363  1.00  0.00     0.254 C 
HETATM   19  O1  UNL     1       0.931   0.219  -0.862  1.00  0.00    -0.270 OA
HETATM   20  H12 UNL     1      -0.378   3.042  -0.533  1.00  0.00     0.169 HD
BRANCH  18  21
HETATM   21  C14 UNL     1       2.127   2.234   0.376  1.00  0.00     0.244 A 
HETATM   22  O2  UNL     1       3.016   1.651   1.278  1.00  0.00    -0.364 OA
HETATM   23  C15 UNL     1       3.565   2.052   0.014  1.00  0.00     0.178 A 
BRANCH  23  24
HETATM   24  C16 UNL     1       4.058   0.844  -0.743  1.00  0.00     0.151 C 
BRANCH  24  25
HETATM   25  N5  UNL     1       5.075   0.203   0.040  1.00  0.00    -0.410 N 
HETATM   26  C17 UNL     1       4.708  -0.417   1.225  1.00  0.00     0.117 C 
HETATM   27  C18 UNL     1       5.449  -1.647   1.633  1.00  0.00     0.019 C 
HETATM   28  C19 UNL     1       6.686  -1.915   0.816  1.00  0.00     0.003 C 
HETATM   29  C20 UNL     1       7.283  -0.576   0.439  1.00  0.00     0.019 C 
HETATM   30  C21 UNL     1       6.340   0.061  -0.527  1.00  0.00     0.117 C 
ENDBRANCH  24  25
ENDBRANCH  23  24
ENDBRANCH  18  21
ENDBRANCH  14  17
BRANCH   2  31
HETATM   31  N1  UNL     1      -6.653   0.270   0.652  1.00  0.00     0.096 N 
HETATM   32  H4  UNL     1      -6.158   0.912   0.019  1.00  0.00     0.314 HD
HETATM   33  H5  UNL     1      -7.445  -0.199   0.178  1.00  0.00     0.314 HD
ENDBRANCH   2  31
TORSDOF 5
