REMARK  6 active torsions:
REMARK  status: ('A' for Active; 'I' for Inactive)
REMARK    1  A    between atoms: C4_4  and  N1_5 
REMARK    2  A    between atoms: N1_5  and  C5_6 
REMARK       I    between atoms: N3_11  and  C9_12 
REMARK    3  A    between atoms: C9_12  and  C10_14 
REMARK    4  A    between atoms: C10_14  and  N4_15 
REMARK       I    between atoms: N4_15  and  C11_16 
REMARK    5  A    between atoms: C11_16  and  O3_18 
REMARK    6  A    between atoms: O3_18  and  C12_19 
ROOT
HETATM    1  C5  UNL     1      -1.823  -0.027   0.221  1.00  0.00     0.126 C 
HETATM    2  N2  UNL     1      -1.984  -1.008  -0.750  1.00  0.00    -0.270 NA
HETATM    3  C6  UNL     1      -0.936  -2.203  -0.672  1.00  0.00     0.191 C 
HETATM    4  C7  UNL     1      -0.129  -1.608   0.462  1.00  0.00    -0.023 C 
HETATM    5  C8  UNL     1       0.771  -0.618   0.208  1.00  0.00     0.104 C 
HETATM    6  N3  UNL     1       0.433   0.756   0.526  1.00  0.00    -0.310 N 
HETATM    7  C9  UNL     1       0.822   2.116   0.407  1.00  0.00     0.242 C 
HETATM    8  O1  UNL     1       0.020   2.971   0.942  1.00  0.00    -0.271 OA
HETATM    9  C17 UNL     1      -0.827   0.489   1.263  1.00  0.00     0.184 C 
HETATM   10  C18 UNL     1      -0.394  -0.695   2.186  1.00  0.00     0.007 C 
HETATM   11  C19 UNL     1      -0.956  -1.859   1.730  1.00  0.00     0.008 C 
ENDROOT
BRANCH   7  12
HETATM   12  C10 UNL     1       1.856   2.978  -0.131  1.00  0.00     0.228 C 
BRANCH  12  13
HETATM   13  N4  UNL     1       2.954   2.307  -0.793  1.00  0.00    -0.328 N 
HETATM   14  C11 UNL     1       3.874   1.394  -0.276  1.00  0.00     0.366 C 
HETATM   15  O2  UNL     1       3.746   1.093   0.959  1.00  0.00    -0.238 OA
HETATM   16  H11 UNL     1       3.112   2.516  -1.822  1.00  0.00     0.165 HD
BRANCH  14  17
HETATM   17  O3  UNL     1       4.892   0.816  -1.021  1.00  0.00    -0.266 OA
BRANCH  17  18
HETATM   18  C12 UNL     1       5.775  -0.080  -0.468  1.00  0.00     0.062 A 
HETATM   19  C13 UNL     1       6.726  -0.597  -1.237  1.00  0.00     0.033 A 
HETATM   20  C14 UNL     1       7.509  -1.495  -0.426  1.00  0.00    -0.001 A 
HETATM   21  C15 UNL     1       7.040  -1.520   0.807  1.00  0.00    -0.020 A 
HETATM   22  C16 UNL     1       5.870  -0.603   0.896  1.00  0.00     0.092 A 
ENDBRANCH  17  18
ENDBRANCH  14  17
ENDBRANCH  12  13
ENDBRANCH   7  12
BRANCH   1  23
HETATM   23  N1  UNL     1      -3.051   0.791   0.204  1.00  0.00    -0.342 N 
HETATM   24  H5  UNL     1      -2.929   1.773   0.547  1.00  0.00     0.167 HD
BRANCH  23  25
HETATM   25  C4  UNL     1      -4.290   0.262  -0.247  1.00  0.00     0.047 A 
HETATM   26  C3  UNL     1      -4.655  -1.151  -0.256  1.00  0.00     0.033 A 
HETATM   27  C2  UNL     1      -5.875  -1.166  -0.751  1.00  0.00    -0.077 A 
HETATM   28  C1  UNL     1      -6.692  -2.373  -0.964  1.00  0.00     0.044 C 
HETATM   29  C21 UNL     1      -6.390   0.192  -1.094  1.00  0.00     0.082 A 
HETATM   30  C20 UNL     1      -5.241   1.054  -0.712  1.00  0.00     0.019 A 
HETATM   31 BR1  UNL     1      -5.257   2.957  -0.905  1.00  0.00    -0.053 Br
ENDBRANCH  23  25
ENDBRANCH   1  23
TORSDOF 6
