REMARK  2 active torsions:
REMARK  status: ('A' for Active; 'I' for Inactive)
REMARK    1  A    between atoms: C8_9  and  C9_10 
REMARK       I    between atoms: C9_10  and  N1_12 
REMARK    2  A    between atoms: N1_12  and  C10_13 
ROOT
HETATM    1  C9  UNL     1      -0.213   0.823  -0.566  1.00  0.00     0.248 C 
HETATM    2  O2  UNL     1      -1.001   0.524  -1.498  1.00  0.00    -0.271 OA
HETATM    3  N1  UNL     1      -0.643   0.700   0.787  1.00  0.00    -0.325 N 
HETATM    4  H8  UNL     1       0.088   0.973   1.477  1.00  0.00     0.169 HD
ENDROOT
BRANCH   1   5
HETATM    5  C8  UNL     1       1.051   1.259  -1.101  1.00  0.00     0.200 C 
HETATM    6  C7  UNL     1       1.641   0.132  -1.997  1.00  0.00     0.004 C 
HETATM    7  C6  UNL     1       2.838  -0.430  -2.183  1.00  0.00    -0.019 C 
HETATM    8  C5  UNL     1       4.279  -0.597  -1.919  1.00  0.00     0.041 C 
HETATM    9  C4  UNL     1       5.236  -0.089  -1.118  1.00  0.00    -0.017 C 
HETATM   10  C3  UNL     1       5.713   0.823  -0.043  1.00  0.00     0.002 C 
HETATM   11  C2  UNL     1       4.741   1.537   0.441  1.00  0.00     0.074 C 
HETATM   12  C1  UNL     1       3.349   1.837   0.380  1.00  0.00     0.242 C 
HETATM   13  O1  UNL     1       2.896   2.657   1.205  1.00  0.00    -0.269 OA
HETATM   14  N4  UNL     1       2.107   1.637  -0.240  1.00  0.00    -0.341 N 
HETATM   15  H14 UNL     1       1.276   2.095   0.249  1.00  0.00     0.164 HD
ENDBRANCH   1   5
BRANCH   3  16
HETATM   16  C10 UNL     1      -2.001   0.219   0.839  1.00  0.00     0.035 A 
HETATM   17  C11 UNL     1      -3.050   1.088   0.841  1.00  0.00     0.032 A 
HETATM   18  C12 UNL     1      -4.342   0.629   0.891  1.00  0.00     0.035 A 
HETATM   19  C13 UNL     1      -4.557  -0.740   0.939  1.00  0.00     0.070 A 
HETATM   20  N2  UNL     1      -5.837  -1.187   0.988  1.00  0.00    -0.241 NA
HETATM   21  C16 UNL     1      -3.481  -1.623   0.937  1.00  0.00     0.012 A 
HETATM   22  C14 UNL     1      -6.042  -2.515   1.035  1.00  0.00     0.233 A 
HETATM   23  N3  UNL     1      -5.041  -3.399   1.035  1.00  0.00    -0.253 NA
HETATM   24  C15 UNL     1      -3.758  -2.980   0.987  1.00  0.00     0.132 A 
HETATM   25  C17 UNL     1      -2.179  -1.163   0.887  1.00  0.00     0.044 A 
ENDBRANCH   3  16
TORSDOF 2
