REMARK  8 active torsions:
REMARK  status: ('A' for Active; 'I' for Inactive)
REMARK    1  A    between atoms: C1_2  and  C2_3 
REMARK    2  A    between atoms: C1_2  and  C12_17 
REMARK    3  A    between atoms: C2_3  and  C3_4 
REMARK    4  A    between atoms: C7_10  and  N3_11 
REMARK    5  A    between atoms: N3_11  and  C8_12 
REMARK    6  A    between atoms: C12_17  and  N4_18 
REMARK       I    between atoms: N4_18  and  C13_19 
REMARK    7  A    between atoms: C13_19  and  S1_21 
REMARK    8  A    between atoms: S1_21  and  C14_22 
ROOT
HETATM    1  C2  UNL     1      -0.823   0.773   0.770  1.00  0.00     0.107 C 
ENDROOT
BRANCH   1   2
HETATM    2  C1  UNL     1       0.307   0.101   0.019  1.00  0.00     0.147 C 
HETATM    3  O1  UNL     1       0.706  -0.735   0.836  1.00  0.00    -0.296 OA
BRANCH   2   4
HETATM    4  C12 UNL     1       0.670   0.523  -1.383  1.00  0.00     0.202 C 
BRANCH   4   5
HETATM    5  N4  UNL     1       1.758  -0.282  -1.873  1.00  0.00    -0.345 N 
HETATM    6  C13 UNL     1       2.918  -0.134  -1.048  1.00  0.00     0.285 C 
HETATM    7  O2  UNL     1       2.862   0.644  -0.035  1.00  0.00    -0.260 OA
HETATM    8  H12 UNL     1       1.795  -0.916  -2.701  1.00  0.00     0.163 HD
BRANCH   6   9
HETATM    9  S1  UNL     1       4.445  -1.026  -1.421  1.00  0.00    -0.030 SA
BRANCH   9  10
HETATM   10  C14 UNL     1       5.679  -0.580  -0.189  1.00  0.00     0.010 A 
HETATM   11  C15 UNL     1       6.474   0.526  -0.483  1.00  0.00     0.019 A 
HETATM   12  C16 UNL     1       7.429   0.900   0.439  1.00  0.00     0.001 A 
HETATM   13  C17 UNL     1       7.578   0.184   1.618  1.00  0.00     0.000 A 
HETATM   14  C18 UNL     1       6.775  -0.916   1.895  1.00  0.00     0.001 A 
HETATM   15  C19 UNL     1       5.805  -1.321   0.991  1.00  0.00     0.019 A 
ENDBRANCH   9  10
ENDBRANCH   6   9
ENDBRANCH   4   5
ENDBRANCH   2   4
ENDBRANCH   1   2
BRANCH   1  16
HETATM   16  C3  UNL     1      -1.841  -0.169   1.215  1.00  0.00    -0.007 C 
HETATM   17  C4  UNL     1      -3.052  -0.733   1.363  1.00  0.00     0.004 A 
HETATM   18  C5  UNL     1      -3.229  -1.980   2.181  1.00  0.00     0.192 A 
HETATM   19  C7  UNL     1      -4.225  -0.115   0.705  1.00  0.00     0.137 A 
HETATM   20  N1  UNL     1      -4.568  -2.391   2.151  1.00  0.00    -0.278 NA
HETATM   21  C6  UNL     1      -5.543  -1.829   1.558  1.00  0.00     0.229 A 
HETATM   22  N2  UNL     1      -5.426  -0.640   0.793  1.00  0.00    -0.224 NA
BRANCH  19  23
HETATM   23  N3  UNL     1      -4.110   1.111  -0.049  1.00  0.00    -0.340 N 
HETATM   24  H7  UNL     1      -3.463   1.809   0.439  1.00  0.00     0.167 HD
BRANCH  23  25
HETATM   25  C8  UNL     1      -4.831   1.255  -1.286  1.00  0.00     0.036 A 
HETATM   26  C9  UNL     1      -6.074   1.738  -1.291  1.00  0.00     0.048 A 
HETATM   27  C10 UNL     1      -6.035   1.560  -2.750  1.00  0.00     0.015 A 
HETATM   28 BR1  UNL     1      -7.068   1.788  -4.331  1.00  0.00    -0.051 Br
HETATM   29  C11 UNL     1      -4.793   1.078  -2.734  1.00  0.00     0.048 A 
ENDBRANCH  23  25
ENDBRANCH  19  23
ENDBRANCH   1  16
TORSDOF 8
