REMARK  1 active torsions:
REMARK  status: ('A' for Active; 'I' for Inactive)
REMARK    1  A    between atoms: N3_11  and  C8_12 
ROOT
HETATM    1  O1  UNL     1      -2.580   1.726  -4.520  1.00  0.00    -0.360 OA
HETATM    2  C1  UNL     1      -3.141   0.683  -4.168  1.00  0.00     0.142 A 
HETATM    3  C2  UNL     1      -2.475   1.351  -3.088  1.00  0.00     0.185 A 
HETATM    4  C3  UNL     1      -1.741   2.274  -2.552  1.00  0.00     0.009 C 
HETATM    5  C4  UNL     1      -0.934   3.268  -1.885  1.00  0.00     0.018 C 
HETATM    6  C5  UNL     1      -0.221   4.344  -2.063  1.00  0.00     0.118 C 
HETATM    7  N1  UNL     1       0.256   4.696  -0.769  1.00  0.00    -0.254 NA
HETATM    8  C6  UNL     1       1.131   3.901  -0.175  1.00  0.00     0.233 C 
HETATM    9  N2  UNL     1       1.637   2.725  -0.718  1.00  0.00    -0.237 NA
HETATM   10  C7  UNL     1       1.780   1.565  -0.263  1.00  0.00     0.215 C 
HETATM   11  N3  UNL     1       1.639   0.656   0.798  1.00  0.00    -0.317 N 
HETATM   12  C14 UNL     1       0.599  -0.176   1.170  1.00  0.00     0.099 C 
HETATM   13  C15 UNL     1      -0.050  -1.262   1.250  1.00  0.00     0.032 C 
HETATM   14  C16 UNL     1      -0.849  -2.421   1.396  1.00  0.00    -0.001 A 
HETATM   15  C17 UNL     1      -0.573  -3.184   2.497  1.00  0.00     0.014 A 
HETATM   16  C18 UNL     1      -1.315  -4.337   2.774  1.00  0.00     0.001 A 
HETATM   17  C19 UNL     1      -2.297  -4.587   1.852  1.00  0.00     0.003 A 
HETATM   18  C20 UNL     1      -2.626  -3.878   0.741  1.00  0.00     0.038 A 
HETATM   19  C21 UNL     1      -1.862  -2.790   0.556  1.00  0.00     0.091 A 
HETATM   20  O2  UNL     1      -1.892  -1.851  -0.435  1.00  0.00    -0.261 OA
HETATM   21  C22 UNL     1      -2.875  -1.869  -1.396  1.00  0.00     0.365 C 
HETATM   22  O3  UNL     1      -3.832  -2.601  -1.593  1.00  0.00    -0.238 OA
HETATM   23  N4  UNL     1      -3.168  -1.071  -2.520  1.00  0.00    -0.333 N 
HETATM   24  C23 UNL     1      -3.788  -0.559  -3.677  1.00  0.00     0.169 C 
HETATM   25  H17 UNL     1      -2.310  -0.499  -2.415  1.00  0.00     0.164 HD
ENDROOT
BRANCH  11  26
HETATM   26  C8  UNL     1       2.877   0.850   1.392  1.00  0.00     0.041 A 
HETATM   27  C9  UNL     1       3.600   1.917   1.841  1.00  0.00     0.030 A 
HETATM   28  C10 UNL     1       4.856   1.895   2.408  1.00  0.00     0.004 A 
HETATM   29  C11 UNL     1       5.458   0.658   2.541  1.00  0.00     0.019 A 
HETATM   30  C12 UNL     1       4.761  -0.464   2.098  1.00  0.00     0.013 A 
HETATM   31 BR1  UNL     1       5.730  -2.109   2.361  1.00  0.00    -0.051 Br
HETATM   32  C13 UNL     1       3.483  -0.411   1.524  1.00  0.00     0.049 A 
ENDBRANCH  11  26
TORSDOF 1
