REMARK  1 active torsions:
REMARK  status: ('A' for Active; 'I' for Inactive)
REMARK    1  A    between atoms: C4_6  and  C5_7 
ROOT
HETATM    1  O1  UNL     1       0.335   4.790   2.314  1.00  0.00    -0.267 OA
HETATM    2  C1  UNL     1      -0.251   3.850   1.704  1.00  0.00     0.255 A 
HETATM    3  C2  UNL     1      -1.678   3.774   1.658  1.00  0.00     0.083 A 
HETATM    4  C3  UNL     1      -2.283   2.791   1.021  1.00  0.00     0.066 A 
HETATM    5  S1  UNL     1      -0.892   1.808   0.381  1.00  0.00    -0.063 SA
HETATM    6  C4  UNL     1      -0.773   0.226  -0.069  1.00  0.00     0.013 C 
HETATM    7  C11 UNL     1      -0.035  -0.877  -0.512  1.00  0.00     0.095 C 
HETATM    8  C12 UNL     1       1.024  -1.548  -0.900  1.00  0.00     0.057 A 
HETATM    9  N1  UNL     1       0.295  -2.664  -1.064  1.00  0.00    -0.245 NA
HETATM   10  C13 UNL     1       0.838  -3.849  -1.451  1.00  0.00     0.232 A 
HETATM   11  N2  UNL     1       2.146  -3.903  -1.676  1.00  0.00    -0.253 NA
HETATM   12  C14 UNL     1       2.873  -2.799  -1.516  1.00  0.00     0.131 A 
HETATM   13  C15 UNL     1       2.377  -1.586  -1.131  1.00  0.00     0.004 A 
HETATM   14  C16 UNL     1       3.247  -0.623  -1.073  1.00  0.00     0.004 C 
HETATM   15  C17 UNL     1       3.414   0.803  -0.808  1.00  0.00     0.145 C 
HETATM   16  N3  UNL     1       3.461   1.077   0.607  1.00  0.00    -0.201 NA
HETATM   17  O2  UNL     1       2.145   1.178   0.997  1.00  0.00    -0.285 OA
HETATM   18  C18 UNL     1       1.835   2.519   0.779  1.00  0.00     0.334 C 
HETATM   19  N4  UNL     1       0.442   2.811   1.026  1.00  0.00    -0.266 N 
HETATM   20  H13 UNL     1       3.953   1.946   0.838  1.00  0.00     0.154 HD
ENDROOT
BRANCH   6  21
HETATM   21  C5  UNL     1      -2.007  -0.587   0.047  1.00  0.00    -0.020 A 
HETATM   22  C6  UNL     1      -2.337  -1.213   1.242  1.00  0.00     0.012 A 
HETATM   23  C7  UNL     1      -3.466  -1.991   1.499  1.00  0.00     0.002 A 
HETATM   24  C8  UNL     1      -4.309  -2.117   0.415  1.00  0.00     0.019 A 
HETATM   25  C9  UNL     1      -4.085  -1.543  -0.813  1.00  0.00     0.011 A 
HETATM   26 BR1  UNL     1      -5.276  -1.741  -2.286  1.00  0.00    -0.051 Br
HETATM   27  C10 UNL     1      -2.921  -0.782  -0.966  1.00  0.00     0.031 A 
ENDBRANCH   6  21
TORSDOF 1
