REMARK  2 active torsions:
REMARK  status: ('A' for Active; 'I' for Inactive)
REMARK    1  A    between atoms: C2_2  and  C3_3 
REMARK    2  A    between atoms: C4_4  and  N1_5 
ROOT
HETATM    1  N1  UNL     1       0.972   0.094   0.157  1.00  0.00    -0.328 N 
HETATM    2  C5  UNL     1       0.454   1.299   0.383  1.00  0.00     0.023 A 
HETATM    3  C6  UNL     1       0.379   2.222  -0.221  1.00  0.00     0.082 A 
HETATM    4  C7  UNL     1      -0.104   3.524  -0.831  1.00  0.00     0.012 C 
HETATM    5  C8  UNL     1      -1.115   3.191   0.050  1.00  0.00     0.027 C 
HETATM    6  N2  UNL     1      -2.636   3.296   0.090  1.00  0.00    -0.342 N 
HETATM    7  C9  UNL     1      -3.338   2.018   0.497  1.00  0.00     0.144 A 
HETATM    8  N3  UNL     1      -4.276   1.294   1.107  1.00  0.00    -0.210 NA
HETATM    9  C10 UNL     1      -3.690   0.110   0.721  1.00  0.00     0.165 A 
HETATM   10  N4  UNL     1      -3.770  -1.282   0.803  1.00  0.00    -0.241 NA
HETATM   11  C11 UNL     1      -2.854  -2.108   1.460  1.00  0.00     0.119 C 
HETATM   12  C12 UNL     1      -1.462  -2.195   1.360  1.00  0.00     0.022 C 
HETATM   13  C13 UNL     1      -0.397  -1.652   0.669  1.00  0.00     0.031 C 
HETATM   14  C14 UNL     1      -0.491  -0.457  -0.003  1.00  0.00     0.039 C 
HETATM   15  C15 UNL     1      -1.528   0.300  -0.710  1.00  0.00     0.049 C 
HETATM   16  C16 UNL     1      -2.632   0.890   0.030  1.00  0.00     0.060 A 
HETATM   17  C17 UNL     1      -0.178   2.488   1.107  1.00  0.00     0.144 A 
HETATM   18 BR1  UNL     1      -1.182   1.934   2.667  1.00  0.00    -0.079 Br
HETATM   19  H10 UNL     1      -3.021   4.182  -0.174  1.00  0.00     0.167 HD
ENDROOT
BRANCH   1  20
HETATM   20  C4  UNL     1       1.954  -0.726   0.003  1.00  0.00     0.093 C 
HETATM   21  C3  UNL     1       2.123  -1.172  -1.253  1.00  0.00    -0.009 C 
BRANCH  21  22
HETATM   22  C2  UNL     1       3.139  -2.117  -1.785  1.00  0.00     0.024 C 
HETATM   23  C1  UNL     1       4.030  -2.627  -0.655  1.00  0.00     0.009 C 
ENDBRANCH  21  22
ENDBRANCH   1  20
TORSDOF 2
