REMARK  7 active torsions:
REMARK  status: ('A' for Active; 'I' for Inactive)
REMARK    1  A    between atoms: C2_2  and  N1_3 
REMARK    2  A    between atoms: C2_2  and  N2_13 
REMARK       I    between atoms: N1_3  and  C3_4 
REMARK    3  A    between atoms: C3_4  and  O2_6 
REMARK    4  A    between atoms: O2_6  and  C4_7 
REMARK    5  A    between atoms: N2_13  and  C10_14 
REMARK    6  A    between atoms: C15_21  and  N5_22 
REMARK    7  A    between atoms: N5_22  and  C16_23 
ROOT
HETATM    1  C10 UNL     1       0.698  -1.837   0.434  1.00  0.00     0.038 C 
HETATM    2  C11 UNL     1       0.370  -2.530   1.534  1.00  0.00     0.026 C 
HETATM    3  C12 UNL     1       1.195  -3.352   2.448  1.00  0.00     0.203 C 
HETATM    4  N3  UNL     1       2.495  -2.845   2.698  1.00  0.00    -0.189 NA
HETATM    5  N4  UNL     1       3.347  -2.282   1.950  1.00  0.00    -0.157 NA
HETATM    6  C13 UNL     1       3.229  -1.989   0.587  1.00  0.00     0.094 A 
HETATM    7  C14 UNL     1       2.088  -1.797  -0.065  1.00  0.00     0.025 A 
HETATM    8  C15 UNL     1       3.316  -1.685  -0.873  1.00  0.00     0.174 A 
ENDROOT
BRANCH   1   9
HETATM    9  N2  UNL     1      -0.351  -1.149  -0.217  1.00  0.00    -0.369 N 
HETATM   10  H11 UNL     1      -0.657  -1.356  -1.203  1.00  0.00     0.161 HD
BRANCH   9  11
HETATM   11  C2  UNL     1      -1.060  -0.089   0.508  1.00  0.00     0.182 C 
HETATM   12  C1  UNL     1      -0.045   0.967   0.873  1.00  0.00     0.055 C 
BRANCH  11  13
HETATM   13  N1  UNL     1      -2.057   0.525  -0.345  1.00  0.00    -0.316 N 
HETATM   14  C3  UNL     1      -3.439   0.568   0.033  1.00  0.00     0.367 C 
HETATM   15  O1  UNL     1      -3.992   0.136   1.051  1.00  0.00    -0.238 OA
HETATM   16  H5  UNL     1      -1.742   0.939  -1.248  1.00  0.00     0.166 HD
BRANCH  14  17
HETATM   17  O2  UNL     1      -4.298   1.180  -0.865  1.00  0.00    -0.262 OA
BRANCH  17  18
HETATM   18  C4  UNL     1      -5.657   1.275  -0.595  1.00  0.00     0.081 A 
HETATM   19  C5  UNL     1      -6.148   2.377   0.074  1.00  0.00     0.037 A 
HETATM   20  C6  UNL     1      -7.512   2.500   0.360  1.00  0.00     0.003 A 
HETATM   21  C7  UNL     1      -8.380   1.488  -0.043  1.00  0.00     0.000 A 
HETATM   22  C8  UNL     1      -7.870   0.392  -0.712  1.00  0.00     0.003 A 
HETATM   23  C9  UNL     1      -6.523   0.264  -0.998  1.00  0.00     0.037 A 
ENDBRANCH  17  18
ENDBRANCH  14  17
ENDBRANCH  11  13
ENDBRANCH   9  11
ENDBRANCH   1   9
BRANCH   8  24
HETATM   24  N5  UNL     1       3.656  -0.365  -1.297  1.00  0.00    -0.375 N 
HETATM   25  H16 UNL     1       3.007   0.203  -1.889  1.00  0.00     0.160 HD
BRANCH  24  26
HETATM   26  C16 UNL     1       4.876   0.229  -0.938  1.00  0.00     0.030 A 
HETATM   27  C17 UNL     1       5.831  -0.407  -0.157  1.00  0.00     0.029 A 
HETATM   28  C18 UNL     1       7.036   0.139   0.216  1.00  0.00     0.004 A 
HETATM   29  C19 UNL     1       7.350   1.409  -0.200  1.00  0.00     0.019 A 
HETATM   30  C20 UNL     1       6.441   2.090  -0.979  1.00  0.00     0.013 A 
HETATM   31 BR1  UNL     1       6.844   3.868  -1.581  1.00  0.00    -0.051 Br
HETATM   32  C21 UNL     1       5.248   1.497  -1.323  1.00  0.00     0.048 A 
ENDBRANCH  24  26
ENDBRANCH   8  24
TORSDOF 7
