REMARK  3 active torsions:
REMARK  status: ('A' for Active; 'I' for Inactive)
REMARK    1  A    between atoms: C4_6  and  C5_7 
REMARK       I    between atoms: C5_7  and  N2_9 
REMARK    2  A    between atoms: N2_9  and  C6_10 
REMARK    3  A    between atoms: C10_15  and  N4_16 
ROOT
HETATM    1  C6  UNL     1       0.542  -0.838  -0.399  1.00  0.00     0.730 C 
HETATM    2  N3  UNL     1       0.737  -1.863  -1.159  1.00  0.00    -0.075 NA
HETATM    3  C7  UNL     1      -0.162  -2.694  -1.887  1.00  0.00     0.133 C 
HETATM    4  C8  UNL     1      -1.488  -2.579  -1.778  1.00  0.00     0.001 C 
HETATM    5  C9  UNL     1      -2.441  -1.755  -1.046  1.00  0.00     0.108 C 
HETATM    6  C10 UNL     1      -1.875  -0.614  -0.334  1.00  0.00     0.132 C 
HETATM    7  N5  UNL     1      -0.689  -0.218  -0.057  1.00  0.00    -0.048 NA
ENDROOT
BRANCH   1   8
HETATM    8  N2  UNL     1       1.711  -0.245   0.176  1.00  0.00    -0.154 N 
HETATM    9  C5  UNL     1       3.016  -0.788  -0.100  1.00  0.00     0.266 C 
HETATM   10  O2  UNL     1       3.012  -1.800  -0.871  1.00  0.00    -0.270 OA
HETATM   11  H5  UNL     1       1.547   0.600   0.801  1.00  0.00     0.187 HD
BRANCH   9  12
HETATM   12  C4  UNL     1       4.112  -0.050   0.578  1.00  0.00     0.249 C 
HETATM   13  C1  UNL     1       4.268   1.308  -0.053  1.00  0.00     0.182 C 
HETATM   14  O1  UNL     1       3.419   2.021  -0.679  1.00  0.00    -0.290 OA
HETATM   15  C2  UNL     1       5.676   1.642   0.226  1.00  0.00     0.069 C 
HETATM   16  C3  UNL     1       6.334   0.508   0.427  1.00  0.00     0.088 C 
HETATM   17  N1  UNL     1       5.424  -0.602   0.296  1.00  0.00    -0.380 N 
HETATM   18  H3  UNL     1       5.907  -1.511   0.039  1.00  0.00     0.160 HD
ENDBRANCH   9  12
ENDBRANCH   1   8
BRANCH   6  19
HETATM   19  N4  UNL     1      -2.847   0.289   0.188  1.00  0.00    -0.319 N 
HETATM   20  C11 UNL     1      -3.579   1.092  -0.710  1.00  0.00     0.094 A 
HETATM   21  C12 UNL     1      -4.481   1.934  -0.265  1.00  0.00    -0.004 A 
HETATM   22  C13 UNL     1      -4.797   2.106   1.177  1.00  0.00     0.076 A 
HETATM   23  C14 UNL     1      -3.964   1.213   1.984  1.00  0.00     0.008 A 
HETATM   24 BR1  UNL     1      -4.363   1.428   3.834  1.00  0.00    -0.054 Br
HETATM   25  C15 UNL     1      -3.044   0.347   1.604  1.00  0.00     0.112 A 
ENDBRANCH   6  19
TORSDOF 3
