REMARK  3 active torsions:
REMARK  status: ('A' for Active; 'I' for Inactive)
REMARK    1  A    between atoms: N1_1  and  C1_2 
REMARK    2  A    between atoms: C6_8  and  C7_9 
REMARK    3  A    between atoms: C7_9  and  N2_10 
ROOT
HETATM    1  C1  UNL     1      -3.186   1.034  -0.286  1.00  0.00     0.052 C 
HETATM    2  C2  UNL     1      -2.686   2.129   0.322  1.00  0.00     0.090 C 
HETATM    3  C3  UNL     1      -1.584   2.916   0.996  1.00  0.00     0.096 A 
HETATM    4  C4  UNL     1      -0.320   2.464   1.266  1.00  0.00     0.019 A 
HETATM    5 BR1  UNL     1      -0.127   4.218   1.973  1.00  0.00    -0.155 Br
HETATM    6  C5  UNL     1       0.923   1.723   1.456  1.00  0.00     0.110 C 
HETATM    7  C6  UNL     1       1.391   0.497   1.298  1.00  0.00     0.012 C 
HETATM    8  N3  UNL     1       1.298  -0.889   0.960  1.00  0.00    -0.361 N 
HETATM    9  C11 UNL     1       0.350  -1.547   0.168  1.00  0.00     0.033 A 
HETATM   10  C12 UNL     1       0.294  -2.724  -0.504  1.00  0.00     0.032 A 
HETATM   11  C13 UNL     1      -0.765  -3.174  -1.259  1.00  0.00     0.035 A 
HETATM   12  C14 UNL     1      -1.928  -2.406  -1.398  1.00  0.00     0.070 A 
HETATM   13  N4  UNL     1      -3.004  -2.790  -2.150  1.00  0.00    -0.241 NA
HETATM   14  C15 UNL     1      -4.057  -1.911  -2.203  1.00  0.00     0.234 A 
HETATM   15  N5  UNL     1      -4.107  -0.699  -1.570  1.00  0.00    -0.243 NA
HETATM   16  C16 UNL     1      -3.078  -0.302  -0.835  1.00  0.00     0.071 A 
HETATM   17  C17 UNL     1      -2.046  -1.187  -0.789  1.00  0.00     0.022 A 
HETATM   18  C18 UNL     1      -0.874  -1.043  -0.143  1.00  0.00     0.045 A 
HETATM   19  H10 UNL     1       1.920  -1.640   1.266  1.00  0.00     0.165 HD
ENDROOT
BRANCH   7  20
HETATM   20  C7  UNL     1       2.767   0.689   1.751  1.00  0.00     0.193 C 
BRANCH  20  21
HETATM   21  N2  UNL     1       3.650   0.304   0.622  1.00  0.00    -0.279 N 
HETATM   22  S1  UNL     1       4.263  -1.353   0.375  1.00  0.00    -0.021 SA
HETATM   23  C8  UNL     1       5.220  -0.987  -1.156  1.00  0.00     0.074 A 
HETATM   24  C9  UNL     1       4.943   0.428  -1.301  1.00  0.00     0.083 A 
HETATM   25  C10 UNL     1       4.149   1.077  -0.401  1.00  0.00     0.254 A 
HETATM   26  O1  UNL     1       3.874   2.295  -0.470  1.00  0.00    -0.268 OA
ENDBRANCH  20  21
ENDBRANCH   7  20
BRANCH   1  27
HETATM   27  N1  UNL     1      -4.452   1.729  -0.406  1.00  0.00    -0.420 N 
HETATM   28  H1  UNL     1      -5.292   2.104   0.085  1.00  0.00     0.150 HD
HETATM   29  H2  UNL     1      -4.940   2.117  -1.230  1.00  0.00     0.150 HD
ENDBRANCH   1  27
TORSDOF 3
