REMARK  6 active torsions:
REMARK  status: ('A' for Active; 'I' for Inactive)
REMARK    1  A    between atoms: C2_2  and  C3_3 
REMARK    2  A    between atoms: C8_8  and  O1_9 
REMARK    3  A    between atoms: O1_9  and  C9_10 
REMARK    4  A    between atoms: C9_10  and  C10_11 
REMARK    5  A    between atoms: C10_11  and  C11_13 
REMARK    6  A    between atoms: C11_13  and  C12_14 
ROOT
HETATM    1  C11 UNL     1       1.044  -0.889   0.053  1.00  0.00     0.083 C 
HETATM    2  C14 UNL     1       1.386  -1.572  -1.227  1.00  0.00     0.055 C 
HETATM    3  C15 UNL     1       2.645  -2.333  -1.176  1.00  0.00    -0.025 C 
HETATM    4  C16 UNL     1       3.917  -1.983  -1.070  1.00  0.00    -0.000 C 
HETATM    5  C17 UNL     1       4.715  -0.770  -0.954  1.00  0.00     0.051 C 
HETATM    6  C18 UNL     1       4.441   0.473  -0.593  1.00  0.00     0.135 A 
HETATM    7  N1  UNL     1       5.684   1.180  -0.697  1.00  0.00    -0.224 NA
HETATM    8  C19 UNL     1       5.732   2.453  -0.401  1.00  0.00     0.236 A 
HETATM    9  N2  UNL     1       4.563   3.160   0.029  1.00  0.00    -0.237 NA
HETATM   10  C20 UNL     1       3.404   2.560   0.141  1.00  0.00     0.216 A 
HETATM   11  N3  UNL     1       3.279   1.174  -0.166  1.00  0.00    -0.301 N 
HETATM   12  P1  UNL     1       1.570   0.861   0.137  1.00  0.00     0.002 P 
HETATM   13  H19 UNL     1       1.253   1.345   1.471  1.00  0.00     0.082 HD
ENDROOT
BRANCH   1  14
HETATM   14  C10 UNL     1      -0.450  -0.887   0.180  1.00  0.00     0.169 C 
HETATM   15  O2  UNL     1      -0.744  -1.535   1.167  1.00  0.00    -0.294 OA
BRANCH  14  16
HETATM   16  C9  UNL     1      -0.969  -0.083  -0.971  1.00  0.00     0.255 C 
BRANCH  16  17
HETATM   17  O1  UNL     1      -2.376  -0.004  -0.941  1.00  0.00    -0.343 OA
BRANCH  17  18
HETATM   18  C8  UNL     1      -2.993   0.584   0.149  1.00  0.00     0.079 A 
HETATM   19  C3  UNL     1      -4.376   0.611   0.094  1.00  0.00    -0.006 A 
HETATM   20  C4  UNL     1      -5.165   1.156   1.084  1.00  0.00     0.014 A 
HETATM   21  C5  UNL     1      -4.569   1.716   2.212  1.00  0.00     0.001 A 
HETATM   22  C6  UNL     1      -3.191   1.694   2.275  1.00  0.00     0.003 A 
HETATM   23  C7  UNL     1      -2.426   1.142   1.269  1.00  0.00     0.037 A 
BRANCH  19  24
HETATM   24  C2  UNL     1      -5.106   0.054  -1.038  1.00  0.00    -0.012 C 
HETATM   25  C1  UNL     1      -6.427   0.092  -1.067  1.00  0.00     0.032 C 
ENDBRANCH  19  24
ENDBRANCH  17  18
ENDBRANCH  16  17
ENDBRANCH  14  16
ENDBRANCH   1  14
BRANCH   1  26
HETATM   26  C12 UNL     1       1.564  -1.696   1.206  1.00  0.00     0.005 C 
HETATM   27  C13 UNL     1       1.052  -2.848   1.621  1.00  0.00     0.053 C 
HETATM   28 BR1  UNL     1       1.644  -3.937   3.069  1.00  0.00    -0.064 Br
ENDBRANCH   1  26
TORSDOF 6
