REMARK  8 active torsions:
REMARK  status: ('A' for Active; 'I' for Inactive)
REMARK    1  A    between atoms: O1_1  and  C1_2 
REMARK    2  A    between atoms: C6_7  and  C7_8 
REMARK    3  A    between atoms: C7_8  and  C8_9 
REMARK    4  A    between atoms: C8_9  and  C9_10 
REMARK    5  A    between atoms: C8_9  and  N1_20 
REMARK    6  A    between atoms: C10_11  and  C11_12 
REMARK    7  A    between atoms: C11_12  and  C12_13 
REMARK    8  A    between atoms: N1_20  and  C18_21 
ROOT
HETATM    1  C8  UNL     1      -1.501   0.834  -0.616  1.00  0.00     0.167 C 
ENDROOT
BRANCH   1   2
HETATM    2  C7  UNL     1      -1.904  -0.170  -1.683  1.00  0.00     0.079 C 
BRANCH   2   3
HETATM    3  C6  UNL     1      -2.387  -1.431  -1.028  1.00  0.00    -0.022 A 
HETATM    4  C1  UNL     1      -3.665  -1.425  -0.482  1.00  0.00     0.072 A 
HETATM    5  C2  UNL     1      -4.174  -2.560   0.151  1.00  0.00     0.037 A 
HETATM    6  C3  UNL     1      -3.439  -3.703   0.251  1.00  0.00     0.003 A 
HETATM    7  C4  UNL     1      -2.174  -3.691  -0.296  1.00  0.00     0.001 A 
HETATM    8  C5  UNL     1      -1.641  -2.567  -0.935  1.00  0.00     0.010 A 
BRANCH   4   9
HETATM    9  O1  UNL     1      -4.454  -0.308  -0.551  1.00  0.00    -0.360 OA
HETATM   10  H1  UNL     1      -4.664   0.187   0.307  1.00  0.00     0.217 HD
ENDBRANCH   4   9
ENDBRANCH   2   3
ENDBRANCH   1   2
BRANCH   1  11
HETATM   11  C9  UNL     1      -0.414   0.152   0.139  1.00  0.00    -0.081 C 
HETATM   12  C10 UNL     1       0.472  -0.410   0.740  1.00  0.00    -0.100 C 
BRANCH  12  13
HETATM   13  C11 UNL     1       1.548  -1.095   1.458  1.00  0.00     0.132 C 
BRANCH  13  14
HETATM   14  C12 UNL     1       2.841  -1.004   0.747  1.00  0.00    -0.046 A 
HETATM   15  C13 UNL     1       3.806  -0.034   0.888  1.00  0.00     0.008 A 
HETATM   16  C14 UNL     1       4.983  -0.012   0.192  1.00  0.00     0.002 A 
HETATM   17  C15 UNL     1       5.207  -1.045  -0.715  1.00  0.00     0.019 A 
HETATM   18  C16 UNL     1       4.264  -2.037  -0.885  1.00  0.00     0.011 A 
HETATM   19 BR1  UNL     1       4.725  -3.369  -2.160  1.00  0.00    -0.051 Br
HETATM   20  C17 UNL     1       3.109  -2.015  -0.170  1.00  0.00     0.027 A 
ENDBRANCH  13  14
ENDBRANCH  12  13
ENDBRANCH   1  11
BRANCH   1  21
HETATM   21  N1  UNL     1      -1.052   2.054  -1.227  1.00  0.00    -0.360 N 
HETATM   22  H15 UNL     1      -0.988   2.235  -2.268  1.00  0.00     0.162 HD
BRANCH  21  23
HETATM   23  C18 UNL     1      -0.659   3.118  -0.335  1.00  0.00     0.119 A 
HETATM   24  N2  UNL     1      -0.584   3.039   0.954  1.00  0.00    -0.269 NA
HETATM   25  C19 UNL     1      -0.153   4.308   1.513  1.00  0.00     0.178 A 
HETATM   26  C20 UNL     1       0.010   5.147   0.311  1.00  0.00    -0.001 A 
HETATM   27  C21 UNL     1      -0.288   4.451  -0.796  1.00  0.00     0.047 A 
ENDBRANCH  21  23
ENDBRANCH   1  21
TORSDOF 8
