REMARK  5 active torsions:
REMARK  status: ('A' for Active; 'I' for Inactive)
REMARK    1  A    between atoms: C3_3  and  N1_4 
REMARK    2  A    between atoms: N1_4  and  C4_5 
REMARK    3  A    between atoms: C11_15  and  C12_16 
REMARK    4  A    between atoms: C12_16  and  C13_17 
REMARK    5  A    between atoms: C13_17  and  C14_18 
ROOT
HETATM    1  C1  UNL     1      -0.769   0.726  -1.333  1.00  0.00     0.030 C 
HETATM    2  C2  UNL     1       0.014  -0.239  -0.992  1.00  0.00     0.029 A 
HETATM    3  C3  UNL     1      -0.455  -1.450  -0.475  1.00  0.00     0.141 A 
HETATM    4  N2  UNL     1       0.394  -2.413  -0.138  1.00  0.00    -0.224 NA
HETATM    5  C10 UNL     1       1.722  -2.260  -0.279  1.00  0.00     0.236 A 
HETATM    6  N3  UNL     1       2.197  -1.091  -0.779  1.00  0.00    -0.241 NA
HETATM    7  C11 UNL     1       1.373  -0.091  -1.133  1.00  0.00     0.071 A 
ENDROOT
BRANCH   3   8
HETATM    8  N1  UNL     1      -1.883  -1.466  -0.364  1.00  0.00    -0.340 N 
HETATM    9  H3  UNL     1      -2.602  -1.640  -1.073  1.00  0.00     0.167 HD
BRANCH   8  10
HETATM   10  C4  UNL     1      -2.436  -1.202   0.916  1.00  0.00     0.035 A 
HETATM   11  C5  UNL     1      -3.730  -0.836   1.210  1.00  0.00     0.029 A 
HETATM   12  C6  UNL     1      -4.199  -0.616   2.476  1.00  0.00     0.004 A 
HETATM   13  C7  UNL     1      -3.354  -0.759   3.565  1.00  0.00     0.019 A 
HETATM   14  C8  UNL     1      -2.026  -1.128   3.374  1.00  0.00     0.013 A 
HETATM   15 BR1  UNL     1      -0.731  -1.378   4.750  1.00  0.00    -0.051 Br
HETATM   16  C9  UNL     1      -1.643  -1.327   2.067  1.00  0.00     0.048 A 
ENDBRANCH   8  10
ENDBRANCH   3   8
BRANCH   7  17
HETATM   17  C12 UNL     1       1.871   1.011  -1.641  1.00  0.00     0.035 C 
BRANCH  17  18
HETATM   18  C13 UNL     1       3.320   1.158  -1.784  1.00  0.00     0.038 C 
BRANCH  18  19
HETATM   19  C14 UNL     1       3.941   2.235  -2.302  1.00  0.00     0.103 A 
HETATM   20  N4  UNL     1       4.978   3.156  -2.772  1.00  0.00    -0.317 N 
HETATM   21  C15 UNL     1       3.582   3.545  -2.866  1.00  0.00     0.273 A 
HETATM   22  H11 UNL     1       6.010   2.951  -2.738  1.00  0.00     0.169 HD
HETATM   23  O1  UNL     1       3.063   4.597  -3.305  1.00  0.00    -0.266 OA
ENDBRANCH  18  19
ENDBRANCH  17  18
ENDBRANCH   7  17
TORSDOF 5
