REMARK  4 active torsions:
REMARK  status: ('A' for Active; 'I' for Inactive)
REMARK    1  A    between atoms: C1_2  and  C2_3 
REMARK       I    between atoms: C1_2  and  N1_11 
REMARK    2  A    between atoms: C2_3  and  O2_4 
REMARK    3  A    between atoms: O2_4  and  C3_5 
REMARK    4  A    between atoms: N1_11  and  C9_12 
ROOT
HETATM    1  O1  UNL     1       0.283   1.146   0.686  1.00  0.00    -0.271 OA
HETATM    2  C1  UNL     1       0.201   0.163  -0.079  1.00  0.00     0.246 C 
HETATM    3  N1  UNL     1      -1.052  -0.257  -0.544  1.00  0.00    -0.327 N 
HETATM    4  H8  UNL     1      -0.881  -1.092  -1.165  1.00  0.00     0.168 HD
ENDROOT
BRANCH   3   5
HETATM    5  C9  UNL     1      -2.366   0.206  -0.339  1.00  0.00     0.035 C 
HETATM    6  C10 UNL     1      -2.489   1.262   0.453  1.00  0.00     0.029 C 
HETATM    7  C11 UNL     1      -3.854   1.704   0.855  1.00  0.00     0.029 C 
HETATM    8  C12 UNL     1      -4.705   0.844   0.255  1.00  0.00     0.038 C 
HETATM    9  C13 UNL     1      -4.536   0.547  -1.237  1.00  0.00     0.090 C 
HETATM   10  N3  UNL     1      -5.803   0.005   0.745  1.00  0.00    -0.249 NA
HETATM   11  C14 UNL     1      -3.446  -0.559  -1.041  1.00  0.00     0.138 C 
HETATM   12  N2  UNL     1      -4.145  -1.492  -0.131  1.00  0.00    -0.374 N 
HETATM   13  C15 UNL     1      -5.456  -1.284   0.499  1.00  0.00     0.203 C 
HETATM   14  H14 UNL     1      -3.758  -2.434   0.168  1.00  0.00     0.161 HD
ENDBRANCH   3   5
BRANCH   2  15
HETATM   15  C2  UNL     1       1.532  -0.419  -0.373  1.00  0.00     0.278 C 
BRANCH  15  16
HETATM   16  O2  UNL     1       2.459   0.398   0.359  1.00  0.00    -0.342 OA
BRANCH  16  17
HETATM   17  C3  UNL     1       3.814   0.147   0.321  1.00  0.00     0.069 A 
HETATM   18  C4  UNL     1       4.543   1.032   1.084  1.00  0.00     0.037 A 
HETATM   19  C5  UNL     1       5.924   0.942   1.172  1.00  0.00     0.003 A 
HETATM   20  C6  UNL     1       6.592  -0.051   0.486  1.00  0.00     0.000 A 
HETATM   21  C7  UNL     1       5.869  -0.938  -0.277  1.00  0.00     0.003 A 
HETATM   22  C8  UNL     1       4.487  -0.860  -0.375  1.00  0.00     0.037 A 
ENDBRANCH  16  17
ENDBRANCH  15  16
ENDBRANCH   2  15
TORSDOF 4
