REMARK  0 active torsions:
REMARK  status: ('A' for Active; 'I' for Inactive)
ROOT
HETATM    1  O1  UNL     1       0.054  -1.513  -0.326  1.00  0.00    -0.143 OA
HETATM    2  C1  UNL     1       0.519  -2.615  -0.694  1.00  0.00     0.380 A 
HETATM    3  C2  UNL     1       1.143  -3.878  -1.135  1.00  0.00     0.249 C 
HETATM    4  O2  UNL     1       2.466  -3.803  -1.382  1.00  0.00    -0.382 OA
HETATM    5  C3  UNL     1       3.279  -3.272  -0.395  1.00  0.00     0.195 C 
HETATM    6  C4  UNL     1       3.060  -1.773  -0.329  1.00  0.00    -0.001 C 
HETATM    7  C5  UNL     1       4.072  -0.963  -0.536  1.00  0.00    -0.002 C 
HETATM    8  C6  UNL     1       4.858   0.238  -0.694  1.00  0.00    -0.000 C 
HETATM    9  C7  UNL     1       4.487   1.476  -0.630  1.00  0.00    -0.000 C 
HETATM   10  C8  UNL     1       3.126   1.772  -0.373  1.00  0.00    -0.003 C 
HETATM   11  C9  UNL     1       2.334   2.811  -0.239  1.00  0.00    -0.017 C 
HETATM   12  C10 UNL     1       1.396   3.883  -0.076  1.00  0.00     0.041 C 
HETATM   13  C11 UNL     1       0.127   3.980   0.166  1.00  0.00    -0.019 C 
HETATM   14  C12 UNL     1      -1.281   3.738   0.442  1.00  0.00    -0.002 C 
HETATM   15  C13 UNL     1      -2.393   3.107   0.674  1.00  0.00     0.140 C 
HETATM   16  N1  UNL     1      -2.982   1.796   0.832  1.00  0.00    -0.327 N 
HETATM   17  C14 UNL     1      -4.182   2.330   1.456  1.00  0.00     0.233 A 
HETATM   18  N2  UNL     1      -5.270   1.740   1.925  1.00  0.00    -0.169 NA
HETATM   19  N3  UNL     1      -5.252   0.351   1.793  1.00  0.00    -0.275 N 
HETATM   20  C15 UNL     1      -4.111  -0.246   1.193  1.00  0.00     0.077 A 
HETATM   21  C16 UNL     1      -4.080  -1.620   1.091  1.00  0.00     0.036 A 
HETATM   22  C17 UNL     1      -3.004  -2.282   0.547  1.00  0.00     0.043 A 
HETATM   23  C18 UNL     1      -1.853  -1.648   0.051  1.00  0.00     0.172 A 
HETATM   24  C19 UNL     1      -1.900  -0.279   0.158  1.00  0.00     0.072 A 
HETATM   25  C20 UNL     1      -2.985   0.360   0.706  1.00  0.00     0.066 A 
HETATM   26  N4  UNL     1      -0.907  -2.593  -0.402  1.00  0.00     0.121 N 
HETATM   27  H16 UNL     1      -6.055  -0.222   2.128  1.00  0.00     0.189 HD
HETATM   28  H20 UNL     1      -1.261  -3.580  -0.628  1.00  0.00     0.329 HD
ENDROOT
TORSDOF 0
