REMARK  2 active torsions:
REMARK  status: ('A' for Active; 'I' for Inactive)
REMARK    1  A    between atoms: C4_5  and  N1_6 
REMARK    2  A    between atoms: N1_6  and  C5_7 
ROOT
HETATM    1  C5  UNL     1      -0.703   0.472  -0.327  1.00  0.00     0.160 A 
HETATM    2  N2  UNL     1      -0.961   1.731  -0.655  1.00  0.00    -0.222 NA
HETATM    3  C6  UNL     1      -0.071   2.684  -0.889  1.00  0.00     0.238 A 
HETATM    4  N3  UNL     1       1.245   2.427  -0.807  1.00  0.00    -0.215 NA
HETATM    5  C7  UNL     1       1.592   1.178  -0.482  1.00  0.00     0.201 A 
HETATM    6  C8  UNL     1       0.624   0.213  -0.246  1.00  0.00     0.128 A 
HETATM    7  N4  UNL     1       0.952  -1.151   0.087  1.00  0.00    -0.383 N 
HETATM    8  C9  UNL     1       2.126  -1.633   0.794  1.00  0.00     0.121 C 
HETATM    9  C10 UNL     1       3.391  -1.380   0.020  1.00  0.00     0.018 C 
HETATM   10  B1  UNL     1       4.613  -2.412   0.685  1.00  0.00     0.196 B 
HETATM   11  C11 UNL     1       5.755  -1.219   1.829  1.00  0.00    -0.111 C 
HETATM   12  C12 UNL     1       6.075  -0.289   0.943  1.00  0.00    -0.004 C 
HETATM   13  C13 UNL     1       4.981   0.538   0.409  1.00  0.00     0.032 C 
HETATM   14  C14 UNL     1       3.795   0.049   0.002  1.00  0.00     0.052 C 
HETATM   15  O1  UNL     1       2.994   1.097  -0.444  1.00  0.00    -0.295 OA
HETATM   16  H5  UNL     1       0.190  -1.792  -0.276  1.00  0.00     0.159 HD
ENDROOT
BRANCH   1  17
HETATM   17  N1  UNL     1      -1.668  -0.532  -0.075  1.00  0.00    -0.339 N 
HETATM   18  H3  UNL     1      -1.562  -1.513   0.210  1.00  0.00     0.167 HD
BRANCH  17  19
HETATM   19  C4  UNL     1      -3.078  -0.380  -0.146  1.00  0.00     0.035 A 
HETATM   20  C3  UNL     1      -4.043  -1.375  -0.343  1.00  0.00     0.032 A 
HETATM   21  C2  UNL     1      -5.395  -1.157  -0.388  1.00  0.00     0.046 A 
HETATM   22  C1  UNL     1      -5.866   0.123  -0.231  1.00  0.00     0.138 A 
HETATM   23  F1  UNL     1      -7.211   0.264  -0.287  1.00  0.00    -0.204 F 
HETATM   24  C16 UNL     1      -4.953   1.135  -0.035  1.00  0.00     0.074 A 
HETATM   25  C15 UNL     1      -3.598   0.886   0.006  1.00  0.00     0.056 A 
HETATM   26 CL1  UNL     1      -5.686   2.722   0.150  1.00  0.00    -0.081 Cl
ENDBRANCH  17  19
ENDBRANCH   1  17
TORSDOF 2
