REMARK  8 active torsions:
REMARK  status: ('A' for Active; 'I' for Inactive)
REMARK    1  A    between atoms: C3_3  and  N1_4 
REMARK    2  A    between atoms: N1_4  and  C4_5 
REMARK    3  A    between atoms: C11_15  and  C12_16 
REMARK    4  A    between atoms: C12_16  and  C13_17 
REMARK    5  A    between atoms: C13_17  and  C14_18 
REMARK    6  A    between atoms: C14_18  and  N4_19 
REMARK       I    between atoms: N4_19  and  C15_20 
REMARK    7  A    between atoms: C15_20  and  C16_22 
REMARK    8  A    between atoms: C16_22  and  N5_23 
ROOT
HETATM    1  C1  UNL     1      -2.206   1.208  -0.478  1.00  0.00     0.049 C 
HETATM    2  C2  UNL     1      -1.691   0.715   0.626  1.00  0.00     0.017 A 
HETATM    3  C3  UNL     1      -2.532   0.565   1.707  1.00  0.00     0.138 A 
HETATM    4  N2  UNL     1      -1.921   0.058   2.777  1.00  0.00    -0.224 NA
HETATM    5  C10 UNL     1      -0.649  -0.296   2.890  1.00  0.00     0.235 A 
HETATM    6  N3  UNL     1       0.134  -0.136   1.822  1.00  0.00    -0.241 NA
HETATM    7  C11 UNL     1      -0.363   0.367   0.679  1.00  0.00     0.068 A 
ENDROOT
BRANCH   7   8
HETATM    8  C12 UNL     1       0.487   0.481  -0.299  1.00  0.00     0.034 C 
BRANCH   8   9
HETATM    9  C13 UNL     1       0.741   0.868  -1.655  1.00  0.00     0.019 C 
BRANCH   9  10
HETATM   10  C14 UNL     1       1.635   0.958  -2.593  1.00  0.00     0.091 C 
BRANCH  10  11
HETATM   11  N4  UNL     1       2.985   0.720  -2.887  1.00  0.00    -0.336 N 
HETATM   12  C15 UNL     1       4.027   0.198  -2.104  1.00  0.00     0.240 C 
HETATM   13  O1  UNL     1       4.004  -0.195  -0.917  1.00  0.00    -0.271 OA
HETATM   14  H12 UNL     1       3.453   0.903  -3.776  1.00  0.00     0.168 HD
BRANCH  12  15
HETATM   15  C16 UNL     1       5.456  -0.059  -2.397  1.00  0.00     0.243 C 
BRANCH  15  16
HETATM   16  N5  UNL     1       6.144  -0.617  -1.256  1.00  0.00    -0.276 N 
HETATM   17  S1  UNL     1       6.332  -2.344  -0.850  1.00  0.00    -0.021 SA
HETATM   18  C17 UNL     1       7.295  -2.069   0.681  1.00  0.00     0.074 A 
HETATM   19  C18 UNL     1       7.379  -0.671   0.730  1.00  0.00     0.083 A 
HETATM   20  C19 UNL     1       6.795   0.079  -0.253  1.00  0.00     0.254 A 
HETATM   21  O2  UNL     1       6.820   1.333  -0.289  1.00  0.00    -0.268 OA
ENDBRANCH  15  16
ENDBRANCH  12  15
ENDBRANCH  10  11
ENDBRANCH   9  10
ENDBRANCH   8   9
ENDBRANCH   7   8
BRANCH   3  22
HETATM   22  N1  UNL     1      -3.903   0.919   1.666  1.00  0.00    -0.340 N 
HETATM   23  H3  UNL     1      -3.958   1.908   1.960  1.00  0.00     0.167 HD
BRANCH  22  24
HETATM   24  C4  UNL     1      -4.993   0.105   1.302  1.00  0.00     0.035 A 
HETATM   25  C5  UNL     1      -4.762  -1.198   0.936  1.00  0.00     0.029 A 
HETATM   26  C6  UNL     1      -5.876  -1.939   0.591  1.00  0.00     0.004 A 
HETATM   27  C7  UNL     1      -7.164  -1.394   0.613  1.00  0.00     0.019 A 
HETATM   28  C8  UNL     1      -7.331  -0.066   0.993  1.00  0.00     0.013 A 
HETATM   29 BR1  UNL     1      -9.081   0.669   1.021  1.00  0.00    -0.051 Br
HETATM   30  C9  UNL     1      -6.236   0.701   1.344  1.00  0.00     0.048 A 
ENDBRANCH  22  24
ENDBRANCH   3  22
TORSDOF 8
