REMARK  2 active torsions:
REMARK  status: ('A' for Active; 'I' for Inactive)
REMARK    1  A    between atoms: C1_2  and  C2_3 
REMARK    2  A    between atoms: C2_3  and  C3_4 
ROOT
HETATM    1  C3  UNL     1      -2.370  -1.458   0.185  1.00  0.00    -0.008 C 
HETATM    2  C4  UNL     1      -1.820  -0.244   0.323  1.00  0.00    -0.002 C 
HETATM    3  C5  UNL     1      -1.957   0.946  -0.651  1.00  0.00     0.213 C 
HETATM    4  O1  UNL     1      -0.694   1.260  -1.074  1.00  0.00    -0.385 OA
HETATM    5  C6  UNL     1      -0.571   2.253  -1.988  1.00  0.00     0.183 C 
HETATM    6  C7  UNL     1       0.986   2.370  -2.243  1.00  0.00     0.125 C 
HETATM    7  N1  UNL     1       1.469   2.689  -0.943  1.00  0.00    -0.271 NA
HETATM    8  S1  UNL     1       3.147   2.360  -0.498  1.00  0.00    -0.110 SA
HETATM    9  C8  UNL     1       3.588   0.865  -1.085  1.00  0.00     0.054 C 
HETATM   10  C9  UNL     1       2.807  -0.036  -0.482  1.00  0.00     0.088 A 
HETATM   11  N2  UNL     1       2.732  -1.115  -1.278  1.00  0.00    -0.240 NA
HETATM   12  C10 UNL     1       1.969  -2.185  -0.997  1.00  0.00     0.234 A 
HETATM   13  N3  UNL     1       1.243  -2.145   0.160  1.00  0.00    -0.245 NA
HETATM   14  C11 UNL     1       1.329  -1.068   0.934  1.00  0.00     0.057 A 
HETATM   15  C12 UNL     1       2.097   0.054   0.704  1.00  0.00     0.017 A 
HETATM   16  C13 UNL     1       2.192   1.078   1.541  1.00  0.00    -0.000 C 
HETATM   17  C14 UNL     1       3.262   2.134   1.381  1.00  0.00     0.112 C 
HETATM   18  C15 UNL     1       0.422  -0.908   2.115  1.00  0.00     0.139 C 
HETATM   19  S2  UNL     1      -0.780   0.413   1.666  1.00  0.00    -0.126 SA
HETATM   20  H12 UNL     1       1.316   3.706  -0.762  1.00  0.00     0.134 HD
ENDROOT
BRANCH   1  21
HETATM   21  C2  UNL     1      -2.612  -2.831   0.652  1.00  0.00     0.059 C 
BRANCH  21  22
HETATM   22  C1  UNL     1      -4.082  -3.132   0.859  1.00  0.00     0.226 C 
HETATM   23  F1  UNL     1      -4.761  -2.971  -0.320  1.00  0.00    -0.255 F 
ENDBRANCH  21  22
ENDBRANCH   1  21
TORSDOF 2
