REMARK  4 active torsions:
REMARK  status: ('A' for Active; 'I' for Inactive)
REMARK    1  A    between atoms: C1_2  and  C2_3 
REMARK       I    between atoms: C1_2  and  N1_10 
REMARK    2  A    between atoms: C2_3  and  O2_4 
REMARK    3  A    between atoms: O2_4  and  C3_5 
REMARK    4  A    between atoms: N1_10  and  C8_11 
ROOT
HETATM    1  C8  UNL     1      -0.513  -0.035  -0.801  1.00  0.00     0.032 A 
HETATM    2  C9  UNL     1      -0.857   0.337  -2.119  1.00  0.00     0.035 A 
HETATM    3  C10 UNL     1      -2.211   0.361  -2.385  1.00  0.00    -0.040 A 
HETATM    4  C11 UNL     1      -2.979   0.948  -3.415  1.00  0.00     0.070 C 
HETATM    5  C12 UNL     1      -3.387   1.944  -2.461  1.00  0.00    -0.002 C 
HETATM    6 BR1  UNL     1      -4.396   2.750  -3.820  1.00  0.00    -0.055 Br
HETATM    7  C13 UNL     1      -3.284   2.362  -1.142  1.00  0.00     0.015 C 
HETATM    8  C14 UNL     1      -3.337   2.095   0.207  1.00  0.00     0.001 C 
HETATM    9  C15 UNL     1      -2.771   1.413   1.264  1.00  0.00    -0.003 C 
HETATM   10  C16 UNL     1      -2.897   0.139   1.930  1.00  0.00    -0.014 C 
HETATM   11  C17 UNL     1      -3.664  -0.737   1.084  1.00  0.00     0.019 A 
HETATM   12  N2  UNL     1      -4.045  -0.613  -0.213  1.00  0.00     0.000 N 
HETATM   13  C18 UNL     1      -5.177  -0.927  -0.795  1.00  0.00     0.092 A 
HETATM   14  N3  UNL     1      -4.315  -0.399  -1.678  1.00  0.00    -0.203 NA
HETATM   15  C19 UNL     1      -3.042   0.031  -1.398  1.00  0.00     0.098 A 
HETATM   16  C20 UNL     1      -3.307  -0.334  -0.166  1.00  0.00     0.036 A 
HETATM   17  C21 UNL     1      -1.777  -0.292  -0.094  1.00  0.00     0.017 A 
ENDROOT
BRANCH   1  18
HETATM   18  N1  UNL     1       0.797  -0.088  -0.420  1.00  0.00    -0.326 N 
HETATM   19  C1  UNL     1       1.524  -1.279  -0.638  1.00  0.00     0.246 C 
HETATM   20  O1  UNL     1       0.915  -2.245  -1.193  1.00  0.00    -0.271 OA
HETATM   21  H8  UNL     1       1.198   0.744   0.005  1.00  0.00     0.169 HD
BRANCH  19  22
HETATM   22  C2  UNL     1       2.938  -1.430  -0.244  1.00  0.00     0.278 C 
BRANCH  22  23
HETATM   23  O2  UNL     1       3.423  -0.246   0.359  1.00  0.00    -0.342 OA
BRANCH  23  24
HETATM   24  C3  UNL     1       4.580  -0.346   1.172  1.00  0.00     0.065 A 
HETATM   25  C4  UNL     1       5.757   0.281   1.232  1.00  0.00     0.014 A 
HETATM   26  C5  UNL     1       6.578  -0.290   2.330  1.00  0.00     0.057 A 
HETATM   27  C6  UNL     1       5.683  -1.344   2.891  1.00  0.00    -0.020 A 
HETATM   28  C7  UNL     1       4.531  -1.371   2.217  1.00  0.00     0.032 A 
ENDBRANCH  23  24
ENDBRANCH  22  23
ENDBRANCH  19  22
ENDBRANCH   1  18
TORSDOF 4
