REMARK  6 active torsions:
REMARK  status: ('A' for Active; 'I' for Inactive)
REMARK    1  A    between atoms: C1_2  and  C2_3 
REMARK       I    between atoms: C1_2  and  N1_11 
REMARK    2  A    between atoms: C2_3  and  O2_4 
REMARK    3  A    between atoms: O2_4  and  C3_5 
REMARK    4  A    between atoms: N1_11  and  C9_12 
REMARK    5  A    between atoms: C14_19  and  N4_20 
REMARK    6  A    between atoms: N4_20  and  C15_21 
ROOT
HETATM    1  C9  UNL     1       0.095   1.405  -1.376  1.00  0.00     0.035 A 
HETATM    2  C10 UNL     1       0.042   2.605  -2.050  1.00  0.00     0.032 A 
HETATM    3  C11 UNL     1      -1.191   3.195  -2.227  1.00  0.00     0.035 A 
HETATM    4  C12 UNL     1      -2.333   2.594  -1.739  1.00  0.00     0.072 A 
HETATM    5  N2  UNL     1      -3.471   3.260  -1.971  1.00  0.00    -0.241 NA
HETATM    6  C13 UNL     1      -4.619   2.731  -1.523  1.00  0.00     0.236 A 
HETATM    7  N3  UNL     1      -4.561   1.580  -0.877  1.00  0.00    -0.224 NA
HETATM    8  C14 UNL     1      -3.491   0.844  -0.597  1.00  0.00     0.142 A 
HETATM    9  C21 UNL     1      -2.327   1.397  -1.060  1.00  0.00     0.041 A 
HETATM   10  C22 UNL     1      -1.075   0.846  -0.908  1.00  0.00     0.047 A 
ENDROOT
BRANCH   1  11
HETATM   11  N1  UNL     1       1.368   0.798  -1.195  1.00  0.00    -0.325 N 
HETATM   12  C1  UNL     1       2.250   0.994  -0.107  1.00  0.00     0.246 C 
HETATM   13  O1  UNL     1       1.937   1.772   0.830  1.00  0.00    -0.271 OA
HETATM   14  H8  UNL     1       1.454   0.202  -2.048  1.00  0.00     0.169 HD
BRANCH  12  15
HETATM   15  C2  UNL     1       3.485   0.157  -0.320  1.00  0.00     0.278 C 
BRANCH  15  16
HETATM   16  O2  UNL     1       4.396   0.309   0.724  1.00  0.00    -0.342 OA
BRANCH  16  17
HETATM   17  C3  UNL     1       5.614  -0.328   0.809  1.00  0.00     0.069 A 
HETATM   18  C4  UNL     1       6.077  -1.215  -0.164  1.00  0.00     0.037 A 
HETATM   19  C5  UNL     1       7.308  -1.857  -0.076  1.00  0.00     0.003 A 
HETATM   20  C6  UNL     1       8.025  -1.538   1.058  1.00  0.00     0.000 A 
HETATM   21  C7  UNL     1       7.657  -0.689   2.057  1.00  0.00     0.003 A 
HETATM   22  C8  UNL     1       6.420  -0.086   1.902  1.00  0.00     0.037 A 
ENDBRANCH  16  17
ENDBRANCH  15  16
ENDBRANCH  12  15
ENDBRANCH   1  11
BRANCH   8  23
HETATM   23  N4  UNL     1      -3.442  -0.386   0.096  1.00  0.00    -0.340 N 
HETATM   24  H12 UNL     1      -2.553  -0.885   0.265  1.00  0.00     0.167 HD
BRANCH  23  25
HETATM   25  C15 UNL     1      -4.503  -1.138   0.659  1.00  0.00     0.033 A 
HETATM   26  C16 UNL     1      -4.376  -2.337   1.324  1.00  0.00     0.029 A 
HETATM   27  C17 UNL     1      -5.421  -3.046   1.861  1.00  0.00     0.002 A 
HETATM   28  C18 UNL     1      -6.708  -2.567   1.754  1.00  0.00     0.000 A 
HETATM   29  C19 UNL     1      -6.885  -1.374   1.099  1.00  0.00     0.002 A 
HETATM   30  C20 UNL     1      -5.804  -0.697   0.576  1.00  0.00     0.029 A 
ENDBRANCH  23  25
ENDBRANCH   8  23
TORSDOF 6
