REMARK  8 active torsions:
REMARK  status: ('A' for Active; 'I' for Inactive)
REMARK    1  A    between atoms: C2_2  and  C3_3 
REMARK    2  A    between atoms: C5_7  and  N3_8 
REMARK    3  A    between atoms: N3_8  and  C6_9 
REMARK    4  A    between atoms: C12_16  and  C13_17 
REMARK    5  A    between atoms: C13_17  and  C14_18 
REMARK       I    between atoms: N4_19  and  C15_20 
REMARK    6  A    between atoms: C15_20  and  C16_22 
REMARK    7  A    between atoms: C16_22  and  O2_23 
REMARK    8  A    between atoms: O2_23  and  C17_24 
ROOT
HETATM    1  C3  UNL     1      -2.164  -2.902   0.083  1.00  0.00     0.076 A 
HETATM    2  N1  UNL     1      -2.839  -3.454  -0.966  1.00  0.00    -0.241 NA
HETATM    3  C4  UNL     1      -3.803  -2.704  -1.588  1.00  0.00     0.236 A 
HETATM    4  N2  UNL     1      -4.126  -1.426  -1.209  1.00  0.00    -0.223 NA
HETATM    5  C5  UNL     1      -3.457  -0.855  -0.151  1.00  0.00     0.150 A 
HETATM    6  C12 UNL     1      -2.510  -1.650   0.423  1.00  0.00     0.085 A 
ENDROOT
BRANCH   6   7
HETATM    7  C13 UNL     1      -1.838  -1.170   1.436  1.00  0.00    -0.093 C 
BRANCH   7   8
HETATM    8  C14 UNL     1      -1.092  -0.443   2.260  1.00  0.00     0.148 C 
HETATM    9  N4  UNL     1       0.173  -0.110   1.871  1.00  0.00    -0.328 N 
HETATM   10  C15 UNL     1       1.112  -0.232   0.863  1.00  0.00     0.246 C 
HETATM   11  H12 UNL     1       0.540   0.470   2.705  1.00  0.00     0.168 HD
HETATM   12  O1  UNL     1       0.538  -0.917  -0.055  1.00  0.00    -0.271 OA
BRANCH  10  13
HETATM   13  C16 UNL     1       2.466   0.352   0.952  1.00  0.00     0.278 C 
BRANCH  13  14
HETATM   14  O2  UNL     1       3.157   0.041  -0.225  1.00  0.00    -0.342 OA
BRANCH  14  15
HETATM   15  C17 UNL     1       4.476   0.416  -0.454  1.00  0.00     0.069 A 
HETATM   16  C18 UNL     1       4.983   0.014  -1.682  1.00  0.00     0.040 A 
HETATM   17  C19 UNL     1       6.284   0.366  -1.940  1.00  0.00     0.045 A 
HETATM   18  C20 UNL     1       7.124   1.069  -1.110  1.00  0.00     0.116 A 
HETATM   19  F1  UNL     1       8.404   1.429  -1.328  1.00  0.00    -0.206 F 
HETATM   20  C21 UNL     1       6.565   1.451   0.116  1.00  0.00     0.045 A 
HETATM   21  C22 UNL     1       5.267   1.126   0.425  1.00  0.00     0.040 A 
ENDBRANCH  14  15
ENDBRANCH  13  14
ENDBRANCH  10  13
ENDBRANCH   7   8
ENDBRANCH   6   7
BRANCH   1  22
HETATM   22  C2  UNL     1      -1.246  -3.666   0.649  1.00  0.00     0.002 C 
HETATM   23  C1  UNL     1      -1.027  -5.034   0.109  1.00  0.00     0.038 C 
ENDBRANCH   1  22
BRANCH   5  24
HETATM   24  N3  UNL     1      -3.806   0.458   0.248  1.00  0.00    -0.340 N 
HETATM   25  H6  UNL     1      -4.324   0.242   1.154  1.00  0.00     0.167 HD
BRANCH  24  26
HETATM   26  C6  UNL     1      -3.623   1.751  -0.252  1.00  0.00     0.035 A 
HETATM   27  C7  UNL     1      -3.162   1.934  -1.542  1.00  0.00     0.029 A 
HETATM   28  C8  UNL     1      -3.006   3.224  -1.967  1.00  0.00     0.004 A 
HETATM   29  C9  UNL     1      -3.292   4.288  -1.153  1.00  0.00     0.019 A 
HETATM   30  C10 UNL     1      -3.754   4.070   0.143  1.00  0.00     0.013 A 
HETATM   31 BR1  UNL     1      -4.145   5.573   1.263  1.00  0.00    -0.051 Br
HETATM   32  C11 UNL     1      -3.933   2.780   0.629  1.00  0.00     0.048 A 
ENDBRANCH  24  26
ENDBRANCH   5  24
TORSDOF 8
