REMARK  7 active torsions:
REMARK  status: ('A' for Active; 'I' for Inactive)
REMARK    1  A    between atoms: O1_2  and  C2_3 
REMARK    2  A    between atoms: C5_6  and  C6_7 
REMARK    3  A    between atoms: C6_7  and  N1_8 
REMARK    4  A    between atoms: N1_8  and  C7_9 
REMARK    5  A    between atoms: C7_9  and  N2_10 
REMARK    6  A    between atoms: C11_17  and  N6_18 
REMARK    7  A    between atoms: C12_19  and  C13_20 
ROOT
HETATM    1  C7  UNL     1      -0.257   0.831  -0.560  1.00  0.00     0.157 C 
HETATM    2  C8  UNL     1      -1.202   1.769  -0.383  1.00  0.00     0.057 A 
HETATM    3  C9  UNL     1      -1.235   2.836  -1.383  1.00  0.00     0.197 A 
HETATM    4  N4  UNL     1      -2.296   3.751  -1.046  1.00  0.00    -0.278 NA
HETATM    5  C10 UNL     1      -3.009   3.528  -0.006  1.00  0.00     0.229 A 
HETATM    6  N5  UNL     1      -2.991   2.489   0.985  1.00  0.00    -0.222 NA
HETATM    7  C11 UNL     1      -2.059   1.589   0.782  1.00  0.00     0.162 A 
ENDROOT
BRANCH   1   8
HETATM    8  N1  UNL     1       0.055  -0.307   0.186  1.00  0.00    -0.369 N 
HETATM    9  H8  UNL     1      -0.568  -1.059  -0.236  1.00  0.00     0.161 HD
BRANCH   8  10
HETATM   10  C6  UNL     1       0.952  -0.604   1.277  1.00  0.00     0.160 C 
BRANCH  10  11
HETATM   11  C5  UNL     1       2.379  -0.362   0.963  1.00  0.00    -0.040 A 
HETATM   12  C4  UNL     1       3.044  -1.447   0.422  1.00  0.00     0.011 A 
HETATM   13  C3  UNL     1       4.372  -1.406   0.071  1.00  0.00     0.037 A 
HETATM   14  C2  UNL     1       5.086  -0.240   0.259  1.00  0.00     0.068 A 
HETATM   15  C20 UNL     1       4.424   0.843   0.798  1.00  0.00     0.037 A 
HETATM   16  C19 UNL     1       3.087   0.806   1.153  1.00  0.00     0.011 A 
BRANCH  14  17
HETATM   17  O1  UNL     1       6.397   0.024  -0.015  1.00  0.00    -0.356 OA
HETATM   18  C1  UNL     1       7.348  -0.839  -0.561  1.00  0.00     0.210 C 
ENDBRANCH  14  17
ENDBRANCH  10  11
ENDBRANCH   8  10
ENDBRANCH   1   8
BRANCH   1  19
HETATM   19  N2  UNL     1       0.673   0.839  -1.640  1.00  0.00    -0.139 NA
HETATM   20  N3  UNL     1       1.661   1.627  -1.728  1.00  0.00    -0.202 NA
HETATM   21  H9  UNL     1       1.799   2.314  -0.957  1.00  0.00     0.212 HD
ENDBRANCH   1  19
BRANCH   7  22
HETATM   22  N6  UNL     1      -1.974   0.527   1.718  1.00  0.00    -0.240 NA
HETATM   23  C12 UNL     1      -2.740  -0.496   1.594  1.00  0.00     0.130 C 
BRANCH  23  24
HETATM   24  C13 UNL     1      -3.793  -1.151   0.831  1.00  0.00    -0.017 A 
HETATM   25  C14 UNL     1      -4.202  -2.373   1.298  1.00  0.00     0.013 A 
HETATM   26  C15 UNL     1      -5.198  -2.958   0.549  1.00  0.00     0.003 A 
HETATM   27  C16 UNL     1      -5.725  -2.355  -0.566  1.00  0.00     0.024 A 
HETATM   28  C17 UNL     1      -5.285  -1.125  -1.001  1.00  0.00     0.034 A 
HETATM   29 CL1  UNL     1      -5.991  -0.406  -2.425  1.00  0.00    -0.084 Cl
HETATM   30  C18 UNL     1      -4.286  -0.501  -0.280  1.00  0.00     0.036 A 
ENDBRANCH  23  24
ENDBRANCH   7  22
TORSDOF 7
