REMARK  5 active torsions:
REMARK  status: ('A' for Active; 'I' for Inactive)
REMARK    1  A    between atoms: C1_2  and  C2_3 
REMARK       I    between atoms: C1_2  and  N1_12 
REMARK    2  A    between atoms: C2_3  and  O2_4 
REMARK    3  A    between atoms: O2_4  and  C3_5 
REMARK    4  A    between atoms: C13_19  and  N4_20 
REMARK    5  A    between atoms: N4_20  and  C14_21 
ROOT
HETATM    1  O1  UNL     1       1.906   0.195   0.694  1.00  0.00    -0.270 OA
HETATM    2  C1  UNL     1       1.902  -0.606  -0.276  1.00  0.00     0.252 C 
HETATM    3  N1  UNL     1       0.772  -1.120  -0.993  1.00  0.00    -0.300 N 
HETATM    4  C9  UNL     1       0.862  -2.038  -2.075  1.00  0.00     0.114 A 
HETATM    5  C10 UNL     1      -0.231  -2.412  -2.667  1.00  0.00     0.024 A 
HETATM    6  C11 UNL     1      -1.386  -1.986  -2.279  1.00  0.00     0.086 A 
HETATM    7  N2  UNL     1      -2.414  -2.477  -2.991  1.00  0.00    -0.240 NA
HETATM    8  C12 UNL     1      -3.672  -2.118  -2.697  1.00  0.00     0.236 A 
HETATM    9  N3  UNL     1      -3.896  -1.270  -1.694  1.00  0.00    -0.223 NA
HETATM   10  C13 UNL     1      -2.934  -0.746  -0.949  1.00  0.00     0.143 A 
HETATM   11  C20 UNL     1      -1.639  -1.108  -1.242  1.00  0.00     0.056 A 
HETATM   12  C21 UNL     1      -0.536  -0.697  -0.632  1.00  0.00     0.117 A 
ENDROOT
BRANCH   2  13
HETATM   13  C2  UNL     1       3.242  -1.114  -0.779  1.00  0.00     0.279 C 
BRANCH  13  14
HETATM   14  O2  UNL     1       4.285  -0.650  -0.122  1.00  0.00    -0.342 OA
BRANCH  14  15
HETATM   15  C3  UNL     1       5.180   0.099   0.416  1.00  0.00     0.069 A 
HETATM   16  C4  UNL     1       6.162  -0.620   1.120  1.00  0.00     0.040 A 
HETATM   17  C5  UNL     1       7.205   0.067   1.760  1.00  0.00     0.045 A 
HETATM   18  C6  UNL     1       7.225   1.427   1.672  1.00  0.00     0.116 A 
HETATM   19  F1  UNL     1       8.221   2.109   2.281  1.00  0.00    -0.206 F 
HETATM   20  C7  UNL     1       6.273   2.172   0.985  1.00  0.00     0.045 A 
HETATM   21  C8  UNL     1       5.258   1.469   0.365  1.00  0.00     0.040 A 
ENDBRANCH  14  15
ENDBRANCH  13  14
ENDBRANCH   2  13
BRANCH  10  22
HETATM   22  N4  UNL     1      -3.121   0.158   0.122  1.00  0.00    -0.340 N 
HETATM   23  H9  UNL     1      -2.363   0.546   0.677  1.00  0.00     0.167 HD
BRANCH  22  24
HETATM   24  C14 UNL     1      -4.327   0.698   0.641  1.00  0.00     0.035 A 
HETATM   25  C15 UNL     1      -4.439   1.624   1.683  1.00  0.00     0.029 A 
HETATM   26  C16 UNL     1      -5.634   2.102   2.136  1.00  0.00     0.004 A 
HETATM   27  C17 UNL     1      -6.821   1.698   1.590  1.00  0.00     0.019 A 
HETATM   28  C18 UNL     1      -6.797   0.767   0.536  1.00  0.00     0.013 A 
HETATM   29 BR1  UNL     1      -8.469   0.239  -0.182  1.00  0.00    -0.051 Br
HETATM   30  C19 UNL     1      -5.549   0.360   0.167  1.00  0.00     0.048 A 
ENDBRANCH  22  24
ENDBRANCH  10  22
TORSDOF 5
