REMARK  2 active torsions:
REMARK  status: ('A' for Active; 'I' for Inactive)
REMARK    1  A    between atoms: C12_15  and  O2_16 
REMARK    2  A    between atoms: C19_26  and  N4_27 
ROOT
HETATM    1  C1  UNL     1      -2.336   0.643   1.309  1.00  0.00     0.045 C 
HETATM    2  C2  UNL     1      -2.327   0.907  -0.176  1.00  0.00     0.245 C 
HETATM    3  C3  UNL     1      -1.152   1.810  -0.464  1.00  0.00     0.203 C 
HETATM    4  O1  UNL     1      -1.070   2.906   0.355  1.00  0.00    -0.385 OA
HETATM    5  C4  UNL     1       0.026   3.714   0.252  1.00  0.00     0.198 C 
HETATM    6  C5  UNL     1       1.328   3.029   0.580  1.00  0.00     0.042 C 
HETATM    7  C6  UNL     1       2.528   2.603   1.079  1.00  0.00     0.127 C 
HETATM    8  F1  UNL     1       3.378   2.972   2.066  1.00  0.00    -0.205 F 
HETATM    9  C7  UNL     1       3.044   1.361   0.431  1.00  0.00     0.038 A 
HETATM   10  C8  UNL     1       4.098   1.049  -0.387  1.00  0.00     0.036 A 
HETATM   11  C9  UNL     1       4.194  -0.234  -0.870  1.00  0.00     0.013 A 
HETATM   12 BR1  UNL     1       5.698  -0.517  -1.983  1.00  0.00    -0.051 Br
HETATM   13  C10 UNL     1       3.257  -1.193  -0.547  1.00  0.00     0.035 A 
HETATM   14  C11 UNL     1       2.173  -0.946   0.271  1.00  0.00     0.029 A 
HETATM   15  C12 UNL     1       2.099   0.368   0.754  1.00  0.00     0.091 A 
HETATM   16  C13 UNL     1       1.159  -1.951   0.571  1.00  0.00     0.079 C 
HETATM   17  N1  UNL     1       1.077  -2.955   1.400  1.00  0.00    -0.241 NA
HETATM   18  C14 UNL     1      -0.234  -3.484   1.682  1.00  0.00     0.228 C 
HETATM   19  N2  UNL     1      -1.363  -3.061   1.190  1.00  0.00    -0.269 NA
HETATM   20  C15 UNL     1      -1.367  -2.389  -0.128  1.00  0.00     0.208 C 
HETATM   21  C16 UNL     1      -0.048  -1.777  -0.258  1.00  0.00    -0.002 C 
HETATM   22  C17 UNL     1      -0.186  -1.014  -1.323  1.00  0.00     0.015 C 
HETATM   23  C18 UNL     1      -1.397  -0.450  -1.961  1.00  0.00     0.304 C 
HETATM   24  N3  UNL     1      -2.380  -0.271  -0.961  1.00  0.00     0.134 N 
HETATM   25  C19 UNL     1      -2.550  -1.494  -0.234  1.00  0.00     0.481 C 
ENDROOT
BRANCH  25  26
HETATM   26  N4  UNL     1      -3.565  -2.251  -0.996  1.00  0.00     0.115 N 
HETATM   27  H19 UNL     1      -3.246  -2.403  -1.960  1.00  0.00     0.315 HD
HETATM   28  H20 UNL     1      -3.699  -3.143  -0.469  1.00  0.00     0.315 HD
ENDBRANCH  25  26
BRANCH  15  29
HETATM   29  O2  UNL     1       0.972   0.522   1.589  1.00  0.00    -0.359 OA
HETATM   30  H12 UNL     1       1.092   0.106   2.512  1.00  0.00     0.217 HD
ENDBRANCH  15  29
TORSDOF 2
