REMARK  7 active torsions:
REMARK  status: ('A' for Active; 'I' for Inactive)
REMARK    1  A    between atoms: N1_5  and  C5_6 
REMARK    2  A    between atoms: C7_9  and  C8_10 
REMARK    3  A    between atoms: C9_11  and  N3_12 
REMARK       I    between atoms: N3_12  and  C10_13 
REMARK    4  A    between atoms: C10_13  and  C11_15 
REMARK    5  A    between atoms: C11_15  and  O2_16 
REMARK    6  A    between atoms: O2_16  and  C12_17 
REMARK    7  A    between atoms: C20_26  and  N4_27 
ROOT
HETATM    1  C5  UNL     1      -2.732   0.556   1.122  1.00  0.00     0.270 A 
HETATM    2  C6  UNL     1      -1.772  -0.406   1.699  1.00  0.00     0.126 A 
HETATM    3  N2  UNL     1      -0.472  -0.585   1.607  1.00  0.00    -0.263 NA
HETATM    4  C7  UNL     1       0.277   0.322   0.767  1.00  0.00     0.053 A 
HETATM    5  C18 UNL     1      -0.569   1.189   0.245  1.00  0.00     0.007 A 
HETATM    6  C19 UNL     1      -2.005   1.519   0.245  1.00  0.00     0.071 A 
ENDROOT
BRANCH   4   7
HETATM    7  C8  UNL     1       1.703   0.304   0.525  1.00  0.00     0.048 C 
HETATM    8  C9  UNL     1       2.309   1.167  -0.255  1.00  0.00     0.093 C 
BRANCH   8   9
HETATM    9  N3  UNL     1       3.719   1.072  -0.434  1.00  0.00    -0.335 N 
HETATM   10  C10 UNL     1       4.157   0.863  -1.785  1.00  0.00     0.245 C 
HETATM   11  O1  UNL     1       3.228   0.793  -2.663  1.00  0.00    -0.271 OA
HETATM   12  H11 UNL     1       4.562   1.122   0.175  1.00  0.00     0.168 HD
BRANCH  10  13
HETATM   13  C11 UNL     1       5.452   0.700  -2.478  1.00  0.00     0.278 C 
BRANCH  13  14
HETATM   14  O2  UNL     1       6.545   0.751  -1.624  1.00  0.00    -0.342 OA
BRANCH  14  15
HETATM   15  C12 UNL     1       6.756  -0.148  -0.611  1.00  0.00     0.069 A 
HETATM   16  C13 UNL     1       7.935   0.179   0.070  1.00  0.00     0.040 A 
HETATM   17  C14 UNL     1       8.394  -0.571   1.151  1.00  0.00     0.045 A 
HETATM   18  C15 UNL     1       7.670  -1.669   1.564  1.00  0.00     0.116 A 
HETATM   19  F1  UNL     1       8.044  -2.459   2.610  1.00  0.00    -0.206 F 
HETATM   20  C16 UNL     1       6.505  -2.013   0.910  1.00  0.00     0.045 A 
HETATM   21  C17 UNL     1       6.053  -1.270  -0.157  1.00  0.00     0.040 A 
ENDBRANCH  14  15
ENDBRANCH  13  14
ENDBRANCH  10  13
ENDBRANCH   8   9
ENDBRANCH   4   7
BRANCH   1  22
HETATM   22  N1  UNL     1      -3.879  -0.047   0.501  1.00  0.00     0.135 N 
HETATM   23  C4  UNL     1      -4.637  -0.749   1.502  1.00  0.00     0.304 C 
HETATM   24  C3  UNL     1      -5.714  -1.515   0.765  1.00  0.00     0.006 C 
HETATM   25  C2  UNL     1      -6.545  -0.815   0.000  1.00  0.00    -0.082 C 
HETATM   26  C1  UNL     1      -7.633  -1.449  -0.766  1.00  0.00     0.043 C 
HETATM   27  C21 UNL     1      -6.162   0.624   0.080  1.00  0.00     0.101 C 
HETATM   28  C20 UNL     1      -4.715   0.854  -0.205  1.00  0.00     0.456 C 
BRANCH  28  29
HETATM   29  N4  UNL     1      -4.573   0.740  -1.664  1.00  0.00     0.112 N 
HETATM   30  H22 UNL     1      -4.397  -0.227  -1.968  1.00  0.00     0.315 HD
HETATM   31  H23 UNL     1      -5.432   1.094  -2.128  1.00  0.00     0.315 HD
ENDBRANCH  28  29
ENDBRANCH   1  22
TORSDOF 7
