REMARK  3 active torsions:
REMARK  status: ('A' for Active; 'I' for Inactive)
REMARK    1  A    between atoms: C4_4  and  B1_5 
REMARK    2  A    between atoms: C7_8  and  N1_9 
REMARK       I    between atoms: N1_9  and  C8_10 
REMARK    3  A    between atoms: C8_10  and  C9_12 
ROOT
HETATM    1  C9  UNL     1       4.482   0.676   3.393  1.00  0.00     0.226 C 
HETATM    2  C10 UNL     1       4.564   2.115   3.410  1.00  0.00     0.068 C 
HETATM    3  N2  UNL     1       4.644   3.283   3.438  1.00  0.00    -0.197 NA
ENDROOT
BRANCH   1   4
HETATM    4  C8  UNL     1       3.252   0.306   2.607  1.00  0.00     0.231 C 
HETATM    5  N1  UNL     1       2.783  -1.023   2.341  1.00  0.00    -0.354 N 
HETATM    6  H7  UNL     1       3.475  -1.680   2.815  1.00  0.00     0.162 HD
HETATM    7  O1  UNL     1       3.100   1.525   2.473  1.00  0.00    -0.273 OA
BRANCH   5   8
HETATM    8  C7  UNL     1       1.559  -1.075   1.548  1.00  0.00     0.026 C 
HETATM    9  C6  UNL     1       0.320  -0.425   2.126  1.00  0.00     0.011 C 
HETATM   10  C5  UNL     1      -0.503  -0.717   1.106  1.00  0.00    -0.026 C 
HETATM   11  B1  UNL     1      -1.640  -0.916   0.097  1.00  0.00     0.299 B 
HETATM   12  N4  UNL     1      -1.689  -2.219  -0.681  1.00  0.00    -0.361 NA
HETATM   13  C14 UNL     1      -1.183  -2.106  -2.038  1.00  0.00     0.118 C 
HETATM   14  H16 UNL     1      -1.379  -3.046  -0.170  1.00  0.00     0.104 HD
HETATM   15  C13 UNL     1       0.230  -1.600  -2.049  1.00  0.00     0.096 C 
HETATM   16  N3  UNL     1       0.773  -2.373  -1.227  1.00  0.00    -0.304 NA
HETATM   17  C12 UNL     1       2.093  -2.442  -0.766  1.00  0.00     0.155 C 
HETATM   18  C11 UNL     1       2.230  -1.771   0.580  1.00  0.00     0.102 C 
BRANCH  11  19
HETATM   19  C4  UNL     1      -2.254   0.321  -0.633  1.00  0.00    -0.081 A 
HETATM   20  C3  UNL     1      -2.025   1.076  -1.826  1.00  0.00    -0.001 A 
HETATM   21  C2  UNL     1      -2.913   2.044  -1.891  1.00  0.00    -0.081 A 
HETATM   22  C1  UNL     1      -3.095   3.089  -2.923  1.00  0.00     0.043 C 
HETATM   23  C16 UNL     1      -3.837   2.013  -0.709  1.00  0.00     0.060 A 
HETATM   24  C15 UNL     1      -3.300   0.837   0.041  1.00  0.00    -0.026 A 
ENDBRANCH  11  19
ENDBRANCH   5   8
ENDBRANCH   1   4
TORSDOF 3
