REMARK  1 active torsions:
REMARK  status: ('A' for Active; 'I' for Inactive)
REMARK    1  A    between atoms: C3_4  and  N1_5 
ROOT
HETATM    1  N1  UNL     1      -1.822  -0.347  -0.702  1.00  0.00    -0.348 N 
HETATM    2  C4  UNL     1      -0.876   0.643  -1.168  1.00  0.00     0.208 C 
HETATM    3  N2  UNL     1      -0.629   1.733  -0.472  1.00  0.00    -0.238 NA
HETATM    4  C5  UNL     1       0.320   2.658  -1.005  1.00  0.00     0.230 C 
HETATM    5  N3  UNL     1       0.945   2.162  -0.002  1.00  0.00    -0.257 NA
HETATM    6  C6  UNL     1       2.272   2.488   0.434  1.00  0.00     0.324 C 
HETATM    7  O1  UNL     1       3.009   1.286   0.393  1.00  0.00    -0.342 OA
HETATM    8  C7  UNL     1       4.280   1.226   0.868  1.00  0.00     0.133 C 
HETATM    9  C8  UNL     1       4.320   0.025   0.259  1.00  0.00     0.001 C 
HETATM   10  C9  UNL     1       3.305  -0.693  -0.520  1.00  0.00     0.056 C 
HETATM   11  C10 UNL     1       2.969  -1.978   0.108  1.00  0.00    -0.025 C 
HETATM   12  C11 UNL     1       1.760  -2.357   0.573  1.00  0.00    -0.011 C 
HETATM   13  C12 UNL     1       0.471  -1.619   0.590  1.00  0.00     0.142 C 
HETATM   14  N4  UNL     1      -0.506  -2.317  -0.178  1.00  0.00    -0.403 N 
HETATM   15  C13 UNL     1      -1.792  -1.708  -0.212  1.00  0.00     0.243 C 
HETATM   16  H15 UNL     1      -0.166  -2.730  -1.058  1.00  0.00     0.155 HD
ENDROOT
BRANCH   1  17
HETATM   17  C3  UNL     1      -3.110   0.304  -0.784  1.00  0.00     0.137 A 
HETATM   18  C2  UNL     1      -4.212  -0.596  -0.360  1.00  0.00     0.046 A 
HETATM   19  C1  UNL     1      -4.806  -0.135   0.729  1.00  0.00     0.136 A 
HETATM   20  F1  UNL     1      -5.814  -0.902   1.168  1.00  0.00    -0.205 F 
HETATM   21  C15 UNL     1      -4.132   1.118   1.109  1.00  0.00     0.070 A 
HETATM   22  C14 UNL     1      -3.151   1.368   0.231  1.00  0.00     0.029 A 
HETATM   23 CL1  UNL     1      -4.820   1.861   2.560  1.00  0.00    -0.081 Cl
ENDBRANCH   1  17
TORSDOF 1
