REMARK  3 active torsions:
REMARK  status: ('A' for Active; 'I' for Inactive)
REMARK    1  A    between atoms: C7_8  and  P1_9 
REMARK    2  A    between atoms: P1_9  and  C8_10 
REMARK    3  A    between atoms: C8_10  and  C9_12 
ROOT
HETATM    1  C9  UNL     1       5.936   0.739   0.022  1.00  0.00     0.207 C 
HETATM    2  C10 UNL     1       5.517   1.634   1.073  1.00  0.00     0.067 C 
HETATM    3  N1  UNL     1       5.184   2.348   1.940  1.00  0.00    -0.197 NA
ENDROOT
BRANCH   1   4
HETATM    4  C8  UNL     1       5.011  -0.445  -0.138  1.00  0.00     0.166 C 
HETATM    5  O1  UNL     1       5.133  -1.098  -1.158  1.00  0.00    -0.292 OA
BRANCH   4   6
HETATM    6  P1  UNL     1       3.810  -0.811   1.172  1.00  0.00    -0.022 P 
HETATM    7  H8  UNL     1       4.102  -0.259   2.452  1.00  0.00     0.070 HD
BRANCH   6   8
HETATM    8  C7  UNL     1       2.062  -0.714   0.645  1.00  0.00    -0.013 C 
HETATM    9  C6  UNL     1       1.664  -1.962   0.762  1.00  0.00     0.019 C 
HETATM   10  C5  UNL     1       0.523  -2.842   0.585  1.00  0.00     0.016 C 
HETATM   11 BR1  UNL     1       2.818  -3.392   1.405  1.00  0.00    -0.050 Br
HETATM   12  C4  UNL     1      -0.774  -2.732   0.142  1.00  0.00    -0.022 C 
HETATM   13  C3  UNL     1      -1.302  -1.468  -0.308  1.00  0.00     0.066 C 
HETATM   14  C2  UNL     1      -2.424  -0.681   0.039  1.00  0.00     0.076 C 
HETATM   15  C1  UNL     1      -3.571  -1.197  -0.911  1.00  0.00     0.047 C 
HETATM   16  O2  UNL     1      -3.018  -0.651   1.270  1.00  0.00    -0.375 OA
HETATM   17  C17 UNL     1      -2.071   0.728  -0.354  1.00  0.00     0.141 C 
HETATM   18  C16 UNL     1      -4.264   0.017   1.151  1.00  0.00     0.198 C 
HETATM   19  C15 UNL     1      -4.040   1.278   0.407  1.00  0.00     0.027 C 
HETATM   20  C14 UNL     1      -3.078   1.734  -0.366  1.00  0.00     0.048 C 
HETATM   21  N4  UNL     1      -2.808   2.933  -1.100  1.00  0.00    -0.246 NA
HETATM   22  C13 UNL     1      -1.526   3.276  -1.257  1.00  0.00     0.235 C 
HETATM   23  N3  UNL     1      -0.519   2.399  -0.728  1.00  0.00    -0.228 NA
HETATM   24  C12 UNL     1      -0.758   1.270  -0.174  1.00  0.00     0.114 C 
HETATM   25  N2  UNL     1       0.542   1.021   0.146  1.00  0.00    -0.373 N 
HETATM   26  C11 UNL     1       1.875   0.736   0.392  1.00  0.00     0.162 C 
HETATM   27  H13 UNL     1       0.327   1.299   1.151  1.00  0.00     0.161 HD
ENDBRANCH   6   8
ENDBRANCH   4   6
ENDBRANCH   1   4
TORSDOF 3
