REMARK  2 active torsions:
REMARK  status: ('A' for Active; 'I' for Inactive)
REMARK    1  A    between atoms: C2_2  and  N2_5 
REMARK    2  A    between atoms: N2_5  and  C4_6 
ROOT
HETATM    1  C1  UNL     1       3.142   0.366   1.306  1.00  0.00     0.048 C 
HETATM    2  C2  UNL     1       3.667   0.434  -0.107  1.00  0.00     0.185 C 
HETATM    3  C3  UNL     1       4.968  -0.209  -0.142  1.00  0.00     0.084 C 
HETATM    4  N1  UNL     1       5.990  -0.736  -0.176  1.00  0.00    -0.195 NA
ENDROOT
BRANCH   2   5
HETATM    5  N2  UNL     1       2.778  -0.342  -0.954  1.00  0.00    -0.373 N 
HETATM    6  H5  UNL     1       2.887  -1.163  -1.584  1.00  0.00     0.161 HD
BRANCH   5   7
HETATM    7  C4  UNL     1       1.533   0.273  -0.799  1.00  0.00     0.037 C 
HETATM    8  C5  UNL     1       0.341   0.909  -0.693  1.00  0.00     0.030 C 
HETATM    9  C6  UNL     1      -0.965   1.165  -0.157  1.00  0.00     0.007 C 
HETATM   10  C7  UNL     1      -1.816   0.801   0.793  1.00  0.00    -0.061 C 
HETATM   11  C8  UNL     1      -2.718   1.791   0.151  1.00  0.00     0.055 C 
HETATM   12  C15 UNL     1      -2.089  -0.050   2.007  1.00  0.00     0.154 C 
HETATM   13  C9  UNL     1      -3.176   1.066  -1.156  1.00  0.00     0.124 C 
HETATM   14  N3  UNL     1      -2.327  -0.096  -1.468  1.00  0.00    -0.390 N 
HETATM   15  C10 UNL     1      -1.333  -0.966  -0.955  1.00  0.00     0.051 C 
HETATM   16  H12 UNL     1      -2.358  -0.531  -2.424  1.00  0.00     0.159 HD
HETATM   17  C11 UNL     1      -1.012  -1.304   0.352  1.00  0.00     0.052 C 
HETATM   18  C14 UNL     1      -0.117  -1.768  -1.412  1.00  0.00     0.144 C 
HETATM   19  C12 UNL     1       0.410  -1.315   0.853  1.00  0.00     0.042 C 
HETATM   20  N4  UNL     1      -1.923  -1.467   1.515  1.00  0.00    -0.384 N 
HETATM   21  C13 UNL     1       0.693  -0.918  -0.354  1.00  0.00    -0.009 C 
HETATM   22  H15 UNL     1      -2.375  -2.288   1.947  1.00  0.00     0.160 HD
HETATM   23 BR1  UNL     1      -0.169  -3.588  -0.940  1.00  0.00    -0.079 Br
ENDBRANCH   5   7
ENDBRANCH   2   5
TORSDOF 2
