REMARK  6 active torsions:
REMARK  status: ('A' for Active; 'I' for Inactive)
REMARK    1  A    between atoms: C2_2  and  P1_3 
REMARK    2  A    between atoms: P1_3  and  N1_4 
REMARK    3  A    between atoms: C3_5  and  C4_6 
REMARK    4  A    between atoms: C4_6  and  C5_7 
REMARK    5  A    between atoms: C4_6  and  C9_12 
REMARK    6  A    between atoms: C5_7  and  C6_8 
ROOT
HETATM    1  C9  UNL     1       0.370  -1.707  -0.030  1.00  0.00     0.023 C 
HETATM    2  C10 UNL     1       0.395  -1.634  -1.512  1.00  0.00     0.034 C 
HETATM    3  C11 UNL     1       1.169  -1.460  -2.631  1.00  0.00     0.001 C 
HETATM    4  C12 UNL     1       2.472  -1.219  -3.344  1.00  0.00    -0.009 C 
HETATM    5  C13 UNL     1       3.679  -1.058  -2.757  1.00  0.00     0.087 C 
HETATM    6  N2  UNL     1       3.811  -1.123  -1.339  1.00  0.00    -0.334 N 
HETATM    7  C14 UNL     1       3.949  -1.188   0.109  1.00  0.00     0.244 C 
HETATM    8  O1  UNL     1       5.163  -1.067  -0.144  1.00  0.00    -0.268 OA
HETATM    9  C15 UNL     1       2.854  -1.358   1.136  1.00  0.00     0.071 C 
HETATM   10  C16 UNL     1       1.608  -1.536   0.725  1.00  0.00    -0.015 C 
HETATM   11  H16 UNL     1       2.914  -0.845  -1.038  1.00  0.00     0.168 HD
ENDROOT
BRANCH   1  12
HETATM   12  C4  UNL     1      -0.646  -0.678   0.506  1.00  0.00     0.038 C 
BRANCH  12  13
HETATM   13  C3  UNL     1      -0.253   0.671   0.076  1.00  0.00     0.095 C 
HETATM   14  N1  UNL     1      -0.084   1.805   0.613  1.00  0.00    -0.257 NA
BRANCH  14  15
HETATM   15  P1  UNL     1       0.417   3.253  -0.296  1.00  0.00     0.138 P 
BRANCH  15  16
HETATM   16  C2  UNL     1       0.281   4.699   0.536  1.00  0.00    -0.121 C 
HETATM   17  C1  UNL     1       0.403   5.843   1.206  1.00  0.00     0.099 C 
ENDBRANCH  15  16
ENDBRANCH  14  15
ENDBRANCH  12  13
BRANCH  12  18
HETATM   18  C5  UNL     1      -2.025  -1.074   0.099  1.00  0.00     0.038 C 
BRANCH  18  19
HETATM   19  C6  UNL     1      -3.022  -0.146   0.693  1.00  0.00    -0.012 C 
HETATM   20  C7  UNL     1      -4.053  -0.065   1.482  1.00  0.00    -0.019 C 
HETATM   21  C8  UNL     1      -5.158   0.557   2.221  1.00  0.00     0.056 C 
HETATM   22 BR1  UNL     1      -4.206  -1.943   1.927  1.00  0.00    -0.057 Br
ENDBRANCH  18  19
ENDBRANCH  12  18
ENDBRANCH   1  12
TORSDOF 6
