REMARK  2 active torsions:
REMARK  status: ('A' for Active; 'I' for Inactive)
REMARK    1  A    between atoms: C8_11  and  N3_12 
REMARK    2  A    between atoms: N3_12  and  C9_13 
ROOT
HETATM    1  O1  UNL     1      -3.628   0.498   1.090  1.00  0.00    -0.269 OA
HETATM    2  C1  UNL     1      -3.531   1.768   1.210  1.00  0.00     0.242 C 
HETATM    3  C2  UNL     1      -4.520   2.649   0.644  1.00  0.00     0.086 C 
HETATM    4  C3  UNL     1      -4.029   3.589  -0.104  1.00  0.00    -0.020 C 
HETATM    5  C4  UNL     1      -2.940   3.354  -0.767  1.00  0.00     0.015 C 
HETATM    6  C5  UNL     1      -1.991   2.329  -0.760  1.00  0.00     0.033 C 
HETATM    7  C6  UNL     1      -1.060   1.369  -0.589  1.00  0.00     0.072 A 
HETATM    8  N1  UNL     1      -1.070   1.077  -1.884  1.00  0.00    -0.241 NA
HETATM    9  C7  UNL     1      -0.269   0.128  -2.403  1.00  0.00     0.236 A 
HETATM   10  N2  UNL     1       0.535  -0.498  -1.533  1.00  0.00    -0.224 NA
HETATM   11  C8  UNL     1       0.506  -0.170  -0.234  1.00  0.00     0.141 A 
HETATM   12  C15 UNL     1      -0.282   0.779   0.366  1.00  0.00     0.036 A 
HETATM   13  C16 UNL     1      -0.162   0.698   1.683  1.00  0.00     0.010 C 
HETATM   14  C17 UNL     1      -1.107   1.415   2.671  1.00  0.00     0.151 C 
HETATM   15  N4  UNL     1      -2.339   1.601   1.929  1.00  0.00    -0.354 N 
HETATM   16  H13 UNL     1      -2.512   2.648   2.085  1.00  0.00     0.163 HD
ENDROOT
BRANCH  11  17
HETATM   17  N3  UNL     1       1.455  -0.975   0.493  1.00  0.00    -0.340 N 
HETATM   18  H5  UNL     1       1.762  -1.101   1.500  1.00  0.00     0.167 HD
BRANCH  17  19
HETATM   19  C9  UNL     1       2.301  -1.900  -0.137  1.00  0.00     0.035 A 
HETATM   20  C10 UNL     1       2.881  -1.572  -1.354  1.00  0.00     0.029 A 
HETATM   21  C11 UNL     1       3.701  -2.452  -2.037  1.00  0.00     0.004 A 
HETATM   22  C12 UNL     1       3.993  -3.715  -1.545  1.00  0.00     0.019 A 
HETATM   23  C13 UNL     1       3.443  -4.090  -0.340  1.00  0.00     0.013 A 
HETATM   24 BR1  UNL     1       3.714  -5.788   0.517  1.00  0.00    -0.051 Br
HETATM   25  C14 UNL     1       2.636  -3.181   0.297  1.00  0.00     0.048 A 
ENDBRANCH  17  19
ENDBRANCH  11  17
TORSDOF 2
