REMARK  2 active torsions:
REMARK  status: ('A' for Active; 'I' for Inactive)
REMARK    1  A    between atoms: C4_5  and  N1_6 
REMARK    2  A    between atoms: N1_6  and  C5_7 
ROOT
HETATM    1  C5  UNL     1       1.552  -1.402   0.336  1.00  0.00     0.240 A 
HETATM    2  N2  UNL     1       0.674  -1.209  -0.488  1.00  0.00    -0.006 N 
HETATM    3  C6  UNL     1       0.286  -1.466  -1.774  1.00  0.00     0.756 C 
HETATM    4  N3  UNL     1      -0.740  -0.874  -2.307  1.00  0.00    -0.265 NA
HETATM    5  C7  UNL     1      -1.620   0.063  -1.810  1.00  0.00     0.320 C 
HETATM    6  O1  UNL     1      -2.455   0.951  -1.339  1.00  0.00    -0.330 OA
HETATM    7  C8  UNL     1      -3.284   1.004  -0.259  1.00  0.00     0.078 A 
HETATM    8  C9  UNL     1      -4.611   0.935  -0.652  1.00  0.00     0.037 A 
HETATM    9  C10 UNL     1      -5.760   0.955   0.109  1.00  0.00     0.003 A 
HETATM   10  C11 UNL     1      -5.604   1.063   1.500  1.00  0.00     0.001 A 
HETATM   11  C12 UNL     1      -4.259   1.131   1.878  1.00  0.00     0.011 A 
HETATM   12  C13 UNL     1      -3.091   1.114   1.146  1.00  0.00    -0.015 A 
HETATM   13  C14 UNL     1      -1.901   1.223   1.994  1.00  0.00     0.122 C 
HETATM   14  S1  UNL     1      -0.589   0.228   1.341  1.00  0.00    -0.097 SA
HETATM   15  C15 UNL     1       0.482  -0.588   0.826  1.00  0.00     0.217 A 
ENDROOT
BRANCH   1  16
HETATM   16  N1  UNL     1       2.680  -1.771   1.066  1.00  0.00    -0.335 N 
HETATM   17  H3  UNL     1       2.510  -2.328   1.916  1.00  0.00     0.167 HD
BRANCH  16  18
HETATM   18  C4  UNL     1       3.795  -1.214   0.341  1.00  0.00     0.035 A 
HETATM   19  C3  UNL     1       4.493  -0.209   1.044  1.00  0.00     0.032 A 
HETATM   20  C2  UNL     1       5.581   0.461   0.568  1.00  0.00     0.046 A 
HETATM   21  C1  UNL     1       6.041   0.136  -0.692  1.00  0.00     0.138 A 
HETATM   22  F1  UNL     1       7.127   0.798  -1.171  1.00  0.00    -0.204 F 
HETATM   23  C17 UNL     1       5.373  -0.847  -1.400  1.00  0.00     0.074 A 
HETATM   24  C16 UNL     1       4.273  -1.515  -0.905  1.00  0.00     0.056 A 
HETATM   25 CL1  UNL     1       5.955  -1.248  -2.998  1.00  0.00    -0.081 Cl
ENDBRANCH  16  18
ENDBRANCH   1  16
TORSDOF 2
