REMARK  6 active torsions:
REMARK  status: ('A' for Active; 'I' for Inactive)
REMARK    1  A    between atoms: N1_1  and  C1_2 
REMARK    2  A    between atoms: N2_3  and  C2_4 
REMARK    3  A    between atoms: C2_4  and  C3_5 
REMARK    4  A    between atoms: C4_6  and  N3_7 
REMARK    5  A    between atoms: N3_7  and  C5_8 
REMARK    6  A    between atoms: C13_17  and  N4_18 
ROOT
HETATM    1  C3  UNL     1      -1.190  -0.237   0.600  1.00  0.00     0.033 A 
HETATM    2  C4  UNL     1       0.018  -0.614   0.236  1.00  0.00     0.044 A 
HETATM    3  C11 UNL     1       0.277  -1.949  -0.269  1.00  0.00     0.028 A 
HETATM    4  C12 UNL     1      -0.660  -2.866  -0.397  1.00  0.00     0.018 A 
HETATM    5  C13 UNL     1      -2.081  -2.616  -0.034  1.00  0.00     0.314 A 
HETATM    6  C14 UNL     1      -2.250  -1.227   0.497  1.00  0.00     0.196 A 
HETATM    7  O1  UNL     1      -3.460  -1.119   0.819  1.00  0.00    -0.290 OA
ENDROOT
BRANCH   2   8
HETATM    8  N3  UNL     1       1.039   0.352   0.357  1.00  0.00    -0.356 N 
HETATM    9  H6  UNL     1       0.990   1.270   0.850  1.00  0.00     0.166 HD
BRANCH   8  10
HETATM   10  C5  UNL     1       2.357   0.447  -0.084  1.00  0.00     0.033 A 
HETATM   11  C6  UNL     1       3.121  -0.571   0.470  1.00  0.00     0.029 A 
HETATM   12  C7  UNL     1       4.487  -0.701   0.196  1.00  0.00     0.004 A 
HETATM   13  C8  UNL     1       5.061   0.240  -0.665  1.00  0.00     0.019 A 
HETATM   14  C9  UNL     1       4.331   1.267  -1.235  1.00  0.00     0.013 A 
HETATM   15 BR1  UNL     1       5.083   2.549  -2.394  1.00  0.00    -0.051 Br
HETATM   16  C10 UNL     1       2.991   1.330  -0.917  1.00  0.00     0.048 A 
ENDBRANCH   8  10
ENDBRANCH   2   8
BRANCH   1  17
HETATM   17  C2  UNL     1      -1.753   1.025   1.132  1.00  0.00     0.149 C 
BRANCH  17  18
HETATM   18  N2  UNL     1      -2.783   1.548   0.249  1.00  0.00    -0.411 NA
HETATM   19  C1  UNL     1      -2.865   2.788  -0.080  1.00  0.00     0.554 C 
BRANCH  19  20
HETATM   20  N1  UNL     1      -3.860   3.338  -0.942  1.00  0.00     0.107 NA
HETATM   21  H1  UNL     1      -4.056   4.364  -0.888  1.00  0.00     0.315 HD
HETATM   22  H2  UNL     1      -4.003   4.386  -0.830  1.00  0.00     0.315 HD
ENDBRANCH  19  20
ENDBRANCH  17  18
ENDBRANCH   1  17
BRANCH   5  23
HETATM   23  N4  UNL     1      -2.967  -2.771  -1.146  1.00  0.00     0.094 N 
HETATM   24  H14 UNL     1      -3.557  -1.911  -1.340  1.00  0.00     0.314 HD
HETATM   25  H15 UNL     1      -2.498  -3.101  -2.011  1.00  0.00     0.314 HD
ENDBRANCH   5  23
TORSDOF 6
