REMARK  6 active torsions:
REMARK  status: ('A' for Active; 'I' for Inactive)
REMARK    1  A    between atoms: C1_2  and  C2_3 
REMARK    2  A    between atoms: C1_2  and  C9_10 
REMARK    3  A    between atoms: C2_3  and  C3_4 
REMARK    4  A    between atoms: C12_13  and  N1_14 
REMARK    5  A    between atoms: N1_14  and  C13_15 
REMARK    6  A    between atoms: C22_27  and  O2_28 
ROOT
HETATM    1  C9  UNL     1      -0.907  -1.412  -0.620  1.00  0.00     0.112 A 
HETATM    2  C10 UNL     1      -0.101  -0.463  -1.396  1.00  0.00     0.004 C 
HETATM    3  C11 UNL     1       0.990   0.279  -1.479  1.00  0.00     0.048 C 
HETATM    4  C12 UNL     1       2.037   0.377  -0.458  1.00  0.00     0.129 C 
HETATM    5  N2  UNL     1       2.334  -0.118   0.707  1.00  0.00    -0.225 NA
HETATM    6  C19 UNL     1       1.667  -1.066   1.542  1.00  0.00     0.235 C 
HETATM    7  N3  UNL     1       0.706  -1.917   1.306  1.00  0.00    -0.245 NA
HETATM    8  C20 UNL     1      -0.112  -2.330   0.235  1.00  0.00     0.057 A 
HETATM    9  C21 UNL     1      -0.539  -3.412  -0.441  1.00  0.00     0.035 A 
HETATM   10  C22 UNL     1      -1.384  -2.607  -1.375  1.00  0.00     0.168 A 
ENDROOT
BRANCH   1  11
HETATM   11  C1  UNL     1      -2.061  -0.775   0.117  1.00  0.00     0.152 C 
HETATM   12  O1  UNL     1      -2.304  -0.783   1.320  1.00  0.00    -0.296 OA
BRANCH  11  13
HETATM   13  C2  UNL     1      -2.960  -0.067  -0.868  1.00  0.00     0.118 C 
BRANCH  13  14
HETATM   14  C3  UNL     1      -4.111   0.572  -0.220  1.00  0.00    -0.051 A 
HETATM   15  C4  UNL     1      -5.262  -0.217  -0.099  1.00  0.00     0.007 A 
HETATM   16  C5  UNL     1      -6.433   0.230   0.486  1.00  0.00     0.001 A 
HETATM   17  C6  UNL     1      -6.467   1.503   0.968  1.00  0.00     0.000 A 
HETATM   18  C7  UNL     1      -5.340   2.294   0.857  1.00  0.00     0.001 A 
HETATM   19  C8  UNL     1      -4.174   1.841   0.271  1.00  0.00     0.007 A 
ENDBRANCH  13  14
ENDBRANCH  11  13
ENDBRANCH   1  11
BRANCH  10  20
HETATM   20  O2  UNL     1      -2.735  -2.951  -1.141  1.00  0.00    -0.390 OA
HETATM   21  H18 UNL     1      -2.874  -2.774  -0.159  1.00  0.00     0.210 HD
ENDBRANCH  10  20
BRANCH   4  22
HETATM   22  N1  UNL     1       3.063   1.283  -0.830  1.00  0.00    -0.341 N 
HETATM   23  H10 UNL     1       2.739   2.124  -1.397  1.00  0.00     0.167 HD
BRANCH  22  24
HETATM   24  C13 UNL     1       4.434   1.152  -0.525  1.00  0.00     0.034 A 
HETATM   25  C14 UNL     1       5.284   2.201  -0.909  1.00  0.00     0.029 A 
HETATM   26  C15 UNL     1       6.643   2.228  -0.694  1.00  0.00     0.004 A 
HETATM   27  C16 UNL     1       7.230   1.156  -0.058  1.00  0.00     0.019 A 
HETATM   28  C17 UNL     1       6.448   0.098   0.342  1.00  0.00     0.013 A 
HETATM   29 BR1  UNL     1       7.223  -1.395   1.222  1.00  0.00    -0.051 Br
HETATM   30  C18 UNL     1       5.105   0.153   0.090  1.00  0.00     0.048 A 
ENDBRANCH  22  24
ENDBRANCH   4  22
TORSDOF 6
