REMARK  6 active torsions:
REMARK  status: ('A' for Active; 'I' for Inactive)
REMARK    1  A    between atoms: C2_2  and  C3_4 
REMARK    2  A    between atoms: C3_4  and  N1_5 
REMARK    3  A    between atoms: N1_5  and  C4_6 
REMARK       I    between atoms: N3_13  and  C10_14 
REMARK    4  A    between atoms: C10_14  and  C11_16 
REMARK    5  A    between atoms: C11_16  and  O2_17 
REMARK    6  A    between atoms: O2_17  and  C12_18 
ROOT
HETATM    1  C4  UNL     1      -1.765  -0.082  -0.647  1.00  0.00     0.705 C 
HETATM    2  N2  UNL     1      -3.038   0.028  -0.487  1.00  0.00    -0.103 NA
HETATM    3  C5  UNL     1      -4.110  -0.637   0.117  1.00  0.00     0.203 C 
HETATM    4  C6  UNL     1      -3.788  -1.515   1.277  1.00  0.00    -0.058 C 
HETATM    5  C7  UNL     1      -4.442  -1.453   2.463  1.00  0.00     0.040 C 
HETATM    6  C8  UNL     1      -2.669  -2.477   1.130  1.00  0.00     0.023 C 
HETATM    7  C9  UNL     1      -1.452  -2.372   0.549  1.00  0.00     0.119 C 
HETATM    8  N3  UNL     1      -1.043  -1.167  -0.071  1.00  0.00    -0.122 N 
HETATM    9  C10 UNL     1       0.351  -0.913  -0.083  1.00  0.00     0.266 C 
HETATM   10  O1  UNL     1       1.187  -0.129  -0.513  1.00  0.00    -0.270 OA
ENDROOT
BRANCH   1  11
HETATM   11  N1  UNL     1      -1.100   0.954  -1.404  1.00  0.00    -0.220 N 
HETATM   12  H5  UNL     1      -0.292   0.550  -1.962  1.00  0.00     0.178 HD
BRANCH  11  13
HETATM   13  C3  UNL     1      -1.708   2.266  -1.221  1.00  0.00     0.180 C 
BRANCH  13  14
HETATM   14  C2  UNL     1      -1.573   2.746   0.194  1.00  0.00    -0.016 A 
HETATM   15  C1  UNL     1      -2.644   3.011   0.907  1.00  0.00     0.121 A 
HETATM   16 BR1  UNL     1      -0.656   3.226   1.787  1.00  0.00    -0.130 Br
ENDBRANCH  13  14
ENDBRANCH  11  13
ENDBRANCH   1  11
BRANCH   9  17
HETATM   17  C11 UNL     1       1.561  -1.583   0.522  1.00  0.00     0.279 C 
BRANCH  17  18
HETATM   18  O2  UNL     1       2.723  -1.336  -0.023  1.00  0.00    -0.342 OA
BRANCH  18  19
HETATM   19  C12 UNL     1       3.663  -0.511  -0.314  1.00  0.00     0.069 A 
HETATM   20  C13 UNL     1       4.774  -0.962  -1.046  1.00  0.00     0.037 A 
HETATM   21  C14 UNL     1       5.790  -0.016  -1.362  1.00  0.00     0.003 A 
HETATM   22  C15 UNL     1       5.872   1.405  -1.039  1.00  0.00     0.000 A 
HETATM   23  C16 UNL     1       4.660   1.579  -0.321  1.00  0.00     0.003 A 
HETATM   24  C17 UNL     1       3.604   0.827   0.070  1.00  0.00     0.037 A 
ENDBRANCH  18  19
ENDBRANCH  17  18
ENDBRANCH   9  17
TORSDOF 6
