REMARK  8 active torsions:
REMARK  status: ('A' for Active; 'I' for Inactive)
REMARK    1  A    between atoms: C3_3  and  C4_4 
REMARK    2  A    between atoms: C5_5  and  N1_6 
REMARK    3  A    between atoms: N1_6  and  C6_7 
REMARK    4  A    between atoms: C10_12  and  C11_13 
REMARK    5  A    between atoms: C14_17  and  C15_18 
REMARK    6  A    between atoms: C15_18  and  N3_19 
REMARK       I    between atoms: N3_19  and  C16_20 
REMARK    7  A    between atoms: C16_20  and  C17_22 
REMARK    8  A    between atoms: C17_22  and  C18_23 
ROOT
HETATM    1  C6  UNL     1       1.951   1.729  -0.032  1.00  0.00     0.135 C 
HETATM    2  N2  UNL     1       3.033   2.472  -0.026  1.00  0.00    -0.243 NA
HETATM    3  C7  UNL     1       3.285   3.846  -0.324  1.00  0.00     0.119 C 
HETATM    4  C8  UNL     1       2.673   4.855  -0.921  1.00  0.00     0.020 C 
HETATM    5  C9  UNL     1       1.370   4.939  -1.565  1.00  0.00     0.013 C 
HETATM    6  C10 UNL     1       0.288   4.187  -1.593  1.00  0.00    -0.035 C 
HETATM    7  C13 UNL     1      -0.037   2.923  -0.958  1.00  0.00     0.024 C 
HETATM    8  C14 UNL     1       0.512   1.902  -0.330  1.00  0.00     0.006 C 
ENDROOT
BRANCH   8   9
HETATM    9  C15 UNL     1      -0.242   0.744   0.186  1.00  0.00     0.165 C 
BRANCH   9  10
HETATM   10  N3  UNL     1      -1.667   0.803  -0.051  1.00  0.00    -0.356 N 
HETATM   11  C16 UNL     1      -2.296  -0.356   0.479  1.00  0.00     0.222 C 
HETATM   12  O1  UNL     1      -1.782  -1.343   1.082  1.00  0.00    -0.273 OA
HETATM   13  H17 UNL     1      -2.403   1.389  -0.472  1.00  0.00     0.162 HD
BRANCH  11  14
HETATM   14  C17 UNL     1      -3.749  -0.662   0.433  1.00  0.00     0.141 C 
BRANCH  14  15
HETATM   15  C18 UNL     1      -4.050  -1.943   1.077  1.00  0.00    -0.050 A 
HETATM   16  C19 UNL     1      -4.330  -1.874   2.431  1.00  0.00     0.007 A 
HETATM   17  C20 UNL     1      -4.625  -3.052   3.111  1.00  0.00     0.001 A 
HETATM   18  C21 UNL     1      -4.653  -4.290   2.498  1.00  0.00     0.000 A 
HETATM   19  C22 UNL     1      -4.372  -4.355   1.138  1.00  0.00     0.001 A 
HETATM   20  C23 UNL     1      -4.078  -3.170   0.472  1.00  0.00     0.007 A 
ENDBRANCH  14  15
ENDBRANCH  11  14
ENDBRANCH   9  10
ENDBRANCH   8   9
BRANCH   1  21
HETATM   21  N1  UNL     1       2.297   0.408   0.358  1.00  0.00    -0.350 N 
HETATM   22  H8  UNL     1       1.595  -0.171   0.848  1.00  0.00     0.166 HD
BRANCH  21  23
HETATM   23  C5  UNL     1       3.599  -0.161   0.097  1.00  0.00     0.090 C 
HETATM   24  C4  UNL     1       3.746  -1.479   0.066  1.00  0.00     0.017 C 
BRANCH  24  25
HETATM   25  C3  UNL     1       5.062  -2.035  -0.198  1.00  0.00    -0.003 C 
HETATM   26  C2  UNL     1       5.277  -3.337  -0.243  1.00  0.00    -0.031 C 
HETATM   27  C1  UNL     1       4.319  -4.454  -0.053  1.00  0.00     0.036 C 
ENDBRANCH  24  25
ENDBRANCH  21  23
ENDBRANCH   1  21
BRANCH   6  28
HETATM   28  C11 UNL     1      -0.808   4.677  -2.394  1.00  0.00     0.019 C 
HETATM   29  C12 UNL     1      -1.989   4.180  -2.624  1.00  0.00     0.057 C 
HETATM   30 BR1  UNL     1      -3.367   4.925  -3.711  1.00  0.00    -0.064 Br
ENDBRANCH   6  28
TORSDOF 8
