REMARK  6 active torsions:
REMARK  status: ('A' for Active; 'I' for Inactive)
REMARK    1  A    between atoms: C5_7  and  N3_8 
REMARK    2  A    between atoms: N3_8  and  C6_9 
REMARK    3  A    between atoms: C12_16  and  N4_17 
REMARK       I    between atoms: N4_17  and  C13_18 
REMARK    4  A    between atoms: C13_18  and  C14_20 
REMARK    5  A    between atoms: C15_22  and  C16_23 
REMARK    6  A    between atoms: C16_23  and  N5_24 
ROOT
HETATM    1  C1  UNL     1      -0.976  -4.382   0.234  1.00  0.00     0.038 C 
HETATM    2  C2  UNL     1      -0.973  -2.899   0.432  1.00  0.00    -0.001 C 
HETATM    3  C3  UNL     1      -2.107  -2.253   0.215  1.00  0.00     0.062 A 
HETATM    4  N1  UNL     1      -3.261  -2.956  -0.188  1.00  0.00    -0.244 NA
HETATM    5  C4  UNL     1      -4.395  -2.346  -0.411  1.00  0.00     0.235 A 
HETATM    6  N2  UNL     1      -4.517  -0.933  -0.255  1.00  0.00    -0.226 NA
HETATM    7  C5  UNL     1      -3.479  -0.234   0.116  1.00  0.00     0.134 A 
HETATM    8  C12 UNL     1      -2.129  -0.776   0.406  1.00  0.00     0.206 A 
ENDROOT
BRANCH   8   9
HETATM    9  N4  UNL     1      -1.131  -0.258  -0.513  1.00  0.00    -0.342 N 
HETATM   10  C13 UNL     1       0.077   0.421  -0.105  1.00  0.00     0.250 C 
HETATM   11  O1  UNL     1       0.067   0.459   1.174  1.00  0.00    -0.271 OA
HETATM   12  H12 UNL     1      -1.363  -0.420  -1.539  1.00  0.00     0.163 HD
BRANCH  10  13
HETATM   13  C14 UNL     1       1.037   0.915  -1.134  1.00  0.00     0.244 A 
HETATM   14  O2  UNL     1       1.497   2.208  -0.810  1.00  0.00    -0.364 OA
HETATM   15  C15 UNL     1       2.424   1.172  -0.855  1.00  0.00     0.189 A 
BRANCH  15  16
HETATM   16  C16 UNL     1       3.125   0.690   0.373  1.00  0.00     0.307 C 
BRANCH  16  17
HETATM   17  N5  UNL     1       4.053  -0.407   0.070  1.00  0.00     0.091 N 
HETATM   18  C17 UNL     1       4.707  -0.843   1.274  1.00  0.00     0.272 C 
HETATM   19  C18 UNL     1       5.803   0.106   1.644  1.00  0.00     0.030 C 
HETATM   20  C19 UNL     1       6.862   0.153   0.588  1.00  0.00     0.003 C 
HETATM   21  C20 UNL     1       6.357  -0.585  -0.635  1.00  0.00     0.030 C 
HETATM   22  C21 UNL     1       4.958  -0.113  -0.990  1.00  0.00     0.272 C 
ENDBRANCH  16  17
ENDBRANCH  15  16
ENDBRANCH  10  13
ENDBRANCH   8   9
BRANCH   7  23
HETATM   23  N3  UNL     1      -3.638   1.182   0.262  1.00  0.00    -0.342 N 
HETATM   24  H6  UNL     1      -2.818   1.809   0.505  1.00  0.00     0.167 HD
BRANCH  23  25
HETATM   25  C6  UNL     1      -4.878   1.858   0.099  1.00  0.00     0.034 A 
HETATM   26  C7  UNL     1      -5.807   2.112   1.075  1.00  0.00     0.029 A 
HETATM   27  C8  UNL     1      -6.965   2.783   0.745  1.00  0.00     0.004 A 
HETATM   28  C9  UNL     1      -7.220   3.211  -0.552  1.00  0.00     0.019 A 
HETATM   29  C10 UNL     1      -6.289   2.956  -1.532  1.00  0.00     0.013 A 
HETATM   30 BR1  UNL     1      -6.679   3.562  -3.304  1.00  0.00    -0.051 Br
HETATM   31  C11 UNL     1      -5.122   2.279  -1.193  1.00  0.00     0.048 A 
ENDBRANCH  23  25
ENDBRANCH   7  23
TORSDOF 6
