REMARK  3 active torsions:
REMARK  status: ('A' for Active; 'I' for Inactive)
REMARK    1  A    between atoms: C12_17  and  C13_18 
REMARK    2  A    between atoms: C14_20  and  C15_21 
REMARK    3  A    between atoms: C15_21  and  N4_22 
ROOT
HETATM    1 BR1  UNL     1      -5.596  -3.592  -1.392  1.00  0.00    -0.049 Br
HETATM    2  C1  UNL     1      -4.318  -2.901  -0.089  1.00  0.00     0.034 C 
HETATM    3  C2  UNL     1      -3.198  -3.446   0.475  1.00  0.00     0.003 C 
HETATM    4  C3  UNL     1      -2.468  -2.134   0.637  1.00  0.00     0.037 C 
HETATM    5  C4  UNL     1      -3.427  -1.436   1.487  1.00  0.00     0.013 C 
HETATM    6  C5  UNL     1      -4.430  -1.580   0.587  1.00  0.00     0.047 C 
HETATM    7  N1  UNL     1      -5.439  -0.591   0.242  1.00  0.00    -0.343 N 
HETATM    8  C6  UNL     1      -4.975   0.657  -0.330  1.00  0.00     0.108 C 
HETATM    9  N2  UNL     1      -3.747   0.822  -0.501  1.00  0.00    -0.220 NA
HETATM   10  C7  UNL     1      -3.049   1.885  -1.093  1.00  0.00     0.124 C 
HETATM   11  N3  UNL     1      -3.836   2.796  -1.506  1.00  0.00    -0.275 NA
HETATM   12  C8  UNL     1      -5.139   3.033  -0.905  1.00  0.00     0.158 C 
HETATM   13  C9  UNL     1      -5.920   1.731  -0.705  1.00  0.00     0.100 C 
HETATM   14  C10 UNL     1      -1.680   1.271  -0.858  1.00  0.00     0.106 C 
HETATM   15  C11 UNL     1      -1.560   0.943   0.591  1.00  0.00     0.175 C 
HETATM   16  O1  UNL     1      -0.617   0.144   1.068  1.00  0.00    -0.383 OA
HETATM   17  C12 UNL     1      -0.319  -1.051   0.525  1.00  0.00     0.153 C 
HETATM   18  C21 UNL     1      -1.072  -2.255   1.161  1.00  0.00     0.047 C 
HETATM   19  H4  UNL     1      -6.424  -0.816   0.403  1.00  0.00     0.167 HD
ENDROOT
BRANCH  17  20
HETATM   20  C13 UNL     1       1.117  -1.358   0.475  1.00  0.00     0.181 A 
HETATM   21  O2  UNL     1       1.776  -1.376   1.831  1.00  0.00    -0.371 OA
HETATM   22  C14 UNL     1       2.172  -0.435   0.790  1.00  0.00     0.181 A 
BRANCH  22  23
HETATM   23  C15 UNL     1       3.576  -0.741   0.362  1.00  0.00     0.306 C 
BRANCH  23  24
HETATM   24  N4  UNL     1       4.038   0.147  -0.671  1.00  0.00     0.091 N 
HETATM   25  C16 UNL     1       4.214   1.508  -0.220  1.00  0.00     0.272 C 
HETATM   26  C17 UNL     1       5.359   1.576   0.742  1.00  0.00     0.030 C 
HETATM   27  C18 UNL     1       6.616   1.191  -0.024  1.00  0.00     0.003 C 
HETATM   28  C19 UNL     1       6.475  -0.172  -0.628  1.00  0.00     0.030 C 
HETATM   29  C20 UNL     1       5.184  -0.360  -1.379  1.00  0.00     0.272 C 
ENDBRANCH  23  24
ENDBRANCH  22  23
ENDBRANCH  17  20
TORSDOF 3
