REMARK  4 active torsions:
REMARK  status: ('A' for Active; 'I' for Inactive)
REMARK    1  A    between atoms: C7_11  and  N4_12 
REMARK    2  A    between atoms: N4_12  and  C8_13 
REMARK    3  A    between atoms: C15_22  and  C16_23 
REMARK    4  A    between atoms: C16_23  and  N6_24 
ROOT
HETATM    1  O1  UNL     1      -1.636   1.783   3.032  1.00  0.00    -0.273 OA
HETATM    2  C1  UNL     1      -1.328   1.323   1.912  1.00  0.00     0.225 C 
HETATM    3  N1  UNL     1       0.124   1.506   1.395  1.00  0.00    -0.348 N 
HETATM    4  C2  UNL     1       0.260   2.185  -0.137  1.00  0.00     0.071 A 
HETATM    5  C3  UNL     1      -1.006   2.385  -0.372  1.00  0.00     0.044 A 
HETATM    6  C4  UNL     1      -0.590   1.020  -0.306  1.00  0.00     0.069 A 
HETATM    7  C5  UNL     1       0.345   0.089  -0.174  1.00  0.00     0.136 A 
HETATM    8  N2  UNL     1       0.114  -1.343  -0.126  1.00  0.00    -0.226 NA
HETATM    9  C6  UNL     1       1.255  -2.005  -0.060  1.00  0.00     0.254 A 
HETATM   10  N3  UNL     1       2.593  -1.529  -0.032  1.00  0.00    -0.057 NA
HETATM   11  C7  UNL     1       2.899  -0.287  -0.068  1.00  0.00     0.709 A 
HETATM   12  N5  UNL     1       1.794   0.499  -0.137  1.00  0.00    -0.165 N 
HETATM   13  C14 UNL     1       1.794   2.033  -0.136  1.00  0.00     0.181 C 
HETATM   14  C15 UNL     1      -1.758   0.524   0.557  1.00  0.00     0.125 C 
HETATM   15  H1  UNL     1       0.857   1.183   2.242  1.00  0.00     0.163 HD
ENDROOT
BRANCH  11  16
HETATM   16  N4  UNL     1       4.106   0.419  -0.053  1.00  0.00    -0.190 N 
HETATM   17  H4  UNL     1       4.105   1.391  -0.411  1.00  0.00     0.184 HD
BRANCH  16  18
HETATM   18  C8  UNL     1       5.213  -0.288   0.465  1.00  0.00     0.050 A 
HETATM   19  C9  UNL     1       5.311  -1.481   1.119  1.00  0.00     0.030 A 
HETATM   20  C10 UNL     1       6.492  -2.041   1.549  1.00  0.00     0.004 A 
HETATM   21  C11 UNL     1       7.666  -1.364   1.311  1.00  0.00     0.019 A 
HETATM   22  C12 UNL     1       7.619  -0.156   0.654  1.00  0.00     0.013 A 
HETATM   23 BR1  UNL     1       9.275   0.730   0.354  1.00  0.00    -0.051 Br
HETATM   24  C13 UNL     1       6.409   0.362   0.244  1.00  0.00     0.049 A 
ENDBRANCH  16  18
ENDBRANCH  11  16
BRANCH  14  25
HETATM   25  C16 UNL     1      -3.100   0.954   0.230  1.00  0.00     0.287 C 
BRANCH  25  26
HETATM   26  N6  UNL     1      -3.705   0.368  -0.951  1.00  0.00     0.089 N 
HETATM   27  C17 UNL     1      -5.006   0.893  -1.157  1.00  0.00     0.272 C 
HETATM   28  C18 UNL     1      -5.986   0.015  -0.409  1.00  0.00     0.030 C 
HETATM   29  C19 UNL     1      -6.062  -1.255  -1.227  1.00  0.00     0.003 C 
HETATM   30  C20 UNL     1      -4.708  -1.806  -1.560  1.00  0.00     0.030 C 
HETATM   31  C21 UNL     1      -3.562  -1.046  -0.993  1.00  0.00     0.272 C 
ENDBRANCH  25  26
ENDBRANCH  14  25
TORSDOF 4
