REMARK  5 active torsions:
REMARK  status: ('A' for Active; 'I' for Inactive)
REMARK    1  A    between atoms: C3_5  and  C4_6 
REMARK    2  A    between atoms: C6_9  and  N3_10 
REMARK       I    between atoms: N3_10  and  C7_11 
REMARK    3  A    between atoms: C7_11  and  C8_13 
REMARK    4  A    between atoms: C9_15  and  C10_16 
REMARK    5  A    between atoms: C10_16  and  N4_17 
ROOT
HETATM    1  C4  UNL     1      -2.132   2.823   0.883  1.00  0.00     0.058 C 
HETATM    2  C5  UNL     1      -1.632   3.927   1.343  1.00  0.00     0.178 C 
HETATM    3 BR1  UNL     1      -1.005   5.561   2.012  1.00  0.00    -0.200 Br
ENDROOT
BRANCH   1   4
HETATM    4  C3  UNL     1      -2.570   1.551   0.369  1.00  0.00     0.058 C 
HETATM    5  N2  UNL     1      -3.966   1.606   0.237  1.00  0.00    -0.341 N 
HETATM    6  C2  UNL     1      -5.022   0.721  -0.057  1.00  0.00     0.126 C 
HETATM    7  H4  UNL     1      -4.361   2.579   0.401  1.00  0.00     0.167 HD
HETATM    8  N1  UNL     1      -6.192   1.038   0.397  1.00  0.00    -0.279 NA
HETATM    9  C22 UNL     1      -5.121  -0.517  -0.778  1.00  0.00     0.184 A 
HETATM   10  C1  UNL     1      -6.322   2.261   1.159  1.00  0.00     0.179 C 
HETATM   11  C18 UNL     1      -4.132  -1.558  -0.592  1.00  0.00    -0.028 A 
HETATM   12  N5  UNL     1      -6.453  -1.147  -0.636  1.00  0.00    -0.384 N 
HETATM   13  C17 UNL     1      -2.651  -1.504  -0.625  1.00  0.00     0.012 C 
HETATM   14  C19 UNL     1      -4.419  -2.853  -0.342  1.00  0.00     0.011 A 
HETATM   15  C16 UNL     1      -1.705  -0.660  -0.345  1.00  0.00     0.032 C 
HETATM   16  C6  UNL     1      -1.632   0.680   0.151  1.00  0.00     0.061 C 
HETATM   17  C20 UNL     1      -5.799  -3.303  -0.236  1.00  0.00     0.017 A 
HETATM   18  C21 UNL     1      -6.829  -2.489  -0.375  1.00  0.00     0.084 A 
HETATM   19  H27 UNL     1      -7.222  -0.429  -0.759  1.00  0.00     0.160 HD
BRANCH  16  20
HETATM   20  N3  UNL     1      -0.337   1.131   0.458  1.00  0.00    -0.323 N 
HETATM   21  C7  UNL     1       0.967   0.645   0.422  1.00  0.00     0.254 C 
HETATM   22  O1  UNL     1       1.109  -0.525   0.006  1.00  0.00    -0.270 OA
HETATM   23  H7  UNL     1      -0.271   2.099   0.821  1.00  0.00     0.169 HD
BRANCH  21  24
HETATM   24  C8  UNL     1       2.196   1.327   0.807  1.00  0.00     0.244 A 
HETATM   25  O2  UNL     1       3.192   0.557   1.363  1.00  0.00    -0.364 OA
HETATM   26  C9  UNL     1       3.503   1.160   0.173  1.00  0.00     0.189 A 
BRANCH  26  27
HETATM   27  C10 UNL     1       3.809   0.317  -1.006  1.00  0.00     0.307 C 
BRANCH  27  28
HETATM   28  N4  UNL     1       4.929  -0.576  -0.881  1.00  0.00     0.091 N 
HETATM   29  C11 UNL     1       4.772  -1.659   0.021  1.00  0.00     0.272 C 
HETATM   30  C12 UNL     1       6.045  -2.127   0.672  1.00  0.00     0.030 C 
HETATM   31  C13 UNL     1       7.146  -2.162  -0.333  1.00  0.00     0.003 C 
HETATM   32  C14 UNL     1       7.319  -0.840  -1.052  1.00  0.00     0.030 C 
HETATM   33  C15 UNL     1       6.191   0.113  -0.763  1.00  0.00     0.272 C 
ENDBRANCH  27  28
ENDBRANCH  26  27
ENDBRANCH  21  24
ENDBRANCH  16  20
ENDBRANCH   1   4
TORSDOF 5
