REMARK  5 active torsions:
REMARK  status: ('A' for Active; 'I' for Inactive)
REMARK    1  A    between atoms: C6_7  and  C7_8 
REMARK    2  A    between atoms: C8_10  and  N2_11 
REMARK    3  A    between atoms: C8_10  and  C9_12 
REMARK    4  A    between atoms: C14_19  and  N5_20 
REMARK    5  A    between atoms: N5_20  and  C15_21 
ROOT
HETATM    1  C9  UNL     1      -0.287  -0.553   0.333  1.00  0.00     0.011 A 
HETATM    2  C10 UNL     1      -0.580  -1.891   0.419  1.00  0.00     0.014 A 
HETATM    3  C11 UNL     1       0.335  -2.916   0.348  1.00  0.00     0.033 A 
HETATM    4  C12 UNL     1       1.665  -2.594   0.175  1.00  0.00     0.072 A 
HETATM    5  N3  UNL     1       2.513  -3.639   0.113  1.00  0.00    -0.241 NA
HETATM    6  C13 UNL     1       3.805  -3.353  -0.053  1.00  0.00     0.236 A 
HETATM    7  N4  UNL     1       4.221  -2.104  -0.151  1.00  0.00    -0.224 NA
HETATM    8  C14 UNL     1       3.413  -1.041  -0.094  1.00  0.00     0.142 A 
HETATM    9  C21 UNL     1       2.069  -1.272   0.077  1.00  0.00     0.039 A 
HETATM   10  C22 UNL     1       1.085  -0.312   0.159  1.00  0.00     0.030 A 
ENDROOT
BRANCH   1  11
HETATM   11  C8  UNL     1      -1.154   0.614   0.365  1.00  0.00     0.313 A 
HETATM   12  C7  UNL     1      -2.553   0.708   0.089  1.00  0.00     0.229 A 
HETATM   13  O1  UNL     1      -1.646   1.042  -0.954  1.00  0.00    -0.334 OA
BRANCH  12  14
HETATM   14  C6  UNL     1      -3.534  -0.308  -0.368  1.00  0.00     0.258 C 
HETATM   15  C2  UNL     1      -4.509  -0.628   0.712  1.00  0.00     0.017 C 
HETATM   16  C1  UNL     1      -5.497  -1.682   0.283  1.00  0.00     0.012 C 
HETATM   17  C3  UNL     1      -5.150   0.612   1.251  1.00  0.00     0.008 C 
HETATM   18  C4  UNL     1      -5.519   1.615   0.209  1.00  0.00     0.030 C 
HETATM   19  C5  UNL     1      -4.769   1.555  -1.069  1.00  0.00     0.270 C 
HETATM   20  N1  UNL     1      -4.309   0.272  -1.485  1.00  0.00     0.091 N 
HETATM   21  H11 UNL     1      -5.030  -0.371  -1.826  1.00  0.00     0.316 HD
ENDBRANCH  12  14
BRANCH  11  22
HETATM   22  N2  UNL     1      -0.534   1.796   0.990  1.00  0.00     0.121 N 
HETATM   23  H14 UNL     1       0.056   2.233   0.263  1.00  0.00     0.317 HD
HETATM   24  H15 UNL     1      -1.249   2.436   1.396  1.00  0.00     0.317 HD
ENDBRANCH  11  22
ENDBRANCH   1  11
BRANCH   8  25
HETATM   25  N5  UNL     1       3.859   0.299  -0.197  1.00  0.00    -0.340 N 
HETATM   26  H19 UNL     1       3.213   1.094  -0.164  1.00  0.00     0.167 HD
BRANCH  25  27
HETATM   27  C15 UNL     1       5.170   0.811  -0.355  1.00  0.00     0.035 A 
HETATM   28  C16 UNL     1       5.499   2.146  -0.546  1.00  0.00     0.029 A 
HETATM   29  C17 UNL     1       6.777   2.620  -0.693  1.00  0.00     0.004 A 
HETATM   30  C18 UNL     1       7.837   1.752  -0.657  1.00  0.00     0.019 A 
HETATM   31  C19 UNL     1       7.591   0.422  -0.473  1.00  0.00     0.013 A 
HETATM   32 BR1  UNL     1       9.105  -0.725  -0.432  1.00  0.00    -0.051 Br
HETATM   33  C20 UNL     1       6.288   0.006  -0.331  1.00  0.00     0.048 A 
ENDBRANCH  25  27
ENDBRANCH   8  25
TORSDOF 5
