REMARK  2 active torsions:
REMARK  status: ('A' for Active; 'I' for Inactive)
REMARK    1  A    between atoms: C7_8  and  C8_9 
REMARK    2  A    between atoms: N2_11  and  N3_12 
ROOT
HETATM    1  C8  UNL     1      -1.120  -0.488   0.098  1.00  0.00     0.079 C 
HETATM    2  N1  UNL     1      -1.325  -1.683   0.608  1.00  0.00    -0.159 NA
HETATM    3  N2  UNL     1      -0.496  -2.782   0.305  1.00  0.00    -0.199 N 
HETATM    4  C9  UNL     1       0.583  -2.547  -0.587  1.00  0.00     0.070 C 
HETATM    5  C10 UNL     1       0.738  -1.328  -1.078  1.00  0.00     0.022 C 
HETATM    6  C11 UNL     1       0.330  -0.274  -0.110  1.00  0.00     0.101 C 
HETATM    7  C12 UNL     1       0.765   1.052  -0.504  1.00  0.00    -0.008 A 
HETATM    8  C13 UNL     1      -0.092   1.889  -1.163  1.00  0.00     0.053 A 
HETATM    9  C14 UNL     1       0.191   3.163  -1.596  1.00  0.00     0.117 A 
HETATM   10  F1  UNL     1      -0.788   3.847  -2.233  1.00  0.00    -0.206 F 
HETATM   11  C15 UNL     1       1.471   3.680  -1.354  1.00  0.00     0.045 A 
HETATM   12  C16 UNL     1       2.348   2.812  -0.675  1.00  0.00     0.040 A 
HETATM   13  C17 UNL     1       2.065   1.499  -0.225  1.00  0.00     0.076 A 
HETATM   14  O1  UNL     1       3.275   1.230   0.322  1.00  0.00    -0.342 OA
HETATM   15  C18 UNL     1       3.757   0.348   1.248  1.00  0.00     0.278 C 
HETATM   16  C19 UNL     1       3.590  -1.044   0.826  1.00  0.00     0.245 C 
HETATM   17  O2  UNL     1       3.992  -1.987   1.592  1.00  0.00    -0.271 OA
HETATM   18  N4  UNL     1       3.229  -2.114   0.031  1.00  0.00    -0.335 N 
HETATM   19  C20 UNL     1       2.869  -3.181  -0.762  1.00  0.00     0.093 C 
HETATM   20  C21 UNL     1       1.632  -3.425  -1.079  1.00  0.00     0.049 C 
HETATM   21  H16 UNL     1       3.007  -1.346  -0.631  1.00  0.00     0.168 HD
ENDROOT
BRANCH   1  22
HETATM   22  C7  UNL     1      -2.476   0.107  -0.024  1.00  0.00    -0.002 A 
HETATM   23  C2  UNL     1      -2.704   1.013   0.981  1.00  0.00    -0.032 A 
HETATM   24  C1  UNL     1      -1.749   1.378   2.070  1.00  0.00     0.050 C 
HETATM   25  C3  UNL     1      -3.929   1.685   1.033  1.00  0.00     0.017 A 
HETATM   26 BR1  UNL     1      -4.422   2.977   2.353  1.00  0.00    -0.051 Br
HETATM   27  C4  UNL     1      -4.827   1.373   0.048  1.00  0.00     0.019 A 
HETATM   28  C5  UNL     1      -4.584   0.464  -0.950  1.00  0.00     0.002 A 
HETATM   29  C6  UNL     1      -3.380  -0.199  -1.004  1.00  0.00     0.014 A 
ENDBRANCH   1  22
BRANCH   3  30
HETATM   30  N3  UNL     1      -0.413  -4.148   0.638  1.00  0.00    -0.226 NA
HETATM   31  H7  UNL     1       0.144  -4.302   1.511  1.00  0.00     0.145 HD
HETATM   32  H8  UNL     1      -1.386  -4.457   0.862  1.00  0.00     0.145 HD
ENDBRANCH   3  30
TORSDOF 2
