REMARK  4 active torsions:
REMARK  status: ('A' for Active; 'I' for Inactive)
REMARK    1  A    between atoms: C2_2  and  C3_4 
REMARK    2  A    between atoms: C4_6  and  C5_7 
REMARK    3  A    between atoms: C6_8  and  N1_9 
REMARK    4  A    between atoms: N1_9  and  C7_10 
ROOT
HETATM    1  C7  UNL     1       0.687  -0.456   0.596  1.00  0.00     0.159 A 
HETATM    2  N2  UNL     1       1.403  -1.563   0.329  1.00  0.00    -0.222 NA
HETATM    3  C8  UNL     1       0.864  -2.782   0.161  1.00  0.00     0.238 A 
HETATM    4  N3  UNL     1      -0.475  -2.891   0.268  1.00  0.00    -0.215 NA
HETATM    5  C9  UNL     1      -1.255  -1.811   0.536  1.00  0.00     0.202 A 
HETATM    6  C10 UNL     1      -0.690  -0.547   0.711  1.00  0.00     0.129 A 
HETATM    7  N4  UNL     1      -1.382   0.660   0.996  1.00  0.00    -0.379 N 
HETATM    8  C11 UNL     1      -2.738   0.789   1.493  1.00  0.00     0.161 C 
HETATM    9  C12 UNL     1      -3.729   0.029   0.675  1.00  0.00    -0.007 A 
HETATM   10  C13 UNL     1      -4.780   0.888   0.349  1.00  0.00     0.011 A 
HETATM   11  C14 UNL     1      -5.814   0.342  -0.421  1.00  0.00     0.001 A 
HETATM   12  C15 UNL     1      -5.753  -0.978  -0.813  1.00  0.00     0.003 A 
HETATM   13  C16 UNL     1      -4.706  -1.817  -0.484  1.00  0.00     0.038 A 
HETATM   14  C17 UNL     1      -3.661  -1.291   0.287  1.00  0.00     0.086 A 
HETATM   15  O1  UNL     1      -2.616  -2.182   0.598  1.00  0.00    -0.289 OA
HETATM   16  H8  UNL     1      -0.775   1.482   0.800  1.00  0.00     0.160 HD
ENDROOT
BRANCH   1  17
HETATM   17  N1  UNL     1       1.290   0.833   0.773  1.00  0.00    -0.349 N 
HETATM   18  H6  UNL     1       1.659   1.430   1.524  1.00  0.00     0.167 HD
BRANCH  17  19
HETATM   19  C6  UNL     1       1.282   1.229  -0.602  1.00  0.00     0.090 C 
HETATM   20  C5  UNL     1       2.462   1.293  -1.206  1.00  0.00     0.020 C 
BRANCH  20  21
HETATM   21  C4  UNL     1       3.671   0.967  -0.458  1.00  0.00     0.045 C 
HETATM   22  C3  UNL     1       4.888   0.996  -0.949  1.00  0.00     0.137 C 
HETATM   23  F1  UNL     1       4.980   1.361  -2.250  1.00  0.00    -0.204 F 
BRANCH  22  24
HETATM   24  C2  UNL     1       6.141   0.689  -0.281  1.00  0.00     0.063 C 
HETATM   25  C1  UNL     1       7.323   0.749  -0.872  1.00  0.00     0.040 C 
HETATM   26 CL1  UNL     1       6.295   0.195   1.390  1.00  0.00    -0.082 Cl
ENDBRANCH  22  24
ENDBRANCH  20  21
ENDBRANCH  17  19
ENDBRANCH   1  17
TORSDOF 4
