REMARK  6 active torsions:
REMARK  status: ('A' for Active; 'I' for Inactive)
REMARK    1  A    between atoms: C2_2  and  C3_3 
REMARK    2  A    between atoms: C3_3  and  N1_5 
REMARK    3  A    between atoms: N1_5  and  C5_6 
REMARK    4  A    between atoms: C9_10  and  N2_11 
REMARK    5  A    between atoms: N2_11  and  N3_12 
REMARK    6  A    between atoms: N3_12  and  C10_13 
ROOT
HETATM    1  C5  UNL     1       1.738   0.303  -0.585  1.00  0.00     0.030 A 
HETATM    2  C6  UNL     1       1.802  -0.943  -1.168  1.00  0.00     0.029 A 
HETATM    3  C7  UNL     1       0.777  -1.857  -1.272  1.00  0.00     0.005 A 
HETATM    4  C8  UNL     1      -0.445  -1.500  -0.743  1.00  0.00     0.031 A 
HETATM    5  C9  UNL     1      -0.571  -0.264  -0.147  1.00  0.00     0.050 A 
HETATM    6  C16 UNL     1       0.496   0.600  -0.077  1.00  0.00     0.060 A 
ENDROOT
BRANCH   5   7
HETATM    7  N2  UNL     1      -1.823   0.123   0.405  1.00  0.00    -0.300 N 
HETATM    8  H14 UNL     1      -1.963   1.042   0.863  1.00  0.00     0.187 HD
BRANCH   7   9
HETATM    9  N3  UNL     1      -2.889  -0.766   0.324  1.00  0.00    -0.300 N 
HETATM   10  H15 UNL     1      -2.913  -1.806   0.400  1.00  0.00     0.187 HD
BRANCH   9  11
HETATM   11  C10 UNL     1      -4.280  -0.556   0.114  1.00  0.00     0.049 A 
HETATM   12  C11 UNL     1      -4.874  -0.529  -1.133  1.00  0.00     0.031 A 
HETATM   13  C12 UNL     1      -6.235  -0.319  -1.247  1.00  0.00     0.004 A 
HETATM   14  C13 UNL     1      -7.048  -0.131  -0.137  1.00  0.00     0.019 A 
HETATM   15  C14 UNL     1      -6.487  -0.152   1.124  1.00  0.00     0.013 A 
HETATM   16 BR1  UNL     1      -7.486   0.092   2.725  1.00  0.00    -0.051 Br
HETATM   17  C15 UNL     1      -5.128  -0.363   1.201  1.00  0.00     0.050 A 
ENDBRANCH   9  11
ENDBRANCH   7   9
ENDBRANCH   5   7
BRANCH   1  18
HETATM   18  N1  UNL     1       2.819   1.214  -0.477  1.00  0.00    -0.386 N 
HETATM   19  H10 UNL     1       2.531   2.146  -0.041  1.00  0.00     0.160 HD
BRANCH  18  20
HETATM   20  C3  UNL     1       4.200   1.136  -0.826  1.00  0.00     0.077 C 
HETATM   21  C4  UNL     1       4.775   2.551  -0.858  1.00  0.00     0.032 C 
BRANCH  20  22
HETATM   22  C2  UNL     1       5.068   0.379   0.140  1.00  0.00     0.020 C 
HETATM   23  C1  UNL     1       4.729  -1.045   0.368  1.00  0.00     0.007 C 
ENDBRANCH  20  22
ENDBRANCH  18  20
ENDBRANCH   1  18
TORSDOF 6
