REMARK  4 active torsions:
REMARK  status: ('A' for Active; 'I' for Inactive)
REMARK       I    between atoms: C2_2  and  N1_4 
REMARK    1  A    between atoms: N1_4  and  C3_5 
REMARK    2  A    between atoms: C5_7  and  N2_8 
REMARK    3  A    between atoms: N3_12  and  C8_13 
REMARK    4  A    between atoms: C12_17  and  C13_18 
ROOT
HETATM    1  C3  UNL     1       2.022   0.134  -0.506  1.00  0.00     0.028 C 
HETATM    2  C4  UNL     1       2.563  -1.060  -0.625  1.00  0.00     0.029 C 
HETATM    3  C5  UNL     1       2.093  -2.446  -0.535  1.00  0.00     0.165 C 
HETATM    4  C6  UNL     1       0.656  -2.693  -0.789  1.00  0.00     0.053 C 
HETATM    5  C7  UNL     1       0.083  -1.607  -1.678  1.00  0.00     0.126 C 
HETATM    6  N3  UNL     1      -0.301  -0.562  -0.764  1.00  0.00    -0.375 N 
HETATM    7  C15 UNL     1       0.611   0.399  -0.212  1.00  0.00     0.179 C 
ENDROOT
BRANCH   6   8
HETATM    8  C8  UNL     1      -1.636  -0.424  -0.344  1.00  0.00     0.030 A 
HETATM    9  C9  UNL     1      -2.670  -1.265  -0.680  1.00  0.00     0.029 A 
HETATM   10  C10 UNL     1      -3.979  -1.131  -0.273  1.00  0.00     0.003 A 
HETATM   11  C11 UNL     1      -4.308  -0.071   0.544  1.00  0.00     0.008 A 
HETATM   12  C12 UNL     1      -3.309   0.805   0.914  1.00  0.00    -0.046 A 
HETATM   13  C14 UNL     1      -2.017   0.615   0.471  1.00  0.00     0.037 A 
BRANCH  12  14
HETATM   14  C13 UNL     1      -3.717   1.920   1.787  1.00  0.00     0.123 C 
HETATM   15 BR1  UNL     1      -3.578   1.483   3.667  1.00  0.00    -0.091 Br
ENDBRANCH  12  14
ENDBRANCH   6   8
BRANCH   1  16
HETATM   16  N1  UNL     1       2.837   1.313  -0.669  1.00  0.00    -0.330 N 
HETATM   17  C2  UNL     1       2.935   2.226   0.438  1.00  0.00     0.217 C 
HETATM   18  C1  UNL     1       3.724   3.487   0.455  1.00  0.00     0.117 C 
HETATM   19  O1  UNL     1       2.292   1.932   1.498  1.00  0.00    -0.274 OA
HETATM   20  H4  UNL     1       3.418   1.678  -1.481  1.00  0.00     0.168 HD
ENDBRANCH   1  16
BRANCH   3  21
HETATM   21  N2  UNL     1       2.459  -3.051   0.720  1.00  0.00    -0.132 NA
HETATM   22  O2  UNL     1       1.701  -3.810   1.274  1.00  0.00    -0.066 OA
ENDBRANCH   3  21
TORSDOF 4
