REMARK  2 active torsions:
REMARK  status: ('A' for Active; 'I' for Inactive)
REMARK    1  A    between atoms: C13_19  and  C14_20 
REMARK    2  A    between atoms: C15_21  and  C16_22 
ROOT
HETATM    1  O1  UNL     1       0.966   0.932   1.580  1.00  0.00     0.000 OA
HETATM    2  C1  UNL     1       0.454  -0.212   1.516  1.00  0.00     0.006 A 
HETATM    3  C2  UNL     1      -0.046  -1.564   1.301  1.00  0.00     0.126 C 
HETATM    4  N1  UNL     1      -0.889  -1.686   2.317  1.00  0.00    -0.269 NA
HETATM    5  C3  UNL     1      -0.883  -0.401   3.098  1.00  0.00     0.179 C 
HETATM    6  C4  UNL     1      -1.673   0.500   2.224  1.00  0.00     0.011 C 
HETATM    7  C5  UNL     1      -1.932   1.527   1.413  1.00  0.00     0.081 C 
HETATM    8  N2  UNL     1      -1.393   2.668   0.739  1.00  0.00    -0.394 N 
HETATM    9  C6  UNL     1      -0.739   2.110  -0.502  1.00  0.00     0.081 C 
HETATM   10  C7  UNL     1      -1.474   0.961  -0.984  1.00  0.00     0.030 C 
HETATM   11  C8  UNL     1      -1.106   0.093  -2.091  1.00  0.00     0.048 C 
HETATM   12  C9  UNL     1      -2.108  -1.072  -2.069  1.00  0.00    -0.014 C 
HETATM   13 BR1  UNL     1      -3.675  -0.928  -3.141  1.00  0.00    -0.056 Br
HETATM   14  C10 UNL     1      -1.719  -2.085  -1.243  1.00  0.00     0.007 C 
HETATM   15  C11 UNL     1      -1.116  -3.050  -0.306  1.00  0.00     0.149 C 
HETATM   16  N3  UNL     1       0.118  -2.597   0.344  1.00  0.00    -0.371 N 
HETATM   17  C12 UNL     1       0.696   2.276  -0.430  1.00  0.00     0.027 C 
HETATM   18  O2  UNL     1       1.365   1.626   0.567  1.00  0.00     0.000 OA
HETATM   19  C13 UNL     1       1.461   0.255   0.467  1.00  0.00     0.057 A 
HETATM   20  H5  UNL     1      -1.446   3.654   1.050  1.00  0.00     0.159 HD
HETATM   21  H14 UNL     1       1.118  -2.540   0.581  1.00  0.00     0.161 HD
ENDROOT
BRANCH  19  22
HETATM   22  C14 UNL     1       2.787  -0.330   0.719  1.00  0.00    -0.018 C 
HETATM   23  C15 UNL     1       3.779  -0.380  -0.138  1.00  0.00     0.001 C 
BRANCH  23  24
HETATM   24  C16 UNL     1       3.881   0.101  -1.537  1.00  0.00     0.249 C 
HETATM   25  F1  UNL     1       4.160  -0.970  -2.396  1.00  0.00    -0.251 F 
ENDBRANCH  23  24
ENDBRANCH  19  22
TORSDOF 2
