REMARK  6 active torsions:
REMARK  status: ('A' for Active; 'I' for Inactive)
REMARK    1  A    between atoms: B1_1  and  C1_2 
REMARK    2  A    between atoms: C6_8  and  N2_9 
REMARK    3  A    between atoms: N2_9  and  C7_10 
REMARK    4  A    between atoms: C7_10  and  C8_11 
REMARK    5  A    between atoms: C9_13  and  N3_14 
REMARK    6  A    between atoms: N3_14  and  C10_15 
ROOT
HETATM    1  C1  UNL     1       1.079  -0.119  -1.475  1.00  0.00     0.042 C 
HETATM    2  C2  UNL     1      -0.158   0.762  -1.480  1.00  0.00     0.120 C 
HETATM    3  N1  UNL     1      -0.270   1.756  -2.435  1.00  0.00    -0.271 NA
HETATM    4  C3  UNL     1      -0.051   3.033  -1.536  1.00  0.00     0.193 C 
HETATM    5  C4  UNL     1       0.146   2.153  -0.234  1.00  0.00     0.006 C 
HETATM    6  C5  UNL     1       1.523   1.876   0.078  1.00  0.00     0.021 C 
HETATM    7  C6  UNL     1       2.133   0.679  -0.679  1.00  0.00     0.246 C 
HETATM    8  C9  UNL     1      -1.055   1.526   0.496  1.00  0.00     0.137 C 
HETATM    9  N4  UNL     1      -0.484   0.456  -0.057  1.00  0.00    -0.216 NA
ENDROOT
BRANCH   8  10
HETATM   10  N3  UNL     1      -2.173   1.619   1.334  1.00  0.00    -0.345 N 
HETATM   11  H12 UNL     1      -2.138   2.534   1.803  1.00  0.00     0.167 HD
BRANCH  10  12
HETATM   12  C10 UNL     1      -3.023   0.508   1.352  1.00  0.00     0.019 A 
HETATM   13  C11 UNL     1      -3.329  -0.772   0.895  1.00  0.00     0.053 A 
HETATM   14  C12 UNL     1      -3.921  -1.989   0.674  1.00  0.00    -0.008 A 
HETATM   15  C15 UNL     1      -4.197  -0.144   1.841  1.00  0.00     0.053 A 
HETATM   16  C13 UNL     1      -5.077  -2.160   1.404  1.00  0.00    -0.006 A 
HETATM   17  C14 UNL     1      -5.221  -0.991   2.121  1.00  0.00    -0.008 A 
ENDBRANCH  10  12
ENDBRANCH   8  10
BRANCH   7  18
HETATM   18  N2  UNL     1       2.936  -0.139   0.120  1.00  0.00     0.097 N 
HETATM   19  H8  UNL     1       3.554   0.455   0.714  1.00  0.00     0.317 HD
BRANCH  18  20
HETATM   20  C7  UNL     1       3.785  -0.966  -0.708  1.00  0.00     0.339 C 
BRANCH  20  21
HETATM   21  C8  UNL     1       4.643  -1.873   0.141  1.00  0.00     0.261 C 
HETATM   22  O1  UNL     1       4.666  -1.949   1.359  1.00  0.00    -0.305 OA
ENDBRANCH  20  21
ENDBRANCH  18  20
ENDBRANCH   7  18
BRANCH   1  23
HETATM   23  B1  UNL     1       0.875  -1.576  -1.017  1.00  0.00     0.152 B 
HETATM   24  H1  UNL     1       0.864  -2.505  -1.772  1.00  0.00    -0.031 HD
HETATM   25  H2  UNL     1       0.504  -1.845   0.091  1.00  0.00    -0.031 HD
ENDBRANCH   1  23
TORSDOF 6
