REMARK  8 active torsions:
REMARK  status: ('A' for Active; 'I' for Inactive)
REMARK    1  A    between atoms: C3_4  and  C4_5 
REMARK    2  A    between atoms: C4_5  and  N1_6 
REMARK    3  A    between atoms: N1_6  and  C5_7 
REMARK    4  A    between atoms: C10_13  and  N3_14 
REMARK    5  A    between atoms: N3_14  and  O1_16 
REMARK    6  A    between atoms: O1_16  and  C12_17 
REMARK    7  A    between atoms: C12_17  and  S1_18 
REMARK    8  A    between atoms: C17_24  and  N4_25 
ROOT
HETATM    1  C5  UNL     1       2.756   0.090  -0.022  1.00  0.00     0.129 A 
HETATM    2  N2  UNL     1       3.949  -0.403  -0.081  1.00  0.00    -0.268 NA
HETATM    3  C6  UNL     1       3.914  -1.841   0.088  1.00  0.00     0.190 A 
HETATM    4  C7  UNL     1       2.459  -2.146   0.265  1.00  0.00    -0.024 A 
HETATM    5  C8  UNL     1       1.759  -3.316   0.469  1.00  0.00     0.012 A 
HETATM    6  C9  UNL     1       0.368  -3.303   0.603  1.00  0.00     0.032 A 
HETATM    7  C10 UNL     1      -0.327  -2.107   0.532  1.00  0.00     0.057 A 
HETATM    8  C18 UNL     1       0.373  -0.937   0.329  1.00  0.00     0.047 A 
HETATM    9  C19 UNL     1       1.748  -0.951   0.196  1.00  0.00     0.019 A 
ENDROOT
BRANCH   7  10
HETATM   10  N3  UNL     1      -1.744  -2.159   0.675  1.00  0.00    -0.262 N 
HETATM   11  C11 UNL     1      -2.353  -3.453   0.882  1.00  0.00     0.185 C 
BRANCH  10  12
HETATM   12  O1  UNL     1      -2.548  -1.095   0.632  1.00  0.00    -0.268 OA
BRANCH  12  13
HETATM   13  C12 UNL     1      -2.870  -0.688  -0.639  1.00  0.00     0.275 C 
BRANCH  13  14
HETATM   14  S1  UNL     1      -3.958   0.754  -0.514  1.00  0.00    -0.120 SA
HETATM   15  C13 UNL     1      -3.600   2.221  -1.140  1.00  0.00     0.046 A 
HETATM   16  C14 UNL     1      -4.616   3.244  -0.925  1.00  0.00     0.049 A 
HETATM   17  C15 UNL     1      -5.736   3.052  -0.292  1.00  0.00     0.119 A 
HETATM   18  F1  UNL     1      -6.576   4.136  -0.186  1.00  0.00    -0.206 F 
HETATM   19  C16 UNL     1      -6.214   1.821   0.325  1.00  0.00     0.078 A 
HETATM   20  C17 UNL     1      -5.549   0.675   0.328  1.00  0.00     0.062 A 
BRANCH  20  21
HETATM   21  N4  UNL     1      -6.001  -0.523   0.920  1.00  0.00    -0.394 N 
HETATM   22  H20 UNL     1      -6.278  -1.049   1.782  1.00  0.00     0.156 HD
HETATM   23  H21 UNL     1      -6.216  -1.422   0.410  1.00  0.00     0.156 HD
ENDBRANCH  20  21
ENDBRANCH  13  14
ENDBRANCH  12  13
ENDBRANCH  10  12
ENDBRANCH   7  10
BRANCH   1  24
HETATM   24  N1  UNL     1       2.528   1.484  -0.161  1.00  0.00    -0.371 N 
HETATM   25  H7  UNL     1       1.545   1.791  -0.410  1.00  0.00     0.161 HD
BRANCH  24  26
HETATM   26  C4  UNL     1       3.615   2.452   0.033  1.00  0.00     0.149 C 
BRANCH  26  27
HETATM   27  C3  UNL     1       4.629   2.349  -1.033  1.00  0.00     0.007 C 
HETATM   28  C2  UNL     1       5.917   2.066  -0.884  1.00  0.00    -0.018 C 
HETATM   29  C1  UNL     1       6.573   1.799   0.403  1.00  0.00     0.056 C 
HETATM   30 BR1  UNL     1       7.043   1.988  -2.419  1.00  0.00    -0.056 Br
ENDBRANCH  26  27
ENDBRANCH  24  26
ENDBRANCH   1  24
TORSDOF 8
