REMARK  4 active torsions:
REMARK  status: ('A' for Active; 'I' for Inactive)
REMARK    1  A    between atoms: C4_4  and  C5_5 
REMARK    2  A    between atoms: C10_12  and  N3_13 
REMARK    3  A    between atoms: N3_13  and  C11_14 
REMARK    4  A    between atoms: C18_22  and  O1_23 
ROOT
HETATM    1  C5  UNL     1      -2.517   0.532   0.011  1.00  0.00    -0.015 A 
HETATM    2  C6  UNL     1      -3.123   0.498  -1.249  1.00  0.00     0.013 A 
HETATM    3  C7  UNL     1      -2.352   0.237  -2.361  1.00  0.00     0.033 A 
HETATM    4  C8  UNL     1      -1.008   0.016  -2.203  1.00  0.00     0.075 A 
HETATM    5  N1  UNL     1      -0.227  -0.244  -3.267  1.00  0.00    -0.241 NA
HETATM    6  C9  UNL     1       1.093  -0.465  -3.134  1.00  0.00     0.236 A 
HETATM    7  N2  UNL     1       1.645  -0.426  -1.915  1.00  0.00    -0.223 NA
HETATM    8  C10 UNL     1       0.968  -0.179  -0.793  1.00  0.00     0.144 A 
HETATM    9  C17 UNL     1      -0.370   0.039  -0.982  1.00  0.00     0.072 A 
HETATM   10  C18 UNL     1      -1.161   0.302   0.112  1.00  0.00     0.089 A 
ENDROOT
BRANCH   8  11
HETATM   11  N3  UNL     1       1.638  -0.165   0.451  1.00  0.00    -0.340 N 
HETATM   12  H9  UNL     1       1.400  -0.044   1.448  1.00  0.00     0.167 HD
BRANCH  11  13
HETATM   13  C11 UNL     1       3.047  -0.351   0.532  1.00  0.00     0.035 A 
HETATM   14  C12 UNL     1       3.766  -0.986   1.532  1.00  0.00     0.029 A 
HETATM   15  C13 UNL     1       5.127  -1.135   1.593  1.00  0.00     0.004 A 
HETATM   16  C14 UNL     1       5.870  -0.610   0.569  1.00  0.00     0.019 A 
HETATM   17  C15 UNL     1       5.220   0.038  -0.464  1.00  0.00     0.013 A 
HETATM   18 BR1  UNL     1       6.403   0.712  -1.813  1.00  0.00    -0.051 Br
HETATM   19  C16 UNL     1       3.856   0.160  -0.476  1.00  0.00     0.048 A 
ENDBRANCH  11  13
ENDBRANCH   8  11
BRANCH  10  20
HETATM   20  O1  UNL     1      -0.708   0.368   1.415  1.00  0.00    -0.359 OA
HETATM   21  H14 UNL     1      -0.821   1.242   1.906  1.00  0.00     0.217 HD
ENDBRANCH  10  20
BRANCH   1  22
HETATM   22  C4  UNL     1      -3.404   0.820   1.186  1.00  0.00     0.053 A 
HETATM   23  C2  UNL     1      -4.881   0.400   0.965  1.00  0.00    -0.079 A 
HETATM   24  C1  UNL     1      -5.938   0.841   0.296  1.00  0.00     0.015 C 
HETATM   25  C3  UNL     1      -3.974  -0.399   1.827  1.00  0.00     0.048 A 
ENDBRANCH   1  22
TORSDOF 4
