REMARK  5 active torsions:
REMARK  status: ('A' for Active; 'I' for Inactive)
REMARK    1  A    between atoms: C2_2  and  C3_3 
REMARK       I    between atoms: C3_3  and  N1_5 
REMARK    2  A    between atoms: N1_5  and  C4_6 
REMARK    3  A    between atoms: C6_8  and  C7_9 
REMARK    4  A    between atoms: C9_13  and  N4_14 
REMARK    5  A    between atoms: N4_14  and  C10_15 
ROOT
HETATM    1  C7  UNL     1      -0.494  -1.156  -1.479  1.00  0.00     0.203 A 
HETATM    2  N2  UNL     1      -0.196  -2.002  -2.610  1.00  0.00    -0.266 NA
HETATM    3  C8  UNL     1       1.083  -2.026  -2.735  1.00  0.00     0.230 A 
HETATM    4  N3  UNL     1       1.737  -1.225  -1.734  1.00  0.00    -0.226 NA
HETATM    5  C9  UNL     1       0.805  -0.704  -0.983  1.00  0.00     0.134 A 
ENDROOT
BRANCH   1   6
HETATM    6  C6  UNL     1      -1.199  -2.024  -0.486  1.00  0.00     0.032 C 
HETATM    7  C4  UNL     1      -2.242  -1.560   0.187  1.00  0.00     0.007 C 
HETATM    8  C5  UNL     1      -2.934  -2.433   1.171  1.00  0.00     0.068 C 
BRANCH   7   9
HETATM    9  N1  UNL     1      -2.726  -0.236  -0.007  1.00  0.00    -0.328 N 
HETATM   10  C3  UNL     1      -2.807   0.772   0.995  1.00  0.00     0.244 C 
HETATM   11  O1  UNL     1      -2.373   0.286   2.095  1.00  0.00    -0.268 OA
HETATM   12  H4  UNL     1      -3.034  -0.056  -1.007  1.00  0.00     0.169 HD
BRANCH  10  13
HETATM   13  C2  UNL     1      -3.320   2.102   0.691  1.00  0.00     0.064 C 
HETATM   14  C1  UNL     1      -3.751   2.526  -0.481  1.00  0.00     0.017 C 
ENDBRANCH  10  13
ENDBRANCH   7   9
ENDBRANCH   1   6
BRANCH   5  15
HETATM   15  N4  UNL     1       0.943   0.160   0.138  1.00  0.00    -0.342 N 
HETATM   16  H11 UNL     1       0.119   0.377   0.771  1.00  0.00     0.167 HD
BRANCH  15  17
HETATM   17  C10 UNL     1       2.216   0.748   0.418  1.00  0.00     0.034 A 
HETATM   18  C11 UNL     1       2.709   1.948  -0.043  1.00  0.00     0.029 A 
HETATM   19  C12 UNL     1       3.971   2.351   0.340  1.00  0.00     0.004 A 
HETATM   20  C13 UNL     1       4.764   1.585   1.176  1.00  0.00     0.019 A 
HETATM   21  C14 UNL     1       4.247   0.383   1.626  1.00  0.00     0.013 A 
HETATM   22 BR1  UNL     1       5.376  -0.647   2.783  1.00  0.00    -0.051 Br
HETATM   23  C15 UNL     1       2.988  -0.052   1.265  1.00  0.00     0.048 A 
ENDBRANCH  15  17
ENDBRANCH   5  15
TORSDOF 5
