REMARK  5 active torsions:
REMARK  status: ('A' for Active; 'I' for Inactive)
REMARK    1  A    between atoms: C2_2  and  C3_3 
REMARK       I    between atoms: C3_3  and  N1_5 
REMARK    2  A    between atoms: N1_5  and  C4_6 
REMARK    3  A    between atoms: C9_13  and  N4_14 
REMARK    4  A    between atoms: N4_14  and  C11_16 
REMARK    5  A    between atoms: C12_17  and  C13_18 
ROOT
HETATM    1  C4  UNL     1       2.288   0.128   0.796  1.00  0.00     0.036 A 
HETATM    2  C5  UNL     1       2.603   0.820   1.969  1.00  0.00     0.032 A 
HETATM    3  C6  UNL     1       1.642   1.597   2.599  1.00  0.00     0.035 A 
HETATM    4  C7  UNL     1       0.378   1.672   2.048  1.00  0.00     0.072 A 
HETATM    5  N2  UNL     1      -0.588   2.428   2.644  1.00  0.00    -0.241 NA
HETATM    6  C8  UNL     1      -1.804   2.472   2.072  1.00  0.00     0.236 A 
HETATM    7  N3  UNL     1      -2.105   1.798   0.934  1.00  0.00    -0.223 NA
HETATM    8  C9  UNL     1      -1.163   1.034   0.312  1.00  0.00     0.143 A 
HETATM    9  C15 UNL     1       0.090   0.980   0.889  1.00  0.00     0.041 A 
HETATM   10  C16 UNL     1       1.030   0.195   0.236  1.00  0.00     0.047 A 
ENDROOT
BRANCH   8  11
HETATM   11  N4  UNL     1      -1.543   0.353  -0.880  1.00  0.00    -0.345 N 
HETATM   12  C10 UNL     1      -1.058   0.408  -2.226  1.00  0.00     0.157 C 
BRANCH  11  13
HETATM   13  C11 UNL     1      -2.632  -0.565  -0.646  1.00  0.00     0.093 C 
HETATM   14  C12 UNL     1      -3.815   0.023  -0.404  1.00  0.00     0.035 C 
BRANCH  14  15
HETATM   15  C13 UNL     1      -5.049  -0.747  -0.141  1.00  0.00     0.003 C 
HETATM   16  C14 UNL     1      -6.242  -0.229   0.104  1.00  0.00     0.032 C 
HETATM   17 BR1  UNL     1      -4.880  -2.665  -0.162  1.00  0.00    -0.052 Br
ENDBRANCH  14  15
ENDBRANCH  11  13
ENDBRANCH   8  11
BRANCH   1  18
HETATM   18  N1  UNL     1       3.300  -0.675   0.155  1.00  0.00    -0.324 N 
HETATM   19  C3  UNL     1       4.041   0.108  -0.803  1.00  0.00     0.244 C 
HETATM   20  O1  UNL     1       3.566   1.295  -0.792  1.00  0.00    -0.268 OA
HETATM   21  H4  UNL     1       3.503  -1.692   0.333  1.00  0.00     0.169 HD
BRANCH  19  22
HETATM   22  C2  UNL     1       5.113  -0.505  -1.567  1.00  0.00     0.064 C 
HETATM   23  C1  UNL     1       5.537  -1.757  -1.508  1.00  0.00     0.017 C 
ENDBRANCH  19  22
ENDBRANCH   1  18
TORSDOF 5
