REMARK  5 active torsions:
REMARK  status: ('A' for Active; 'I' for Inactive)
REMARK    1  A    between atoms: C1_2  and  C2_3 
REMARK       I    between atoms: C1_2  and  N2_13 
REMARK    2  A    between atoms: C2_3  and  O2_4 
REMARK    3  A    between atoms: O2_4  and  C3_5 
REMARK    4  A    between atoms: C3_5  and  N1_6 
REMARK    5  A    between atoms: N2_13  and  C9_14 
ROOT
HETATM    1  O1  UNL     1      -1.852   2.992  -1.772  1.00  0.00    -0.271 OA
HETATM    2  C1  UNL     1      -1.178   1.945  -1.460  1.00  0.00     0.242 C 
HETATM    3  N2  UNL     1      -1.901   1.156  -0.540  1.00  0.00    -0.347 N 
HETATM    4  H13 UNL     1      -1.394   0.285  -0.290  1.00  0.00     0.163 HD
ENDROOT
BRANCH   2   5
HETATM    5  C2  UNL     1       0.096   1.968  -2.188  1.00  0.00     0.272 C 
BRANCH   5   6
HETATM    6  O2  UNL     1       0.913   0.907  -1.922  1.00  0.00    -0.363 OA
BRANCH   6   7
HETATM    7  C3  UNL     1       1.394   0.945  -0.637  1.00  0.00     0.296 C 
BRANCH   7   8
HETATM    8  N1  UNL     1       2.226  -0.201  -0.314  1.00  0.00    -0.331 N 
HETATM    9  C4  UNL     1       1.709  -1.435   0.247  1.00  0.00     0.128 C 
HETATM   10  C5  UNL     1       2.590  -1.780   1.439  1.00  0.00     0.020 C 
HETATM   11  C6  UNL     1       3.977  -2.094   0.985  1.00  0.00     0.011 C 
HETATM   12  C7  UNL     1       4.324  -1.456  -0.344  1.00  0.00     0.103 C 
HETATM   13  C8  UNL     1       3.629  -0.161  -0.543  1.00  0.00     0.221 C 
HETATM   14  O3  UNL     1       4.150   0.937  -0.884  1.00  0.00    -0.273 OA
ENDBRANCH   7   8
ENDBRANCH   6   7
ENDBRANCH   5   6
ENDBRANCH   2   5
BRANCH   3  15
HETATM   15  C9  UNL     1      -3.185   1.535  -0.058  1.00  0.00     0.144 A 
HETATM   16  C10 UNL     1      -3.294   1.382   1.415  1.00  0.00     0.016 A 
HETATM   17  C11 UNL     1      -4.164   0.404   1.462  1.00  0.00    -0.010 A 
HETATM   18  C12 UNL     1      -5.075  -0.630   1.961  1.00  0.00     0.128 A 
HETATM   19  C14 UNL     1      -4.181   0.415  -0.015  1.00  0.00    -0.003 A 
HETATM   20  N3  UNL     1      -5.577  -1.172   0.897  1.00  0.00    -0.272 NA
HETATM   21  C13 UNL     1      -5.059  -0.566  -0.273  1.00  0.00     0.126 A 
ENDBRANCH   3  15
TORSDOF 5
