REMARK  4 active torsions:
REMARK  status: ('A' for Active; 'I' for Inactive)
REMARK    1  A    between atoms: C1_2  and  C2_3 
REMARK    2  A    between atoms: C2_3  and  C3_4 
REMARK    3  A    between atoms: C8_11  and  N3_12 
REMARK    4  A    between atoms: N3_12  and  C9_13 
ROOT
HETATM    1  C3  UNL     1      -2.969  -0.737  -0.655  1.00  0.00    -0.051 A 
HETATM    2  C4  UNL     1      -3.554  -0.019  -1.675  1.00  0.00     0.010 A 
HETATM    3  C5  UNL     1      -2.777   0.899  -2.349  1.00  0.00     0.033 A 
HETATM    4  C6  UNL     1      -1.476   1.052  -1.977  1.00  0.00     0.072 A 
HETATM    5  N1  UNL     1      -0.741   1.955  -2.649  1.00  0.00    -0.241 NA
HETATM    6  C7  UNL     1       0.565   2.164  -2.335  1.00  0.00     0.236 A 
HETATM    7  N2  UNL     1       1.168   1.486  -1.352  1.00  0.00    -0.224 NA
HETATM    8  C8  UNL     1       0.486   0.581  -0.656  1.00  0.00     0.142 A 
HETATM    9  C15 UNL     1      -0.837   0.360  -0.963  1.00  0.00     0.039 A 
HETATM   10  C16 UNL     1      -1.647  -0.546  -0.316  1.00  0.00     0.025 A 
ENDROOT
BRANCH   8  11
HETATM   11  N3  UNL     1       1.081  -0.161   0.383  1.00  0.00    -0.340 N 
HETATM   12  H7  UNL     1       0.587  -0.895   0.930  1.00  0.00     0.167 HD
BRANCH  11  13
HETATM   13  C9  UNL     1       2.409  -0.051   0.860  1.00  0.00     0.035 A 
HETATM   14  C10 UNL     1       3.228   1.033   0.644  1.00  0.00     0.029 A 
HETATM   15  C11 UNL     1       4.511   1.154   1.072  1.00  0.00     0.004 A 
HETATM   16  C12 UNL     1       5.101   0.134   1.793  1.00  0.00     0.019 A 
HETATM   17  C13 UNL     1       4.347  -0.980   2.049  1.00  0.00     0.013 A 
HETATM   18 BR1  UNL     1       5.088  -2.432   3.038  1.00  0.00    -0.051 Br
HETATM   19  C14 UNL     1       3.059  -1.045   1.591  1.00  0.00     0.048 A 
ENDBRANCH  11  13
ENDBRANCH   8  11
BRANCH   1  20
HETATM   20  C2  UNL     1      -3.862  -1.710   0.026  1.00  0.00     0.107 C 
BRANCH  20  21
HETATM   21  C1  UNL     1      -4.572  -1.055   1.143  1.00  0.00     0.235 C 
HETATM   22  O1  UNL     1      -4.788  -0.053   1.806  1.00  0.00    -0.307 OA
ENDBRANCH  20  21
ENDBRANCH   1  20
TORSDOF 4
