REMARK  7 active torsions:
REMARK  status: ('A' for Active; 'I' for Inactive)
REMARK    1  A    between atoms: O1_2  and  C2_3 
REMARK    2  A    between atoms: C2_3  and  C3_4 
REMARK    3  A    between atoms: C3_4  and  O2_5 
REMARK    4  A    between atoms: O2_5  and  C4_6 
REMARK    5  A    between atoms: C4_6  and  C5_7 
REMARK    6  A    between atoms: C5_7  and  C6_8 
REMARK    7  A    between atoms: C6_8  and  N1_9 
ROOT
HETATM    1  C3  UNL     1      -1.905  -1.135   1.579  1.00  0.00     0.234 C 
ENDROOT
BRANCH   1   2
HETATM    2  C2  UNL     1      -2.659  -0.141   0.828  1.00  0.00     0.091 C 
HETATM    3  C11 UNL     1      -3.862  -0.261   0.308  1.00  0.00     0.043 C 
HETATM    4  C12 UNL     1      -4.643   0.739  -0.458  1.00  0.00     0.081 C 
HETATM    5  N3  UNL     1      -4.590  -1.476   0.456  1.00  0.00    -0.352 N 
HETATM    6  C13 UNL     1      -4.882   0.131  -1.826  1.00  0.00     0.156 C 
HETATM    7  N2  UNL     1      -5.603  -1.114  -1.633  1.00  0.00    -0.284 NA
HETATM    8  C14 UNL     1      -5.482  -1.865  -0.595  1.00  0.00     0.201 C 
HETATM    9  H25 UNL     1      -4.496  -2.100   1.311  1.00  0.00     0.166 HD
BRANCH   2  10
HETATM   10  O1  UNL     1      -2.504   1.159   0.384  1.00  0.00    -0.356 OA
HETATM   11  C1  UNL     1      -2.322   2.210   1.338  1.00  0.00     0.209 C 
ENDBRANCH   2  10
ENDBRANCH   1   2
BRANCH   1  12
HETATM   12  O2  UNL     1      -0.719  -1.424   0.938  1.00  0.00    -0.385 OA
BRANCH  12  13
HETATM   13  C4  UNL     1       0.105  -0.315   0.812  1.00  0.00     0.169 C 
BRANCH  13  14
HETATM   14  C5  UNL     1       1.370  -0.750   0.111  1.00  0.00     0.046 C 
BRANCH  14  15
HETATM   15  C6  UNL     1       2.332   0.431  -0.058  1.00  0.00     0.119 C 
BRANCH  15  16
HETATM   16  N1  UNL     1       3.476  -0.101  -0.725  1.00  0.00    -0.408 N 
HETATM   17  C7  UNL     1       4.252  -1.016   0.042  1.00  0.00     0.143 C 
HETATM   18  C8  UNL     1       5.682  -0.906  -0.411  1.00  0.00     0.187 C 
HETATM   19  O3  UNL     1       6.152   0.374  -0.188  1.00  0.00    -0.388 OA
HETATM   20  C9  UNL     1       5.351   1.370  -0.708  1.00  0.00     0.187 C 
HETATM   21  C10 UNL     1       4.207   0.805  -1.537  1.00  0.00     0.143 C 
ENDBRANCH  15  16
ENDBRANCH  14  15
ENDBRANCH  13  14
ENDBRANCH  12  13
ENDBRANCH   1  12
TORSDOF 7
