REMARK  4 active torsions:
REMARK  status: ('A' for Active; 'I' for Inactive)
REMARK    1  A    between atoms: C1_2  and  C2_3 
REMARK    2  A    between atoms: C1_2  and  C15_20 
REMARK    3  A    between atoms: C16_22  and  C17_23 
REMARK    4  A    between atoms: C17_23  and  N4_24 
ROOT
HETATM    1  C2  UNL     1      -0.999  -0.042  -1.918  1.00  0.00     0.106 C 
HETATM    2  C3  UNL     1      -1.012   1.331  -2.416  1.00  0.00    -0.007 C 
HETATM    3  C4  UNL     1      -2.208   1.976  -2.446  1.00  0.00     0.047 C 
HETATM    4  C5  UNL     1      -3.513   1.352  -2.012  1.00  0.00     0.129 C 
HETATM    5  N1  UNL     1      -3.599   0.724  -3.203  1.00  0.00    -0.225 NA
HETATM    6  C6  UNL     1      -3.427  -0.742  -3.352  1.00  0.00     0.235 C 
HETATM    7  N2  UNL     1      -2.939  -1.697  -2.398  1.00  0.00    -0.241 NA
HETATM    8  C7  UNL     1      -3.287  -1.268  -1.020  1.00  0.00     0.069 C 
HETATM    9  C8  UNL     1      -2.146  -0.546  -1.256  1.00  0.00     0.022 C 
HETATM   10  C9  UNL     1      -3.993  -1.098   0.250  1.00  0.00     0.036 A 
HETATM   11  C10 UNL     1      -4.167  -1.968   1.224  1.00  0.00     0.025 A 
HETATM   12 BR1  UNL     1      -3.347  -3.581   0.716  1.00  0.00    -0.050 Br
HETATM   13  C11 UNL     1      -4.871  -1.454   2.281  1.00  0.00     0.020 A 
HETATM   14  C12 UNL     1      -5.317  -0.154   2.256  1.00  0.00     0.004 A 
HETATM   15  C13 UNL     1      -5.116   0.724   1.222  1.00  0.00     0.030 A 
HETATM   16  C14 UNL     1      -4.423   0.275   0.139  1.00  0.00     0.047 A 
HETATM   17  N3  UNL     1      -4.355   1.422  -0.795  1.00  0.00    -0.340 N 
HETATM   18  H9  UNL     1      -4.954   2.175  -0.446  1.00  0.00     0.167 HD
ENDROOT
BRANCH   1  19
HETATM   19  C1  UNL     1       0.258  -0.255  -1.175  1.00  0.00     0.169 C 
HETATM   20  O1  UNL     1       0.554   0.881  -1.415  1.00  0.00    -0.294 OA
BRANCH  19  21
HETATM   21  C15 UNL     1       0.563  -1.549  -0.558  1.00  0.00     0.223 A 
HETATM   22  O2  UNL     1       1.844  -2.073  -0.531  1.00  0.00    -0.366 OA
HETATM   23  C16 UNL     1       1.404  -1.615   0.696  1.00  0.00     0.187 A 
BRANCH  23  24
HETATM   24  C17 UNL     1       2.005  -0.339   1.167  1.00  0.00     0.307 C 
BRANCH  24  25
HETATM   25  N4  UNL     1       3.435  -0.351   1.336  1.00  0.00     0.091 N 
HETATM   26  C18 UNL     1       4.196  -0.460   0.133  1.00  0.00     0.272 C 
HETATM   27  C19 UNL     1       5.669  -0.466   0.565  1.00  0.00     0.030 C 
HETATM   28  C20 UNL     1       6.085   0.914   1.021  1.00  0.00     0.003 C 
HETATM   29  C21 UNL     1       4.850   1.676   1.379  1.00  0.00     0.030 C 
HETATM   30  C22 UNL     1       3.871   0.777   2.106  1.00  0.00     0.272 C 
ENDBRANCH  24  25
ENDBRANCH  23  24
ENDBRANCH  19  21
ENDBRANCH   1  19
TORSDOF 4
