REMARK  7 active torsions:
REMARK  status: ('A' for Active; 'I' for Inactive)
REMARK    1  A    between atoms: C1_2  and  C2_3 
REMARK       I    between atoms: C1_2  and  N2_12 
REMARK    2  A    between atoms: C2_3  and  O2_4 
REMARK    3  A    between atoms: O2_4  and  C3_5 
REMARK    4  A    between atoms: C3_5  and  N1_6 
REMARK    5  A    between atoms: N2_12  and  C9_13 
REMARK    6  A    between atoms: C14_20  and  N5_21 
REMARK    7  A    between atoms: N5_21  and  C15_22 
ROOT
HETATM    1  C9  UNL     1      -0.626  -0.721  -0.953  1.00  0.00     0.035 A 
HETATM    2  C10 UNL     1      -0.345  -1.051  -2.259  1.00  0.00     0.032 A 
HETATM    3  C11 UNL     1      -1.387  -1.200  -3.137  1.00  0.00     0.035 A 
HETATM    4  C12 UNL     1      -2.677  -1.018  -2.696  1.00  0.00     0.072 A 
HETATM    5  N3  UNL     1      -3.649  -1.188  -3.636  1.00  0.00    -0.241 NA
HETATM    6  C13 UNL     1      -4.925  -1.021  -3.248  1.00  0.00     0.236 A 
HETATM    7  N4  UNL     1      -5.230  -0.701  -1.989  1.00  0.00    -0.224 NA
HETATM    8  C14 UNL     1      -4.338  -0.517  -1.011  1.00  0.00     0.142 A 
HETATM    9  C21 UNL     1      -3.034  -0.689  -1.413  1.00  0.00     0.041 A 
HETATM   10  C22 UNL     1      -1.944  -0.555  -0.583  1.00  0.00     0.047 A 
ENDROOT
BRANCH   1  11
HETATM   11  N2  UNL     1       0.471  -0.578  -0.082  1.00  0.00    -0.325 N 
HETATM   12  C1  UNL     1       1.092   0.685   0.064  1.00  0.00     0.245 C 
HETATM   13  O1  UNL     1       0.480   1.539  -0.685  1.00  0.00    -0.271 OA
HETATM   14  H15 UNL     1       0.970  -1.246   0.544  1.00  0.00     0.169 HD
BRANCH  12  15
HETATM   15  C2  UNL     1       2.155   1.414   0.729  1.00  0.00     0.273 C 
BRANCH  15  16
HETATM   16  O2  UNL     1       2.983   0.768   1.586  1.00  0.00    -0.363 OA
BRANCH  16  17
HETATM   17  C3  UNL     1       3.805  -0.203   1.107  1.00  0.00     0.288 C 
BRANCH  17  18
HETATM   18  N1  UNL     1       4.734   0.266   0.097  1.00  0.00    -0.392 N 
HETATM   19  C4  UNL     1       5.589  -0.754  -0.404  1.00  0.00     0.119 C 
HETATM   20  C5  UNL     1       6.940  -0.859   0.206  1.00  0.00     0.020 C 
HETATM   21  C6  UNL     1       7.297   0.201   1.193  1.00  0.00     0.003 C 
HETATM   22  C7  UNL     1       6.797   1.516   0.656  1.00  0.00     0.020 C 
HETATM   23  C8  UNL     1       5.332   1.527   0.377  1.00  0.00     0.119 C 
ENDBRANCH  17  18
ENDBRANCH  16  17
ENDBRANCH  15  16
ENDBRANCH  12  15
ENDBRANCH   1  11
BRANCH   8  24
HETATM   24  N5  UNL     1      -4.611  -0.181   0.329  1.00  0.00    -0.340 N 
HETATM   25  H19 UNL     1      -3.869  -0.030   1.014  1.00  0.00     0.167 HD
BRANCH  24  26
HETATM   26  C15 UNL     1      -5.878  -0.005   0.927  1.00  0.00     0.035 A 
HETATM   27  C16 UNL     1      -7.060  -0.305   0.294  1.00  0.00     0.029 A 
HETATM   28  C17 UNL     1      -8.308  -0.140   0.844  1.00  0.00     0.004 A 
HETATM   29  C18 UNL     1      -8.442   0.359   2.121  1.00  0.00     0.019 A 
HETATM   30  C19 UNL     1      -7.291   0.677   2.804  1.00  0.00     0.013 A 
HETATM   31 BR1  UNL     1      -7.375   1.373   4.573  1.00  0.00    -0.051 Br
HETATM   32  C20 UNL     1      -6.072   0.488   2.197  1.00  0.00     0.048 A 
ENDBRANCH  24  26
ENDBRANCH   8  24
TORSDOF 7
