REMARK  7 active torsions:
REMARK  status: ('A' for Active; 'I' for Inactive)
REMARK    1  A    between atoms: C2_2  and  C3_3 
REMARK    2  A    between atoms: C3_3  and  O1_4 
REMARK    3  A    between atoms: O1_4  and  C4_5 
REMARK    4  A    between atoms: C9_12  and  N3_13 
REMARK    5  A    between atoms: N3_13  and  C10_14 
REMARK    6  A    between atoms: C10_14  and  C11_15 
REMARK    7  A    between atoms: C13_18  and  O2_19 
ROOT
HETATM    1  C4  UNL     1       0.586  -0.192  -0.417  1.00  0.00     0.099 C 
HETATM    2  C5  UNL     1      -0.503  -0.130  -1.143  1.00  0.00     0.028 C 
HETATM    3  C6  UNL     1      -1.486  -1.198  -0.974  1.00  0.00     0.118 C 
HETATM    4  C7  UNL     1      -1.175  -2.026   0.197  1.00  0.00     0.050 C 
HETATM    5  N1  UNL     1      -2.115  -2.706   0.818  1.00  0.00    -0.246 NA
HETATM    6  C8  UNL     1      -3.453  -2.601   0.358  1.00  0.00     0.229 C 
HETATM    7  N2  UNL     1      -3.799  -1.848  -0.621  1.00  0.00    -0.246 NA
HETATM    8  C9  UNL     1      -2.880  -1.006  -1.362  1.00  0.00     0.356 C 
HETATM    9  C12 UNL     1       0.084  -2.103   0.923  1.00  0.00     0.067 C 
HETATM   10  C13 UNL     1       0.978  -1.142   0.615  1.00  0.00     0.103 C 
ENDROOT
BRANCH   8  11
HETATM   11  N3  UNL     1      -3.302   0.395  -1.283  1.00  0.00     0.110 N 
HETATM   12  H12 UNL     1      -4.277   0.428  -1.607  1.00  0.00     0.318 HD
BRANCH  11  13
HETATM   13  C10 UNL     1      -3.185   0.818   0.087  1.00  0.00     0.287 C 
BRANCH  13  14
HETATM   14  C11 UNL     1      -3.613   2.269   0.217  1.00  0.00     0.144 C 
HETATM   15 CL1  UNL     1      -3.443   2.728   1.936  1.00  0.00    -0.129 Cl
ENDBRANCH  13  14
ENDBRANCH  11  13
ENDBRANCH   8  11
BRANCH   1  16
HETATM   16  O1  UNL     1       1.468   0.826  -0.658  1.00  0.00    -0.349 OA
BRANCH  16  17
HETATM   17  C3  UNL     1       2.686   1.065  -0.011  1.00  0.00     0.175 C 
BRANCH  17  18
HETATM   18  C2  UNL     1       3.317   2.307  -0.609  1.00  0.00     0.022 C 
HETATM   19  C1  UNL     1       4.641   2.629   0.043  1.00  0.00     0.007 C 
ENDBRANCH  17  18
ENDBRANCH  16  17
ENDBRANCH   1  16
BRANCH  10  20
HETATM   20  O2  UNL     1       2.206  -1.076   1.256  1.00  0.00    -0.353 OA
HETATM   21  C14 UNL     1       2.999  -2.254   1.183  1.00  0.00     0.210 C 
ENDBRANCH  10  20
TORSDOF 7
