REMARK  8 active torsions:
REMARK  status: ('A' for Active; 'I' for Inactive)
REMARK    1  A    between atoms: O1_2  and  C2_3 
REMARK    2  A    between atoms: C6_8  and  N2_9 
REMARK    3  A    between atoms: N2_9  and  C7_10 
REMARK    4  A    between atoms: C15_20  and  O2_21 
REMARK    5  A    between atoms: O2_21  and  C16_22 
REMARK    6  A    between atoms: C16_22  and  C17_23 
REMARK    7  A    between atoms: C17_23  and  C18_24 
REMARK    8  A    between atoms: C18_24  and  N3_25 
ROOT
HETATM    1  C2  UNL     1      -0.406  -1.848   0.303  1.00  0.00     0.114 A 
HETATM    2  C3  UNL     1      -1.675  -2.153   0.441  1.00  0.00     0.029 A 
HETATM    3  C4  UNL     1      -2.438  -3.241   1.025  1.00  0.00     0.126 A 
HETATM    4  N1  UNL     1      -3.725  -3.300   1.027  1.00  0.00    -0.295 NA
HETATM    5  C5  UNL     1      -4.570  -2.283   0.443  1.00  0.00     0.206 A 
HETATM    6  C6  UNL     1      -3.757  -1.189  -0.143  1.00  0.00     0.041 A 
HETATM    7  C13 UNL     1      -2.451  -1.082  -0.171  1.00  0.00     0.005 A 
HETATM    8  C14 UNL     1      -1.501  -0.117  -0.682  1.00  0.00     0.054 A 
HETATM    9  C15 UNL     1      -0.274  -0.580  -0.396  1.00  0.00     0.103 A 
ENDROOT
BRANCH   6  10
HETATM   10  N2  UNL     1      -4.472  -0.121  -0.752  1.00  0.00    -0.357 N 
HETATM   11  H7  UNL     1      -4.586  -0.222  -1.765  1.00  0.00     0.166 HD
BRANCH  10  12
HETATM   12  C7  UNL     1      -4.989   0.993  -0.037  1.00  0.00     0.034 A 
HETATM   13  C8  UNL     1      -4.835   1.122   1.322  1.00  0.00     0.032 A 
HETATM   14  C9  UNL     1      -5.369   2.235   1.932  1.00  0.00     0.046 A 
HETATM   15  C10 UNL     1      -6.052   3.233   1.250  1.00  0.00     0.138 A 
HETATM   16  F1  UNL     1      -6.576   4.322   1.841  1.00  0.00    -0.204 F 
HETATM   17  C11 UNL     1      -6.204   3.093  -0.134  1.00  0.00     0.074 A 
HETATM   18 CL1  UNL     1      -7.047   4.284  -1.116  1.00  0.00    -0.081 Cl
HETATM   19  C12 UNL     1      -5.662   1.966  -0.739  1.00  0.00     0.056 A 
ENDBRANCH  10  12
ENDBRANCH   6  10
BRANCH   1  20
HETATM   20  O1  UNL     1       0.681  -2.585   0.736  1.00  0.00    -0.352 OA
HETATM   21  C1  UNL     1       0.957  -3.839   0.124  1.00  0.00     0.210 C 
ENDBRANCH   1  20
BRANCH   9  22
HETATM   22  O2  UNL     1       0.819   0.176  -0.788  1.00  0.00    -0.348 OA
BRANCH  22  23
HETATM   23  C16 UNL     1       1.924  -0.331  -1.511  1.00  0.00     0.177 C 
BRANCH  23  24
HETATM   24  C17 UNL     1       2.864   0.829  -1.727  1.00  0.00     0.057 C 
BRANCH  24  25
HETATM   25  C18 UNL     1       3.337   1.423  -0.425  1.00  0.00     0.274 C 
BRANCH  25  26
HETATM   26  N3  UNL     1       4.051   0.484   0.410  1.00  0.00     0.092 N 
HETATM   27  C19 UNL     1       5.325   0.103  -0.158  1.00  0.00     0.298 C 
HETATM   28  C20 UNL     1       6.293  -0.203   0.965  1.00  0.00     0.198 C 
HETATM   29  O3  UNL     1       6.680   1.019   1.526  1.00  0.00    -0.388 OA
HETATM   30  C21 UNL     1       5.671   1.966   1.451  1.00  0.00     0.198 C 
HETATM   31  C22 UNL     1       4.357   1.217   1.645  1.00  0.00     0.298 C 
ENDBRANCH  25  26
ENDBRANCH  24  25
ENDBRANCH  23  24
ENDBRANCH  22  23
ENDBRANCH   9  22
TORSDOF 8
