REMARK  5 active torsions:
REMARK  status: ('A' for Active; 'I' for Inactive)
REMARK    1  A    between atoms: C1_2  and  C2_3 
REMARK    2  A    between atoms: C2_3  and  O2_4 
REMARK    3  A    between atoms: O2_4  and  C3_5 
REMARK    4  A    between atoms: C5_7  and  O3_8 
REMARK    5  A    between atoms: C9_13  and  C10_14 
ROOT
HETATM    1  C3  UNL     1       2.734   0.349  -0.164  1.00  0.00     0.074 A 
HETATM    2  C4  UNL     1       3.070  -0.933   0.133  1.00  0.00     0.074 A 
HETATM    3  C5  UNL     1       2.040  -1.835   0.326  1.00  0.00     0.085 A 
HETATM    4  C6  UNL     1       0.752  -1.413   0.215  1.00  0.00     0.081 A 
HETATM    5  C7  UNL     1      -0.356  -2.244   0.391  1.00  0.00     0.190 A 
HETATM    6  O4  UNL     1      -0.158  -3.448   0.668  1.00  0.00    -0.287 OA
HETATM    7  C8  UNL     1      -1.604  -1.685   0.249  1.00  0.00     0.094 A 
HETATM    8  C9  UNL     1      -1.857  -0.364  -0.055  1.00  0.00     0.090 A 
HETATM    9  O5  UNL     1      -0.791   0.397  -0.216  1.00  0.00    -0.309 OA
HETATM   10  C16 UNL     1       0.415  -0.105  -0.088  1.00  0.00     0.095 A 
HETATM   11  C17 UNL     1       1.443   0.819  -0.286  1.00  0.00     0.075 A 
ENDROOT
BRANCH   8  12
HETATM   12  C10 UNL     1      -3.212   0.155  -0.190  1.00  0.00    -0.002 A 
HETATM   13  C11 UNL     1      -4.371  -0.570  -0.038  1.00  0.00     0.014 A 
HETATM   14  C12 UNL     1      -5.622  -0.005  -0.182  1.00  0.00     0.001 A 
HETATM   15  C13 UNL     1      -5.732   1.341  -0.490  1.00  0.00     0.000 A 
HETATM   16  C14 UNL     1      -4.594   2.087  -0.647  1.00  0.00     0.001 A 
HETATM   17  C15 UNL     1      -3.353   1.499  -0.498  1.00  0.00     0.014 A 
ENDBRANCH   8  12
BRANCH   3  18
HETATM   18  O3  UNL     1       2.295  -3.144   0.628  1.00  0.00    -0.360 OA
HETATM   19  H5  UNL     1       2.258  -3.852  -0.122  1.00  0.00     0.217 HD
ENDBRANCH   3  18
BRANCH   1  20
HETATM   20  O2  UNL     1       3.778   1.242  -0.355  1.00  0.00    -0.344 OA
BRANCH  20  21
HETATM   21  C2  UNL     1       5.133   0.892  -0.259  1.00  0.00     0.244 C 
BRANCH  21  22
HETATM   22  C1  UNL     1       5.942   2.114  -0.528  1.00  0.00     0.257 C 
HETATM   23  O1  UNL     1       7.145   1.876  -0.460  1.00  0.00    -0.305 OA
ENDBRANCH  21  22
ENDBRANCH  20  21
ENDBRANCH   1  20
TORSDOF 5
