REMARK  2 active torsions:
REMARK  status: ('A' for Active; 'I' for Inactive)
REMARK    1  A    between atoms: C2_2  and  O1_3 
REMARK    2  A    between atoms: O1_3  and  C3_4 
ROOT
HETATM    1  C3  UNL     1      -3.393   0.140   0.328  1.00  0.00     0.200 C 
HETATM    2  C4  UNL     1      -2.360   0.869  -0.280  1.00  0.00    -0.072 C 
HETATM    3  C5  UNL     1      -1.513   1.462  -0.800  1.00  0.00    -0.078 C 
HETATM    4  C6  UNL     1      -0.495   2.153  -1.440  1.00  0.00     0.261 C 
HETATM    5  O2  UNL     1       0.336   3.015  -0.809  1.00  0.00    -0.379 OA
HETATM    6  C7  UNL     1       1.020   2.559   0.279  1.00  0.00     0.170 C 
HETATM    7  C8  UNL     1       2.165   3.540   0.629  1.00  0.00     0.004 C 
HETATM    8  C9  UNL     1       3.568   3.597   0.764  1.00  0.00     0.047 C 
HETATM    9  C10 UNL     1       3.873   2.174   0.435  1.00  0.00    -0.025 C 
HETATM   10  C11 UNL     1       4.792   1.181   0.260  1.00  0.00    -0.030 C 
HETATM   11  C12 UNL     1       4.988  -0.327  -0.091  1.00  0.00     0.027 C 
HETATM   12  C13 UNL     1       3.582  -0.819  -0.231  1.00  0.00     0.004 C 
HETATM   13  C14 UNL     1       3.440  -2.298  -0.481  1.00  0.00     0.000 C 
HETATM   14  C15 UNL     1       1.946  -2.655  -0.577  1.00  0.00     0.000 C 
HETATM   15  C16 UNL     1       1.183  -2.139   0.575  1.00  0.00     0.000 C 
HETATM   16  C17 UNL     1      -0.271  -2.463   0.688  1.00  0.00     0.000 C 
HETATM   17  C18 UNL     1      -1.112  -2.092  -0.526  1.00  0.00     0.000 C 
HETATM   18  C19 UNL     1      -2.578  -2.221  -0.227  1.00  0.00     0.004 C 
HETATM   19  C20 UNL     1      -3.149  -1.275   0.750  1.00  0.00     0.045 C 
ENDROOT
BRANCH   1  20
HETATM   20  O1  UNL     1      -4.451   0.133  -0.665  1.00  0.00    -0.374 OA
BRANCH  20  21
HETATM   21  C2  UNL     1      -5.558   0.787  -0.114  1.00  0.00     0.165 C 
HETATM   22  C1  UNL     1      -5.218   2.199   0.248  1.00  0.00     0.033 C 
ENDBRANCH  20  21
ENDBRANCH   1  20
TORSDOF 2
