REMARK  9 active torsions:
REMARK  status: ('A' for Active; 'I' for Inactive)
REMARK    1  A    between atoms: C2_2  and  C3_3 
REMARK    2  A    between atoms: C3_3  and  C4_4 
REMARK    3  A    between atoms: C4_4  and  C5_5 
REMARK    4  A    between atoms: C5_5  and  C6_6 
REMARK    5  A    between atoms: C6_6  and  O1_7 
REMARK    6  A    between atoms: O1_7  and  C7_8 
REMARK    7  A    between atoms: C7_8  and  C8_10 
REMARK    8  A    between atoms: C8_10  and  O3_11 
REMARK    9  A    between atoms: O3_11  and  C9_12 
ROOT
HETATM    1  C9  UNL     1       3.138   0.110  -0.300  1.00  0.00     0.072 A 
HETATM    2  C10 UNL     1       3.617   1.076   0.555  1.00  0.00     0.038 A 
HETATM    3  C11 UNL     1       4.937   1.218   0.923  1.00  0.00     0.021 A 
HETATM    4  C12 UNL     1       5.843   0.323   0.392  1.00  0.00     0.048 A 
HETATM    5  C13 UNL     1       7.170   0.491   0.782  1.00  0.00     0.186 A 
HETATM    6  O4  UNL     1       7.523   1.400   1.567  1.00  0.00    -0.287 OA
HETATM    7  C14 UNL     1       8.115  -0.376   0.280  1.00  0.00     0.080 A 
HETATM    8  C15 UNL     1       7.613  -1.345  -0.581  1.00  0.00     0.146 A 
HETATM    9  O5  UNL     1       6.346  -1.471  -0.926  1.00  0.00    -0.322 OA
HETATM   10  C16 UNL     1       5.415  -0.665  -0.471  1.00  0.00     0.091 A 
HETATM   11  C17 UNL     1       4.080  -0.764  -0.807  1.00  0.00     0.075 A 
ENDROOT
BRANCH   1  12
HETATM   12  O3  UNL     1       1.791   0.015  -0.636  1.00  0.00    -0.341 OA
BRANCH  12  13
HETATM   13  C8  UNL     1       0.962   1.007  -0.014  1.00  0.00     0.286 C 
BRANCH  13  14
HETATM   14  C7  UNL     1      -0.452   0.885  -0.384  1.00  0.00     0.283 C 
HETATM   15  O2  UNL     1      -1.121   1.774   0.188  1.00  0.00    -0.263 OA
BRANCH  14  16
HETATM   16  O1  UNL     1      -0.884  -0.087  -1.234  1.00  0.00    -0.320 OA
BRANCH  16  17
HETATM   17  C6  UNL     1      -2.255  -0.173  -1.566  1.00  0.00     0.178 C 
BRANCH  17  18
HETATM   18  C5  UNL     1      -3.035  -0.418  -0.313  1.00  0.00     0.027 C 
BRANCH  18  19
HETATM   19  C4  UNL     1      -4.497  -0.509  -0.703  1.00  0.00     0.002 C 
BRANCH  19  20
HETATM   20  C3  UNL     1      -5.288  -0.755   0.549  1.00  0.00    -0.000 C 
BRANCH  20  21
HETATM   21  C2  UNL     1      -6.786  -0.859   0.233  1.00  0.00    -0.005 C 
HETATM   22  C1  UNL     1      -7.287   0.418  -0.399  1.00  0.00     0.005 C 
ENDBRANCH  20  21
ENDBRANCH  19  20
ENDBRANCH  18  19
ENDBRANCH  17  18
ENDBRANCH  16  17
ENDBRANCH  14  16
ENDBRANCH  13  14
ENDBRANCH  12  13
ENDBRANCH   1  12
TORSDOF 9
