REMARK  4 active torsions:
REMARK  status: ('A' for Active; 'I' for Inactive)
REMARK    1  A    between atoms: C12_15  and  S1_16 
REMARK    2  A    between atoms: C16_20  and  C17_21 
REMARK    3  A    between atoms: C17_21  and  C18_22 
REMARK    4  A    between atoms: C18_22  and  C19_23 
ROOT
HETATM    1  C1  UNL     1       0.292   4.909   1.384  1.00  0.00     0.036 C 
HETATM    2  C2  UNL     1      -0.299   3.825   0.602  1.00  0.00    -0.023 C 
HETATM    3  C3  UNL     1       0.342   2.684   0.760  1.00  0.00    -0.049 A 
HETATM    4  C4  UNL     1       1.550   2.615   1.679  1.00  0.00     0.066 A 
HETATM    5  C5  UNL     1       1.842   1.195   1.472  1.00  0.00    -0.014 A 
HETATM    6  C6  UNL     1       1.070   0.451   0.653  1.00  0.00    -0.048 A 
HETATM    7  C7  UNL     1       0.055   1.356   0.145  1.00  0.00    -0.014 A 
HETATM    8  C8  UNL     1      -1.015   1.794  -0.532  1.00  0.00     0.189 C 
HETATM    9  O1  UNL     1      -1.912   1.136  -1.405  1.00  0.00    -0.368 OA
HETATM   10  C9  UNL     1      -3.295   1.529  -1.359  1.00  0.00     0.279 C 
HETATM   11  C10 UNL     1      -4.039   0.317  -0.870  1.00  0.00     0.282 C 
HETATM   12  O2  UNL     1      -5.252   0.440  -0.632  1.00  0.00    -0.263 OA
HETATM   13  O3  UNL     1      -3.507  -0.918  -0.656  1.00  0.00    -0.319 OA
HETATM   14  C11 UNL     1      -4.112  -2.070  -0.183  1.00  0.00     0.193 C 
HETATM   15  C12 UNL     1      -3.179  -3.238  -0.187  1.00  0.00     0.068 C 
HETATM   16  C13 UNL     1      -1.933  -3.013   0.577  1.00  0.00     0.017 C 
HETATM   17  C14 UNL     1      -1.092  -1.848   0.103  1.00  0.00     0.002 C 
HETATM   18  C15 UNL     1       0.241  -1.930   0.777  1.00  0.00     0.009 C 
HETATM   19  C16 UNL     1       1.297  -0.974   0.384  1.00  0.00     0.019 C 
ENDROOT
BRANCH  19  20
HETATM   20  C17 UNL     1       1.704  -1.061  -1.070  1.00  0.00     0.009 C 
BRANCH  20  21
HETATM   21  C18 UNL     1       2.949  -0.285  -1.406  1.00  0.00     0.000 C 
BRANCH  21  22
HETATM   22  C19 UNL     1       4.127  -0.791  -0.610  1.00  0.00    -0.005 C 
HETATM   23  C20 UNL     1       5.380  -0.011  -0.976  1.00  0.00     0.005 C 
ENDBRANCH  21  22
ENDBRANCH  20  21
ENDBRANCH  19  20
BRANCH  15  24
HETATM   24  S1  UNL     1      -4.128  -4.647   0.516  1.00  0.00    -0.175 SA
HETATM   25  H14 UNL     1      -3.811  -5.850  -0.110  1.00  0.00     0.102 HD
ENDBRANCH  15  24
TORSDOF 4
