REMARK  7 active torsions:
REMARK  status: ('A' for Active; 'I' for Inactive)
REMARK    1  A    between atoms: C2_2  and  C3_3 
REMARK    2  A    between atoms: C3_3  and  C4_4 
REMARK    3  A    between atoms: C7_7  and  O1_8 
REMARK    4  A    between atoms: C11_12  and  O2_13 
REMARK    5  A    between atoms: C13_15  and  O3_16 
REMARK    6  A    between atoms: O3_16  and  C14_17 
REMARK    7  A    between atoms: C14_17  and  C15_18 
ROOT
HETATM    1  C4  UNL     1      -4.163   0.796   0.209  1.00  0.00    -0.013 C 
HETATM    2  C5  UNL     1      -2.980   1.655   0.600  1.00  0.00    -0.012 C 
HETATM    3  C6  UNL     1      -1.891   2.334   0.907  1.00  0.00     0.080 C 
HETATM    4  C7  UNL     1      -0.487   2.094   0.769  1.00  0.00     0.045 C 
HETATM    5  C8  UNL     1       0.673   1.578   0.504  1.00  0.00     0.021 C 
HETATM    6  C9  UNL     1       2.105   1.385   0.388  1.00  0.00     0.038 C 
HETATM    7  C10 UNL     1       2.866   2.091   1.500  1.00  0.00     0.026 C 
HETATM    8  C11 UNL     1       2.657   1.820  -0.957  1.00  0.00     0.158 C 
HETATM    9  C12 UNL     1       3.874   0.975  -1.041  1.00  0.00     0.040 C 
HETATM   10  C13 UNL     1       3.757  -0.108  -0.251  1.00  0.00     0.075 C 
HETATM   11  C16 UNL     1       2.449  -0.059   0.413  1.00  0.00     0.192 C 
HETATM   12  O5  UNL     1       1.476  -0.811  -0.249  1.00  0.00    -0.378 OA
HETATM   13  C17 UNL     1       1.951  -1.382  -1.395  1.00  0.00     0.168 C 
HETATM   14  C18 UNL     1       0.930  -2.296  -2.027  1.00  0.00     0.026 C 
HETATM   15  C19 UNL     1       0.529  -3.379  -1.091  1.00  0.00     0.002 C 
HETATM   16  C20 UNL     1      -0.476  -3.064  -0.046  1.00  0.00     0.000 C 
HETATM   17  C21 UNL     1      -1.858  -3.033  -0.689  1.00  0.00     0.000 C 
HETATM   18  C22 UNL     1      -2.963  -2.783   0.245  1.00  0.00     0.000 C 
HETATM   19  C23 UNL     1      -3.225  -1.404   0.732  1.00  0.00     0.000 C 
HETATM   20  C24 UNL     1      -3.792  -0.517  -0.370  1.00  0.00     0.005 C 
ENDROOT
BRANCH  10  21
HETATM   21  O3  UNL     1       4.760  -1.060  -0.145  1.00  0.00    -0.346 OA
BRANCH  21  22
HETATM   22  C14 UNL     1       5.823  -0.892   0.778  1.00  0.00     0.244 C 
BRANCH  22  23
HETATM   23  C15 UNL     1       6.773  -2.028   0.729  1.00  0.00     0.257 C 
HETATM   24  O4  UNL     1       6.045  -2.507  -0.151  1.00  0.00    -0.305 OA
ENDBRANCH  22  23
ENDBRANCH  21  22
ENDBRANCH  10  21
BRANCH   8  25
HETATM   25  O2  UNL     1       3.030   3.175  -0.814  1.00  0.00    -0.390 OA
HETATM   26  H15 UNL     1       3.996   3.307  -0.819  1.00  0.00     0.210 HD
ENDBRANCH   8  25
BRANCH   4  27
HETATM   27  O1  UNL     1       0.114   3.219   1.298  1.00  0.00    -0.365 OA
HETATM   28  H9  UNL     1       0.123   3.305   2.321  1.00  0.00     0.217 HD
ENDBRANCH   4  27
BRANCH   1  29
HETATM   29  C3  UNL     1      -4.938   1.653  -0.800  1.00  0.00     0.009 C 
BRANCH  29  30
HETATM   30  C2  UNL     1      -5.344   2.899  -0.098  1.00  0.00    -0.010 C 
HETATM   31  C1  UNL     1      -5.551   3.870   0.770  1.00  0.00     0.005 C 
ENDBRANCH  29  30
ENDBRANCH   1  29
TORSDOF 7
