REMARK  8 active torsions:
REMARK  status: ('A' for Active; 'I' for Inactive)
REMARK    1  A    between atoms: C2_2  and  C3_3 
REMARK    2  A    between atoms: C2_2  and  N1_22 
REMARK    3  A    between atoms: C3_3  and  O1_4 
REMARK    4  A    between atoms: O1_4  and  C4_5 
REMARK    5  A    between atoms: C6_7  and  O2_8 
REMARK    6  A    between atoms: C10_13  and  C11_14 
REMARK    7  A    between atoms: N1_22  and  C18_23 
REMARK    8  A    between atoms: C18_23  and  C19_24 
ROOT
HETATM    1  C4  UNL     1       0.273  -0.675   0.931  1.00  0.00     0.074 A 
HETATM    2  C5  UNL     1       0.074  -1.972   0.508  1.00  0.00     0.074 A 
HETATM    3  C6  UNL     1      -1.146  -2.393   0.018  1.00  0.00     0.085 A 
HETATM    4  C7  UNL     1      -2.205  -1.502  -0.056  1.00  0.00     0.081 A 
HETATM    5  C8  UNL     1      -3.383  -2.015  -0.558  1.00  0.00     0.190 A 
HETATM    6  O3  UNL     1      -3.494  -3.213  -0.926  1.00  0.00    -0.287 OA
HETATM    7  C9  UNL     1      -4.442  -1.115  -0.628  1.00  0.00     0.089 A 
HETATM    8  C10 UNL     1      -4.242   0.185  -0.204  1.00  0.00     0.069 A 
HETATM    9  O4  UNL     1      -3.078   0.625   0.272  1.00  0.00    -0.313 OA
HETATM   10  C16 UNL     1      -2.041  -0.197   0.358  1.00  0.00     0.095 A 
HETATM   11  C17 UNL     1      -0.807   0.213   0.849  1.00  0.00     0.075 A 
ENDROOT
BRANCH   1  12
HETATM   12  O1  UNL     1       1.373  -0.040   1.445  1.00  0.00    -0.345 OA
BRANCH  12  13
HETATM   13  C3  UNL     1       2.635  -0.568   1.685  1.00  0.00     0.227 C 
BRANCH  13  14
HETATM   14  C2  UNL     1       3.332  -1.101   0.486  1.00  0.00     0.007 C 
HETATM   15  C1  UNL     1       3.810  -2.309   0.139  1.00  0.00     0.060 C 
BRANCH  14  16
HETATM   16  N1  UNL     1       3.702  -0.431  -0.698  1.00  0.00    -0.388 N 
HETATM   17  H14 UNL     1       2.800  -0.308  -1.213  1.00  0.00     0.159 HD
BRANCH  16  18
HETATM   18  C18 UNL     1       4.930   0.074  -1.296  1.00  0.00     0.197 C 
BRANCH  18  19
HETATM   19  C19 UNL     1       5.387   1.218  -0.464  1.00  0.00     0.140 C 
HETATM   20  C20 UNL     1       6.642   1.907  -0.888  1.00  0.00     0.092 C 
HETATM   21  O5  UNL     1       4.849   1.667   0.540  1.00  0.00    -0.297 OA
ENDBRANCH  18  19
ENDBRANCH  16  18
ENDBRANCH  14  16
ENDBRANCH  13  14
ENDBRANCH  12  13
ENDBRANCH   1  12
BRANCH   3  22
HETATM   22  O2  UNL     1      -1.165  -3.736  -0.363  1.00  0.00    -0.360 OA
HETATM   23  H6  UNL     1      -0.979  -4.407   0.385  1.00  0.00     0.217 HD
ENDBRANCH   3  22
BRANCH   8  24
HETATM   24  C11 UNL     1      -5.339   1.206  -0.252  1.00  0.00     0.088 A 
HETATM   25  C12 UNL     1      -5.478   1.863   1.055  1.00  0.00    -0.012 A 
HETATM   26  C13 UNL     1      -5.219   3.173   0.946  1.00  0.00    -0.003 A 
HETATM   27  C14 UNL     1      -4.893   3.456  -0.444  1.00  0.00    -0.003 A 
HETATM   28  C15 UNL     1      -4.954   2.332  -1.164  1.00  0.00    -0.012 A 
ENDBRANCH   8  24
TORSDOF 8
