REMARK  10 active torsions:
REMARK  status: ('A' for Active; 'I' for Inactive)
REMARK    1  A    between atoms: C2_2  and  C3_3 
REMARK    2  A    between atoms: C3_3  and  C4_4 
REMARK    3  A    between atoms: C4_4  and  C5_5 
REMARK    4  A    between atoms: C5_5  and  C6_6 
REMARK    5  A    between atoms: C6_6  and  C7_7 
REMARK    6  A    between atoms: C7_7  and  N1_8 
REMARK       I    between atoms: N1_8  and  C8_9 
REMARK    7  A    between atoms: C8_9  and  O2_11 
REMARK    8  A    between atoms: O2_11  and  C9_12 
REMARK    9  A    between atoms: C11_14  and  O3_15 
REMARK   10  A    between atoms: C15_20  and  C16_21 
ROOT
HETATM    1  C9  UNL     1      -1.068  -0.542   2.436  1.00  0.00     0.086 A 
HETATM    2  C10 UNL     1      -1.854  -0.333   3.551  1.00  0.00     0.075 A 
HETATM    3  C11 UNL     1      -3.191  -0.039   3.400  1.00  0.00     0.085 A 
HETATM    4  C12 UNL     1      -3.738   0.046   2.156  1.00  0.00     0.081 A 
HETATM    5  C13 UNL     1      -5.088   0.342   1.977  1.00  0.00     0.190 A 
HETATM    6  O4  UNL     1      -5.766   0.525   3.035  1.00  0.00    -0.287 OA
HETATM    7  C14 UNL     1      -5.613   0.422   0.711  1.00  0.00     0.094 A 
HETATM    8  C15 UNL     1      -4.792   0.207  -0.361  1.00  0.00     0.090 A 
HETATM    9  O5  UNL     1      -3.522  -0.072  -0.188  1.00  0.00    -0.309 OA
HETATM   10  C22 UNL     1      -2.974  -0.159   1.016  1.00  0.00     0.095 A 
HETATM   11  C23 UNL     1      -1.630  -0.454   1.169  1.00  0.00     0.076 A 
ENDROOT
BRANCH   1  12
HETATM   12  O2  UNL     1       0.288  -0.845   2.418  1.00  0.00    -0.261 OA
BRANCH  12  13
HETATM   13  C8  UNL     1       1.203   0.174   2.375  1.00  0.00     0.365 C 
HETATM   14  N1  UNL     1       2.583  -0.081   2.355  1.00  0.00    -0.337 N 
HETATM   15  H16 UNL     1       2.869  -1.103   2.375  1.00  0.00     0.164 HD
HETATM   16  O1  UNL     1       0.754   1.339   2.354  1.00  0.00    -0.238 OA
BRANCH  14  17
HETATM   17  C7  UNL     1       3.562   0.938   2.310  1.00  0.00     0.125 C 
BRANCH  17  18
HETATM   18  C6  UNL     1       3.547   1.856   1.161  1.00  0.00     0.020 C 
BRANCH  18  19
HETATM   19  C5  UNL     1       3.741   1.056  -0.119  1.00  0.00     0.002 C 
BRANCH  19  20
HETATM   20  C4  UNL     1       5.054   0.314  -0.113  1.00  0.00     0.000 C 
BRANCH  20  21
HETATM   21  C3  UNL     1       5.258  -0.485  -1.382  1.00  0.00    -0.000 C 
BRANCH  21  22
HETATM   22  C2  UNL     1       6.577  -1.230  -1.375  1.00  0.00    -0.005 C 
HETATM   23  C1  UNL     1       6.743  -2.024  -2.675  1.00  0.00     0.005 C 
ENDBRANCH  21  22
ENDBRANCH  20  21
ENDBRANCH  19  20
ENDBRANCH  18  19
ENDBRANCH  17  18
ENDBRANCH  14  17
ENDBRANCH  12  13
ENDBRANCH   1  12
BRANCH   3  24
HETATM   24  O3  UNL     1      -3.955   0.166   4.550  1.00  0.00    -0.360 OA
HETATM   25  H18 UNL     1      -3.914   1.003   5.088  1.00  0.00     0.217 HD
ENDBRANCH   3  24
BRANCH   8  26
HETATM   26  C16 UNL     1      -5.259   0.270  -1.736  1.00  0.00    -0.002 A 
HETATM   27  C17 UNL     1      -4.372   0.042  -2.768  1.00  0.00     0.014 A 
HETATM   28  C18 UNL     1      -4.780   0.094  -4.088  1.00  0.00     0.001 A 
HETATM   29  C19 UNL     1      -6.062   0.369  -4.443  1.00  0.00     0.000 A 
HETATM   30  C20 UNL     1      -6.962   0.600  -3.430  1.00  0.00     0.001 A 
HETATM   31  C21 UNL     1      -6.554   0.548  -2.118  1.00  0.00     0.014 A 
ENDBRANCH   8  26
TORSDOF 10
