REMARK  3 active torsions:
REMARK  status: ('A' for Active; 'I' for Inactive)
REMARK    1  A    between atoms: N1_1  and  C1_2 
REMARK    2  A    between atoms: C11_13  and  C12_14 
REMARK    3  A    between atoms: C21_24  and  O3_25 
ROOT
HETATM    1  C1  UNL     1      -3.019   0.944  -1.245  1.00  0.00     0.242 C 
HETATM    2  C2  UNL     1      -3.636   1.201   0.098  1.00  0.00     0.037 C 
HETATM    3  C3  UNL     1      -4.641   0.175   0.474  1.00  0.00     0.002 C 
HETATM    4  C4  UNL     1      -4.071  -1.222   0.530  1.00  0.00     0.000 C 
HETATM    5  C5  UNL     1      -2.910  -1.291   1.511  1.00  0.00     0.000 C 
HETATM    6  C6  UNL     1      -2.393  -2.690   1.638  1.00  0.00     0.000 C 
HETATM    7  C7  UNL     1      -1.884  -3.333   0.412  1.00  0.00     0.000 C 
HETATM    8  C8  UNL     1      -0.687  -2.703  -0.201  1.00  0.00     0.002 C 
HETATM    9  C9  UNL     1       0.479  -2.700   0.771  1.00  0.00     0.027 C 
HETATM   10  C10 UNL     1       1.773  -2.264   0.057  1.00  0.00     0.175 C 
HETATM   11  O1  UNL     1       1.637  -0.997  -0.439  1.00  0.00    -0.354 OA
HETATM   12  C11 UNL     1       2.601   0.056  -0.297  1.00  0.00     0.069 C 
HETATM   13  C18 UNL     1       2.770   1.370  -0.170  1.00  0.00     0.136 C 
HETATM   14  C19 UNL     1       2.160   2.674  -0.082  1.00  0.00     0.176 C 
HETATM   15  O2  UNL     1       3.349   3.150  -0.004  1.00  0.00    -0.291 OA
HETATM   16  C20 UNL     1       1.020   3.567  -0.045  1.00  0.00     0.077 A 
HETATM   17  C21 UNL     1       0.828   4.838   0.177  1.00  0.00     0.085 A 
HETATM   18  C22 UNL     1      -0.580   4.535  -0.051  1.00  0.00     0.075 A 
HETATM   19  C23 UNL     1      -0.366   3.237  -0.276  1.00  0.00     0.088 A 
HETATM   20  O4  UNL     1      -0.971   2.030  -0.581  1.00  0.00    -0.348 OA
HETATM   21  C24 UNL     1      -2.000   2.020  -1.571  1.00  0.00     0.211 C 
ENDROOT
BRANCH  12  22
HETATM   22  C12 UNL     1       4.011  -0.317  -0.259  1.00  0.00    -0.006 A 
HETATM   23  C13 UNL     1       5.116   0.347   0.219  1.00  0.00     0.014 A 
HETATM   24  C14 UNL     1       6.455  -0.013   0.142  1.00  0.00     0.001 A 
HETATM   25  C15 UNL     1       6.738  -1.195  -0.496  1.00  0.00     0.000 A 
HETATM   26  C16 UNL     1       5.709  -1.944  -1.015  1.00  0.00     0.001 A 
HETATM   27  C17 UNL     1       4.423  -1.476  -0.874  1.00  0.00     0.014 A 
ENDBRANCH  12  22
BRANCH  17  28
HETATM   28  O3  UNL     1       1.358   6.083   0.479  1.00  0.00    -0.360 OA
HETATM   29  H28 UNL     1       2.216   6.410   0.004  1.00  0.00     0.217 HD
ENDBRANCH  17  28
BRANCH   1  30
HETATM   30  N1  UNL     1      -4.046   0.978  -2.260  1.00  0.00     0.085 N 
HETATM   31  H1  UNL     1      -3.619   1.231  -3.184  1.00  0.00     0.313 HD
HETATM   32  H2  UNL     1      -4.732   1.738  -2.023  1.00  0.00     0.313 HD
ENDBRANCH   1  30
TORSDOF 3
