REMARK  9 active torsions:
REMARK  status: ('A' for Active; 'I' for Inactive)
REMARK    1  A    between atoms: C2_2  and  C3_3 
REMARK    2  A    between atoms: C3_3  and  C4_4 
REMARK    3  A    between atoms: C5_5  and  C6_6 
REMARK    4  A    between atoms: C6_6  and  C7_7 
REMARK    5  A    between atoms: C7_7  and  N1_8 
REMARK       I    between atoms: N1_8  and  C8_9 
REMARK    6  A    between atoms: C8_9  and  C9_11 
REMARK    7  A    between atoms: C9_11  and  O2_12 
REMARK    8  A    between atoms: O2_12  and  C10_13 
REMARK    9  A    between atoms: C12_15  and  O3_16 
ROOT
HETATM    1  C10 UNL     1      -2.236   0.829   0.209  1.00  0.00     0.074 C 
HETATM    2  C11 UNL     1      -2.400   2.129   0.459  1.00  0.00     0.073 C 
HETATM    3  C12 UNL     1      -3.558   3.002   0.753  1.00  0.00     0.072 C 
HETATM    4  C13 UNL     1      -4.821   2.800   0.428  1.00  0.00    -0.027 C 
HETATM    5  C14 UNL     1      -5.633   3.953   0.936  1.00  0.00     0.048 C 
HETATM    6  C15 UNL     1      -5.668   1.829  -0.259  1.00  0.00     0.212 C 
HETATM    7  O4  UNL     1      -5.456   0.483   0.065  1.00  0.00    -0.346 OA
HETATM    8  C16 UNL     1      -4.483  -0.504   0.070  1.00  0.00     0.082 C 
HETATM    9  C17 UNL     1      -4.979  -1.846   0.004  1.00  0.00    -0.003 A 
HETATM   10  C18 UNL     1      -4.311  -3.036  -0.018  1.00  0.00     0.014 A 
HETATM   11  C19 UNL     1      -4.886  -4.286  -0.081  1.00  0.00     0.001 A 
HETATM   12  C20 UNL     1      -6.257  -4.386  -0.127  1.00  0.00     0.000 A 
HETATM   13  C21 UNL     1      -6.981  -3.227  -0.108  1.00  0.00     0.001 A 
HETATM   14  C22 UNL     1      -6.345  -2.014  -0.044  1.00  0.00     0.014 A 
HETATM   15  C23 UNL     1      -3.204  -0.258   0.131  1.00  0.00     0.074 C 
ENDROOT
BRANCH   1  16
HETATM   16  O2  UNL     1      -0.927   0.434  -0.018  1.00  0.00    -0.342 OA
BRANCH  16  17
HETATM   17  C9  UNL     1       0.175   1.283   0.040  1.00  0.00     0.278 C 
BRANCH  17  18
HETATM   18  C8  UNL     1       1.373   0.472  -0.288  1.00  0.00     0.241 C 
HETATM   19  N1  UNL     1       2.678   0.977  -0.333  1.00  0.00    -0.359 N 
HETATM   20  H16 UNL     1       2.716   2.011  -0.106  1.00  0.00     0.162 HD
HETATM   21  O1  UNL     1       1.095  -0.730  -0.525  1.00  0.00    -0.271 OA
BRANCH  19  22
HETATM   22  C7  UNL     1       3.870   0.147  -0.662  1.00  0.00     0.122 C 
BRANCH  22  23
HETATM   23  C6  UNL     1       4.044  -0.949   0.298  1.00  0.00     0.020 C 
BRANCH  23  24
HETATM   24  C5  UNL     1       5.072  -1.975   0.130  1.00  0.00     0.002 C 
HETATM   25  C4  UNL     1       6.502  -1.817   0.057  1.00  0.00     0.000 C 
BRANCH  25  26
HETATM   26  C3  UNL     1       7.293  -1.186  -0.982  1.00  0.00    -0.000 C 
BRANCH  26  27
HETATM   27  C2  UNL     1       7.223   0.222  -1.372  1.00  0.00    -0.005 C 
HETATM   28  C1  UNL     1       7.532   1.186  -0.221  1.00  0.00     0.005 C 
ENDBRANCH  26  27
ENDBRANCH  25  26
ENDBRANCH  23  24
ENDBRANCH  22  23
ENDBRANCH  19  22
ENDBRANCH  17  18
ENDBRANCH  16  17
ENDBRANCH   1  16
BRANCH   3  29
HETATM   29  O3  UNL     1      -3.217   4.152   1.452  1.00  0.00    -0.360 OA
HETATM   30  H20 UNL     1      -3.452   5.077   1.185  1.00  0.00     0.217 HD
ENDBRANCH   3  29
TORSDOF 9
