REMARK  13 active torsions:
REMARK  status: ('A' for Active; 'I' for Inactive)
REMARK    1  A    between atoms: C2_2  and  C3_3 
REMARK    2  A    between atoms: C6_7  and  C7_8 
REMARK    3  A    between atoms: C14_16  and  C15_17 
REMARK    4  A    between atoms: C15_17  and  O3_18 
REMARK    5  A    between atoms: O3_18  and  C16_19 
REMARK    6  A    between atoms: C16_19  and  C17_20 
REMARK       I    between atoms: C17_20  and  N1_22 
REMARK    7  A    between atoms: N1_22  and  C18_23 
REMARK    8  A    between atoms: C18_23  and  C19_24 
REMARK    9  A    between atoms: C19_24  and  C20_25 
REMARK   10  A    between atoms: C20_25  and  C21_26 
REMARK   11  A    between atoms: C21_26  and  C22_27 
REMARK   12  A    between atoms: C22_27  and  C23_28 
REMARK   13  A    between atoms: C23_28  and  C24_29 
ROOT
HETATM    1  C3  UNL     1      -4.581   1.120   2.100  1.00  0.00     0.043 A 
HETATM    2  C4  UNL     1      -5.950   0.937   2.018  1.00  0.00     0.187 A 
HETATM    3  O1  UNL     1      -6.649   1.255   3.006  1.00  0.00    -0.287 OA
HETATM    4  C5  UNL     1      -6.472   0.420   0.865  1.00  0.00     0.093 A 
HETATM    5  C6  UNL     1      -5.629   0.102  -0.165  1.00  0.00     0.090 A 
HETATM    6  O2  UNL     1      -4.352   0.289  -0.046  1.00  0.00    -0.309 OA
HETATM    7  C13 UNL     1      -3.781   0.780   1.028  1.00  0.00     0.088 A 
HETATM    8  C14 UNL     1      -2.467   0.855   0.862  1.00  0.00     0.037 C 
ENDROOT
BRANCH   8   9
HETATM    9  C15 UNL     1      -1.719   0.440  -0.385  1.00  0.00     0.198 C 
BRANCH   9  10
HETATM   10  O3  UNL     1      -1.003   1.419  -0.968  1.00  0.00    -0.378 OA
BRANCH  10  11
HETATM   11  C16 UNL     1      -0.007   2.057  -0.333  1.00  0.00     0.270 C 
BRANCH  11  12
HETATM   12  C17 UNL     1       1.167   1.252  -0.007  1.00  0.00     0.241 C 
HETATM   13  O4  UNL     1       2.039   1.980   0.605  1.00  0.00    -0.271 OA
HETATM   14  N1  UNL     1       1.673  -0.057  -0.139  1.00  0.00    -0.359 N 
HETATM   15  H16 UNL     1       1.020  -0.673  -0.641  1.00  0.00     0.162 HD
BRANCH  14  16
HETATM   16  C18 UNL     1       3.027  -0.306   0.435  1.00  0.00     0.122 C 
BRANCH  16  17
HETATM   17  C19 UNL     1       3.279  -1.745   0.152  1.00  0.00     0.020 C 
BRANCH  17  18
HETATM   18  C20 UNL     1       4.490  -2.358   0.677  1.00  0.00     0.002 C 
BRANCH  18  19
HETATM   19  C21 UNL     1       5.806  -1.834   0.309  1.00  0.00     0.000 C 
BRANCH  19  20
HETATM   20  C22 UNL     1       6.257  -0.496   0.755  1.00  0.00     0.000 C 
BRANCH  20  21
HETATM   21  C23 UNL     1       7.669  -0.193   0.238  1.00  0.00    -0.000 C 
BRANCH  21  22
HETATM   22  C24 UNL     1       7.751  -0.206  -1.253  1.00  0.00    -0.005 C 
HETATM   23  C25 UNL     1       6.836   0.819  -1.889  1.00  0.00     0.005 C 
ENDBRANCH  21  22
ENDBRANCH  20  21
ENDBRANCH  19  20
ENDBRANCH  18  19
ENDBRANCH  17  18
ENDBRANCH  16  17
ENDBRANCH  14  16
ENDBRANCH  11  12
ENDBRANCH  10  11
ENDBRANCH   9  10
ENDBRANCH   8   9
BRANCH   1  24
HETATM   24  C2  UNL     1      -3.932   1.599   3.135  1.00  0.00    -0.013 C 
HETATM   25  C1  UNL     1      -2.835   2.052   3.977  1.00  0.00     0.037 C 
ENDBRANCH   1  24
BRANCH   5  26
HETATM   26  C7  UNL     1      -6.217  -0.446  -1.377  1.00  0.00    -0.002 A 
HETATM   27  C8  UNL     1      -7.559  -0.673  -1.578  1.00  0.00     0.014 A 
HETATM   28  C9  UNL     1      -8.062  -1.188  -2.733  1.00  0.00     0.001 A 
HETATM   29  C10 UNL     1      -7.240  -1.510  -3.767  1.00  0.00     0.000 A 
HETATM   30  C11 UNL     1      -5.893  -1.310  -3.633  1.00  0.00     0.001 A 
HETATM   31  C12 UNL     1      -5.414  -0.785  -2.449  1.00  0.00     0.014 A 
ENDBRANCH   5  26
TORSDOF 13
