REMARK  5 active torsions:
REMARK  status: ('A' for Active; 'I' for Inactive)
REMARK    1  A    between atoms: S1_2  and  N1_5 
REMARK    2  A    between atoms: N1_5  and  C2_6 
REMARK    3  A    between atoms: C10_15  and  C11_16 
REMARK    4  A    between atoms: C10_15  and  N4_18 
REMARK    5  A    between atoms: C11_16  and  N3_17 
ROOT
HETATM    1  C2  UNL     1       3.835  -0.447   0.117  1.00  0.00     0.043 A 
HETATM    2  C3  UNL     1       3.912   0.897  -0.202  1.00  0.00     0.033 A 
HETATM    3  C4  UNL     1       2.828   1.729  -0.025  1.00  0.00     0.039 A 
HETATM    4  C5  UNL     1       1.624   1.272   0.474  1.00  0.00     0.077 A 
HETATM    5  C6  UNL     1       1.528  -0.055   0.795  1.00  0.00    -0.005 A 
HETATM    6  C7  UNL     1       2.613  -0.897   0.620  1.00  0.00     0.041 A 
HETATM    7  C8  UNL     1       0.344  -0.773   1.344  1.00  0.00     0.161 C 
HETATM    8  N2  UNL     1      -0.849  -0.314   0.618  1.00  0.00    -0.385 N 
HETATM    9  C9  UNL     1      -1.415   0.989   0.684  1.00  0.00     0.054 C 
HETATM   10  C10 UNL     1      -2.714   1.053   0.435  1.00  0.00     0.068 C 
HETATM   11  C17 UNL     1      -0.694   2.227   0.995  1.00  0.00     0.234 C 
HETATM   12  O3  UNL     1       0.655   2.247   0.582  1.00  0.00    -0.345 OA
HETATM   13  H10 UNL     1      -1.325  -1.007  -0.002  1.00  0.00     0.159 HD
ENDROOT
BRANCH  10  14
HETATM   14  C11 UNL     1      -3.686   2.177   0.396  1.00  0.00     0.326 C 
BRANCH  14  15
HETATM   15  N3  UNL     1      -4.325   2.336  -0.890  1.00  0.00     0.083 N 
HETATM   16  H13 UNL     1      -5.318   2.069  -0.900  1.00  0.00     0.313 HD
HETATM   17  H14 UNL     1      -3.746   1.950  -1.656  1.00  0.00     0.313 HD
ENDBRANCH  14  15
ENDBRANCH  10  14
BRANCH  10  18
HETATM   18  N4  UNL     1      -3.466  -0.088   0.131  1.00  0.00    -0.332 N 
HETATM   19  C12 UNL     1      -3.477  -0.680  -1.159  1.00  0.00     0.092 A 
HETATM   20  C13 UNL     1      -4.229  -1.748  -1.302  1.00  0.00    -0.004 A 
HETATM   21  C14 UNL     1      -5.077  -2.429  -0.293  1.00  0.00     0.076 A 
HETATM   22  C15 UNL     1      -4.970  -1.707   1.002  1.00  0.00     0.008 A 
HETATM   23 BR1  UNL     1      -5.994  -2.422   2.460  1.00  0.00    -0.054 Br
HETATM   24  C16 UNL     1      -4.224  -0.616   1.213  1.00  0.00     0.111 A 
ENDBRANCH  10  18
BRANCH   1  25
HETATM   25  N1  UNL     1       4.819  -1.448   0.009  1.00  0.00    -0.285 N 
HETATM   26  H4  UNL     1       4.545  -2.388  -0.407  1.00  0.00     0.178 HD
BRANCH  25  27
HETATM   27  S1  UNL     1       6.445  -1.238   0.514  1.00  0.00     0.227 S 
HETATM   28  C1  UNL     1       7.280   0.037  -0.355  1.00  0.00     0.186 C 
HETATM   29  O1  UNL     1       7.210  -2.512   0.425  1.00  0.00    -0.206 OA
HETATM   30  O2  UNL     1       6.397  -0.841   1.972  1.00  0.00    -0.206 OA
ENDBRANCH  25  27
ENDBRANCH   1  25
TORSDOF 5
