REMARK  5 active torsions:
REMARK  status: ('A' for Active; 'I' for Inactive)
REMARK    1  A    between atoms: C13_16  and  O3_17 
REMARK    2  A    between atoms: C17_22  and  C18_23 
REMARK    3  A    between atoms: C18_23  and  O5_24 
REMARK    4  A    between atoms: O5_24  and  C19_25 
REMARK    5  A    between atoms: C19_25  and  C20_26 
ROOT
HETATM    1  C1  UNL     1       1.720  -2.285  -0.401  1.00  0.00     0.045 C 
HETATM    2  C2  UNL     1       0.853  -1.551   0.637  1.00  0.00     0.153 C 
HETATM    3  O1  UNL     1      -0.505  -1.704   0.342  1.00  0.00    -0.372 OA
HETATM    4  C3  UNL     1      -1.019  -2.561   1.318  1.00  0.00     0.271 C 
HETATM    5  C4  UNL     1      -2.513  -2.714   1.185  1.00  0.00     0.241 C 
HETATM    6  O2  UNL     1      -3.260  -3.418   1.909  1.00  0.00    -0.271 OA
HETATM    7  N1  UNL     1      -3.299  -2.041   0.182  1.00  0.00    -0.359 N 
HETATM    8  C5  UNL     1      -4.706  -2.344   0.303  1.00  0.00     0.122 C 
HETATM    9  C6  UNL     1      -5.567  -1.625  -0.666  1.00  0.00     0.020 C 
HETATM   10  C7  UNL     1      -5.775  -0.174  -0.553  1.00  0.00     0.002 C 
HETATM   11  C8  UNL     1      -4.687   0.805  -0.587  1.00  0.00     0.000 C 
HETATM   12  C9  UNL     1      -3.790   1.006   0.565  1.00  0.00     0.004 C 
HETATM   13  C10 UNL     1      -2.671   2.004   0.269  1.00  0.00     0.034 C 
HETATM   14  C11 UNL     1      -1.717   2.079   1.400  1.00  0.00    -0.070 C 
HETATM   15  C12 UNL     1      -1.557   1.430   2.569  1.00  0.00     0.040 C 
HETATM   16  C13 UNL     1      -0.246   0.749   2.614  1.00  0.00     0.080 C 
HETATM   17  C14 UNL     1       0.575   0.837   1.584  1.00  0.00     0.054 C 
HETATM   18  C15 UNL     1       0.649   2.302   1.403  1.00  0.00     0.166 C 
HETATM   19  O4  UNL     1       1.576   3.162   1.318  1.00  0.00    -0.292 OA
HETATM   20  C16 UNL     1      -0.619   3.104   1.273  1.00  0.00     0.118 C 
HETATM   21  C17 UNL     1       1.277  -0.148   0.768  1.00  0.00     0.009 C 
HETATM   22  H7  UNL     1      -2.709  -1.441  -0.478  1.00  0.00     0.162 HD
ENDROOT
BRANCH  21  23
HETATM   23  C18 UNL     1       2.364   0.385   0.195  1.00  0.00     0.145 C 
BRANCH  23  24
HETATM   24  O5  UNL     1       3.487   0.495  -0.526  1.00  0.00    -0.358 OA
BRANCH  24  25
HETATM   25  C19 UNL     1       3.769   0.070  -1.822  1.00  0.00     0.213 C 
BRANCH  25  26
HETATM   26  C20 UNL     1       5.187   0.440  -2.189  1.00  0.00    -0.034 A 
HETATM   27  C21 UNL     1       5.398   1.675  -2.789  1.00  0.00     0.009 A 
HETATM   28  C22 UNL     1       6.701   2.052  -3.139  1.00  0.00     0.001 A 
HETATM   29  C23 UNL     1       7.705   1.170  -2.867  1.00  0.00     0.000 A 
HETATM   30  C24 UNL     1       7.501  -0.056  -2.273  1.00  0.00     0.001 A 
HETATM   31  C25 UNL     1       6.216  -0.440  -1.922  1.00  0.00     0.009 A 
ENDBRANCH  25  26
ENDBRANCH  24  25
ENDBRANCH  23  24
ENDBRANCH  21  23
BRANCH  16  32
HETATM   32  O3  UNL     1       0.084   0.022   3.766  1.00  0.00    -0.360 OA
HETATM   33  H21 UNL     1       1.044  -0.182   4.017  1.00  0.00     0.217 HD
ENDBRANCH  16  32
TORSDOF 5
