REMARK  11 active torsions:
REMARK  status: ('A' for Active; 'I' for Inactive)
REMARK    1  A    between atoms: C7_9  and  O3_10 
REMARK    2  A    between atoms: C9_12  and  O4_13 
REMARK    3  A    between atoms: O4_13  and  C10_14 
REMARK    4  A    between atoms: C10_14  and  C11_15 
REMARK       I    between atoms: C11_15  and  N1_17 
REMARK    5  A    between atoms: N1_17  and  C12_18 
REMARK    6  A    between atoms: C12_18  and  C13_19 
REMARK    7  A    between atoms: C13_19  and  C14_20 
REMARK    8  A    between atoms: C14_20  and  C15_21 
REMARK    9  A    between atoms: C15_21  and  C16_22 
REMARK   10  A    between atoms: C16_22  and  C17_23 
REMARK   11  A    between atoms: C17_23  and  C18_24 
ROOT
HETATM    1  C1  UNL     1      -2.916   1.550  -0.496  1.00  0.00     0.047 A 
HETATM    2  C2  UNL     1      -3.329   0.336  -0.169  1.00  0.00    -0.015 A 
HETATM    3  O1  UNL     1      -4.495   1.109  -0.421  1.00  0.00     0.000 OA
HETATM    4  C3  UNL     1      -5.592   0.387  -1.034  1.00  0.00    -0.048 C 
HETATM    5  C4  UNL     1      -6.369   1.388  -0.648  1.00  0.00     0.063 C 
HETATM    6  C5  UNL     1      -6.651   0.463   0.426  1.00  0.00     0.181 C 
HETATM    7  O2  UNL     1      -7.462   0.764   1.371  1.00  0.00    -0.288 OA
HETATM    8  C6  UNL     1      -6.045  -0.858   0.522  1.00  0.00     0.025 C 
HETATM    9  C7  UNL     1      -5.270  -1.964   0.604  1.00  0.00     0.078 C 
HETATM   10  C8  UNL     1      -3.815  -1.957   0.498  1.00  0.00     0.074 C 
HETATM   11  C9  UNL     1      -2.962  -1.017   0.197  1.00  0.00     0.079 C 
HETATM   12  C20 UNL     1      -7.162  -1.310  -0.436  1.00  0.00     0.050 C 
HETATM   13  C21 UNL     1      -6.619  -0.564  -1.757  1.00  0.00     0.044 C 
ENDROOT
BRANCH  11  14
HETATM   14  O4  UNL     1      -1.596  -1.130   0.170  1.00  0.00    -0.341 OA
BRANCH  14  15
HETATM   15  C10 UNL     1      -0.726  -0.438   1.005  1.00  0.00     0.278 C 
BRANCH  15  16
HETATM   16  C11 UNL     1       0.693  -0.887   0.773  1.00  0.00     0.241 C 
HETATM   17  O5  UNL     1       0.178  -1.638  -0.063  1.00  0.00    -0.271 OA
HETATM   18  N1  UNL     1       1.917  -0.510   1.342  1.00  0.00    -0.359 N 
HETATM   19  H8  UNL     1       1.736   0.235   2.066  1.00  0.00     0.162 HD
BRANCH  18  20
HETATM   20  C12 UNL     1       2.986  -1.274   0.741  1.00  0.00     0.122 C 
BRANCH  20  21
HETATM   21  C13 UNL     1       3.147  -1.111  -0.716  1.00  0.00     0.020 C 
BRANCH  21  22
HETATM   22  C14 UNL     1       3.337   0.178  -1.362  1.00  0.00     0.002 C 
BRANCH  22  23
HETATM   23  C15 UNL     1       4.503   0.997  -0.979  1.00  0.00     0.000 C 
BRANCH  23  24
HETATM   24  C16 UNL     1       4.517   1.542   0.394  1.00  0.00     0.000 C 
BRANCH  24  25
HETATM   25  C17 UNL     1       5.794   2.363   0.614  1.00  0.00    -0.000 C 
BRANCH  25  26
HETATM   26  C18 UNL     1       7.040   1.551   0.437  1.00  0.00    -0.005 C 
HETATM   27  C19 UNL     1       7.126   0.379   1.387  1.00  0.00     0.005 C 
ENDBRANCH  25  26
ENDBRANCH  24  25
ENDBRANCH  23  24
ENDBRANCH  22  23
ENDBRANCH  21  22
ENDBRANCH  20  21
ENDBRANCH  18  20
ENDBRANCH  15  16
ENDBRANCH  14  15
ENDBRANCH  11  14
BRANCH   9  28
HETATM   28  O3  UNL     1      -5.817  -3.265   0.745  1.00  0.00    -0.360 OA
HETATM   29  H4  UNL     1      -6.444  -3.358   1.534  1.00  0.00     0.217 HD
ENDBRANCH   9  28
TORSDOF 11
