REMARK  3 active torsions:
REMARK  status: ('A' for Active; 'I' for Inactive)
REMARK    1  A    between atoms: O3_9  and  C7_10 
REMARK    2  A    between atoms: C7_10  and  C8_11 
REMARK    3  A    between atoms: C16_20  and  O4_21 
ROOT
HETATM    1  O1  UNL     1      -2.349   3.467   1.403  1.00  0.00    -0.269 OA
HETATM    2  C1  UNL     1      -1.410   2.892   0.717  1.00  0.00     0.238 C 
HETATM    3  C2  UNL     1      -0.278   3.779   0.487  1.00  0.00     0.061 C 
HETATM    4  C3  UNL     1       0.891   3.579  -0.161  1.00  0.00     0.104 C 
HETATM    5  C4  UNL     1       1.684   2.505  -0.942  1.00  0.00     0.170 C 
HETATM    6  O2  UNL     1       2.673   3.272  -1.222  1.00  0.00    -0.291 OA
HETATM    7  C5  UNL     1       1.397   1.066  -1.264  1.00  0.00     0.035 C 
HETATM    8  C6  UNL     1       1.897   0.019  -0.633  1.00  0.00    -0.077 A 
HETATM    9  O3  UNL     1       2.440  -1.028   0.022  1.00  0.00     0.000 OA
HETATM   10  B1  UNL     1       0.803  -1.588  -0.657  1.00  0.00     0.254 B 
HETATM   11  C14 UNL     1      -0.039  -1.624  -2.309  1.00  0.00    -0.130 A 
HETATM   12  C15 UNL     1       0.280  -0.355  -2.175  1.00  0.00     0.029 A 
HETATM   13  C16 UNL     1       0.425   0.970  -2.227  1.00  0.00     0.055 C 
HETATM   14  C17 UNL     1      -0.483  -2.982  -2.640  1.00  0.00     0.018 C 
HETATM   15  C18 UNL     1      -1.929  -2.978  -3.133  1.00  0.00     0.003 C 
HETATM   16  C19 UNL     1      -2.814  -2.215  -2.175  1.00  0.00     0.000 C 
HETATM   17  C20 UNL     1      -2.872  -2.689  -0.779  1.00  0.00     0.000 C 
HETATM   18  C21 UNL     1      -3.571  -1.570   0.052  1.00  0.00     0.002 C 
HETATM   19  C22 UNL     1      -2.716  -0.372   0.121  1.00  0.00     0.020 C 
HETATM   20  C23 UNL     1      -3.274   0.849   0.878  1.00  0.00     0.123 C 
HETATM   21  N1  UNL     1      -2.291   1.881   0.777  1.00  0.00    -0.358 N 
HETATM   22  H26 UNL     1      -1.449   1.541   0.212  1.00  0.00     0.162 HD
ENDROOT
BRANCH   9  23
HETATM   23  C7  UNL     1       3.645  -1.115   0.720  1.00  0.00     0.043 C 
BRANCH  23  24
HETATM   24  C8  UNL     1       3.568  -0.095   1.828  1.00  0.00    -0.058 A 
HETATM   25  C9  UNL     1       4.048   1.204   1.663  1.00  0.00     0.007 A 
HETATM   26  C10 UNL     1       3.892   2.019   2.753  1.00  0.00     0.001 A 
HETATM   27  C11 UNL     1       3.313   1.631   3.942  1.00  0.00     0.000 A 
HETATM   28  C12 UNL     1       2.836   0.324   4.094  1.00  0.00     0.001 A 
HETATM   29  C13 UNL     1       2.992  -0.500   2.996  1.00  0.00     0.007 A 
ENDBRANCH  23  24
ENDBRANCH   9  23
BRANCH  13  30
HETATM   30  O4  UNL     1      -0.126   2.028  -2.938  1.00  0.00    -0.364 OA
HETATM   31  H11 UNL     1       0.505   2.664  -3.435  1.00  0.00     0.217 HD
ENDBRANCH  13  30
TORSDOF 3
