REMARK  11 active torsions:
REMARK  status: ('A' for Active; 'I' for Inactive)
REMARK    1  A    between atoms: C2_2  and  C3_3 
REMARK    2  A    between atoms: C3_3  and  C4_4 
REMARK    3  A    between atoms: C4_4  and  C5_5 
REMARK    4  A    between atoms: C5_5  and  C6_6 
REMARK    5  A    between atoms: C6_6  and  C7_7 
REMARK    6  A    between atoms: C7_7  and  N1_8 
REMARK       I    between atoms: N1_8  and  C8_9 
REMARK    7  A    between atoms: C8_9  and  C9_11 
REMARK    8  A    between atoms: C9_11  and  O2_12 
REMARK    9  A    between atoms: O2_12  and  C10_13 
REMARK   10  A    between atoms: C12_15  and  O3_16 
REMARK   11  A    between atoms: C16_21  and  C17_22 
ROOT
HETATM    1  C10 UNL     1       1.350   0.936  -0.762  1.00  0.00     0.074 A 
HETATM    2  C11 UNL     1       1.351  -0.324  -1.369  1.00  0.00     0.074 A 
HETATM    3  C12 UNL     1       2.171  -1.318  -0.893  1.00  0.00     0.086 A 
HETATM    4  C13 UNL     1       3.007  -1.110   0.182  1.00  0.00     0.098 A 
HETATM    5  C14 UNL     1       3.033   0.112   0.803  1.00  0.00     0.093 A 
HETATM    6  C15 UNL     1       2.206   1.130   0.331  1.00  0.00     0.074 A 
HETATM    7  O4  UNL     1       3.897   0.216   1.861  1.00  0.00    -0.320 OA
HETATM    8  C16 UNL     1       5.031  -0.603   2.078  1.00  0.00     0.264 C 
HETATM    9  N2  UNL     1       4.683  -1.952   1.732  1.00  0.00    -0.326 N 
HETATM   10  C23 UNL     1       3.843  -2.234   0.615  1.00  0.00     0.259 C 
HETATM   11  O5  UNL     1       3.814  -3.348   0.043  1.00  0.00    -0.267 OA
HETATM   12  H28 UNL     1       5.046  -2.771   2.306  1.00  0.00     0.165 HD
ENDROOT
BRANCH   1  13
HETATM   13  O2  UNL     1       0.657   2.107  -1.004  1.00  0.00    -0.342 OA
BRANCH  13  14
HETATM   14  C9  UNL     1      -0.272   2.191  -2.033  1.00  0.00     0.278 C 
BRANCH  14  15
HETATM   15  C8  UNL     1      -1.429   1.296  -1.927  1.00  0.00     0.241 C 
HETATM   16  N1  UNL     1      -1.819   0.338  -0.963  1.00  0.00    -0.359 N 
HETATM   17  H16 UNL     1      -1.151   0.271  -0.173  1.00  0.00     0.162 HD
HETATM   18  O1  UNL     1      -2.199   1.461  -2.928  1.00  0.00    -0.271 OA
BRANCH  16  19
HETATM   19  C7  UNL     1      -3.024  -0.455  -1.053  1.00  0.00     0.122 C 
BRANCH  19  20
HETATM   20  C6  UNL     1      -4.283   0.392  -1.086  1.00  0.00     0.020 C 
BRANCH  20  21
HETATM   21  C5  UNL     1      -5.522  -0.481  -1.182  1.00  0.00     0.002 C 
BRANCH  21  22
HETATM   22  C4  UNL     1      -5.673  -1.402  -0.035  1.00  0.00     0.000 C 
BRANCH  22  23
HETATM   23  C3  UNL     1      -5.837  -0.839   1.320  1.00  0.00    -0.000 C 
BRANCH  23  24
HETATM   24  C2  UNL     1      -7.054  -0.038   1.599  1.00  0.00    -0.005 C 
HETATM   25  C1  UNL     1      -7.299   1.197   0.814  1.00  0.00     0.005 C 
ENDBRANCH  23  24
ENDBRANCH  22  23
ENDBRANCH  21  22
ENDBRANCH  20  21
ENDBRANCH  19  20
ENDBRANCH  16  19
ENDBRANCH  14  15
ENDBRANCH  13  14
ENDBRANCH   1  13
BRANCH   3  26
HETATM   26  O3  UNL     1       2.068  -2.500  -1.584  1.00  0.00    -0.359 OA
HETATM   27  H20 UNL     1       1.369  -3.174  -1.318  1.00  0.00     0.217 HD
ENDBRANCH   3  26
BRANCH   8  28
HETATM   28  C17 UNL     1       6.141  -0.047   1.242  1.00  0.00    -0.010 A 
HETATM   29  C18 UNL     1       7.002  -0.779   0.454  1.00  0.00     0.011 A 
HETATM   30  C19 UNL     1       7.993  -0.148  -0.274  1.00  0.00     0.001 A 
HETATM   31  C20 UNL     1       8.141   1.228  -0.228  1.00  0.00     0.000 A 
HETATM   32  C21 UNL     1       7.259   1.925   0.574  1.00  0.00     0.001 A 
HETATM   33  C22 UNL     1       6.259   1.343   1.316  1.00  0.00     0.011 A 
ENDBRANCH   8  28
TORSDOF 11
