REMARK  3 active torsions:
REMARK  status: ('A' for Active; 'I' for Inactive)
REMARK    1  A    between atoms: C5_7  and  O3_8 
REMARK    2  A    between atoms: C9_13  and  C10_14 
REMARK    3  A    between atoms: C11_15  and  C12_16 
ROOT
HETATM    1  O1  UNL     1       4.076  -1.254  -1.928  1.00  0.00    -0.148 OA
HETATM    2  C1  UNL     1       4.065  -0.211  -1.221  1.00  0.00     0.373 A 
HETATM    3  C2  UNL     1       4.243   1.175  -0.633  1.00  0.00     0.248 C 
HETATM    4  O2  UNL     1       3.515   1.085   0.609  1.00  0.00    -0.377 OA
HETATM    5  C3  UNL     1       2.794   2.167   1.096  1.00  0.00     0.162 C 
HETATM    6  C4  UNL     1       1.461   2.065   0.910  1.00  0.00     0.087 C 
HETATM    7  C5  UNL     1       0.244   2.879   1.208  1.00  0.00     0.063 C 
HETATM    8  C6  UNL     1      -0.780   2.134   0.728  1.00  0.00     0.051 A 
HETATM    9  C7  UNL     1      -2.113   2.700   0.888  1.00  0.00     0.185 A 
HETATM   10  O4  UNL     1      -2.299   3.800   1.467  1.00  0.00    -0.288 OA
HETATM   11  C8  UNL     1      -3.350   2.094   0.421  1.00  0.00     0.092 A 
HETATM   12  C9  UNL     1      -3.287   0.936  -0.203  1.00  0.00     0.073 A 
HETATM   13  O5  UNL     1      -2.051   0.376  -0.371  1.00  0.00    -0.341 OA
HETATM   14  C13 UNL     1      -0.810   0.806   0.050  1.00  0.00     0.168 A 
HETATM   15  C14 UNL     1      -0.178  -0.264   0.883  1.00  0.00     0.037 C 
HETATM   16  C15 UNL     1       0.484  -1.361   0.029  1.00  0.00     0.003 C 
HETATM   17  C16 UNL     1       1.291  -2.174   0.992  1.00  0.00     0.002 C 
HETATM   18  C17 UNL     1       2.168  -3.223   0.367  1.00  0.00     0.031 C 
HETATM   19  C18 UNL     1       2.937  -2.643  -0.813  1.00  0.00     0.275 C 
HETATM   20  N1  UNL     1       3.347  -1.271  -0.585  1.00  0.00     0.088 N 
HETATM   21  H22 UNL     1       3.036  -0.906   0.368  1.00  0.00     0.322 HD
ENDROOT
BRANCH  12  22
HETATM   22  C10 UNL     1      -4.482   0.267  -0.700  1.00  0.00     0.035 C 
HETATM   23  C11 UNL     1      -4.486  -0.902  -1.336  1.00  0.00     0.007 C 
BRANCH  23  24
HETATM   24  C12 UNL     1      -5.688  -1.598  -1.849  1.00  0.00     0.249 C 
HETATM   25  F1  UNL     1      -5.765  -2.829  -1.225  1.00  0.00    -0.251 F 
ENDBRANCH  23  24
ENDBRANCH  12  22
BRANCH   7  26
HETATM   26  O3  UNL     1      -0.141   4.125   1.808  1.00  0.00    -0.364 OA
HETATM   27  H5  UNL     1      -0.220   4.912   1.171  1.00  0.00     0.217 HD
ENDBRANCH   7  26
TORSDOF 3
