REMARK  8 active torsions:
REMARK  status: ('A' for Active; 'I' for Inactive)
REMARK    1  A    between atoms: C2_2  and  C3_3 
REMARK    2  A    between atoms: C3_3  and  C5_5 
REMARK    3  A    between atoms: C5_5  and  N1_6 
REMARK       I    between atoms: N1_6  and  C6_7 
REMARK    4  A    between atoms: C6_7  and  C7_9 
REMARK    5  A    between atoms: C7_9  and  O2_10 
REMARK    6  A    between atoms: O2_10  and  C8_11 
REMARK    7  A    between atoms: C10_13  and  O3_14 
REMARK    8  A    between atoms: C14_19  and  C15_20 
ROOT
HETATM    1  C8  UNL     1      -0.543  -1.148  -0.276  1.00  0.00     0.074 A 
HETATM    2  C9  UNL     1      -0.150  -0.572   0.915  1.00  0.00     0.074 A 
HETATM    3  C10 UNL     1      -1.025   0.178   1.673  1.00  0.00     0.085 A 
HETATM    4  C11 UNL     1      -2.309   0.328   1.191  1.00  0.00     0.081 A 
HETATM    5  C12 UNL     1      -3.195   1.076   1.940  1.00  0.00     0.190 A 
HETATM    6  O4  UNL     1      -2.860   1.607   3.023  1.00  0.00    -0.287 OA
HETATM    7  C13 UNL     1      -4.484   1.239   1.478  1.00  0.00     0.094 A 
HETATM    8  C14 UNL     1      -4.860   0.657   0.285  1.00  0.00     0.090 A 
HETATM    9  O5  UNL     1      -4.005  -0.051  -0.415  1.00  0.00    -0.309 OA
HETATM   10  C21 UNL     1      -2.755  -0.225   0.009  1.00  0.00     0.095 A 
HETATM   11  C22 UNL     1      -1.851  -0.982  -0.746  1.00  0.00     0.075 A 
ENDROOT
BRANCH   1  12
HETATM   12  O2  UNL     1       0.200  -1.919  -1.146  1.00  0.00    -0.342 OA
BRANCH  12  13
HETATM   13  C7  UNL     1       1.558  -2.262  -0.950  1.00  0.00     0.278 C 
BRANCH  13  14
HETATM   14  C6  UNL     1       2.397  -1.030  -0.881  1.00  0.00     0.241 C 
HETATM   15  N1  UNL     1       3.780  -1.333  -0.683  1.00  0.00    -0.359 N 
HETATM   16  H12 UNL     1       4.220  -2.288  -0.589  1.00  0.00     0.162 HD
HETATM   17  O1  UNL     1       2.293   0.231  -0.940  1.00  0.00    -0.271 OA
BRANCH  15  18
HETATM   18  C5  UNL     1       4.713  -0.201  -0.597  1.00  0.00     0.126 C 
BRANCH  18  19
HETATM   19  C3  UNL     1       6.131  -0.642  -0.389  1.00  0.00    -0.001 C 
HETATM   20  C4  UNL     1       6.585  -1.554  -1.509  1.00  0.00     0.011 C 
BRANCH  19  21
HETATM   21  C2  UNL     1       7.096   0.513  -0.300  1.00  0.00     0.001 C 
HETATM   22  C1  UNL     1       6.727   1.487   0.797  1.00  0.00     0.005 C 
ENDBRANCH  19  21
ENDBRANCH  18  19
ENDBRANCH  15  18
ENDBRANCH  13  14
ENDBRANCH  12  13
ENDBRANCH   1  12
BRANCH   3  23
HETATM   23  O3  UNL     1      -0.578   0.735   2.864  1.00  0.00    -0.360 OA
HETATM   24  H16 UNL     1      -0.170   1.661   2.854  1.00  0.00     0.217 HD
ENDBRANCH   3  23
BRANCH   8  25
HETATM   25  C15 UNL     1      -6.204   0.788  -0.264  1.00  0.00    -0.002 A 
HETATM   26  C16 UNL     1      -6.489   0.170  -1.464  1.00  0.00     0.014 A 
HETATM   27  C17 UNL     1      -7.745   0.233  -2.076  1.00  0.00     0.001 A 
HETATM   28  C18 UNL     1      -8.749   0.955  -1.438  1.00  0.00     0.000 A 
HETATM   29  C19 UNL     1      -8.490   1.583  -0.237  1.00  0.00     0.001 A 
HETATM   30  C20 UNL     1      -7.234   1.490   0.325  1.00  0.00     0.014 A 
ENDBRANCH   8  25
TORSDOF 8
