REMARK  10 active torsions:
REMARK  status: ('A' for Active; 'I' for Inactive)
REMARK    1  A    between atoms: C2_2  and  C3_3 
REMARK    2  A    between atoms: C3_3  and  C4_4 
REMARK    3  A    between atoms: C4_4  and  C5_5 
REMARK    4  A    between atoms: C5_5  and  C6_6 
REMARK    5  A    between atoms: C6_6  and  N1_7 
REMARK       I    between atoms: N1_7  and  C7_8 
REMARK    6  A    between atoms: C7_8  and  C8_10 
REMARK    7  A    between atoms: C8_10  and  O2_11 
REMARK    8  A    between atoms: O2_11  and  C9_12 
REMARK    9  A    between atoms: C9_12  and  C10_13 
REMARK   10  A    between atoms: C21_26  and  C22_27 
ROOT
HETATM    1  C10 UNL     1      -1.722   1.525   0.979  1.00  0.00     0.160 A 
HETATM    2  O3  UNL     1      -2.839   1.086   1.676  1.00  0.00    -0.330 OA
HETATM    3  C11 UNL     1      -3.841   1.292   0.866  1.00  0.00     0.086 A 
HETATM    4  C12 UNL     1      -5.240   1.127   0.818  1.00  0.00    -0.002 A 
HETATM    5  C13 UNL     1      -5.528   0.544   2.043  1.00  0.00     0.014 A 
HETATM    6  C14 UNL     1      -6.890   0.283   2.241  1.00  0.00     0.001 A 
HETATM    7  C15 UNL     1      -7.786   0.610   1.252  1.00  0.00     0.000 A 
HETATM    8  C16 UNL     1      -7.467   1.188   0.049  1.00  0.00     0.001 A 
HETATM    9  C17 UNL     1      -6.122   1.436  -0.125  1.00  0.00     0.014 A 
HETATM   10  C18 UNL     1      -3.223   1.801  -0.161  1.00  0.00    -0.008 A 
HETATM   11  C19 UNL     1      -2.095   2.311  -1.029  1.00  0.00     0.097 A 
HETATM   12  O4  UNL     1      -0.499   2.454  -0.886  1.00  0.00    -0.357 OA
HETATM   13  C20 UNL     1      -1.245   2.134  -0.334  1.00  0.00     0.135 A 
HETATM   14  C21 UNL     1      -1.916   2.606  -1.687  1.00  0.00     0.089 A 
HETATM   15  C22 UNL     1      -3.425   2.363  -1.467  1.00  0.00     0.082 A 
ENDROOT
BRANCH   1  16
HETATM   16  C9  UNL     1      -0.582   1.284   1.952  1.00  0.00     0.213 C 
BRANCH  16  17
HETATM   17  O2  UNL     1       0.259   0.314   1.548  1.00  0.00    -0.379 OA
BRANCH  17  18
HETATM   18  C8  UNL     1      -0.272  -0.927   1.332  1.00  0.00     0.270 C 
BRANCH  18  19
HETATM   19  C7  UNL     1       0.769  -1.917   0.920  1.00  0.00     0.241 C 
HETATM   20  N1  UNL     1       2.112  -1.449   0.821  1.00  0.00    -0.359 N 
HETATM   21  H14 UNL     1       2.280  -0.423   1.049  1.00  0.00     0.162 HD
HETATM   22  O1  UNL     1       0.643  -3.133   0.640  1.00  0.00    -0.271 OA
BRANCH  20  23
HETATM   23  C6  UNL     1       3.293  -2.220   0.444  1.00  0.00     0.122 C 
BRANCH  23  24
HETATM   24  C5  UNL     1       4.522  -1.347   0.484  1.00  0.00     0.020 C 
BRANCH  24  25
HETATM   25  C4  UNL     1       5.789  -2.039   0.118  1.00  0.00     0.002 C 
BRANCH  25  26
HETATM   26  C3  UNL     1       5.856  -2.602  -1.260  1.00  0.00    -0.000 C 
BRANCH  26  27
HETATM   27  C2  UNL     1       5.684  -1.552  -2.336  1.00  0.00    -0.005 C 
HETATM   28  C1  UNL     1       6.737  -0.464  -2.265  1.00  0.00     0.005 C 
ENDBRANCH  26  27
ENDBRANCH  25  26
ENDBRANCH  24  25
ENDBRANCH  23  24
ENDBRANCH  20  23
ENDBRANCH  18  19
ENDBRANCH  17  18
ENDBRANCH  16  17
ENDBRANCH   1  16
TORSDOF 10
