REMARK  1 active torsions:
REMARK  status: ('A' for Active; 'I' for Inactive)
REMARK    1  A    between atoms: C8_10  and  O3_11 
ROOT
HETATM    1  O1  UNL     1       6.018   2.129  -0.788  1.00  0.00    -0.287 OA
HETATM    2  C1  UNL     1       4.855   1.856  -0.477  1.00  0.00     0.190 A 
HETATM    3  C2  UNL     1       4.000   2.923  -0.533  1.00  0.00     0.093 A 
HETATM    4  C3  UNL     1       2.723   2.661  -0.198  1.00  0.00     0.080 A 
HETATM    5  O2  UNL     1       2.277   1.460   0.167  1.00  0.00    -0.310 OA
HETATM    6  C4  UNL     1       3.023   0.396   0.244  1.00  0.00     0.095 A 
HETATM    7  C5  UNL     1       2.544  -0.819   0.614  1.00  0.00     0.075 A 
HETATM    8  C6  UNL     1       3.460  -1.900   0.653  1.00  0.00     0.074 A 
HETATM    9  C7  UNL     1       4.759  -1.669   0.322  1.00  0.00     0.074 A 
HETATM   10  C8  UNL     1       5.186  -0.419  -0.044  1.00  0.00     0.085 A 
HETATM   11  C9  UNL     1       4.331   0.649  -0.094  1.00  0.00     0.081 A 
HETATM   12  O4  UNL     1       2.489  -2.799   1.057  1.00  0.00    -0.349 OA
HETATM   13  C10 UNL     1       1.531  -3.277   0.087  1.00  0.00     0.205 C 
HETATM   14  C11 UNL     1       0.530  -4.117   0.815  1.00  0.00     0.296 C 
HETATM   15  N1  UNL     1      -0.486  -4.633  -0.083  1.00  0.00     0.085 N 
HETATM   16  C12 UNL     1      -1.300  -3.618  -0.663  1.00  0.00     0.269 C 
HETATM   17  C13 UNL     1      -2.185  -2.858   0.288  1.00  0.00     0.030 C 
HETATM   18  C14 UNL     1      -2.977  -1.863  -0.556  1.00  0.00     0.002 C 
HETATM   19  C15 UNL     1      -3.860  -0.994   0.310  1.00  0.00     0.000 C 
HETATM   20  C16 UNL     1      -3.077  -0.131   1.246  1.00  0.00     0.000 C 
HETATM   21  C17 UNL     1      -2.140   0.846   0.600  1.00  0.00     0.004 C 
HETATM   22  C18 UNL     1      -2.855   1.876  -0.172  1.00  0.00     0.028 C 
HETATM   23  C19 UNL     1      -3.763   2.734   0.568  1.00  0.00    -0.015 C 
HETATM   24  C20 UNL     1      -4.145   3.955   0.339  1.00  0.00    -0.030 C 
HETATM   25  C21 UNL     1      -3.186   4.723  -0.095  1.00  0.00     0.012 C 
HETATM   26  C22 UNL     1      -1.828   4.268  -0.294  1.00  0.00     0.001 C 
HETATM   27  C23 UNL     1      -0.842   3.850   0.433  1.00  0.00     0.000 C 
HETATM   28  C24 UNL     1       0.431   3.365   0.820  1.00  0.00     0.003 C 
HETATM   29  C25 UNL     1       1.385   3.118  -0.014  1.00  0.00     0.037 C 
HETATM   30  H9  UNL     1      -0.119  -5.312  -0.765  1.00  0.00     0.315 HD
ENDROOT
BRANCH  10  31
HETATM   31  O3  UNL     1       6.520  -0.317  -0.354  1.00  0.00    -0.360 OA
HETATM   32  H4  UNL     1       6.841  -0.018  -1.265  1.00  0.00     0.217 HD
ENDBRANCH  10  31
TORSDOF 1
