REMARK  4 active torsions:
REMARK  status: ('A' for Active; 'I' for Inactive)
REMARK    1  A    between atoms: C14_17  and  O3_18 
REMARK    2  A    between atoms: O3_18  and  C15_19 
REMARK    3  A    between atoms: C15_19  and  C16_20 
REMARK    4  A    between atoms: C16_20  and  O4_21 
ROOT
HETATM    1  C1  UNL     1      -3.413  -0.282   3.762  1.00  0.00     0.018 C 
HETATM    2  C2  UNL     1      -3.373  -0.095   2.558  1.00  0.00    -0.078 C 
HETATM    3  C3  UNL     1      -3.346   0.146   1.111  1.00  0.00     0.019 C 
HETATM    4  C4  UNL     1      -2.849  -0.905   0.467  1.00  0.00     0.022 C 
HETATM    5  C5  UNL     1      -2.461  -1.574  -0.729  1.00  0.00     0.020 C 
HETATM    6  C6  UNL     1      -1.998  -2.522  -1.527  1.00  0.00     0.114 C 
HETATM    7  N1  UNL     1      -1.894  -2.439  -2.933  1.00  0.00    -0.278 N 
HETATM    8  O1  UNL     1      -0.927  -1.847  -3.688  1.00  0.00    -0.279 OA
HETATM    9  C7  UNL     1       0.012  -1.248  -2.874  1.00  0.00     0.227 C 
HETATM   10  C8  UNL     1       0.942  -0.295  -3.580  1.00  0.00     0.204 C 
HETATM   11  O2  UNL     1       1.808   0.214  -2.580  1.00  0.00    -0.350 OA
HETATM   12  C9  UNL     1       1.232   0.877  -1.456  1.00  0.00     0.087 A 
HETATM   13  C10 UNL     1       0.083   1.575  -1.742  1.00  0.00     0.087 A 
HETATM   14  C11 UNL     1      -0.744   2.323  -0.940  1.00  0.00     0.042 A 
HETATM   15  C12 UNL     1       0.149   1.948  -0.024  1.00  0.00     0.090 A 
HETATM   16  C13 UNL     1       1.136   1.481   0.772  1.00  0.00     0.046 A 
HETATM   17  C14 UNL     1       1.866   0.759  -0.202  1.00  0.00     0.097 A 
HETATM   18  N2  UNL     1      -0.595   2.627   0.927  1.00  0.00    -0.267 NA
HETATM   19  C18 UNL     1      -1.726   2.441   1.521  1.00  0.00     0.228 C 
HETATM   20  N3  UNL     1      -2.940   2.313   2.210  1.00  0.00    -0.240 NA
HETATM   21  C19 UNL     1      -4.001   2.288   1.426  1.00  0.00     0.088 C 
HETATM   22  C20 UNL     1      -3.835   1.364   0.460  1.00  0.00     0.054 C 
HETATM   23  H5  UNL     1      -2.634  -2.875  -3.501  1.00  0.00     0.193 HD
ENDROOT
BRANCH  17  24
HETATM   24  O3  UNL     1       2.964   0.025  -0.213  1.00  0.00    -0.347 OA
BRANCH  24  25
HETATM   25  C15 UNL     1       3.983  -0.481   0.486  1.00  0.00     0.201 C 
BRANCH  25  26
HETATM   26  C16 UNL     1       3.532  -1.387   1.592  1.00  0.00     0.193 C 
BRANCH  26  27
HETATM   27  O4  UNL     1       2.742  -0.743   2.501  1.00  0.00    -0.394 OA
HETATM   28  C17 UNL     1       3.427   0.269   3.160  1.00  0.00     0.201 C 
ENDBRANCH  26  27
ENDBRANCH  25  26
ENDBRANCH  24  25
ENDBRANCH  17  24
TORSDOF 4
