REMARK  6 active torsions:
REMARK  status: ('A' for Active; 'I' for Inactive)
REMARK    1  A    between atoms: C5_5  and  C6_6 
REMARK    2  A    between atoms: C6_6  and  N1_7 
REMARK    3  A    between atoms: N1_7  and  C7_8 
REMARK    4  A    between atoms: C7_8  and  C8_9 
REMARK    5  A    between atoms: C8_9  and  C9_11 
REMARK    6  A    between atoms: C10_12  and  C11_13 
ROOT
HETATM    1  C7  UNL     1       0.691  -0.247  -1.052  1.00  0.00     0.197 C 
ENDROOT
BRANCH   1   2
HETATM    2  N1  UNL     1       0.199  -1.345  -0.282  1.00  0.00    -0.412 N 
HETATM    3  H12 UNL     1       0.661  -1.534   0.610  1.00  0.00     0.153 HD
BRANCH   2   4
HETATM    4  C6  UNL     1      -1.142  -1.735  -0.457  1.00  0.00     0.149 C 
BRANCH   4   5
HETATM    5  C5  UNL     1      -2.212  -0.828   0.043  1.00  0.00     0.237 C 
HETATM    6  C4  UNL     1      -3.534  -1.518  -0.293  1.00  0.00     0.037 C 
HETATM    7  C3  UNL     1      -4.653  -0.874   0.463  1.00  0.00     0.008 C 
HETATM    8  C2  UNL     1      -4.536   0.614   0.328  1.00  0.00     0.010 C 
HETATM    9  C1  UNL     1      -5.894   1.189   0.076  1.00  0.00     0.011 C 
HETATM   10  C15 UNL     1      -3.599   0.936  -0.786  1.00  0.00     0.274 C 
HETATM   11  N4  UNL     1      -2.235   0.494  -0.471  1.00  0.00     0.090 N 
HETATM   12  H18 UNL     1      -1.814   1.171   0.228  1.00  0.00     0.316 HD
ENDBRANCH   4   5
ENDBRANCH   2   4
ENDBRANCH   1   2
BRANCH   1  13
HETATM   13  C8  UNL     1       2.087  -0.023  -0.637  1.00  0.00     0.166 C 
HETATM   14  O1  UNL     1       2.432   0.948  -1.397  1.00  0.00    -0.291 OA
BRANCH  13  15
HETATM   15  C9  UNL     1       3.335  -0.176   0.065  1.00  0.00     0.053 C 
HETATM   16  C10 UNL     1       4.315   0.618  -0.245  1.00  0.00     0.021 C 
BRANCH  16  17
HETATM   17  C11 UNL     1       5.615   0.577   0.375  1.00  0.00     0.041 A 
HETATM   18  C12 UNL     1       6.617   1.462  -0.019  1.00  0.00     0.148 A 
HETATM   19  F1  UNL     1       6.298   2.322  -0.998  1.00  0.00    -0.204 F 
HETATM   20  C13 UNL     1       7.827   1.407   0.590  1.00  0.00     0.184 A 
HETATM   21  N2  UNL     1       8.143   0.545   1.568  1.00  0.00    -0.159 NA
HETATM   22  N3  UNL     1       7.191  -0.320   1.967  1.00  0.00    -0.143 NA
HETATM   23  C14 UNL     1       5.986  -0.281   1.375  1.00  0.00     0.133 A 
HETATM   24  I1  UNL     1       4.690  -1.709   2.153  1.00  0.00    -0.019 I 
ENDBRANCH  16  17
ENDBRANCH  13  15
ENDBRANCH   1  13
TORSDOF 6
