REMARK  7 active torsions:
REMARK  status: ('A' for Active; 'I' for Inactive)
REMARK    1  A    between atoms: C2_2  and  O1_3 
REMARK    2  A    between atoms: O1_3  and  B1_4 
REMARK    3  A    between atoms: B1_4  and  C3_5 
REMARK    4  A    between atoms: C10_15  and  O3_17 
REMARK    5  A    between atoms: O3_17  and  C12_18 
REMARK    6  A    between atoms: C12_18  and  C13_19 
REMARK    7  A    between atoms: C13_19  and  O4_20 
ROOT
HETATM    1  C3  UNL     1      -0.876  -0.419   0.753  1.00  0.00    -0.030 C 
HETATM    2  C4  UNL     1      -1.732   0.456   1.286  1.00  0.00    -0.001 C 
HETATM    3  C5  UNL     1      -1.700   1.934   1.297  1.00  0.00     0.013 C 
HETATM    4  C6  UNL     1      -0.686   2.723   0.967  1.00  0.00     0.015 A 
HETATM    5  C7  UNL     1      -1.140   4.128   1.140  1.00  0.00     0.193 A 
HETATM    6  N1  UNL     1      -0.074   5.047   0.796  1.00  0.00    -0.278 NA
HETATM    7  C8  UNL     1       1.067   4.593   0.407  1.00  0.00     0.229 A 
HETATM    8  N2  UNL     1       1.468   3.221   0.252  1.00  0.00    -0.218 NA
HETATM    9  C9  UNL     1       0.630   2.280   0.519  1.00  0.00     0.176 A 
HETATM   10  O2  UNL     1       1.074   0.976   0.351  1.00  0.00    -0.293 OA
HETATM   11  C10 UNL     1       0.357  -0.188   0.015  1.00  0.00     0.185 C 
HETATM   12  C11 UNL     1       0.036  -0.100  -1.463  1.00  0.00     0.084 C 
ENDROOT
BRANCH  11  13
HETATM   13  O3  UNL     1       1.219  -1.261   0.270  1.00  0.00    -0.350 OA
BRANCH  13  14
HETATM   14  C12 UNL     1       2.384  -1.171  -0.497  1.00  0.00     0.198 C 
BRANCH  14  15
HETATM   15  C13 UNL     1       3.217  -2.372  -0.133  1.00  0.00     0.193 C 
BRANCH  15  16
HETATM   16  O4  UNL     1       4.414  -2.475  -0.786  1.00  0.00    -0.394 OA
HETATM   17  C14 UNL     1       5.261  -1.420  -0.567  1.00  0.00     0.201 C 
ENDBRANCH  15  16
ENDBRANCH  14  15
ENDBRANCH  13  14
ENDBRANCH  11  13
BRANCH   1  18
HETATM   18  B1  UNL     1      -1.341  -1.886   1.004  1.00  0.00     0.347 B 
HETATM   19  H6  UNL     1      -0.561  -2.737   0.749  1.00  0.00     0.013 HD
BRANCH  18  20
HETATM   20  O1  UNL     1      -2.748  -2.267   1.064  1.00  0.00    -0.452 OA
BRANCH  20  21
HETATM   21  C2  UNL     1      -3.474  -1.916  -0.049  1.00  0.00     0.138 C 
HETATM   22  C1  UNL     1      -4.940  -2.347   0.089  1.00  0.00     0.031 C 
ENDBRANCH  20  21
ENDBRANCH  18  20
ENDBRANCH   1  18
TORSDOF 7
