REMARK  8 active torsions:
REMARK  status: ('A' for Active; 'I' for Inactive)
REMARK    1  A    between atoms: C5_6  and  C6_7 
REMARK    2  A    between atoms: C6_7  and  O1_8 
REMARK    3  A    between atoms: O1_8  and  C7_9 
REMARK    4  A    between atoms: C7_9  and  C8_10 
REMARK    5  A    between atoms: C9_12  and  C10_13 
REMARK    6  A    between atoms: C10_13  and  C11_14 
REMARK    7  A    between atoms: C11_14  and  N1_15 
REMARK    8  A    between atoms: N1_15  and  C12_16 
ROOT
HETATM    1  C8  UNL     1       0.086   0.872  -0.674  1.00  0.00     0.031 C 
HETATM    2 CL1  UNL     1       0.116   2.284   0.383  1.00  0.00    -0.087 Cl
HETATM    3  C9  UNL     1      -1.076   0.193  -0.612  1.00  0.00    -0.004 C 
ENDROOT
BRANCH   1   4
HETATM    4  C7  UNL     1       1.132   0.381  -1.599  1.00  0.00     0.218 C 
BRANCH   4   5
HETATM    5  O1  UNL     1       2.299   0.040  -0.982  1.00  0.00    -0.381 OA
BRANCH   5   6
HETATM    6  C6  UNL     1       2.953   1.019  -0.305  1.00  0.00     0.206 C 
BRANCH   6   7
HETATM    7  C5  UNL     1       4.233   0.440   0.251  1.00  0.00    -0.032 A 
HETATM    8  C4  UNL     1       4.399  -0.160   1.480  1.00  0.00     0.009 A 
HETATM    9  C3  UNL     1       5.656  -0.617   1.796  1.00  0.00     0.004 A 
HETATM   10  C2  UNL     1       6.739  -0.504   0.953  1.00  0.00     0.042 A 
HETATM   11  C1  UNL     1       6.558   0.097  -0.270  1.00  0.00     0.117 A 
HETATM   12  F1  UNL     1       7.624   0.221  -1.127  1.00  0.00    -0.206 F 
HETATM   13  C16 UNL     1       5.299   0.555  -0.586  1.00  0.00     0.051 A 
ENDBRANCH   6   7
ENDBRANCH   5   6
ENDBRANCH   4   5
ENDBRANCH   1   4
BRANCH   3  14
HETATM   14  C10 UNL     1      -1.736  -0.981  -1.199  1.00  0.00     0.048 C 
BRANCH  14  15
HETATM   15  C11 UNL     1      -3.016  -0.689  -1.929  1.00  0.00     0.125 C 
BRANCH  15  16
HETATM   16  N1  UNL     1      -4.043  -0.088  -1.111  1.00  0.00    -0.373 N 
HETATM   17  H13 UNL     1      -4.380   0.872  -1.411  1.00  0.00     0.161 HD
BRANCH  16  18
HETATM   18  C12 UNL     1      -4.882  -0.206   0.019  1.00  0.00     0.145 A 
HETATM   19  C13 UNL     1      -4.671   0.288   1.296  1.00  0.00     0.053 A 
HETATM   20  C14 UNL     1      -5.662   0.013   2.216  1.00  0.00     0.025 A 
HETATM   21  C15 UNL     1      -6.788  -0.707   1.882  1.00  0.00     0.141 A 
HETATM   22  N2  UNL     1      -6.941  -1.167   0.611  1.00  0.00    -0.161 NA
HETATM   23  N3  UNL     1      -5.994  -0.915  -0.309  1.00  0.00    -0.133 NA
ENDBRANCH  16  18
ENDBRANCH  15  16
ENDBRANCH  14  15
ENDBRANCH   3  14
TORSDOF 8
