REMARK  5 active torsions:
REMARK  status: ('A' for Active; 'I' for Inactive)
REMARK    1  A    between atoms: C7_7  and  N1_8 
REMARK    2  A    between atoms: N1_8  and  C8_9 
REMARK    3  A    between atoms: C13_16  and  C14_17 
REMARK    4  A    between atoms: C14_17  and  C15_18 
REMARK    5  A    between atoms: C15_18  and  O1_19 
ROOT
HETATM    1  C1  UNL     1       6.863  -2.359  -0.528  1.00  0.00     0.018 C 
HETATM    2  C2  UNL     1       6.134  -1.483  -0.147  1.00  0.00    -0.078 C 
HETATM    3  C3  UNL     1       5.261  -0.449   0.326  1.00  0.00     0.019 A 
HETATM    4  C4  UNL     1       5.796   0.568   1.130  1.00  0.00     0.021 A 
HETATM    5  C5  UNL     1       5.038   1.585   1.623  1.00  0.00     0.004 A 
HETATM    6  C6  UNL     1       3.705   1.566   1.290  1.00  0.00     0.029 A 
HETATM    7  C7  UNL     1       3.055   0.612   0.501  1.00  0.00     0.035 A 
HETATM    8  C19 UNL     1       3.907  -0.374   0.051  1.00  0.00     0.050 A 
ENDROOT
BRANCH   7   9
HETATM    9  N1  UNL     1       1.678   0.634   0.167  1.00  0.00    -0.340 N 
HETATM   10  H5  UNL     1       1.467   1.640   0.065  1.00  0.00     0.167 HD
BRANCH   9  11
HETATM   11  C8  UNL     1       0.985  -0.592   0.056  1.00  0.00     0.141 A 
HETATM   12  N2  UNL     1       1.593  -1.747   0.311  1.00  0.00    -0.224 NA
HETATM   13  C9  UNL     1       0.995  -2.932   0.232  1.00  0.00     0.235 A 
HETATM   14  N3  UNL     1      -0.320  -2.988  -0.131  1.00  0.00    -0.245 NA
HETATM   15  C10 UNL     1      -0.927  -1.817  -0.387  1.00  0.00     0.057 A 
HETATM   16  C11 UNL     1      -0.320  -0.579  -0.310  1.00  0.00     0.038 A 
HETATM   17  C18 UNL     1      -2.101  -2.394  -0.645  1.00  0.00     0.074 C 
HETATM   18  C12 UNL     1      -0.957   0.525  -0.581  1.00  0.00     0.052 C 
HETATM   19  C13 UNL     1      -2.228   1.074  -0.984  1.00  0.00     0.049 C 
HETATM   20  O2  UNL     1      -3.498   0.743  -1.329  1.00  0.00    -0.420 OA
HETATM   21  B1  UNL     1      -4.546   0.109  -0.550  1.00  0.00     0.342 B 
HETATM   22  C16 UNL     1      -4.301  -1.016   0.499  1.00  0.00     0.146 C 
HETATM   23  H11 UNL     1      -5.687   0.474  -0.675  1.00  0.00     0.010 HD
HETATM   24  O3  UNL     1      -4.391  -2.298   0.031  1.00  0.00    -0.397 OA
HETATM   25  C17 UNL     1      -3.500  -2.608  -0.990  1.00  0.00     0.178 C 
BRANCH  19  26
HETATM   26  C14 UNL     1      -2.322   2.413  -1.104  1.00  0.00     0.036 C 
BRANCH  26  27
HETATM   27  C15 UNL     1      -3.418   3.280  -1.480  1.00  0.00     0.223 C 
BRANCH  27  28
HETATM   28  O1  UNL     1      -3.714   4.165  -0.454  1.00  0.00    -0.280 OA
HETATM   29 CL1  UNL     1      -5.003   5.195  -0.877  1.00  0.00     0.061 Cl
ENDBRANCH  27  28
ENDBRANCH  26  27
ENDBRANCH  19  26
ENDBRANCH   9  11
ENDBRANCH   7   9
TORSDOF 5
