REMARK  6 active torsions:
REMARK  status: ('A' for Active; 'I' for Inactive)
REMARK    1  A    between atoms: C1_2  and  C2_3 
REMARK    2  A    between atoms: C2_3  and  C3_4 
REMARK    3  A    between atoms: C3_4  and  O2_5 
REMARK    4  A    between atoms: O2_5  and  C4_6 
REMARK    5  A    between atoms: C6_8  and  O3_9 
REMARK    6  A    between atoms: C10_14  and  C11_15 
ROOT
HETATM    1  C4  UNL     1       2.407  -0.681  -0.168  1.00  0.00     0.074 A 
HETATM    2  C5  UNL     1       2.404  -1.838  -0.923  1.00  0.00     0.074 A 
HETATM    3  C6  UNL     1       1.213  -2.403  -1.385  1.00  0.00     0.085 A 
HETATM    4  C7  UNL     1       0.023  -1.773  -1.068  1.00  0.00     0.081 A 
HETATM    5  C8  UNL     1      -1.198  -2.255  -1.478  1.00  0.00     0.190 A 
HETATM    6  O4  UNL     1      -1.263  -3.303  -2.166  1.00  0.00    -0.287 OA
HETATM    7  C9  UNL     1      -2.318  -1.538  -1.099  1.00  0.00     0.094 A 
HETATM    8  C10 UNL     1      -2.254  -0.387  -0.343  1.00  0.00     0.090 A 
HETATM    9  O5  UNL     1      -1.078   0.051   0.035  1.00  0.00    -0.309 OA
HETATM   10  C17 UNL     1       0.019  -0.618  -0.315  1.00  0.00     0.095 A 
HETATM   11  C18 UNL     1       1.213  -0.060   0.143  1.00  0.00     0.075 A 
ENDROOT
BRANCH   8  12
HETATM   12  C11 UNL     1      -3.419   0.384   0.068  1.00  0.00    -0.002 A 
HETATM   13  C12 UNL     1      -3.211   1.516   0.822  1.00  0.00     0.014 A 
HETATM   14  C13 UNL     1      -4.299   2.286   1.239  1.00  0.00     0.001 A 
HETATM   15  C14 UNL     1      -5.595   1.953   0.919  1.00  0.00     0.000 A 
HETATM   16  C15 UNL     1      -5.802   0.811   0.158  1.00  0.00     0.001 A 
HETATM   17  C16 UNL     1      -4.722   0.060  -0.246  1.00  0.00     0.014 A 
ENDBRANCH   8  12
BRANCH   3  18
HETATM   18  O3  UNL     1       1.180  -3.569  -2.148  1.00  0.00    -0.360 OA
HETATM   19  H7  UNL     1       1.363  -4.454  -1.674  1.00  0.00     0.217 HD
ENDBRANCH   3  18
BRANCH   1  20
HETATM   20  O2  UNL     1       3.674  -0.216   0.235  1.00  0.00    -0.351 OA
BRANCH  20  21
HETATM   21  C3  UNL     1       3.764   0.958   1.008  1.00  0.00     0.182 C 
BRANCH  21  22
HETATM   22  C2  UNL     1       5.210   1.272   1.326  1.00  0.00     0.096 C 
BRANCH  22  23
HETATM   23  C1  UNL     1       6.017   1.478   0.091  1.00  0.00     0.233 C 
HETATM   24  O1  UNL     1       5.356   1.354  -0.946  1.00  0.00    -0.307 OA
ENDBRANCH  22  23
ENDBRANCH  21  22
ENDBRANCH  20  21
ENDBRANCH   1  20
TORSDOF 6
