REMARK  2 active torsions:
REMARK  status: ('A' for Active; 'I' for Inactive)
REMARK    1  A    between atoms: C3_5  and  N2_6 
REMARK    2  A    between atoms: C16_22  and  O2_23 
ROOT
HETATM    1  O1  UNL     1      -1.604  -0.422   4.004  1.00  0.00    -0.266 OA
HETATM    2  C1  UNL     1      -1.096  -0.204   2.890  1.00  0.00     0.268 C 
HETATM    3  N1  UNL     1       0.337  -0.065   2.584  1.00  0.00    -0.353 N 
HETATM    4  C2  UNL     1       1.198   0.509   1.640  1.00  0.00     0.163 C 
HETATM    5  C3  UNL     1       1.160   0.275   0.182  1.00  0.00     0.273 C 
HETATM    6  C8  UNL     1      -0.144   0.564  -0.412  1.00  0.00     0.004 C 
HETATM    7  C9  UNL     1      -0.221  -0.256  -1.423  1.00  0.00     0.002 C 
HETATM    8  C10 UNL     1      -1.022  -0.135  -2.672  1.00  0.00     0.148 C 
HETATM    9  N3  UNL     1      -2.431   0.016  -2.490  1.00  0.00    -0.376 N 
HETATM   10  C11 UNL     1      -3.504   0.011  -1.492  1.00  0.00     0.122 C 
HETATM   11 CL1  UNL     1      -5.177  -0.121  -1.810  1.00  0.00    -0.063 Cl
HETATM   12  C12 UNL     1      -3.341   0.056  -0.139  1.00  0.00     0.057 C 
HETATM   13  C13 UNL     1      -4.242  -0.563   0.853  1.00  0.00     0.090 C 
HETATM   14  C14 UNL     1      -3.278  -0.896   1.969  1.00  0.00     0.015 C 
HETATM   15  C15 UNL     1      -2.223  -0.110   1.892  1.00  0.00     0.102 C 
HETATM   16  N4  UNL     1      -2.182   0.576   0.597  1.00  0.00    -0.309 N 
HETATM   17  C16 UNL     1      -1.150   1.583   0.100  1.00  0.00     0.304 C 
HETATM   18  H1  UNL     1       0.772  -0.602   3.409  1.00  0.00     0.162 HD
HETATM   19  H16 UNL     1      -2.950   0.195  -3.386  1.00  0.00     0.160 HD
ENDROOT
BRANCH   5  20
HETATM   20  N2  UNL     1       1.851  -0.868  -0.339  1.00  0.00     0.099 NA
HETATM   21  C4  UNL     1       2.928  -1.329   0.507  1.00  0.00     0.273 C 
HETATM   22  C5  UNL     1       4.139  -0.500   0.284  1.00  0.00     0.032 C 
HETATM   23  C6  UNL     1       3.870   0.225  -0.993  1.00  0.00     0.032 C 
HETATM   24  C7  UNL     1       2.670  -0.500  -1.527  1.00  0.00     0.273 C 
ENDBRANCH   5  20
BRANCH  17  25
HETATM   25  O2  UNL     1      -1.692   2.358  -0.871  1.00  0.00    -0.168 OA
HETATM   26  F1  UNL     1      -1.691   3.656  -0.591  1.00  0.00    -0.045 F 
ENDBRANCH  17  25
TORSDOF 2
