REMARK  5 active torsions:
REMARK  status: ('A' for Active; 'I' for Inactive)
REMARK    1  A    between atoms: S1_2  and  N1_5 
REMARK    2  A    between atoms: N1_5  and  C2_6 
REMARK    3  A    between atoms: C2_6  and  C3_7 
REMARK    4  A    between atoms: C7_12  and  N3_13 
REMARK    5  A    between atoms: N3_13  and  C8_14 
ROOT
HETATM    1  C3  UNL     1      -2.854  -1.028   0.079  1.00  0.00    -0.038 A 
HETATM    2  C4  UNL     1      -1.567  -1.368   0.291  1.00  0.00    -0.000 A 
HETATM    3  C5  UNL     1      -0.757  -0.523   1.179  1.00  0.00     0.162 C 
HETATM    4  N2  UNL     1       0.592  -0.287   0.692  1.00  0.00    -0.379 N 
HETATM    5  C6  UNL     1       1.575  -1.189   0.244  1.00  0.00     0.129 A 
HETATM    6  C7  UNL     1       2.813  -0.599   0.302  1.00  0.00     0.160 A 
HETATM    7  N4  UNL     1       3.847  -1.347  -0.125  1.00  0.00    -0.222 NA
HETATM    8  C14 UNL     1       3.697  -2.595  -0.582  1.00  0.00     0.238 A 
HETATM    9  N5  UNL     1       2.494  -3.180  -0.642  1.00  0.00    -0.215 NA
HETATM   10  C15 UNL     1       1.415  -2.467  -0.223  1.00  0.00     0.202 A 
HETATM   11  O3  UNL     1       0.193  -3.162  -0.321  1.00  0.00    -0.288 OA
HETATM   12  C16 UNL     1      -1.065  -2.595  -0.363  1.00  0.00     0.101 A 
HETATM   13  C17 UNL     1      -1.835  -3.364  -1.139  1.00  0.00     0.121 A 
HETATM   14  N6  UNL     1      -3.169  -3.001  -1.343  1.00  0.00    -0.393 N 
HETATM   15  C18 UNL     1      -3.756  -1.798  -0.816  1.00  0.00     0.155 A 
HETATM   16  H9  UNL     1       0.914   0.705   0.650  1.00  0.00     0.160 HD
HETATM   17  H17 UNL     1      -3.893  -3.518  -1.876  1.00  0.00     0.159 HD
ENDROOT
BRANCH   6  18
HETATM   18  N3  UNL     1       3.109   0.688   0.813  1.00  0.00    -0.339 N 
HETATM   19  H10 UNL     1       2.574   1.399   1.353  1.00  0.00     0.167 HD
BRANCH  18  20
HETATM   20  C8  UNL     1       4.405   1.283   0.636  1.00  0.00     0.035 A 
HETATM   21  C9  UNL     1       5.066   2.101   1.524  1.00  0.00     0.029 A 
HETATM   22  C10 UNL     1       6.302   2.636   1.223  1.00  0.00     0.004 A 
HETATM   23  C11 UNL     1       6.851   2.318  -0.001  1.00  0.00     0.019 A 
HETATM   24  C12 UNL     1       6.226   1.504  -0.920  1.00  0.00     0.013 A 
HETATM   25 BR1  UNL     1       7.154   1.182  -2.574  1.00  0.00    -0.051 Br
HETATM   26  C13 UNL     1       4.970   0.968  -0.602  1.00  0.00     0.048 A 
ENDBRANCH  18  20
ENDBRANCH   6  18
BRANCH   1  27
HETATM   27  C2  UNL     1      -3.574   0.130   0.654  1.00  0.00     0.140 C 
BRANCH  27  28
HETATM   28  N1  UNL     1      -4.055   1.059  -0.363  1.00  0.00    -0.216 NA
HETATM   29  H4  UNL     1      -4.793   0.497  -0.899  1.00  0.00     0.139 HD
BRANCH  28  30
HETATM   30  S1  UNL     1      -4.880   2.380   0.422  1.00  0.00     0.205 S 
HETATM   31  C1  UNL     1      -6.635   2.260   0.132  1.00  0.00     0.179 C 
HETATM   32  O1  UNL     1      -4.398   3.639  -0.229  1.00  0.00    -0.212 OA
HETATM   33  O2  UNL     1      -4.616   2.422   1.881  1.00  0.00    -0.212 OA
ENDBRANCH  28  30
ENDBRANCH  27  28
ENDBRANCH   1  27
TORSDOF 5
