REMARK  5 active torsions:
REMARK  status: ('A' for Active; 'I' for Inactive)
REMARK    1  A    between atoms: C4_7  and  N3_8 
REMARK    2  A    between atoms: N3_8  and  C5_9 
REMARK    3  A    between atoms: C8_12  and  O1_13 
REMARK    4  A    between atoms: O1_13  and  C9_14 
REMARK    5  A    between atoms: C9_14  and  C10_15 
ROOT
HETATM    1  C5  UNL     1      -0.934  -0.233  -0.663  1.00  0.00     0.035 A 
HETATM    2  C6  UNL     1       0.101  -0.903  -0.071  1.00  0.00     0.032 A 
HETATM    3  C7  UNL     1       1.334  -0.349   0.124  1.00  0.00     0.041 A 
HETATM    4  C8  UNL     1       1.646   0.935  -0.259  1.00  0.00     0.091 A 
HETATM    5  C16 UNL     1       0.562   1.604  -0.867  1.00  0.00     0.069 A 
HETATM    6 CL1  UNL     1       0.606   3.270  -1.487  1.00  0.00    -0.081 Cl
HETATM    7  C17 UNL     1      -0.692   1.051  -1.068  1.00  0.00     0.056 A 
ENDROOT
BRANCH   1   8
HETATM    8  N3  UNL     1      -2.123  -0.997  -0.783  1.00  0.00    -0.343 N 
HETATM    9  H3  UNL     1      -2.264  -1.867  -0.205  1.00  0.00     0.167 HD
BRANCH   8  10
HETATM   10  C4  UNL     1      -3.233  -0.746  -1.606  1.00  0.00     0.131 C 
HETATM   11  N2  UNL     1      -3.133   0.200  -2.471  1.00  0.00    -0.137 NA
HETATM   12  N1  UNL     1      -4.148   0.545  -3.358  1.00  0.00    -0.161 NA
HETATM   13  C3  UNL     1      -5.285  -0.018  -3.451  1.00  0.00     0.147 C 
HETATM   14  C2  UNL     1      -5.468  -1.135  -2.510  1.00  0.00    -0.018 C 
HETATM   15  C1  UNL     1      -6.484  -2.032  -2.530  1.00  0.00     0.450 C 
HETATM   16  C18 UNL     1      -4.525  -1.489  -1.432  1.00  0.00     0.119 C 
HETATM   17  F1  UNL     1      -7.303  -1.743  -3.552  1.00  0.00    -0.451 F 
ENDBRANCH   8  10
ENDBRANCH   1   8
BRANCH   4  18
HETATM   18  O1  UNL     1       2.691   1.788  -0.245  1.00  0.00    -0.345 OA
BRANCH  18  19
HETATM   19  C9  UNL     1       3.988   1.594   0.233  1.00  0.00     0.214 C 
BRANCH  19  20
HETATM   20  C10 UNL     1       4.149   1.341   1.656  1.00  0.00    -0.031 A 
HETATM   21  C11 UNL     1       4.325   0.059   2.120  1.00  0.00     0.009 A 
HETATM   22  C12 UNL     1       4.478  -0.431   3.366  1.00  0.00     0.004 A 
HETATM   23  C13 UNL     1       4.458   0.505   4.401  1.00  0.00     0.042 A 
HETATM   24  C14 UNL     1       4.287   1.881   4.128  1.00  0.00     0.117 A 
HETATM   25  F2  UNL     1       4.251   2.909   4.992  1.00  0.00    -0.206 F 
HETATM   26  C15 UNL     1       4.149   2.154   2.761  1.00  0.00     0.051 A 
ENDBRANCH  19  20
ENDBRANCH  18  19
ENDBRANCH   4  18
TORSDOF 5
