REMARK  3 active torsions:
REMARK  status: ('A' for Active; 'I' for Inactive)
REMARK    1  A    between atoms: C2_2  and  O1_3 
REMARK    2  A    between atoms: O1_3  and  C3_4 
REMARK    3  A    between atoms: C3_4  and  C4_6 
ROOT
HETATM    1  C4  UNL     1       1.467   0.370  -0.630  1.00  0.00     0.061 A 
HETATM    2  C5  UNL     1       0.147  -0.020  -0.762  1.00  0.00    -0.008 A 
HETATM    3  C6  UNL     1      -0.897  -0.966  -1.256  1.00  0.00     0.021 C 
HETATM    4  C7  UNL     1      -2.085  -1.171  -0.631  1.00  0.00    -0.025 A 
HETATM    5  C8  UNL     1      -2.252  -2.651  -0.728  1.00  0.00     0.010 A 
HETATM    6  C9  UNL     1      -3.217  -3.377  -0.190  1.00  0.00     0.001 A 
HETATM    7  C10 UNL     1      -4.232  -2.654   0.567  1.00  0.00    -0.001 A 
HETATM    8  C11 UNL     1      -4.112  -1.340   0.634  1.00  0.00     0.010 A 
HETATM    9  C12 UNL     1      -3.129  -0.415   0.071  1.00  0.00     0.184 A 
HETATM   10  O3  UNL     1      -2.702   0.459   1.080  1.00  0.00    -0.340 OA
HETATM   11  C13 UNL     1      -1.546   1.223   1.342  1.00  0.00     0.069 C 
HETATM   12  C14 UNL     1      -2.022   2.470   1.546  1.00  0.00     0.035 C 
HETATM   13  C15 UNL     1      -1.250   3.683   1.145  1.00  0.00     0.019 C 
HETATM   14  C16 UNL     1      -0.205   3.681   0.289  1.00  0.00     0.084 C 
HETATM   15  N1  UNL     1       0.349   2.513  -0.364  1.00  0.00    -0.380 N 
HETATM   16  C17 UNL     1       0.374   1.136  -0.034  1.00  0.00     0.115 A 
HETATM   17  C18 UNL     1      -0.069   0.850   1.403  1.00  0.00     0.176 C 
HETATM   18 CL1  UNL     1       0.847   1.859   2.493  1.00  0.00    -0.115 Cl
HETATM   19  H15 UNL     1       0.825   2.796  -1.261  1.00  0.00     0.160 HD
ENDROOT
BRANCH   1  20
HETATM   20  C3  UNL     1       2.872   0.179  -0.862  1.00  0.00     0.292 C 
HETATM   21  O2  UNL     1       3.741   1.008  -0.424  1.00  0.00    -0.259 OA
BRANCH  20  22
HETATM   22  O1  UNL     1       3.397  -0.895  -1.565  1.00  0.00    -0.318 OA
BRANCH  22  23
HETATM   23  C2  UNL     1       4.819  -0.976  -1.731  1.00  0.00     0.174 C 
HETATM   24  C1  UNL     1       5.433  -1.040  -0.352  1.00  0.00     0.034 C 
ENDBRANCH  22  23
ENDBRANCH  20  22
ENDBRANCH   1  20
TORSDOF 3
