REMARK  2 active torsions:
REMARK  status: ('A' for Active; 'I' for Inactive)
REMARK    1  A    between atoms: C3_3  and  O1_4 
REMARK    2  A    between atoms: O1_4  and  C4_5 
ROOT
HETATM    1  C4  UNL     1       1.654   1.978  -0.252  1.00  0.00     0.183 C 
HETATM    2  C5  UNL     1       1.339   2.663   0.995  1.00  0.00     0.155 C 
HETATM    3  N1  UNL     1       0.074   2.295   1.651  1.00  0.00    -0.391 N 
HETATM    4  C6  UNL     1      -0.376   0.961   1.433  1.00  0.00     0.024 C 
HETATM    5  C7  UNL     1       0.182  -0.155   0.910  1.00  0.00     0.104 A 
HETATM    6  C8  UNL     1       0.653  -1.488   1.260  1.00  0.00     0.048 C 
HETATM    7  C9  UNL     1      -0.664  -2.062   0.566  1.00  0.00     0.036 C 
HETATM    8  C10 UNL     1      -0.408  -1.203  -0.402  1.00  0.00     0.147 A 
HETATM    9  C11 UNL     1      -1.303  -1.840  -1.460  1.00  0.00     0.249 C 
HETATM   10  O2  UNL     1      -1.669  -2.597  -2.329  1.00  0.00    -0.271 OA
HETATM   11  N2  UNL     1      -2.630  -1.196  -1.612  1.00  0.00    -0.357 N 
HETATM   12  C12 UNL     1      -3.945  -0.707  -1.887  1.00  0.00     0.142 C 
HETATM   13  C13 UNL     1      -4.181   0.517  -1.056  1.00  0.00     0.142 C 
HETATM   14  N3  UNL     1      -4.062   0.383   0.365  1.00  0.00    -0.385 N 
HETATM   15  C14 UNL     1      -5.129   0.531   1.367  1.00  0.00     0.123 C 
HETATM   16  C15 UNL     1      -5.035  -0.756   2.111  1.00  0.00     0.025 C 
HETATM   17  C16 UNL     1      -3.534  -0.886   2.302  1.00  0.00     0.054 C 
HETATM   18  C17 UNL     1      -2.963   0.102   1.310  1.00  0.00    -0.005 C 
HETATM   19  C18 UNL     1      -1.669   0.315   1.646  1.00  0.00     0.094 C 
HETATM   20  N4  UNL     1       0.142   0.058  -0.544  1.00  0.00    -0.356 N 
HETATM   21  C19 UNL     1       0.645   1.246  -1.058  1.00  0.00     0.210 C 
HETATM   22 CL1  UNL     1      -0.659   2.350  -1.519  1.00  0.00    -0.100 Cl
HETATM   23  H7  UNL     1      -0.752   2.579   2.262  1.00  0.00     0.159 HD
HETATM   24  H11 UNL     1      -2.400  -0.453  -0.960  1.00  0.00     0.162 HD
ENDROOT
BRANCH   1  25
HETATM   25  O1  UNL     1       2.784   1.143  -0.022  1.00  0.00    -0.345 OA
BRANCH  25  26
HETATM   26  C3  UNL     1       3.491   0.433  -0.938  1.00  0.00     0.053 C 
HETATM   27  C2  UNL     1       4.365  -0.272  -0.231  1.00  0.00    -0.048 C 
HETATM   28  C1  UNL     1       4.309  -0.083   1.232  1.00  0.00     0.046 C 
HETATM   29  C23 UNL     1       5.401  -1.232  -0.761  1.00  0.00     0.106 C 
HETATM   30  C22 UNL     1       5.810  -0.812  -2.127  1.00  0.00     0.094 C 
HETATM   31  C21 UNL     1       4.909  -0.136  -2.833  1.00  0.00     0.018 C 
HETATM   32  F1  UNL     1       7.077  -1.183  -2.486  1.00  0.00    -0.211 F 
HETATM   33  C20 UNL     1       3.534   0.254  -2.417  1.00  0.00     0.094 C 
ENDBRANCH  25  26
ENDBRANCH   1  25
TORSDOF 2
