REMARK  4 active torsions:
REMARK  status: ('A' for Active; 'I' for Inactive)
REMARK    1  A    between atoms: N1_2  and  C2_3 
REMARK    2  A    between atoms: C7_9  and  O1_10 
REMARK    3  A    between atoms: O1_10  and  C8_11 
REMARK    4  A    between atoms: C11_14  and  N2_15 
ROOT
HETATM    1  C8  UNL     1       0.178   1.068  -0.560  1.00  0.00     0.076 A 
HETATM    2  C9  UNL     1      -0.093   0.179   0.486  1.00  0.00     0.039 A 
HETATM    3  C10 UNL     1      -1.376  -0.291   0.660  1.00  0.00     0.032 A 
HETATM    4  C11 UNL     1      -2.444   0.035  -0.112  1.00  0.00     0.035 A 
HETATM    5  C15 UNL     1      -2.145   0.926  -1.151  1.00  0.00     0.032 A 
HETATM    6  C16 UNL     1      -0.867   1.441  -1.385  1.00  0.00     0.039 A 
ENDROOT
BRANCH   1   7
HETATM    7  O1  UNL     1       1.368   1.661  -0.923  1.00  0.00    -0.309 OA
BRANCH   7   8
HETATM    8  C7  UNL     1       2.564   1.398  -0.280  1.00  0.00     0.102 A 
HETATM    9  C2  UNL     1       3.077   0.123  -0.290  1.00  0.00     0.065 A 
HETATM   10  C3  UNL     1       4.271  -0.012   0.384  1.00  0.00     0.074 A 
HETATM   11  C4  UNL     1       4.903   1.028   1.012  1.00  0.00     0.118 A 
HETATM   12  F1  UNL     1       6.068   0.899   1.669  1.00  0.00    -0.206 F 
HETATM   13  C5  UNL     1       4.357   2.294   0.999  1.00  0.00     0.045 A 
HETATM   14  C6  UNL     1       3.161   2.475   0.336  1.00  0.00     0.042 A 
BRANCH   9  15
HETATM   15  N1  UNL     1       2.481  -0.987  -0.936  1.00  0.00    -0.392 N 
HETATM   16  C1  UNL     1       3.131  -2.280  -0.860  1.00  0.00     0.146 C 
HETATM   17  H4  UNL     1       1.616  -1.005  -1.480  1.00  0.00     0.159 HD
ENDBRANCH   9  15
ENDBRANCH   7   8
ENDBRANCH   1   7
BRANCH   4  18
HETATM   18  N2  UNL     1      -3.758  -0.455   0.077  1.00  0.00    -0.335 N 
HETATM   19  C12 UNL     1      -3.991  -1.357   1.151  1.00  0.00     0.114 A 
HETATM   20  C13 UNL     1      -5.205  -1.839   1.364  1.00  0.00     0.158 A 
HETATM   21  N3  UNL     1      -6.221  -1.404   0.471  1.00  0.00    -0.165 NA
HETATM   22  N4  UNL     1      -6.028  -0.605  -0.484  1.00  0.00    -0.173 NA
HETATM   23  C14 UNL     1      -4.770  -0.001  -0.837  1.00  0.00     0.303 A 
ENDBRANCH   4  18
TORSDOF 4
