REMARK  6 active torsions:
REMARK  status: ('A' for Active; 'I' for Inactive)
REMARK    1  A    between atoms: C2_2  and  C3_4 
REMARK    2  A    between atoms: C3_4  and  C4_5 
REMARK    3  A    between atoms: C5_6  and  C6_7 
REMARK    4  A    between atoms: C6_7  and  O1_8 
REMARK    5  A    between atoms: O1_8  and  C7_9 
REMARK    6  A    between atoms: C7_9  and  C8_10 
ROOT
HETATM    1  C7  UNL     1       0.436  -1.990   0.282  1.00  0.00     0.298 C 
HETATM    2  C9  UNL     1       0.735  -3.298  -0.390  1.00  0.00     0.062 C 
HETATM    3  C10 UNL     1       0.485  -3.477  -1.674  1.00  0.00     0.087 C 
HETATM    4  N1  UNL     1      -0.074  -2.295  -2.230  1.00  0.00    -0.351 N 
HETATM    5  C11 UNL     1      -1.066  -1.577  -1.480  1.00  0.00     0.472 C 
HETATM    6  N2  UNL     1      -1.300  -0.250  -2.046  1.00  0.00    -0.139 NA
HETATM    7  N3  UNL     1      -2.423   0.041  -2.539  1.00  0.00    -0.193 NA
HETATM    8  C12 UNL     1      -2.833   1.254  -3.120  1.00  0.00     0.118 C 
HETATM    9  C13 UNL     1      -3.167   1.652  -1.917  1.00  0.00     0.102 C 
HETATM   10  C14 UNL     1      -3.735   2.830  -1.306  1.00  0.00    -0.013 C 
HETATM   11  C15 UNL     1      -3.765   2.469  -0.004  1.00  0.00     0.070 C 
HETATM   12  C16 UNL     1      -3.512   1.489   1.087  1.00  0.00     0.240 C 
HETATM   13  O2  UNL     1      -3.491   1.044   2.292  1.00  0.00    -0.269 OA
HETATM   14  N4  UNL     1      -2.976   0.177   1.093  1.00  0.00    -0.356 N 
HETATM   15  C17 UNL     1      -2.530  -1.073   1.624  1.00  0.00     0.153 C 
HETATM   16  C18 UNL     1      -1.998  -2.070   0.618  1.00  0.00     0.302 C 
HETATM   17  N5  UNL     1      -0.860  -1.569  -0.058  1.00  0.00     0.175 N 
HETATM   18  H13 UNL     1       0.226  -1.944  -3.191  1.00  0.00     0.162 HD
HETATM   19  H19 UNL     1      -2.852   0.100   0.080  1.00  0.00     0.162 HD
ENDROOT
BRANCH   1  20
HETATM   20  O1  UNL     1       1.281  -1.046  -0.390  1.00  0.00    -0.344 OA
BRANCH  20  21
HETATM   21  C6  UNL     1       1.203   0.217   0.114  1.00  0.00     0.198 C 
BRANCH  21  22
HETATM   22  C5  UNL     1       2.079   1.182  -0.654  1.00  0.00    -0.004 C 
HETATM   23  C4  UNL     1       3.074   1.881  -0.130  1.00  0.00    -0.022 C 
BRANCH  23  24
HETATM   24  C3  UNL     1       3.715   2.051   1.192  1.00  0.00     0.091 C 
BRANCH  24  25
HETATM   25  C2  UNL     1       5.145   1.698   1.225  1.00  0.00     0.059 A 
HETATM   26  C1  UNL     1       5.991   2.684   1.575  1.00  0.00     0.245 A 
HETATM   27  F1  UNL     1       6.443   1.354   1.248  1.00  0.00    -0.371 F 
ENDBRANCH  24  25
ENDBRANCH  23  24
ENDBRANCH  21  22
ENDBRANCH  20  21
ENDBRANCH   1  20
BRANCH   1  28
HETATM   28  C8  UNL     1       0.812  -2.050   1.730  1.00  0.00     0.191 C 
HETATM   29 CL1  UNL     1      -0.069  -3.211   2.706  1.00  0.00    -0.125 Cl
ENDBRANCH   1  28
TORSDOF 6
