REMARK  7 active torsions:
REMARK  status: ('A' for Active; 'I' for Inactive)
REMARK    1  A    between atoms: C1_2  and  C2_3 
REMARK    2  A    between atoms: C2_3  and  C3_4 
REMARK    3  A    between atoms: C6_9  and  N3_10 
REMARK    4  A    between atoms: N3_10  and  C7_11 
REMARK    5  A    between atoms: C10_14  and  O2_15 
REMARK    6  A    between atoms: O2_15  and  C11_16 
REMARK    7  A    between atoms: C11_16  and  C12_17 
ROOT
HETATM    1  C7  UNL     1       0.226   0.346  -0.462  1.00  0.00     0.035 A 
HETATM    2  C8  UNL     1      -0.555   0.114   0.645  1.00  0.00     0.032 A 
HETATM    3  C9  UNL     1      -1.825  -0.388   0.494  1.00  0.00     0.041 A 
HETATM    4  C10 UNL     1      -2.365  -0.678  -0.737  1.00  0.00     0.091 A 
HETATM    5  C18 UNL     1      -1.572  -0.443  -1.879  1.00  0.00     0.069 A 
HETATM    6 CL1  UNL     1      -2.006  -0.720  -3.564  1.00  0.00    -0.081 Cl
HETATM    7  C19 UNL     1      -0.273   0.071  -1.733  1.00  0.00     0.056 A 
ENDROOT
BRANCH   1   8
HETATM    8  N3  UNL     1       1.578   0.843  -0.381  1.00  0.00    -0.338 N 
HETATM    9  H6  UNL     1       1.843   1.834  -0.232  1.00  0.00     0.167 HD
BRANCH   8  10
HETATM   10  C6  UNL     1       2.540  -0.218  -0.533  1.00  0.00     0.175 A 
HETATM   11  N2  UNL     1       2.378  -1.586  -0.806  1.00  0.00    -0.134 NA
HETATM   12  N1  UNL     1       3.512  -2.190  -0.878  1.00  0.00    -0.175 NA
HETATM   13  C5  UNL     1       4.513  -1.228  -0.669  1.00  0.00     0.209 A 
HETATM   14  C4  UNL     1       5.613  -1.367   0.238  1.00  0.00     0.033 C 
HETATM   15  C20 UNL     1       3.858   0.045  -0.424  1.00  0.00     0.088 A 
HETATM   16  C3  UNL     1       6.007  -0.070   0.301  1.00  0.00     0.014 C 
HETATM   17  N4  UNL     1       4.988   0.901  -0.115  1.00  0.00    -0.358 N 
HETATM   18  H16 UNL     1       4.870   1.927  -0.233  1.00  0.00     0.165 HD
BRANCH  16  19
HETATM   19  C2  UNL     1       7.113   0.681   0.997  1.00  0.00     0.126 C 
BRANCH  19  20
HETATM   20  C1  UNL     1       7.976   1.405   0.026  1.00  0.00     0.237 C 
HETATM   21  O1  UNL     1       8.963   2.117   0.022  1.00  0.00    -0.306 OA
ENDBRANCH  19  20
ENDBRANCH  16  19
ENDBRANCH   8  10
ENDBRANCH   1   8
BRANCH   4  22
HETATM   22  O2  UNL     1      -3.541  -1.167  -1.183  1.00  0.00    -0.345 OA
BRANCH  22  23
HETATM   23  C11 UNL     1      -4.698  -1.572  -0.568  1.00  0.00     0.214 C 
BRANCH  23  24
HETATM   24  C12 UNL     1      -5.435  -0.593   0.232  1.00  0.00    -0.031 A 
HETATM   25  C13 UNL     1      -6.349   0.160  -0.519  1.00  0.00     0.009 A 
HETATM   26  C14 UNL     1      -7.158   1.132   0.039  1.00  0.00     0.004 A 
HETATM   27  C15 UNL     1      -7.101   1.409   1.381  1.00  0.00     0.042 A 
HETATM   28  C16 UNL     1      -6.204   0.668   2.111  1.00  0.00     0.117 A 
HETATM   29  F1  UNL     1      -6.111   0.906   3.445  1.00  0.00    -0.206 F 
HETATM   30  C17 UNL     1      -5.398  -0.299   1.561  1.00  0.00     0.051 A 
ENDBRANCH  23  24
ENDBRANCH  22  23
ENDBRANCH   4  22
TORSDOF 7
