REMARK  2 active torsions:
REMARK  status: ('A' for Active; 'I' for Inactive)
REMARK    1  A    between atoms: C8_12  and  N4_13 
REMARK    2  A    between atoms: N4_13  and  C9_14 
ROOT
HETATM    1  C1  UNL     1      -0.753  -0.877   1.135  1.00  0.00     0.020 C 
HETATM    2  C2  UNL     1      -1.034   0.009  -0.010  1.00  0.00     0.012 C 
HETATM    3  C3  UNL     1      -1.936   0.850  -0.650  1.00  0.00     0.009 A 
HETATM    4  C4  UNL     1      -3.268   1.573  -0.849  1.00  0.00     0.001 A 
HETATM    5  C5  UNL     1      -4.272   1.196   0.096  1.00  0.00     0.000 A 
HETATM    6  N1  UNL     1      -3.100   0.490   0.278  1.00  0.00     0.000 N 
HETATM    7  C6  UNL     1      -3.319  -0.806  -0.487  1.00  0.00     0.314 C 
HETATM    8  O1  UNL     1      -4.389  -0.436  -0.511  1.00  0.00    -0.262 OA
HETATM    9  N2  UNL     1      -2.298  -1.768  -0.789  1.00  0.00    -0.314 N 
HETATM   10  C7  UNL     1      -1.325  -2.684  -1.076  1.00  0.00     0.206 C 
HETATM   11  N3  UNL     1      -0.208  -2.022  -1.074  1.00  0.00    -0.258 NA
HETATM   12  C8  UNL     1       0.060  -0.638  -0.849  1.00  0.00     0.216 C 
HETATM   13  H7  UNL     1      -2.671   1.268   0.918  1.00  0.00     0.000 HD
HETATM   14  H8  UNL     1      -3.171  -2.321  -1.099  1.00  0.00     0.170 HD
ENDROOT
BRANCH  12  15
HETATM   15  N4  UNL     1       1.304  -0.288  -0.383  1.00  0.00    -0.366 N 
HETATM   16  H11 UNL     1       1.712  -0.932  -1.134  1.00  0.00     0.161 HD
BRANCH  15  17
HETATM   17  C9  UNL     1       2.592   0.057   0.081  1.00  0.00     0.030 A 
HETATM   18  C10 UNL     1       3.896  -0.281  -0.167  1.00  0.00     0.029 A 
HETATM   19  C11 UNL     1       4.925   0.323   0.488  1.00  0.00     0.004 A 
HETATM   20  C12 UNL     1       4.626   1.287   1.411  1.00  0.00     0.019 A 
HETATM   21  C13 UNL     1       3.362   1.714   1.749  1.00  0.00     0.013 A 
HETATM   22 BR1  UNL     1       3.180   3.073   3.067  1.00  0.00    -0.051 Br
HETATM   23  C14 UNL     1       2.354   1.058   1.043  1.00  0.00     0.048 A 
ENDBRANCH  15  17
ENDBRANCH  12  15
TORSDOF 2
