REMARK  6 active torsions:
REMARK  status: ('A' for Active; 'I' for Inactive)
REMARK    1  A    between atoms: C3_4  and  C4_5 
REMARK    2  A    between atoms: C4_5  and  N1_6 
REMARK    3  A    between atoms: C4_5  and  C5_7 
REMARK    4  A    between atoms: C5_7  and  C6_8 
REMARK    5  A    between atoms: C11_14  and  C12_15 
REMARK    6  A    between atoms: C13_16  and  C14_17 
ROOT
HETATM    1  C6  UNL     1      -1.394   0.068  -0.951  1.00  0.00    -0.055 A 
HETATM    2  C7  UNL     1      -1.742  -1.263  -1.215  1.00  0.00     0.009 A 
HETATM    3  C8  UNL     1      -0.768  -2.216  -1.253  1.00  0.00     0.033 A 
HETATM    4  C9  UNL     1       0.544  -1.897  -1.037  1.00  0.00     0.066 A 
HETATM    5  N2  UNL     1       1.503  -2.843  -1.075  1.00  0.00    -0.260 NA
HETATM    6  C10 UNL     1       2.801  -2.567  -0.868  1.00  0.00     0.128 A 
HETATM    7  C11 UNL     1       3.255  -1.285  -0.599  1.00  0.00    -0.018 A 
HETATM    8  C15 UNL     1       2.242  -0.350  -0.569  1.00  0.00     0.026 A 
HETATM    9  C16 UNL     1       0.901  -0.592  -0.776  1.00  0.00    -0.006 A 
HETATM   10  C17 UNL     1      -0.050   0.390  -0.730  1.00  0.00     0.021 A 
ENDROOT
BRANCH   1  11
HETATM   11  C5  UNL     1      -2.415   1.130  -0.901  1.00  0.00     0.077 C 
BRANCH  11  12
HETATM   12  C4  UNL     1      -3.007   1.351   0.459  1.00  0.00     0.246 C 
BRANCH  12  13
HETATM   13  C3  UNL     1      -3.678   0.136   0.994  1.00  0.00     0.027 C 
HETATM   14  C2  UNL     1      -4.907   0.020   1.488  1.00  0.00     0.006 C 
HETATM   15  C1  UNL     1      -5.684  -1.121   2.046  1.00  0.00     0.061 C 
HETATM   16 CL1  UNL     1      -5.784   1.561   1.470  1.00  0.00    -0.090 Cl
ENDBRANCH  12  13
BRANCH  12  17
HETATM   17  N1  UNL     1      -2.094   1.957   1.392  1.00  0.00     0.086 N 
HETATM   18  H6  UNL     1      -1.430   1.291   1.826  1.00  0.00     0.313 HD
HETATM   19  H7  UNL     1      -1.618   2.725   0.892  1.00  0.00     0.313 HD
ENDBRANCH  12  17
ENDBRANCH  11  12
ENDBRANCH   1  11
BRANCH   7  20
HETATM   20  C12 UNL     1       4.655  -1.016  -0.380  1.00  0.00     0.017 C 
HETATM   21  C13 UNL     1       5.300   0.076  -0.119  1.00  0.00     0.069 C 
BRANCH  21  22
HETATM   22  C14 UNL     1       5.095   1.500   0.092  1.00  0.00     0.303 A 
HETATM   23  N3  UNL     1       5.836   2.662   0.377  1.00  0.00     0.101 N 
HETATM   24  H15 UNL     1       6.883   2.754   0.542  1.00  0.00     0.325 HD
HETATM   25  H16 UNL     1       6.876   2.766   0.543  1.00  0.00     0.325 HD
HETATM   26  O1  UNL     1       4.362   2.516   0.170  1.00  0.00    -0.127 OA
ENDBRANCH  21  22
ENDBRANCH   7  20
TORSDOF 6
