REMARK  6 active torsions:
REMARK  status: ('A' for Active; 'I' for Inactive)
REMARK    1  A    between atoms: O1_2  and  C2_3 
REMARK    2  A    between atoms: C5_6  and  N1_7 
REMARK    3  A    between atoms: N1_7  and  N2_8 
REMARK    4  A    between atoms: N2_8  and  C6_9 
REMARK    5  A    between atoms: C6_9  and  N3_10 
REMARK    6  A    between atoms: C6_9  and  C7_12 
ROOT
HETATM    1  N2  UNL     1      -0.978   1.146   1.031  1.00  0.00    -0.209 NA
HETATM    2  H7  UNL     1      -1.448   2.070   1.105  1.00  0.00     0.149 HD
ENDROOT
BRANCH   1   3
HETATM    3  N1  UNL     1      -0.301   0.949  -0.162  1.00  0.00    -0.319 N 
HETATM    4  H6  UNL     1      -0.707   0.960  -1.122  1.00  0.00     0.181 HD
BRANCH   3   5
HETATM    5  C5  UNL     1       1.105   0.701  -0.131  1.00  0.00     0.044 A 
HETATM    6  C4  UNL     1       1.897   0.490  -1.244  1.00  0.00     0.033 A 
HETATM    7  C3  UNL     1       3.251   0.256  -1.140  1.00  0.00     0.041 A 
HETATM    8  C2  UNL     1       3.880   0.222   0.082  1.00  0.00     0.090 A 
HETATM    9  C14 UNL     1       3.144   0.425   1.219  1.00  0.00     0.069 A 
HETATM   10  C13 UNL     1       1.790   0.657   1.084  1.00  0.00     0.057 A 
HETATM   11 CL1  UNL     1       3.837   0.404   2.815  1.00  0.00    -0.081 Cl
BRANCH   8  12
HETATM   12  O1  UNL     1       5.235  -0.006   0.286  1.00  0.00    -0.354 OA
HETATM   13  C1  UNL     1       6.144  -0.236  -0.777  1.00  0.00     0.210 C 
ENDBRANCH   8  12
ENDBRANCH   3   5
ENDBRANCH   1   3
BRANCH   1  14
HETATM   14  C6  UNL     1      -1.778   0.028   1.440  1.00  0.00     0.254 C 
BRANCH  14  15
HETATM   15  N3  UNL     1      -0.903  -1.087   1.601  1.00  0.00    -0.174 NA
HETATM   16  N4  UNL     1      -0.487  -1.820   0.694  1.00  0.00    -0.207 NA
HETATM   17  H9  UNL     1       0.149  -2.597   0.969  1.00  0.00     0.211 HD
ENDBRANCH  14  15
BRANCH  14  18
HETATM   18  C7  UNL     1      -2.952  -0.225   0.601  1.00  0.00    -0.014 A 
HETATM   19  C8  UNL     1      -3.393  -1.437   0.117  1.00  0.00     0.011 A 
HETATM   20  C9  UNL     1      -4.510  -1.585  -0.668  1.00  0.00     0.004 A 
HETATM   21  C10 UNL     1      -5.205  -0.411  -0.966  1.00  0.00     0.042 A 
HETATM   22  C11 UNL     1      -4.811   0.832  -0.509  1.00  0.00     0.117 A 
HETATM   23  F1  UNL     1      -5.564   1.891  -0.863  1.00  0.00    -0.206 F 
HETATM   24  C12 UNL     1      -3.668   0.929   0.286  1.00  0.00     0.053 A 
ENDBRANCH  14  18
ENDBRANCH   1  14
TORSDOF 6
