REMARK  6 active torsions:
REMARK  status: ('A' for Active; 'I' for Inactive)
REMARK    1  A    between atoms: C7_7  and  N1_8 
REMARK    2  A    between atoms: N1_8  and  N2_9 
REMARK    3  A    between atoms: C12_15  and  O1_16 
REMARK    4  A    between atoms: O1_16  and  C13_17 
REMARK    5  A    between atoms: C13_17  and  C14_18 
REMARK    6  A    between atoms: C14_18  and  O2_19 
ROOT
HETATM    1  C1  UNL     1       5.419   1.507   1.167  1.00  0.00     0.018 C 
HETATM    2  C2  UNL     1       4.587   1.145   0.367  1.00  0.00    -0.077 C 
HETATM    3  C3  UNL     1       3.601   0.717  -0.584  1.00  0.00     0.025 A 
HETATM    4  C4  UNL     1       3.807   0.963  -1.904  1.00  0.00     0.021 A 
HETATM    5  C5  UNL     1       2.859   0.552  -2.818  1.00  0.00     0.004 A 
HETATM    6  C6  UNL     1       1.692  -0.104  -2.487  1.00  0.00     0.031 A 
HETATM    7  C7  UNL     1       1.553  -0.317  -1.135  1.00  0.00     0.056 A 
HETATM    8  C20 UNL     1       2.471   0.074  -0.188  1.00  0.00    -0.015 A 
HETATM    9  C21 UNL     1       2.307  -0.163   1.269  1.00  0.00     0.052 C 
ENDROOT
BRANCH   7  10
HETATM   10  N1  UNL     1       0.365  -0.993  -0.735  1.00  0.00    -0.292 N 
HETATM   11  H5  UNL     1      -0.375  -1.324  -1.391  1.00  0.00     0.187 HD
BRANCH  10  12
HETATM   12  N2  UNL     1      -0.302  -1.465   0.422  1.00  0.00    -0.247 N 
HETATM   13  C8  UNL     1       0.292  -2.678   0.963  1.00  0.00     0.227 C 
HETATM   14  N3  UNL     1      -0.308  -3.131   2.049  1.00  0.00    -0.272 NA
HETATM   15  C9  UNL     1      -1.745  -2.886   2.080  1.00  0.00     0.158 C 
HETATM   16  C10 UNL     1      -1.960  -1.370   2.154  1.00  0.00     0.037 C 
HETATM   17  C19 UNL     1      -2.446  -3.256   0.784  1.00  0.00     0.199 C 
HETATM   18  C11 UNL     1      -1.445  -0.827   1.041  1.00  0.00     0.091 C 
HETATM   19  C12 UNL     1      -1.776   0.312   0.170  1.00  0.00     0.119 C 
HETATM   20  C16 UNL     1      -2.910   0.460  -0.556  1.00  0.00     0.173 C 
HETATM   21  O3  UNL     1      -3.875  -0.498  -0.521  1.00  0.00    -0.358 OA
HETATM   22  C17 UNL     1      -3.874  -1.759  -1.172  1.00  0.00     0.200 C 
HETATM   23  C18 UNL     1      -4.501  -2.798  -0.230  1.00  0.00     0.194 C 
HETATM   24  O4  UNL     1      -3.754  -2.837   0.940  1.00  0.00    -0.387 OA
BRANCH  19  25
HETATM   25  O1  UNL     1      -0.764   1.264   0.161  1.00  0.00    -0.345 OA
BRANCH  25  26
HETATM   26  C13 UNL     1      -0.776   2.430  -0.606  1.00  0.00     0.202 C 
BRANCH  26  27
HETATM   27  C14 UNL     1       0.493   3.259  -0.368  1.00  0.00     0.193 C 
BRANCH  27  28
HETATM   28  O2  UNL     1       0.573   3.615   0.992  1.00  0.00    -0.394 OA
HETATM   29  C15 UNL     1       1.735   4.363   1.158  1.00  0.00     0.201 C 
ENDBRANCH  27  28
ENDBRANCH  26  27
ENDBRANCH  25  26
ENDBRANCH  19  25
ENDBRANCH  10  12
ENDBRANCH   7  10
TORSDOF 6
