REMARK  6 active torsions:
REMARK  status: ('A' for Active; 'I' for Inactive)
REMARK    1  A    between atoms: C13_15  and  O1_16 
REMARK    2  A    between atoms: O1_16  and  C14_17 
REMARK    3  A    between atoms: C14_17  and  C15_18 
REMARK    4  A    between atoms: C15_18  and  O2_19 
REMARK    5  A    between atoms: C18_23  and  C19_24 
REMARK    6  A    between atoms: C19_24  and  O4_25 
ROOT
HETATM    1  C1  UNL     1      -2.587  -2.778   3.671  1.00  0.00     0.018 C 
HETATM    2  C2  UNL     1      -2.739  -2.328   2.585  1.00  0.00    -0.074 C 
HETATM    3  C3  UNL     1      -2.903  -1.771   1.277  1.00  0.00     0.064 C 
HETATM    4  C4  UNL     1      -4.032  -1.075   1.051  1.00  0.00     0.024 C 
HETATM    5  C5  UNL     1      -4.716  -0.456  -0.092  1.00  0.00    -0.002 C 
HETATM    6  C6  UNL     1      -4.247  -0.321  -1.329  1.00  0.00    -0.021 C 
HETATM    7  C7  UNL     1      -3.029  -0.291  -2.179  1.00  0.00     0.082 C 
HETATM    8  C8  UNL     1      -1.773  -0.252  -1.382  1.00  0.00     0.021 C 
HETATM    9  N1  UNL     1      -1.319  -1.358  -0.869  1.00  0.00    -0.237 NA
HETATM   10  C9  UNL     1      -1.798  -2.041   0.318  1.00  0.00     0.163 C 
HETATM   11  N2  UNL     1      -1.306  -3.105   0.811  1.00  0.00    -0.266 NA
HETATM   12  C10 UNL     1      -0.213  -3.889   0.362  1.00  0.00     0.178 C 
HETATM   13  C11 UNL     1       1.007  -3.212  -0.046  1.00  0.00    -0.003 C 
HETATM   14  C12 UNL     1       1.780  -2.133  -0.268  1.00  0.00     0.033 C 
HETATM   15  C13 UNL     1       1.802  -0.645  -0.191  1.00  0.00     0.078 C 
HETATM   16  C17 UNL     1       0.758   0.096   0.226  1.00  0.00     0.213 C 
HETATM   17  O3  UNL     1       0.066   1.210   0.539  1.00  0.00    -0.368 OA
HETATM   18  C18 UNL     1      -1.100   1.695  -0.039  1.00  0.00     0.151 C 
HETATM   19  C21 UNL     1      -1.412   1.184  -1.410  1.00  0.00     0.089 C 
ENDROOT
BRANCH  18  20
HETATM   20  C19 UNL     1      -1.194   3.211   0.052  1.00  0.00     0.199 C 
BRANCH  20  21
HETATM   21  O4  UNL     1      -2.372   3.662  -0.536  1.00  0.00    -0.393 OA
HETATM   22  C20 UNL     1      -2.384   5.058  -0.412  1.00  0.00     0.201 C 
ENDBRANCH  20  21
ENDBRANCH  18  20
BRANCH  15  23
HETATM   23  O1  UNL     1       3.034  -0.118  -0.604  1.00  0.00    -0.351 OA
BRANCH  23  24
HETATM   24  C14 UNL     1       4.139   0.055   0.246  1.00  0.00     0.201 C 
BRANCH  24  25
HETATM   25  C15 UNL     1       5.291   0.635  -0.523  1.00  0.00     0.193 C 
BRANCH  25  26
HETATM   26  O2  UNL     1       6.433   0.846   0.222  1.00  0.00    -0.394 OA
HETATM   27  C16 UNL     1       6.966  -0.280   0.801  1.00  0.00     0.201 C 
ENDBRANCH  25  26
ENDBRANCH  24  25
ENDBRANCH  23  24
ENDBRANCH  15  23
TORSDOF 6
