REMARK  2 active torsions:
REMARK  status: ('A' for Active; 'I' for Inactive)
REMARK    1  A    between atoms: C4_6  and  O1_7 
REMARK    2  A    between atoms: O1_7  and  C5_8 
ROOT
HETATM    1  F1  UNL     1      -5.840   1.223   0.321  1.00  0.00    -0.209 F 
HETATM    2  C1  UNL     1      -4.611   0.623   0.255  1.00  0.00     0.116 C 
HETATM    3  C2  UNL     1      -3.550   1.434   0.301  1.00  0.00     0.049 C 
HETATM    4 CL1  UNL     1      -4.014   3.144   0.440  1.00  0.00    -0.086 Cl
HETATM    5  C3  UNL     1      -2.099   1.401   0.275  1.00  0.00     0.090 C 
HETATM    6  C4  UNL     1      -1.441   0.071   0.078  1.00  0.00     0.158 C 
HETATM    7  C13 UNL     1      -2.112  -0.763  -0.953  1.00  0.00     0.025 C 
HETATM    8  C14 UNL     1      -3.406  -1.139  -0.894  1.00  0.00     0.017 C 
HETATM    9 CL2  UNL     1      -3.911  -2.132  -2.276  1.00  0.00    -0.089 Cl
HETATM   10  C15 UNL     1      -4.430  -0.843   0.140  1.00  0.00     0.122 C 
ENDROOT
BRANCH   6  11
HETATM   11  O1  UNL     1      -0.135   0.349  -0.392  1.00  0.00    -0.342 OA
BRANCH  11  12
HETATM   12  C5  UNL     1       1.034  -0.053   0.186  1.00  0.00     0.070 A 
HETATM   13  C6  UNL     1       1.287  -0.797   1.319  1.00  0.00     0.039 A 
HETATM   14  C7  UNL     1       2.578  -1.082   1.712  1.00  0.00     0.035 A 
HETATM   15  C8  UNL     1       3.643  -0.620   0.968  1.00  0.00     0.062 A 
HETATM   16  C9  UNL     1       3.445   0.129  -0.174  1.00  0.00    -0.022 A 
HETATM   17  N1  UNL     1       5.034  -0.802   1.201  1.00  0.00    -0.264 NA
HETATM   18  C10 UNL     1       2.132   0.404  -0.551  1.00  0.00     0.046 A 
HETATM   19  C11 UNL     1       4.791   0.444  -0.702  1.00  0.00     0.088 A 
HETATM   20  C12 UNL     1       5.699  -0.212   0.273  1.00  0.00     0.095 A 
ENDBRANCH  11  12
ENDBRANCH   6  11
TORSDOF 2
