REMARK  2 active torsions:
REMARK  status: ('A' for Active; 'I' for Inactive)
REMARK    1  A    between atoms: C2_3  and  C3_4 
REMARK    2  A    between atoms: C4_5  and  C5_6 
ROOT
HETATM    1  C5  UNL     1       0.172   0.448  -0.726  1.00  0.00     0.103 C 
HETATM    2 CL1  UNL     1      -0.371   0.175  -2.423  1.00  0.00    -0.105 Cl
HETATM    3  C6  UNL     1      -0.065   1.841  -0.282  1.00  0.00     0.008 C 
HETATM    4  C7  UNL     1      -0.967   2.639   0.250  1.00  0.00    -0.003 C 
HETATM    5  C8  UNL     1      -2.306   2.696   0.748  1.00  0.00     0.007 C 
HETATM    6  C9  UNL     1      -3.517   2.356   1.094  1.00  0.00     0.176 C 
HETATM    7  O1  UNL     1      -3.525   1.009   0.737  1.00  0.00    -0.379 OA
HETATM    8  C10 UNL     1      -3.279   0.556  -0.591  1.00  0.00     0.173 C 
HETATM    9  C11 UNL     1      -2.825  -0.866  -0.621  1.00  0.00     0.065 C 
HETATM   10  C12 UNL     1      -1.652  -1.108   0.254  1.00  0.00    -0.044 A 
HETATM   11  C13 UNL     1      -1.912  -2.038   1.260  1.00  0.00     0.008 A 
HETATM   12  C14 UNL     1      -1.032  -2.459   2.236  1.00  0.00     0.004 A 
HETATM   13  C15 UNL     1       0.237  -1.894   2.203  1.00  0.00     0.043 A 
HETATM   14  C16 UNL     1       0.487  -0.973   1.200  1.00  0.00     0.125 A 
HETATM   15  F1  UNL     1       1.763  -0.478   1.264  1.00  0.00    -0.205 F 
HETATM   16  C17 UNL     1      -0.407  -0.544   0.207  1.00  0.00     0.018 A 
ENDROOT
BRANCH   1  17
HETATM   17  C4  UNL     1       1.676   0.264  -0.796  1.00  0.00     0.009 C 
HETATM   18  C3  UNL     1       2.101  -0.827  -1.397  1.00  0.00     0.017 C 
BRANCH  18  19
HETATM   19  C2  UNL     1       3.556  -1.035  -1.482  1.00  0.00     0.109 C 
HETATM   20  N1  UNL     1       4.189  -0.060  -0.922  1.00  0.00    -0.306 NA
HETATM   21  C1  UNL     1       5.636  -0.034  -0.875  1.00  0.00     0.177 C 
ENDBRANCH  18  19
ENDBRANCH   1  17
TORSDOF 2
