REMARK  4 active torsions:
REMARK  status: ('A' for Active; 'I' for Inactive)
REMARK    1  A    between atoms: C2_2  and  C3_3 
REMARK    2  A    between atoms: C8_9  and  O1_10 
REMARK    3  A    between atoms: O1_10  and  C9_11 
REMARK    4  A    between atoms: C9_11  and  C11_13 
ROOT
HETATM    1  C9  UNL     1      -0.779  -0.710  -0.442  1.00  0.00     0.155 C 
HETATM    2  C10 UNL     1      -2.191  -0.275  -0.811  1.00  0.00     0.045 C 
ENDROOT
BRANCH   1   3
HETATM    3  O1  UNL     1      -0.128   0.193   0.376  1.00  0.00    -0.366 OA
BRANCH   3   4
HETATM    4  C8  UNL     1       0.994   0.659  -0.283  1.00  0.00     0.197 A 
HETATM    5  C4  UNL     1       1.045   2.138  -0.403  1.00  0.00     0.066 A 
HETATM    6  C3  UNL     1       0.104   2.835  -1.013  1.00  0.00     0.029 C 
HETATM    7  N1  UNL     1       2.128   2.873   0.150  1.00  0.00    -0.263 NA
HETATM    8  C5  UNL     1       3.107   2.317   0.781  1.00  0.00     0.117 A 
HETATM    9  C6  UNL     1       3.162   0.880   0.966  1.00  0.00     0.018 A 
HETATM   10  C7  UNL     1       2.173   0.151   0.464  1.00  0.00     0.012 A 
BRANCH   6  11
HETATM   11  C2  UNL     1       0.208   4.286  -1.091  1.00  0.00    -0.008 C 
HETATM   12  C1  UNL     1      -0.737   5.017  -1.707  1.00  0.00     0.011 C 
ENDBRANCH   6  11
ENDBRANCH   3   4
ENDBRANCH   1   3
BRANCH   1  13
HETATM   13  C11 UNL     1      -0.894  -2.052   0.205  1.00  0.00     0.017 A 
HETATM   14  C12 UNL     1      -1.078  -2.231   1.571  1.00  0.00     0.044 A 
HETATM   15 CL1  UNL     1      -1.180  -0.793   2.595  1.00  0.00    -0.084 Cl
HETATM   16  C13 UNL     1      -1.182  -3.478   2.151  1.00  0.00     0.028 A 
HETATM   17  C14 UNL     1      -1.100  -4.589   1.338  1.00  0.00     0.046 A 
HETATM   18  C15 UNL     1      -0.919  -4.506  -0.024  1.00  0.00     0.138 A 
HETATM   19  F1  UNL     1      -0.838  -5.590  -0.831  1.00  0.00    -0.204 F 
HETATM   20  C16 UNL     1      -0.827  -3.243  -0.512  1.00  0.00     0.083 A 
HETATM   21 CL2  UNL     1      -0.592  -3.027  -2.254  1.00  0.00    -0.080 Cl
ENDBRANCH   1  13
TORSDOF 4
