REMARK  4 active torsions:
REMARK  status: ('A' for Active; 'I' for Inactive)
REMARK       I    between atoms: N1_1  and  C1_2 
REMARK    1  A    between atoms: C1_2  and  C2_4 
REMARK    2  A    between atoms: C3_5  and  C4_6 
REMARK    3  A    between atoms: C8_10  and  O2_11 
REMARK    4  A    between atoms: O2_11  and  C9_12 
ROOT
HETATM    1  C4  UNL     1       2.748  -0.591   2.062  1.00  0.00    -0.018 A 
HETATM    2  C5  UNL     1       2.092   0.090   1.032  1.00  0.00     0.026 A 
HETATM    3  C6  UNL     1       0.828  -0.363   0.739  1.00  0.00    -0.004 A 
HETATM    4  C7  UNL     1       0.188   0.323  -0.299  1.00  0.00     0.050 A 
HETATM    5  C8  UNL     1      -1.101   0.003  -0.742  1.00  0.00     0.071 A 
HETATM    6  C16 UNL     1      -1.678  -1.045  -0.065  1.00  0.00     0.039 A 
HETATM    7  C17 UNL     1      -1.125  -1.769   0.957  1.00  0.00     0.035 A 
HETATM    8  C18 UNL     1       0.150  -1.395   1.340  1.00  0.00     0.067 A 
HETATM    9  N2  UNL     1       0.820  -2.038   2.343  1.00  0.00    -0.260 NA
HETATM   10  C19 UNL     1       2.075  -1.641   2.683  1.00  0.00     0.128 A 
ENDROOT
BRANCH   5  11
HETATM   11  O2  UNL     1      -1.641   0.737  -1.771  1.00  0.00    -0.336 OA
BRANCH  11  12
HETATM   12  C9  UNL     1      -2.887   0.552  -2.324  1.00  0.00     0.201 C 
HETATM   13  C10 UNL     1      -2.819   0.209  -3.793  1.00  0.00     0.035 C 
HETATM   14  C11 UNL     1      -3.661   0.224  -4.808  1.00  0.00     0.033 C 
HETATM   15 CL1  UNL     1      -3.108  -0.284  -6.401  1.00  0.00    -0.085 Cl
HETATM   16  C12 UNL     1      -5.057   0.642  -4.712  1.00  0.00     0.026 C 
HETATM   17  C13 UNL     1      -5.592   1.459  -3.822  1.00  0.00     0.045 C 
HETATM   18  C14 UNL     1      -4.917   2.146  -2.715  1.00  0.00     0.137 C 
HETATM   19  F1  UNL     1      -5.479   3.290  -2.261  1.00  0.00    -0.205 F 
HETATM   20  C15 UNL     1      -3.793   1.739  -2.116  1.00  0.00     0.083 C 
HETATM   21 CL2  UNL     1      -3.257   2.774  -0.835  1.00  0.00    -0.083 Cl
ENDBRANCH  11  12
ENDBRANCH   5  11
BRANCH   1  22
HETATM   22  C3  UNL     1       4.086  -0.311   2.565  1.00  0.00     0.018 C 
HETATM   23  C2  UNL     1       4.822  -0.864   3.493  1.00  0.00     0.075 C 
BRANCH  23  24
HETATM   24  C1  UNL     1       6.144  -0.363   3.781  1.00  0.00     0.238 C 
HETATM   25  N1  UNL     1       7.346   0.301   3.852  1.00  0.00    -0.367 N 
HETATM   26  H1  UNL     1       7.537   1.135   4.458  1.00  0.00     0.159 HD
HETATM   27  H2  UNL     1       8.200   0.019   3.276  1.00  0.00     0.159 HD
HETATM   28  O1  UNL     1       6.545  -1.145   4.728  1.00  0.00    -0.269 OA
ENDBRANCH  23  24
ENDBRANCH   1  22
TORSDOF 4
