REMARK  6 active torsions:
REMARK  status: ('A' for Active; 'I' for Inactive)
REMARK    1  A    between atoms: O1_2  and  C2_3 
REMARK    2  A    between atoms: C10_13  and  N2_14 
REMARK    3  A    between atoms: N2_14  and  C11_15 
REMARK    4  A    between atoms: C12_16  and  C13_17 
REMARK    5  A    between atoms: C14_18  and  C15_19 
REMARK    6  A    between atoms: C15_19  and  C16_20 
ROOT
HETATM    1  C2  UNL     1      -5.341   0.506   0.178  1.00  0.00     0.074 A 
HETATM    2  C3  UNL     1      -4.254   0.544  -0.656  1.00  0.00     0.049 A 
HETATM    3  C4  UNL     1      -3.049  -0.034  -0.313  1.00  0.00    -0.004 A 
HETATM    4  C5  UNL     1      -2.994  -0.663   0.936  1.00  0.00     0.086 A 
HETATM    5  C6  UNL     1      -4.063  -0.723   1.806  1.00  0.00     0.047 A 
HETATM    6  C7  UNL     1      -5.267  -0.126   1.421  1.00  0.00    -0.026 A 
HETATM    7  C8  UNL     1      -6.376  -0.227   2.402  1.00  0.00     0.051 C 
HETATM    8  O2  UNL     1      -1.863  -1.306   1.467  1.00  0.00    -0.289 OA
HETATM    9  C9  UNL     1      -0.503  -0.993   1.278  1.00  0.00     0.203 A 
HETATM   10  N1  UNL     1       0.708  -1.136   1.701  1.00  0.00    -0.202 NA
HETATM   11  C10 UNL     1       1.231  -0.314   0.642  1.00  0.00     0.161 A 
HETATM   12  C17 UNL     1       0.012  -0.147   0.183  1.00  0.00     0.129 A 
HETATM   13  N3  UNL     1      -0.722   0.499  -0.861  1.00  0.00    -0.379 N 
HETATM   14  C18 UNL     1      -2.039   0.142  -1.378  1.00  0.00     0.161 C 
HETATM   15  H18 UNL     1      -0.218   1.332  -1.284  1.00  0.00     0.160 HD
ENDROOT
BRANCH  11  16
HETATM   16  N2  UNL     1       2.547   0.106   0.294  1.00  0.00    -0.349 N 
HETATM   17  H9  UNL     1       2.641   0.849  -0.434  1.00  0.00     0.167 HD
BRANCH  16  18
HETATM   18  C11 UNL     1       3.684  -0.473   0.923  1.00  0.00     0.090 C 
HETATM   19  C12 UNL     1       4.851  -0.643   0.301  1.00  0.00     0.017 C 
BRANCH  19  20
HETATM   20  C13 UNL     1       4.975  -0.221  -1.086  1.00  0.00    -0.003 C 
HETATM   21  C14 UNL     1       6.112  -0.370  -1.743  1.00  0.00    -0.026 C 
BRANCH  21  22
HETATM   22  C15 UNL     1       7.410  -0.932  -1.318  1.00  0.00     0.038 C 
BRANCH  22  23
HETATM   23  C16 UNL     1       8.460   0.150  -1.460  1.00  0.00     0.089 C 
HETATM   24 BR1  UNL     1       8.527   0.699  -3.317  1.00  0.00    -0.096 Br
ENDBRANCH  22  23
ENDBRANCH  21  22
ENDBRANCH  19  20
ENDBRANCH  16  18
ENDBRANCH  11  16
BRANCH   1  25
HETATM   25  O1  UNL     1      -6.596   1.042  -0.045  1.00  0.00    -0.355 OA
HETATM   26  C1  UNL     1      -6.823   1.715  -1.266  1.00  0.00     0.210 C 
ENDBRANCH   1  25
TORSDOF 6
