REMARK  4 active torsions:
REMARK  status: ('A' for Active; 'I' for Inactive)
REMARK    1  A    between atoms: C7_9  and  O1_11 
REMARK    2  A    between atoms: O1_11  and  C9_12 
REMARK    3  A    between atoms: C14_18  and  C15_19 
REMARK    4  A    between atoms: C16_20  and  C17_21 
REMARK       I    between atoms: C17_21  and  N2_22 
ROOT
HETATM    1  C9  UNL     1      -0.677  -1.357  -0.464  1.00  0.00     0.071 A 
HETATM    2  C10 UNL     1      -0.116  -1.736  -1.678  1.00  0.00     0.039 A 
HETATM    3  C11 UNL     1       1.200  -1.441  -2.000  1.00  0.00     0.035 A 
HETATM    4  C12 UNL     1       1.911  -0.755  -1.054  1.00  0.00     0.067 A 
HETATM    5  N1  UNL     1       3.200  -0.421  -1.273  1.00  0.00    -0.260 NA
HETATM    6  C13 UNL     1       3.921   0.250  -0.364  1.00  0.00     0.128 A 
HETATM    7  C14 UNL     1       3.462   0.671   0.864  1.00  0.00    -0.018 A 
HETATM    8  C18 UNL     1       2.146   0.322   1.072  1.00  0.00     0.026 A 
HETATM    9  C19 UNL     1       1.387  -0.365   0.156  1.00  0.00    -0.004 A 
HETATM   10  C20 UNL     1       0.081  -0.656   0.481  1.00  0.00     0.050 A 
ENDROOT
BRANCH   1  11
HETATM   11  O1  UNL     1      -1.970  -1.631  -0.113  1.00  0.00    -0.334 OA
BRANCH  11  12
HETATM   12  C7  UNL     1      -3.038  -0.743  -0.407  1.00  0.00     0.108 A 
HETATM   13  C2  UNL     1      -4.323  -1.333   0.108  1.00  0.00     0.086 A 
HETATM   14  C1  UNL     1      -5.308  -1.699  -0.984  1.00  0.00     0.041 C 
HETATM   15 CL1  UNL     1      -3.929  -2.796   1.083  1.00  0.00    -0.112 Cl
HETATM   16  C3  UNL     1      -4.918  -0.373   1.069  1.00  0.00     0.003 A 
HETATM   17  C4  UNL     1      -4.671   0.810   1.597  1.00  0.00     0.021 A 
HETATM   18  C5  UNL     1      -3.427   1.374   1.095  1.00  0.00     0.033 A 
HETATM   19 CL2  UNL     1      -2.836   2.918   1.607  1.00  0.00    -0.085 Cl
HETATM   20  C6  UNL     1      -2.834   0.577   0.231  1.00  0.00     0.037 A 
HETATM   21  C8  UNL     1      -3.177  -0.561  -1.910  1.00  0.00     0.053 C 
ENDBRANCH  11  12
ENDBRANCH   1  11
BRANCH   7  22
HETATM   22  C15 UNL     1       4.229   1.390   1.841  1.00  0.00     0.018 C 
HETATM   23  C16 UNL     1       5.457   1.830   1.892  1.00  0.00     0.075 C 
BRANCH  23  24
HETATM   24  C17 UNL     1       6.676   1.876   1.107  1.00  0.00     0.238 C 
HETATM   25  N2  UNL     1       7.337   1.523  -0.122  1.00  0.00    -0.367 N 
HETATM   26  H15 UNL     1       7.363   2.120  -1.002  1.00  0.00     0.159 HD
HETATM   27  H16 UNL     1       7.872   0.621  -0.299  1.00  0.00     0.159 HD
HETATM   28  O2  UNL     1       7.735   2.411   1.482  1.00  0.00    -0.269 OA
ENDBRANCH  23  24
ENDBRANCH   7  22
TORSDOF 4
