REMARK  3 active torsions:
REMARK  status: ('A' for Active; 'I' for Inactive)
REMARK    1  A    between atoms: O1_2  and  C2_3 
REMARK    2  A    between atoms: C7_8  and  O2_9 
REMARK    3  A    between atoms: N2_15  and  C11_16 
ROOT
HETATM    1  C2  UNL     1      -4.197  -0.328  -0.210  1.00  0.00     0.102 A 
HETATM    2  C3  UNL     1      -3.154  -1.222  -0.004  1.00  0.00     0.051 A 
HETATM    3  C4  UNL     1      -1.868  -0.794   0.292  1.00  0.00    -0.004 A 
HETATM    4  C5  UNL     1      -1.602   0.556   0.389  1.00  0.00     0.081 A 
HETATM    5  C6  UNL     1      -2.656   1.451   0.181  1.00  0.00     0.077 A 
HETATM    6  C7  UNL     1      -3.937   1.038  -0.114  1.00  0.00     0.104 A 
HETATM    7  O3  UNL     1      -0.405   1.150   0.670  1.00  0.00    -0.334 OA
HETATM    8  C9  UNL     1       0.655   0.673   1.451  1.00  0.00     0.221 A 
HETATM    9  C10 UNL     1       1.738   1.680   1.596  1.00  0.00     0.150 A 
HETATM   10  N1  UNL     1       2.955   1.496   1.207  1.00  0.00    -0.181 NA
HETATM   11  N2  UNL     1       3.363   0.296   0.599  1.00  0.00    -0.244 N 
HETATM   12  C16 UNL     1       2.442  -0.767   0.389  1.00  0.00     0.146 A 
HETATM   13  C17 UNL     1       1.204  -0.542   0.800  1.00  0.00     0.058 A 
HETATM   14  N3  UNL     1       0.390  -1.701   0.524  1.00  0.00    -0.385 N 
HETATM   15  C18 UNL     1      -1.020  -2.006   0.445  1.00  0.00     0.161 C 
HETATM   16  H16 UNL     1       0.984  -2.561   0.325  1.00  0.00     0.159 HD
ENDROOT
BRANCH  11  17
HETATM   17  C11 UNL     1       4.714   0.150   0.191  1.00  0.00     0.055 A 
HETATM   18  C12 UNL     1       5.688   1.033   0.347  1.00  0.00     0.010 A 
HETATM   19  C13 UNL     1       6.995   0.554  -0.201  1.00  0.00     0.075 A 
HETATM   20  C14 UNL     1       6.592  -0.792  -0.711  1.00  0.00    -0.006 A 
HETATM   21 BR1  UNL     1       7.932  -1.870  -1.539  1.00  0.00    -0.055 Br
HETATM   22  C15 UNL     1       5.298  -1.003  -0.480  1.00  0.00     0.046 A 
ENDBRANCH  11  17
BRANCH   6  23
HETATM   23  O2  UNL     1      -5.004   1.876  -0.326  1.00  0.00    -0.353 OA
HETATM   24  C8  UNL     1      -5.004   3.270  -0.287  1.00  0.00     0.210 C 
ENDBRANCH   6  23
BRANCH   1  25
HETATM   25  O1  UNL     1      -5.478  -0.783  -0.506  1.00  0.00    -0.353 OA
HETATM   26  C1  UNL     1      -5.686  -2.176  -0.591  1.00  0.00     0.210 C 
ENDBRANCH   1  25
TORSDOF 3
