REMARK  5 active torsions:
REMARK  status: ('A' for Active; 'I' for Inactive)
REMARK    1  A    between atoms: C5_5  and  C6_6 
REMARK    2  A    between atoms: C8_8  and  C9_9 
REMARK       I    between atoms: C9_9  and  N1_11 
REMARK    3  A    between atoms: N1_11  and  O2_12 
REMARK    4  A    between atoms: O2_12  and  C10_13 
REMARK    5  A    between atoms: C10_13  and  C12_15 
ROOT
HETATM    1  C9  UNL     1       1.213  -0.289  -0.067  1.00  0.00     0.246 C 
HETATM    2  O1  UNL     1       1.758   0.853  -0.228  1.00  0.00    -0.271 OA
HETATM    3  N1  UNL     1       1.888  -1.451  -0.467  1.00  0.00    -0.234 N 
HETATM    4  H9  UNL     1       1.390  -2.354  -0.309  1.00  0.00     0.197 HD
ENDROOT
BRANCH   1   5
HETATM    5  C8  UNL     1      -0.139  -0.312   0.550  1.00  0.00     0.089 A 
HETATM    6  C6  UNL     1      -1.075   0.818   0.327  1.00  0.00     0.034 A 
HETATM    7  C7  UNL     1      -0.328   0.726   1.625  1.00  0.00     0.025 A 
BRANCH   6   8
HETATM    8  C5  UNL     1      -2.530   0.491   0.383  1.00  0.00    -0.035 A 
HETATM    9  C4  UNL     1      -3.557   1.049  -0.355  1.00  0.00     0.025 A 
HETATM   10  C3  UNL     1      -4.849   0.614  -0.163  1.00  0.00     0.022 A 
HETATM   11  C2  UNL     1      -5.802   1.176  -0.891  1.00  0.00     0.055 A 
HETATM   12  C19 UNL     1      -5.139  -0.376   0.759  1.00  0.00     0.067 A 
HETATM   13  C1  UNL     1      -5.425   2.235  -1.865  1.00  0.00     0.077 C 
HETATM   14  O3  UNL     1      -7.129   0.788  -0.752  1.00  0.00    -0.351 OA
HETATM   15  C21 UNL     1      -7.532  -0.206   0.153  1.00  0.00     0.205 A 
HETATM   16  C20 UNL     1      -6.391  -0.769   0.917  1.00  0.00     0.032 A 
HETATM   17  N2  UNL     1      -4.162  -0.927   1.480  1.00  0.00    -0.260 NA
HETATM   18  C18 UNL     1      -2.893  -0.503   1.295  1.00  0.00     0.124 A 
ENDBRANCH   6   8
ENDBRANCH   1   5
BRANCH   3  19
HETATM   19  O2  UNL     1       3.109  -1.541  -1.033  1.00  0.00    -0.268 OA
BRANCH  19  20
HETATM   20  C10 UNL     1       4.146  -1.668  -0.141  1.00  0.00     0.184 C 
HETATM   21  C11 UNL     1       4.875  -2.983  -0.262  1.00  0.00     0.047 C 
BRANCH  20  22
HETATM   22  C12 UNL     1       5.034  -0.497  -0.218  1.00  0.00     0.019 A 
HETATM   23  C13 UNL     1       5.321   0.098  -1.429  1.00  0.00     0.044 A 
HETATM   24 CL1  UNL     1       4.627  -0.537  -2.910  1.00  0.00    -0.084 Cl
HETATM   25  C14 UNL     1       6.157   1.210  -1.561  1.00  0.00     0.028 A 
HETATM   26  C15 UNL     1       6.712   1.722  -0.403  1.00  0.00     0.046 A 
HETATM   27  C16 UNL     1       6.455   1.160   0.838  1.00  0.00     0.138 A 
HETATM   28  F1  UNL     1       6.982   1.638   1.985  1.00  0.00    -0.204 F 
HETATM   29  C17 UNL     1       5.623   0.062   0.920  1.00  0.00     0.083 A 
HETATM   30 CL2  UNL     1       5.252  -0.701   2.460  1.00  0.00    -0.080 Cl
ENDBRANCH  20  22
ENDBRANCH  19  20
ENDBRANCH   3  19
TORSDOF 5
