REMARK  4 active torsions:
REMARK  status: ('A' for Active; 'I' for Inactive)
REMARK    1  A    between atoms: C2_2  and  O1_3 
REMARK    2  A    between atoms: C2_2  and  C15_19 
REMARK    3  A    between atoms: O1_3  and  C3_4 
REMARK    4  A    between atoms: C13_15  and  C14_16 
REMARK       I    between atoms: C14_16  and  N2_17 
ROOT
HETATM    1  C3  UNL     1       1.120   1.078   0.476  1.00  0.00     0.070 A 
HETATM    2  C4  UNL     1       0.747   2.365   0.808  1.00  0.00     0.039 A 
HETATM    3  C5  UNL     1      -0.496   2.612   1.355  1.00  0.00     0.035 A 
HETATM    4  C6  UNL     1      -1.350   1.549   1.559  1.00  0.00     0.062 A 
HETATM    5  C7  UNL     1      -1.007   0.252   1.237  1.00  0.00    -0.026 A 
HETATM    6  C8  UNL     1       0.242   0.017   0.690  1.00  0.00     0.046 A 
HETATM    7  C9  UNL     1      -1.810  -0.964   1.400  1.00  0.00     0.057 A 
HETATM    8  C10 UNL     1      -3.153  -0.693   1.990  1.00  0.00     0.010 A 
HETATM    9  C11 UNL     1      -3.401   0.729   2.290  1.00  0.00     0.101 A 
HETATM   10  N1  UNL     1      -2.647   1.762   2.123  1.00  0.00    -0.264 NA
HETATM   11  C12 UNL     1      -3.865  -1.703   2.807  1.00  0.00     0.030 A 
HETATM   12  C13 UNL     1      -4.359  -1.429   1.439  1.00  0.00     0.087 A 
ENDROOT
BRANCH   1  13
HETATM   13  O1  UNL     1       2.398   0.990  -0.063  1.00  0.00    -0.342 OA
BRANCH  13  14
HETATM   14  C2  UNL     1       3.043  -0.164  -0.489  1.00  0.00     0.161 C 
HETATM   15  C1  UNL     1       4.330  -0.298   0.319  1.00  0.00     0.045 C 
BRANCH  14  16
HETATM   16  C15 UNL     1       3.479  -0.051  -1.923  1.00  0.00     0.017 A 
HETATM   17  C16 UNL     1       3.744   1.181  -2.505  1.00  0.00     0.044 A 
HETATM   18 CL1  UNL     1       3.557   2.628  -1.519  1.00  0.00    -0.084 Cl
HETATM   19  C17 UNL     1       4.145   1.294  -3.819  1.00  0.00     0.028 A 
HETATM   20  C18 UNL     1       4.290   0.158  -4.587  1.00  0.00     0.046 A 
HETATM   21  C19 UNL     1       4.027  -1.081  -4.014  1.00  0.00     0.138 A 
HETATM   22  F1  UNL     1       4.151  -2.238  -4.717  1.00  0.00    -0.204 F 
HETATM   23  C20 UNL     1       3.627  -1.176  -2.699  1.00  0.00     0.083 A 
HETATM   24 CL2  UNL     1       3.302  -2.761  -2.002  1.00  0.00    -0.080 Cl
ENDBRANCH  14  16
ENDBRANCH  13  14
ENDBRANCH   1  13
BRANCH  12  25
HETATM   25  C14 UNL     1      -5.613  -0.686   1.178  1.00  0.00     0.200 C 
HETATM   26  N2  UNL     1      -6.394  -0.947   0.008  1.00  0.00    -0.272 NA
HETATM   27  H14 UNL     1      -6.416  -0.319  -0.827  1.00  0.00     0.127 HD
HETATM   28  H15 UNL     1      -6.408  -0.314  -0.819  1.00  0.00     0.127 HD
HETATM   29  O2  UNL     1      -6.334   0.225   1.703  1.00  0.00    -0.280 OA
ENDBRANCH  12  25
TORSDOF 4
