REMARK  6 active torsions:
REMARK  status: ('A' for Active; 'I' for Inactive)
REMARK       I    between atoms: N1_1  and  C1_2 
REMARK    1  A    between atoms: C1_2  and  C2_4 
REMARK    2  A    between atoms: C4_6  and  C5_7 
REMARK    3  A    between atoms: C10_13  and  O2_14 
REMARK    4  A    between atoms: O2_14  and  C11_15 
REMARK    5  A    between atoms: C11_15  and  C12_16 
REMARK    6  A    between atoms: C12_16  and  C13_17 
ROOT
HETATM    1  C5  UNL     1      -3.809   0.219  -0.035  1.00  0.00    -0.035 A 
HETATM    2  C6  UNL     1      -3.726   1.585   0.115  1.00  0.00     0.124 A 
HETATM    3  N2  UNL     1      -2.506   2.117   0.343  1.00  0.00    -0.260 NA
HETATM    4  C7  UNL     1      -1.407   1.329   0.420  1.00  0.00     0.067 A 
HETATM    5  C8  UNL     1      -0.223   1.993   0.657  1.00  0.00     0.035 A 
HETATM    6  C9  UNL     1       0.911   1.220   0.741  1.00  0.00     0.039 A 
HETATM    7  C10 UNL     1       0.982  -0.145   0.613  1.00  0.00     0.069 A 
HETATM    8  C19 UNL     1      -0.255  -0.763   0.373  1.00  0.00     0.050 A 
HETATM    9  C20 UNL     1      -1.451  -0.045   0.275  1.00  0.00    -0.004 A 
HETATM   10  C21 UNL     1      -2.694  -0.586   0.043  1.00  0.00     0.023 A 
ENDROOT
BRANCH   7  11
HETATM   11  O2  UNL     1       1.936  -1.088   0.652  1.00  0.00    -0.351 OA
BRANCH  11  12
HETATM   12  C11 UNL     1       3.313  -1.034   0.841  1.00  0.00     0.180 C 
BRANCH  12  13
HETATM   13  C12 UNL     1       4.007  -0.261  -0.222  1.00  0.00     0.069 C 
BRANCH  13  14
HETATM   14  C13 UNL     1       5.489  -0.205  -0.018  1.00  0.00    -0.010 A 
HETATM   15  C14 UNL     1       6.350  -1.252  -0.280  1.00  0.00     0.042 A 
HETATM   16 CL1  UNL     1       5.645  -2.735  -0.894  1.00  0.00    -0.084 Cl
HETATM   17  C15 UNL     1       7.706  -1.129  -0.066  1.00  0.00     0.027 A 
HETATM   18  C16 UNL     1       8.264   0.034   0.415  1.00  0.00     0.046 A 
HETATM   19  C17 UNL     1       7.431   1.099   0.688  1.00  0.00     0.138 A 
HETATM   20  F1  UNL     1       7.915   2.273   1.164  1.00  0.00    -0.204 F 
HETATM   21  C18 UNL     1       6.079   0.964   0.470  1.00  0.00     0.080 A 
HETATM   22 CL2  UNL     1       4.999   2.320   0.813  1.00  0.00    -0.080 Cl
ENDBRANCH  13  14
ENDBRANCH  12  13
ENDBRANCH  11  12
ENDBRANCH   7  11
BRANCH   1  23
HETATM   23  C4  UNL     1      -5.144  -0.340  -0.281  1.00  0.00     0.033 A 
HETATM   24  C2  UNL     1      -6.368   0.403   0.120  1.00  0.00     0.081 A 
HETATM   25  C3  UNL     1      -5.951   0.473  -1.322  1.00  0.00     0.024 A 
BRANCH  24  26
HETATM   26  C1  UNL     1      -7.630  -0.330   0.361  1.00  0.00     0.199 C 
HETATM   27  N1  UNL     1      -7.885  -1.514  -0.420  1.00  0.00    -0.272 NA
HETATM   28  H1  UNL     1      -8.080  -2.309   0.226  1.00  0.00     0.127 HD
HETATM   29  H2  UNL     1      -8.107  -2.451  -0.042  1.00  0.00     0.127 HD
HETATM   30  O1  UNL     1      -8.484   0.039   1.219  1.00  0.00    -0.280 OA
ENDBRANCH  24  26
ENDBRANCH   1  23
TORSDOF 6
