REMARK  8 active torsions:
REMARK  status: ('A' for Active; 'I' for Inactive)
REMARK    1  A    between atoms: C2_2  and  C3_3 
REMARK    2  A    between atoms: C2_2  and  O1_12 
REMARK    3  A    between atoms: C4_4  and  B1_6 
REMARK    4  A    between atoms: C7_9  and  C8_10 
REMARK    5  A    between atoms: O1_12  and  C9_13 
REMARK    6  A    between atoms: C14_19  and  C15_20 
REMARK    7  A    between atoms: C15_20  and  C16_21 
REMARK    8  A    between atoms: C16_21  and  C18_23 
REMARK       I    between atoms: C18_23  and  N2_24 
ROOT
HETATM    1  C9  UNL     1       0.504  -0.622  -0.454  1.00  0.00     0.070 A 
HETATM    2  C10 UNL     1       0.710   0.263   0.571  1.00  0.00     0.039 A 
HETATM    3  C11 UNL     1      -0.283   1.085   1.051  1.00  0.00     0.035 A 
HETATM    4  C12 UNL     1      -1.499   0.938   0.414  1.00  0.00     0.067 A 
HETATM    5  N1  UNL     1      -2.529   1.692   0.816  1.00  0.00    -0.260 NA
HETATM    6  C13 UNL     1      -3.745   1.641   0.293  1.00  0.00     0.124 A 
HETATM    7  C14 UNL     1      -4.128   0.815  -0.731  1.00  0.00    -0.039 A 
HETATM    8  C19 UNL     1      -3.028   0.041  -1.131  1.00  0.00     0.022 A 
HETATM    9  C20 UNL     1      -1.751   0.062  -0.618  1.00  0.00    -0.004 A 
HETATM   10  C21 UNL     1      -0.743  -0.759  -1.090  1.00  0.00     0.050 A 
ENDROOT
BRANCH   1  11
HETATM   11  O1  UNL     1       1.431  -1.472  -0.989  1.00  0.00    -0.343 OA
BRANCH  11  12
HETATM   12  C2  UNL     1       2.736  -1.720  -0.495  1.00  0.00     0.161 C 
HETATM   13  C1  UNL     1       3.396  -2.866  -1.175  1.00  0.00     0.043 C 
BRANCH  12  14
HETATM   14  C3  UNL     1       3.563  -0.462  -0.553  1.00  0.00     0.205 A 
HETATM   15  C4  UNL     1       4.732  -0.293   0.095  1.00  0.00     0.029 A 
HETATM   16  F1  UNL     1       4.217  -1.525   0.327  1.00  0.00    -0.374 F 
BRANCH  15  17
HETATM   17  B1  UNL     1       6.046  -0.292   0.889  1.00  0.00     0.276 B 
HETATM   18  C5  UNL     1       7.438  -0.640   0.358  1.00  0.00    -0.071 A 
HETATM   19  C6  UNL     1       8.229   0.324   0.886  1.00  0.00    -0.040 A 
HETATM   20  C7  UNL     1       7.289   1.132   1.651  1.00  0.00     0.016 A 
HETATM   21  H6  UNL     1       5.898  -0.469   2.095  1.00  0.00    -0.005 HD
BRANCH  20  22
HETATM   22  C8  UNL     1       7.605   2.221   2.385  1.00  0.00     0.191 C 
HETATM   23 CL1  UNL     1       7.464   3.608   3.419  1.00  0.00    -0.235 Cl
ENDBRANCH  20  22
ENDBRANCH  15  17
ENDBRANCH  12  14
ENDBRANCH  11  12
ENDBRANCH   1  11
BRANCH   7  24
HETATM   24  C15 UNL     1      -5.407   0.592  -1.449  1.00  0.00     0.053 C 
BRANCH  24  25
HETATM   25  C16 UNL     1      -6.287  -0.409  -0.700  1.00  0.00     0.078 C 
HETATM   26  C17 UNL     1      -7.567  -0.661  -1.515  1.00  0.00     0.020 C 
BRANCH  25  27
HETATM   27  C18 UNL     1      -6.787   0.234   0.547  1.00  0.00     0.219 C 
HETATM   28  N2  UNL     1      -7.275   0.724   1.807  1.00  0.00    -0.370 N 
HETATM   29  H20 UNL     1      -8.298   0.903   1.898  1.00  0.00     0.159 HD
HETATM   30  H21 UNL     1      -6.521   0.849   2.538  1.00  0.00     0.159 HD
HETATM   31  O2  UNL     1      -6.709   1.364   0.007  1.00  0.00    -0.273 OA
ENDBRANCH  25  27
ENDBRANCH  24  25
ENDBRANCH   7  24
TORSDOF 8
