REMARK  7 active torsions:
REMARK  status: ('A' for Active; 'I' for Inactive)
REMARK       I    between atoms: N1_1  and  C1_2 
REMARK    1  A    between atoms: C1_2  and  C2_4 
REMARK    2  A    between atoms: C4_6  and  C5_7 
REMARK    3  A    between atoms: C10_13  and  O2_14 
REMARK    4  A    between atoms: O2_14  and  C11_15 
REMARK    5  A    between atoms: C11_15  and  C12_17 
REMARK    6  A    between atoms: C12_17  and  C13_19 
REMARK    7  A    between atoms: C14_20  and  C15_21 
ROOT
HETATM    1  C5  UNL     1      -2.987  -0.144   0.293  1.00  0.00    -0.035 A 
HETATM    2  C6  UNL     1      -2.816   0.494   1.508  1.00  0.00     0.124 A 
HETATM    3  N2  UNL     1      -1.623   0.543   2.137  1.00  0.00    -0.260 NA
HETATM    4  C7  UNL     1      -0.529  -0.032   1.610  1.00  0.00     0.067 A 
HETATM    5  C8  UNL     1       0.668   0.050   2.302  1.00  0.00     0.035 A 
HETATM    6  C9  UNL     1       1.780  -0.543   1.750  1.00  0.00     0.039 A 
HETATM    7  C10 UNL     1       1.726  -1.208   0.540  1.00  0.00     0.071 A 
HETATM    8  C16 UNL     1       0.502  -1.273  -0.133  1.00  0.00     0.050 A 
HETATM    9  C17 UNL     1      -0.648  -0.682   0.398  1.00  0.00    -0.004 A 
HETATM   10  C18 UNL     1      -1.865  -0.737  -0.254  1.00  0.00     0.023 A 
ENDROOT
BRANCH   7  11
HETATM   11  O2  UNL     1       2.711  -1.848  -0.153  1.00  0.00    -0.328 OA
BRANCH  11  12
HETATM   12  C11 UNL     1       4.050  -2.002   0.181  1.00  0.00     0.262 C 
HETATM   13 CL1  UNL     1       4.364  -3.752   0.313  1.00  0.00    -0.091 Cl
BRANCH  12  14
HETATM   14  C12 UNL     1       4.987  -1.472  -0.890  1.00  0.00     0.237 C 
HETATM   15  F1  UNL     1       4.824  -2.100  -2.098  1.00  0.00    -0.241 F 
BRANCH  14  16
HETATM   16  C13 UNL     1       4.964   0.005  -1.003  1.00  0.00     0.011 C 
HETATM   17  C14 UNL     1       5.923   0.803  -0.582  1.00  0.00    -0.013 C 
BRANCH  17  18
HETATM   18  C15 UNL     1       6.308   2.244  -0.490  1.00  0.00     0.141 C 
HETATM   19 CL2  UNL     1       7.823   2.493  -1.381  1.00  0.00    -0.126 Cl
ENDBRANCH  17  18
ENDBRANCH  14  16
ENDBRANCH  12  14
ENDBRANCH  11  12
ENDBRANCH   7  11
BRANCH   1  20
HETATM   20  C4  UNL     1      -4.303  -0.186  -0.380  1.00  0.00     0.034 A 
HETATM   21  C2  UNL     1      -5.346   0.810  -0.145  1.00  0.00     0.087 A 
HETATM   22  C3  UNL     1      -5.521  -0.551   0.515  1.00  0.00     0.025 A 
BRANCH  21  23
HETATM   23  C1  UNL     1      -6.374   1.056  -1.175  1.00  0.00     0.220 C 
HETATM   24  N1  UNL     1      -7.068   2.292  -1.308  1.00  0.00    -0.370 N 
HETATM   25  H1  UNL     1      -8.071   2.105  -1.015  1.00  0.00     0.159 HD
HETATM   26  H2  UNL     1      -7.360   3.295  -1.484  1.00  0.00     0.159 HD
HETATM   27  O1  UNL     1      -6.683   0.153  -1.996  1.00  0.00    -0.273 OA
ENDBRANCH  21  23
ENDBRANCH   1  20
TORSDOF 7
