REMARK  5 active torsions:
REMARK  status: ('A' for Active; 'I' for Inactive)
REMARK    1  A    between atoms: C2_2  and  C3_3 
REMARK    2  A    between atoms: C2_2  and  O1_6 
REMARK    3  A    between atoms: C3_3  and  C4_4 
REMARK    4  A    between atoms: O1_6  and  C5_7 
REMARK    5  A    between atoms: C13_15  and  C14_16 
REMARK       I    between atoms: C14_16  and  N1_17 
ROOT
HETATM    1  C5  UNL     1      -0.052  -0.217   0.998  1.00  0.00     0.062 C 
HETATM    2  C6  UNL     1       0.155  -1.548   0.798  1.00  0.00     0.035 C 
HETATM    3  C7  UNL     1      -0.851  -2.621   0.550  1.00  0.00     0.030 C 
HETATM    4  C8  UNL     1      -2.137  -2.345   0.699  1.00  0.00     0.037 C 
HETATM    5  C9  UNL     1      -2.925  -2.957  -0.436  1.00  0.00     0.086 C 
HETATM    6  C10 UNL     1      -3.310  -1.696  -1.248  1.00  0.00    -0.024 C 
HETATM    7  C11 UNL     1      -2.879  -0.391  -1.201  1.00  0.00    -0.023 C 
HETATM    8  C12 UNL     1      -1.674   0.303  -0.810  1.00  0.00     0.043 A 
HETATM    9  C13 UNL     1      -1.637   1.585  -0.087  1.00  0.00     0.107 A 
HETATM   10  C15 UNL     1      -1.377   0.425   0.691  1.00  0.00     0.063 A 
HETATM   11  C16 UNL     1      -2.480  -0.164   1.533  1.00  0.00     0.108 C 
HETATM   12  N2  UNL     1      -2.748  -1.475   1.729  1.00  0.00    -0.268 NA
ENDROOT
BRANCH   1  13
HETATM   13  O1  UNL     1       1.117   0.318   1.490  1.00  0.00    -0.349 OA
BRANCH  13  14
HETATM   14  C2  UNL     1       2.367   0.075   0.895  1.00  0.00     0.126 C 
HETATM   15  C1  UNL     1       3.358   1.031   1.573  1.00  0.00     0.040 C 
BRANCH  14  16
HETATM   16  C3  UNL     1       2.382   0.287  -0.582  1.00  0.00     0.063 C 
BRANCH  16  17
HETATM   17  C4  UNL     1       3.740   0.039  -1.195  1.00  0.00     0.224 C 
HETATM   18  F1  UNL     1       4.731   0.839  -0.718  1.00  0.00    -0.255 F 
ENDBRANCH  16  17
ENDBRANCH  14  16
ENDBRANCH  13  14
ENDBRANCH   1  13
BRANCH   9  19
HETATM   19  C14 UNL     1      -0.597   2.577  -0.354  1.00  0.00     0.221 C 
HETATM   20  N1  UNL     1       0.401   3.528  -0.609  1.00  0.00    -0.370 N 
HETATM   21  H17 UNL     1       0.975   3.743   0.250  1.00  0.00     0.159 HD
HETATM   22  H18 UNL     1       0.440   3.887  -1.589  1.00  0.00     0.159 HD
HETATM   23  O2  UNL     1      -1.680   3.239  -0.193  1.00  0.00    -0.273 OA
ENDBRANCH   9  19
TORSDOF 5
