REMARK  4 active torsions:
REMARK  status: ('A' for Active; 'I' for Inactive)
REMARK    1  A    between atoms: O1_2  and  C2_3 
REMARK    2  A    between atoms: C8_10  and  N2_11 
REMARK    3  A    between atoms: N2_11  and  C9_12 
REMARK    4  A    between atoms: C9_12  and  C10_13 
ROOT
HETATM    1  C2  UNL     1       5.030   0.974   1.700  1.00  0.00     0.073 C 
HETATM    2  C3  UNL     1       3.906   1.688   1.479  1.00  0.00     0.050 C 
HETATM    3  C4  UNL     1       2.673   1.100   0.947  1.00  0.00     0.020 C 
HETATM    4  C5  UNL     1       2.038   2.003   0.133  1.00  0.00     0.008 C 
HETATM    5  C6  UNL     1       0.842   1.546  -0.439  1.00  0.00     0.147 C 
HETATM    6  N1  UNL     1      -0.462   1.961  -0.309  1.00  0.00    -0.392 N 
HETATM    7  C7  UNL     1      -1.606   1.301  -0.876  1.00  0.00     0.131 C 
HETATM    8  C8  UNL     1      -1.703   0.337   0.024  1.00  0.00     0.108 C 
HETATM    9  N3  UNL     1      -1.350  -0.357   1.139  1.00  0.00    -0.357 NA
HETATM   10  C15 UNL     1      -0.251  -0.817   1.635  1.00  0.00     0.409 C 
HETATM   11  N4  UNL     1       1.136  -0.962   1.496  1.00  0.00    -0.214 NA
HETATM   12  C16 UNL     1       2.135  -0.268   1.254  1.00  0.00     0.211 C 
HETATM   13  O3  UNL     1       3.127  -1.293   1.320  1.00  0.00    -0.176 OA
HETATM   14  O4  UNL     1       4.321  -1.313   1.969  1.00  0.00    -0.227 OA
HETATM   15  C17 UNL     1       5.276  -0.486   1.472  1.00  0.00     0.275 C 
HETATM   16  H8  UNL     1      -0.855   2.788   0.196  1.00  0.00     0.159 HD
ENDROOT
BRANCH   8  17
HETATM   17  N2  UNL     1      -2.850  -0.394  -0.472  1.00  0.00    -0.372 N 
HETATM   18  H10 UNL     1      -3.775  -0.385   0.055  1.00  0.00     0.161 HD
BRANCH  17  19
HETATM   19  C9  UNL     1      -2.690  -1.134  -1.708  1.00  0.00     0.159 C 
BRANCH  19  20
HETATM   20  C10 UNL     1      -3.954  -1.785  -2.079  1.00  0.00    -0.018 A 
HETATM   21  C11 UNL     1      -4.111  -3.099  -2.223  1.00  0.00     0.125 A 
HETATM   22 BR1  UNL     1      -2.716  -4.354  -1.969  1.00  0.00    -0.023 Br
HETATM   23  O2  UNL     1      -5.364  -3.628  -2.584  1.00  0.00    -0.315 OA
HETATM   24  C12 UNL     1      -6.405  -2.760  -2.781  1.00  0.00     0.139 A 
HETATM   25  C13 UNL     1      -6.263  -1.451  -2.641  1.00  0.00     0.002 A 
HETATM   26  C14 UNL     1      -4.992  -0.746  -2.261  1.00  0.00     0.068 A 
ENDBRANCH  19  20
ENDBRANCH  17  19
ENDBRANCH   8  17
BRANCH   1  27
HETATM   27  O1  UNL     1       6.007   1.811   2.201  1.00  0.00    -0.358 OA
HETATM   28  C1  UNL     1       6.144   2.092   3.562  1.00  0.00     0.209 C 
ENDBRANCH   1  27
TORSDOF 4
