REMARK  5 active torsions:
REMARK  status: ('A' for Active; 'I' for Inactive)
REMARK    1  A    between atoms: C4_5  and  C5_6 
REMARK    2  A    between atoms: C5_6  and  C7_8 
REMARK    3  A    between atoms: C9_10  and  C10_11 
REMARK       I    between atoms: C10_11  and  N2_12 
REMARK    4  A    between atoms: C12_15  and  O2_16 
REMARK    5  A    between atoms: O2_16  and  C13_17 
ROOT
HETATM    1  C1  UNL     1       0.818   1.166   3.066  1.00  0.00     0.068 C 
HETATM    2  C2  UNL     1       0.083   0.133   2.264  1.00  0.00     0.035 C 
HETATM    3  N1  UNL     1      -1.147  -0.238   2.486  1.00  0.00    -0.292 NA
HETATM    4  C3  UNL     1      -1.746  -1.255   1.630  1.00  0.00     0.183 C 
HETATM    5  C4  UNL     1      -1.644  -0.742   0.243  1.00  0.00    -0.057 C 
HETATM    6  C11 UNL     1      -0.348  -0.414   0.007  1.00  0.00     0.015 C 
HETATM    7  C12 UNL     1       0.691  -0.603   1.092  1.00  0.00     0.192 C 
ENDROOT
BRANCH   7   8
HETATM    8  O2  UNL     1       1.820   0.040   0.707  1.00  0.00    -0.367 OA
BRANCH   8   9
HETATM    9  C13 UNL     1       2.947  -0.737   0.535  1.00  0.00     0.150 C 
HETATM   10  C14 UNL     1       4.072  -0.416   1.400  1.00  0.00     0.029 C 
HETATM   11  C15 UNL     1       5.367  -0.088   1.318  1.00  0.00     0.032 C 
HETATM   12 CL1  UNL     1       6.337   0.216   2.775  1.00  0.00    -0.085 Cl
HETATM   13  C16 UNL     1       6.035   0.033   0.020  1.00  0.00     0.023 C 
HETATM   14  C17 UNL     1       5.531   0.246  -1.204  1.00  0.00     0.017 C 
HETATM   15  C18 UNL     1       4.068   0.408  -1.451  1.00  0.00     0.120 C 
HETATM   16  C19 UNL     1       3.797   0.602  -2.921  1.00  0.00     0.056 C 
HETATM   17  F1  UNL     1       3.611   1.560  -0.796  1.00  0.00    -0.239 F 
HETATM   18  C20 UNL     1       3.251  -0.730  -0.936  1.00  0.00     0.083 C 
ENDBRANCH   8   9
ENDBRANCH   7   8
BRANCH   5  19
HETATM   19  C5  UNL     1      -2.620  -0.538  -0.863  1.00  0.00     0.017 C 
HETATM   20  C6  UNL     1      -3.153  -1.913  -1.218  1.00  0.00     0.015 C 
BRANCH  19  21
HETATM   21  C7  UNL     1      -3.708   0.418  -0.501  1.00  0.00     0.007 A 
HETATM   22  C8  UNL     1      -4.646   0.214   0.605  1.00  0.00     0.020 A 
HETATM   23  C9  UNL     1      -5.111   0.150  -0.844  1.00  0.00     0.083 A 
BRANCH  23  24
HETATM   24  C10 UNL     1      -6.033   1.240  -1.240  1.00  0.00     0.220 C 
HETATM   25  N2  UNL     1      -5.877   2.544  -0.706  1.00  0.00    -0.370 N 
HETATM   26  H14 UNL     1      -5.627   3.500  -0.373  1.00  0.00     0.159 HD
HETATM   27  H15 UNL     1      -6.243   3.356  -0.178  1.00  0.00     0.159 HD
HETATM   28  O1  UNL     1      -6.976   1.077  -2.048  1.00  0.00    -0.273 OA
ENDBRANCH  23  24
ENDBRANCH  19  21
ENDBRANCH   5  19
TORSDOF 5
