REMARK  7 active torsions:
REMARK  status: ('A' for Active; 'I' for Inactive)
REMARK    1  A    between atoms: C7_7  and  N1_8 
REMARK    2  A    between atoms: N1_8  and  C8_9 
REMARK    3  A    between atoms: C12_15  and  O1_16 
REMARK    4  A    between atoms: C14_18  and  O2_19 
REMARK    5  A    between atoms: O2_19  and  C15_20 
REMARK    6  A    between atoms: C15_20  and  C16_21 
REMARK    7  A    between atoms: C16_21  and  O3_22 
ROOT
HETATM    1  C1  UNL     1       4.922   4.759   1.575  1.00  0.00     0.018 C 
HETATM    2  C2  UNL     1       4.467   3.766   1.032  1.00  0.00    -0.078 C 
HETATM    3  C3  UNL     1       3.933   2.604   0.372  1.00  0.00     0.019 A 
HETATM    4  C4  UNL     1       3.928   2.501  -1.020  1.00  0.00     0.021 A 
HETATM    5  C5  UNL     1       3.406   1.365  -1.648  1.00  0.00     0.004 A 
HETATM    6  C6  UNL     1       2.887   0.331  -0.869  1.00  0.00     0.029 A 
HETATM    7  C7  UNL     1       2.879   0.408   0.513  1.00  0.00     0.035 A 
HETATM    8  C20 UNL     1       3.406   1.552   1.114  1.00  0.00     0.050 A 
ENDROOT
BRANCH   7   9
HETATM    9  N1  UNL     1       2.353  -0.643   1.302  1.00  0.00    -0.340 N 
HETATM   10  H5  UNL     1       2.331  -0.539   2.339  1.00  0.00     0.167 HD
BRANCH   9  11
HETATM   11  C8  UNL     1       1.867  -1.811   0.691  1.00  0.00     0.142 A 
HETATM   12  N2  UNL     1       2.787  -2.806   0.550  1.00  0.00    -0.224 NA
HETATM   13  C9  UNL     1       2.499  -3.997  -0.015  1.00  0.00     0.236 A 
HETATM   14  N3  UNL     1       1.253  -4.227  -0.464  1.00  0.00    -0.241 NA
HETATM   15  C10 UNL     1       0.294  -3.290  -0.359  1.00  0.00     0.075 A 
HETATM   16  C11 UNL     1      -1.001  -3.463  -0.800  1.00  0.00     0.072 A 
HETATM   17  C19 UNL     1       0.601  -2.077   0.221  1.00  0.00     0.042 A 
HETATM   18  C12 UNL     1      -1.925  -2.444  -0.653  1.00  0.00     0.103 A 
HETATM   19  C14 UNL     1      -1.591  -1.239  -0.068  1.00  0.00     0.103 A 
HETATM   20  C18 UNL     1      -0.293  -1.036   0.387  1.00  0.00     0.057 A 
BRANCH  18  21
HETATM   21  O1  UNL     1      -3.211  -2.665  -1.112  1.00  0.00    -0.353 OA
HETATM   22  C13 UNL     1      -3.544  -3.905  -1.710  1.00  0.00     0.210 C 
ENDBRANCH  18  21
BRANCH  19  23
HETATM   23  O2  UNL     1      -2.596  -0.290   0.027  1.00  0.00    -0.346 OA
BRANCH  23  24
HETATM   24  C15 UNL     1      -2.353   0.963   0.603  1.00  0.00     0.201 C 
BRANCH  24  25
HETATM   25  C16 UNL     1      -3.614   1.826   0.588  1.00  0.00     0.193 C 
BRANCH  25  26
HETATM   26  O3  UNL     1      -3.283   3.035   1.170  1.00  0.00    -0.394 OA
HETATM   27  C17 UNL     1      -4.384   3.904   1.202  1.00  0.00     0.201 C 
ENDBRANCH  25  26
ENDBRANCH  24  25
ENDBRANCH  23  24
ENDBRANCH  19  23
ENDBRANCH   9  11
ENDBRANCH   7   9
TORSDOF 7
