REMARK  2 active torsions:
REMARK  status: ('A' for Active; 'I' for Inactive)
REMARK    1  A    between atoms: C13_15  and  O1_16 
REMARK    2  A    between atoms: C16_21  and  O3_22 
ROOT
HETATM    1  C1  UNL     1       2.018   0.790  -2.959  1.00  0.00     0.018 C 
HETATM    2  C2  UNL     1       2.072   0.585  -1.801  1.00  0.00    -0.077 C 
HETATM    3  C3  UNL     1       2.159   0.335  -0.423  1.00  0.00     0.026 A 
HETATM    4  C4  UNL     1       3.367  -0.019   0.186  1.00  0.00     0.021 A 
HETATM    5  C5  UNL     1       3.524  -0.283   1.547  1.00  0.00     0.004 A 
HETATM    6  C6  UNL     1       2.425  -0.192   2.384  1.00  0.00     0.030 A 
HETATM    7  C7  UNL     1       1.206   0.168   1.786  1.00  0.00     0.042 A 
HETATM    8  C8  UNL     1       1.087   0.414   0.425  1.00  0.00     0.009 A 
HETATM    9  C9  UNL     1      -0.366   0.496   0.284  1.00  0.00     0.107 A 
HETATM   10  C10 UNL     1      -0.794   1.119   1.554  1.00  0.00     0.124 A 
HETATM   11  N1  UNL     1      -1.664   2.093   1.793  1.00  0.00    -0.228 NA
HETATM   12  C11 UNL     1      -2.318   2.712   0.693  1.00  0.00     0.229 A 
HETATM   13  N2  UNL     1      -1.924   2.233  -0.377  1.00  0.00    -0.269 NA
HETATM   14  C12 UNL     1      -1.000   1.254  -0.787  1.00  0.00     0.193 A 
HETATM   15  C13 UNL     1      -1.591   0.450  -1.917  1.00  0.00     0.117 C 
HETATM   16  C14 UNL     1      -2.554  -0.497  -1.916  1.00  0.00     0.171 C 
HETATM   17  O2  UNL     1      -3.132  -0.821  -0.662  1.00  0.00    -0.358 OA
HETATM   18  C15 UNL     1      -2.423  -1.023   0.552  1.00  0.00     0.208 C 
HETATM   19  C16 UNL     1      -0.960  -0.927   0.438  1.00  0.00     0.168 C 
HETATM   20  N3  UNL     1       0.060   0.565   2.553  1.00  0.00    -0.343 N 
HETATM   21  H14 UNL     1      -0.123   0.481   3.575  1.00  0.00     0.167 HD
ENDROOT
BRANCH  19  22
HETATM   22  O3  UNL     1      -0.399  -1.662  -0.588  1.00  0.00    -0.387 OA
HETATM   23  C17 UNL     1       0.455  -2.665  -0.190  1.00  0.00     0.202 C 
ENDBRANCH  19  22
BRANCH  15  24
HETATM   24  O1  UNL     1      -1.166   0.613  -3.238  1.00  0.00    -0.241 OA
HETATM   25 CL1  UNL     1      -1.125   2.221  -3.885  1.00  0.00     0.067 Cl
ENDBRANCH  15  24
TORSDOF 2
