REMARK  5 active torsions:
REMARK  status: ('A' for Active; 'I' for Inactive)
REMARK    1  A    between atoms: C2_2  and  O1_3 
REMARK    2  A    between atoms: C2_2  and  C15_19 
REMARK    3  A    between atoms: O1_3  and  C3_4 
REMARK    4  A    between atoms: C8_9  and  C9_10 
REMARK    5  A    between atoms: C9_10  and  C10_11 
REMARK       I    between atoms: C10_11  and  N1_12 
ROOT
HETATM    1  C3  UNL     1       0.497   1.610   0.154  1.00  0.00     0.169 C 
HETATM    2  C4  UNL     1       0.020   0.626   1.085  1.00  0.00     0.009 C 
HETATM    3  C5  UNL     1      -0.343  -0.251   1.992  1.00  0.00    -0.001 C 
HETATM    4  C6  UNL     1      -1.524  -1.073   1.768  1.00  0.00    -0.004 C 
HETATM    5  C7  UNL     1      -2.458  -1.286   0.863  1.00  0.00    -0.021 C 
HETATM    6  C8  UNL     1      -3.620  -1.692  -0.022  1.00  0.00     0.021 C 
HETATM    7  C11 UNL     1      -4.415  -0.421  -0.334  1.00  0.00     0.055 C 
HETATM    8  C12 UNL     1      -3.449   0.521  -1.005  1.00  0.00     0.090 C 
HETATM    9  N2  UNL     1      -2.660   1.382  -0.442  1.00  0.00    -0.277 NA
HETATM   10  C13 UNL     1      -1.787   2.220  -1.137  1.00  0.00     0.114 C 
HETATM   11  C14 UNL     1      -0.522   2.187  -0.760  1.00  0.00     0.028 C 
ENDROOT
BRANCH   1  12
HETATM   12  O1  UNL     1       1.657   1.280  -0.553  1.00  0.00    -0.368 OA
BRANCH  12  13
HETATM   13  C2  UNL     1       2.726   2.074  -0.229  1.00  0.00     0.155 C 
HETATM   14  C1  UNL     1       3.289   2.856  -1.431  1.00  0.00     0.045 C 
BRANCH  13  15
HETATM   15  C15 UNL     1       3.823   1.193   0.231  1.00  0.00     0.017 A 
HETATM   16  C16 UNL     1       3.983   0.040  -0.505  1.00  0.00     0.044 A 
HETATM   17 CL1  UNL     1       2.943  -0.343  -1.888  1.00  0.00    -0.084 Cl
HETATM   18  C17 UNL     1       4.966  -0.872  -0.197  1.00  0.00     0.028 A 
HETATM   19  C18 UNL     1       5.838  -0.671   0.869  1.00  0.00     0.046 A 
HETATM   20  C19 UNL     1       5.615   0.505   1.559  1.00  0.00     0.138 A 
HETATM   21  F1  UNL     1       6.434   0.776   2.626  1.00  0.00    -0.204 F 
HETATM   22  C20 UNL     1       4.654   1.445   1.295  1.00  0.00     0.083 A 
HETATM   23 CL2  UNL     1       4.419   2.900   2.206  1.00  0.00    -0.080 Cl
ENDBRANCH  13  15
ENDBRANCH  12  13
ENDBRANCH   1  12
BRANCH   6  24
HETATM   24  C9  UNL     1      -3.143  -2.409  -1.230  1.00  0.00     0.105 C 
BRANCH  24  25
HETATM   25  C10 UNL     1      -4.275  -2.807  -2.077  1.00  0.00     0.195 C 
HETATM   26  N1  UNL     1      -4.750  -4.108  -2.109  1.00  0.00    -0.273 NA
HETATM   27  H13 UNL     1      -4.923  -5.160  -2.246  1.00  0.00     0.127 HD
HETATM   28  H14 UNL     1      -4.936  -5.146  -2.235  1.00  0.00     0.127 HD
HETATM   29  O2  UNL     1      -5.007  -2.186  -2.873  1.00  0.00    -0.280 OA
ENDBRANCH  24  25
ENDBRANCH   6  24
TORSDOF 5
