REMARK  3 active torsions:
REMARK  status: ('A' for Active; 'I' for Inactive)
REMARK    1  A    between atoms: C3_3  and  C4_4 
REMARK    2  A    between atoms: C4_4  and  C5_5 
REMARK    3  A    between atoms: C15_19  and  O2_20 
ROOT
HETATM    1  C5  UNL     1       1.986  -0.085  -0.409  1.00  0.00    -0.003 C 
HETATM    2  C6  UNL     1       0.979   0.731  -0.508  1.00  0.00     0.116 C 
HETATM    3  N1  UNL     1      -0.359   1.076  -0.593  1.00  0.00    -0.369 N 
HETATM    4  C7  UNL     1      -1.293   1.485   0.371  1.00  0.00     0.131 C 
HETATM    5  N2  UNL     1      -0.849   0.962   1.492  1.00  0.00    -0.226 NA
HETATM    6  C8  UNL     1      -1.612   1.208   2.698  1.00  0.00     0.234 C 
HETATM    7  N3  UNL     1      -1.852   0.116   3.380  1.00  0.00    -0.254 NA
HETATM    8  C9  UNL     1      -1.345  -1.130   2.860  1.00  0.00     0.120 C 
HETATM    9  C10 UNL     1      -1.437  -1.763   1.720  1.00  0.00     0.052 C 
HETATM   10  C11 UNL     1      -2.066  -1.576   0.440  1.00  0.00     0.053 C 
HETATM   11  C12 UNL     1      -2.824  -0.525   0.176  1.00  0.00     0.065 C 
HETATM   12  O1  UNL     1      -3.630   0.324  -0.521  1.00  0.00     0.000 OA
HETATM   13  C13 UNL     1      -3.575   1.734  -0.549  1.00  0.00     0.025 C 
HETATM   14  C14 UNL     1      -3.601   2.350  -1.901  1.00  0.00     0.013 C 
HETATM   15  C15 UNL     1      -2.527   2.275   0.400  1.00  0.00     0.194 C 
HETATM   16  O3  UNL     1      -1.802  -2.570  -0.469  1.00  0.00    -0.353 OA
HETATM   17  C17 UNL     1      -1.000  -3.687  -0.385  1.00  0.00     0.201 C 
HETATM   18  C18 UNL     1       0.043  -3.733  -1.491  1.00  0.00     0.194 C 
HETATM   19  O4  UNL     1       0.907  -2.647  -1.468  1.00  0.00    -0.389 OA
HETATM   20  C19 UNL     1       1.633  -2.580  -0.315  1.00  0.00     0.168 C 
HETATM   21  C20 UNL     1       2.595  -1.435  -0.304  1.00  0.00     0.039 C 
HETATM   22  H9  UNL     1      -1.042   1.132  -1.364  1.00  0.00     0.161 HD
ENDROOT
BRANCH   1  23
HETATM   23  C4  UNL     1       3.147   0.843  -0.412  1.00  0.00     0.039 C 
BRANCH  23  24
HETATM   24  C3  UNL     1       4.027   0.489  -1.594  1.00  0.00    -0.030 C 
HETATM   25  C2  UNL     1       5.287   0.110  -1.594  1.00  0.00    -0.035 C 
HETATM   26  C1  UNL     1       6.029  -0.018  -0.318  1.00  0.00     0.036 C 
ENDBRANCH  23  24
ENDBRANCH   1  23
BRANCH  15  27
HETATM   27  O2  UNL     1      -2.344   3.629   0.319  1.00  0.00    -0.383 OA
HETATM   28  C16 UNL     1      -2.715   4.286   1.464  1.00  0.00     0.202 C 
ENDBRANCH  15  27
TORSDOF 3
