REMARK  4 active torsions:
REMARK  status: ('A' for Active; 'I' for Inactive)
REMARK    1  A    between atoms: C6_7  and  C7_8 
REMARK    2  A    between atoms: C7_8  and  O1_10 
REMARK    3  A    between atoms: O1_10  and  C9_11 
REMARK    4  A    between atoms: C14_17  and  C15_18 
ROOT
HETATM    1  C9  UNL     1       0.197   0.442   0.984  1.00  0.00    -0.000 A 
HETATM    2  C10 UNL     1       0.707  -0.494   1.825  1.00  0.00     0.021 A 
HETATM    3  C11 UNL     1       1.946  -0.994   1.920  1.00  0.00     0.032 A 
HETATM    4  C12 UNL     1       2.978  -0.609   1.117  1.00  0.00     0.051 A 
HETATM    5  N1  UNL     1       4.176  -1.178   1.304  1.00  0.00    -0.261 NA
HETATM    6  C13 UNL     1       5.257  -0.888   0.588  1.00  0.00     0.126 A 
HETATM    7  C14 UNL     1       5.211   0.062  -0.440  1.00  0.00    -0.011 A 
HETATM    8  C17 UNL     1       4.008   0.690  -0.688  1.00  0.00     0.008 A 
HETATM    9  C18 UNL     1       3.002   0.305   0.104  1.00  0.00    -0.069 A 
HETATM   10  B1  UNL     1       1.301   1.157  -0.207  1.00  0.00     0.259 B 
ENDROOT
BRANCH   1  11
HETATM   11  O1  UNL     1      -0.986   1.040   0.760  1.00  0.00    -0.358 OA
BRANCH  11  12
HETATM   12  C7  UNL     1      -2.161   0.772   1.485  1.00  0.00     0.159 C 
HETATM   13  C8  UNL     1      -2.652   2.045   2.148  1.00  0.00     0.045 C 
BRANCH  12  14
HETATM   14  C6  UNL     1      -3.183   0.211   0.561  1.00  0.00     0.015 A 
HETATM   15  C5  UNL     1      -4.130  -0.699   1.007  1.00  0.00     0.044 A 
HETATM   16  C4  UNL     1      -5.076  -1.216   0.141  1.00  0.00     0.025 A 
HETATM   17 CL1  UNL     1      -4.155  -1.220   2.678  1.00  0.00    -0.084 Cl
HETATM   18  C3  UNL     1      -5.111  -0.844  -1.200  1.00  0.00     0.010 A 
HETATM   19  C2  UNL     1      -4.166   0.062  -1.634  1.00  0.00    -0.040 A 
HETATM   20  C1  UNL     1      -4.150   0.501  -3.059  1.00  0.00     0.050 C 
HETATM   21  C19 UNL     1      -3.209   0.593  -0.785  1.00  0.00     0.050 A 
HETATM   22 CL2  UNL     1      -2.040   1.740  -1.416  1.00  0.00    -0.083 Cl
ENDBRANCH  12  14
ENDBRANCH  11  12
ENDBRANCH   1  11
BRANCH   7  23
HETATM   23  C15 UNL     1       6.419   0.404  -1.259  1.00  0.00     0.181 A 
HETATM   24  C16 UNL     1       6.990  -0.652  -2.137  1.00  0.00     0.116 A 
HETATM   25  N2  UNL     1       6.363   0.518  -2.602  1.00  0.00    -0.288 NA
ENDBRANCH   7  23
TORSDOF 4
