REMARK  8 active torsions:
REMARK  status: ('A' for Active; 'I' for Inactive)
REMARK    1  A    between atoms: O1_2  and  C2_3 
REMARK    2  A    between atoms: C5_6  and  C6_7 
REMARK    3  A    between atoms: C6_7  and  N1_8 
REMARK    4  A    between atoms: N1_8  and  C7_9 
REMARK    5  A    between atoms: C7_9  and  C8_10 
REMARK    6  A    between atoms: N3_14  and  C11_15 
REMARK    7  A    between atoms: C12_18  and  C13_19 
REMARK    8  A    between atoms: C14_20  and  O2_21 
ROOT
HETATM    1  C8  UNL     1      -2.361   0.401  -0.766  1.00  0.00     0.164 A 
HETATM    2  C9  UNL     1      -2.854   1.106   0.380  1.00  0.00     0.414 A 
HETATM    3  N2  UNL     1      -2.548   1.465   1.574  1.00  0.00     0.122 N 
HETATM    4  C10 UNL     1      -1.770   1.550   2.596  1.00  0.00     0.372 A 
HETATM    5  N3  UNL     1      -2.136   1.270   1.527  1.00  0.00    -0.032 NA
HETATM    6  C11 UNL     1      -2.813   1.100   0.410  1.00  0.00     0.431 A 
HETATM    7  N4  UNL     1      -4.244   1.235   0.363  1.00  0.00     0.117 N 
HETATM    8  N5  UNL     1      -4.971   1.017  -0.775  1.00  0.00    -0.105 NA
HETATM    9  C12 UNL     1      -4.021   1.954  -0.353  1.00  0.00     0.365 A 
HETATM   10  H11 UNL     1      -5.626   0.243  -0.852  1.00  0.00     0.157 HD
ENDROOT
BRANCH   1  11
HETATM   11  C7  UNL     1      -1.307  -0.357  -1.123  1.00  0.00     0.077 C 
BRANCH  11  12
HETATM   12  N1  UNL     1      -0.067  -0.966  -0.755  1.00  0.00    -0.397 N 
HETATM   13  H8  UNL     1      -0.661  -1.532  -0.117  1.00  0.00     0.159 HD
BRANCH  12  14
HETATM   14  C6  UNL     1       1.106  -0.463  -1.421  1.00  0.00     0.157 C 
BRANCH  14  15
HETATM   15  C5  UNL     1       2.287  -1.186  -0.841  1.00  0.00    -0.041 A 
HETATM   16  C4  UNL     1       2.865  -2.339  -1.324  1.00  0.00     0.011 A 
HETATM   17  C3  UNL     1       3.948  -2.869  -0.651  1.00  0.00     0.037 A 
HETATM   18  C2  UNL     1       4.466  -2.281   0.486  1.00  0.00     0.068 A 
HETATM   19  C16 UNL     1       3.928  -1.135   1.004  1.00  0.00     0.037 A 
HETATM   20  C15 UNL     1       2.838  -0.613   0.313  1.00  0.00     0.011 A 
BRANCH  18  21
HETATM   21  O1  UNL     1       5.551  -2.828   1.150  1.00  0.00    -0.356 OA
HETATM   22  C1  UNL     1       6.146  -4.025   0.653  1.00  0.00     0.210 C 
ENDBRANCH  18  21
ENDBRANCH  14  15
ENDBRANCH  12  14
ENDBRANCH  11  12
ENDBRANCH   1  11
BRANCH   9  23
HETATM   23  C13 UNL     1      -4.426   3.151   0.380  1.00  0.00     0.075 C 
HETATM   24  C14 UNL     1      -4.002   4.283   0.901  1.00  0.00     0.136 C 
HETATM   25 CL1  UNL     1      -2.281   4.524   0.671  1.00  0.00    -0.057 Cl
BRANCH  24  26
HETATM   26  O2  UNL     1      -4.811   5.210   1.573  1.00  0.00    -0.350 OA
HETATM   27  H14 UNL     1      -5.383   5.854   1.004  1.00  0.00     0.218 HD
ENDBRANCH  24  26
ENDBRANCH   9  23
TORSDOF 8
