REMARK  9 active torsions:
REMARK  status: ('A' for Active; 'I' for Inactive)
REMARK    1  A    between atoms: C2_2  and  C3_3 
REMARK    2  A    between atoms: C3_3  and  C4_4 
REMARK    3  A    between atoms: C4_4  and  N1_5 
REMARK    4  A    between atoms: N1_5  and  C5_6 
REMARK    5  A    between atoms: N1_5  and  C12_15 
REMARK    6  A    between atoms: C5_6  and  C6_7 
REMARK    7  A    between atoms: C10_11  and  O1_12 
REMARK    8  A    between atoms: C12_15  and  N2_17 
REMARK    9  A    between atoms: N2_17  and  C13_18 
ROOT
HETATM    1  N1  UNL     1       0.257   0.230  -0.871  1.00  0.00    -0.354 N 
ENDROOT
BRANCH   1   2
HETATM    2  C4  UNL     1       1.139   1.374  -0.869  1.00  0.00     0.125 C 
BRANCH   2   3
HETATM    3  C3  UNL     1       0.556   2.618  -0.282  1.00  0.00     0.020 C 
BRANCH   3   4
HETATM    4  C2  UNL     1       1.522   3.793  -0.316  1.00  0.00    -0.003 C 
HETATM    5  C1  UNL     1       0.884   5.032   0.288  1.00  0.00     0.005 C 
ENDBRANCH   3   4
ENDBRANCH   2   3
ENDBRANCH   1   2
BRANCH   1   6
HETATM    6  C5  UNL     1       0.912  -0.914  -1.469  1.00  0.00     0.164 C 
BRANCH   6   7
HETATM    7  C6  UNL     1       2.082  -1.390  -0.646  1.00  0.00    -0.038 A 
HETATM    8  C7  UNL     1       1.658  -2.340   0.297  1.00  0.00     0.009 A 
HETATM    9  C8  UNL     1       2.526  -2.946   1.180  1.00  0.00     0.003 A 
HETATM   10  C9  UNL     1       3.856  -2.584   1.112  1.00  0.00     0.038 A 
HETATM   11  C10 UNL     1       4.269  -1.653   0.187  1.00  0.00     0.092 A 
HETATM   12  C11 UNL     1       3.412  -1.038  -0.705  1.00  0.00     0.047 A 
BRANCH  11  13
HETATM   13  O1  UNL     1       5.596  -1.254   0.078  1.00  0.00    -0.241 OA
HETATM   14 CL1  UNL     1       6.391  -0.501   1.410  1.00  0.00     0.067 Cl
ENDBRANCH  11  13
ENDBRANCH   6   7
ENDBRANCH   1   6
BRANCH   1  15
HETATM   15  C12 UNL     1      -1.092   0.043  -0.401  1.00  0.00     0.174 C 
HETATM   16  S1  UNL     1      -1.918   1.280   0.293  1.00  0.00    -0.041 SA
BRANCH  15  17
HETATM   17  N2  UNL     1      -1.776  -1.204  -0.508  1.00  0.00    -0.333 N 
HETATM   18  H16 UNL     1      -1.575  -2.149  -0.874  1.00  0.00     0.168 HD
BRANCH  17  19
HETATM   19  C13 UNL     1      -3.103  -1.338  -0.025  1.00  0.00     0.034 A 
HETATM   20  C14 UNL     1      -3.532  -2.328   0.862  1.00  0.00     0.029 A 
HETATM   21  C15 UNL     1      -4.823  -2.447   1.324  1.00  0.00     0.002 A 
HETATM   22  C16 UNL     1      -5.773  -1.542   0.897  1.00  0.00     0.000 A 
HETATM   23  C17 UNL     1      -5.394  -0.549   0.021  1.00  0.00     0.002 A 
HETATM   24  C18 UNL     1      -4.089  -0.459  -0.422  1.00  0.00     0.029 A 
ENDBRANCH  17  19
ENDBRANCH  15  17
ENDBRANCH   1  15
TORSDOF 9
