REMARK  9 active torsions:
REMARK  status: ('A' for Active; 'I' for Inactive)
REMARK    1  A    between atoms: C2_2  and  C3_3 
REMARK    2  A    between atoms: C3_3  and  C4_4 
REMARK    3  A    between atoms: C4_4  and  N1_5 
REMARK    4  A    between atoms: N1_5  and  C5_6 
REMARK    5  A    between atoms: N1_5  and  C12_15 
REMARK    6  A    between atoms: C5_6  and  C6_7 
REMARK    7  A    between atoms: C11_13  and  O1_14 
REMARK    8  A    between atoms: C17_20  and  N2_21 
REMARK    9  A    between atoms: N2_21  and  C18_22 
ROOT
HETATM    1  N1  UNL     1      -0.230  -0.296  -0.101  1.00  0.00    -0.375 N 
ENDROOT
BRANCH   1   2
HETATM    2  C4  UNL     1      -1.649  -0.690  -0.195  1.00  0.00     0.123 C 
BRANCH   2   3
HETATM    3  C3  UNL     1      -1.877  -1.818  -1.167  1.00  0.00     0.019 C 
BRANCH   3   4
HETATM    4  C2  UNL     1      -3.335  -2.147  -1.226  1.00  0.00    -0.003 C 
HETATM    5  C1  UNL     1      -3.867  -2.598   0.089  1.00  0.00     0.005 C 
ENDBRANCH   3   4
ENDBRANCH   2   3
ENDBRANCH   1   2
BRANCH   1   6
HETATM    6  C5  UNL     1       0.528  -1.342   0.528  1.00  0.00     0.164 C 
BRANCH   6   7
HETATM    7  C6  UNL     1       1.970  -1.066   0.703  1.00  0.00    -0.005 A 
HETATM    8  C7  UNL     1       2.397  -0.616   1.960  1.00  0.00     0.012 A 
HETATM    9  C8  UNL     1       3.689  -0.287   2.319  1.00  0.00     0.002 A 
HETATM   10  C9  UNL     1       4.663  -0.411   1.350  1.00  0.00     0.026 A 
HETATM   11  C10 UNL     1       4.300  -0.850   0.094  1.00  0.00     0.067 A 
HETATM   12 CL1  UNL     1       5.521  -1.014  -1.150  1.00  0.00    -0.081 Cl
HETATM   13  C11 UNL     1       2.996  -1.165  -0.214  1.00  0.00     0.095 A 
BRANCH  13  14
HETATM   14  O1  UNL     1       2.615  -1.612  -1.469  1.00  0.00    -0.358 OA
HETATM   15  H15 UNL     1       2.958  -1.208  -2.333  1.00  0.00     0.217 HD
ENDBRANCH  13  14
ENDBRANCH   6   7
ENDBRANCH   1   6
BRANCH   1  16
HETATM   16  C12 UNL     1       0.035   1.011  -0.635  1.00  0.00     0.057 A 
HETATM   17  C13 UNL     1       0.764   1.336  -1.752  1.00  0.00     0.031 A 
HETATM   18  C14 UNL     1       0.932   2.637  -2.173  1.00  0.00     0.002 A 
HETATM   19  C15 UNL     1       0.351   3.644  -1.450  1.00  0.00     0.002 A 
HETATM   20  C16 UNL     1      -0.407   3.407  -0.300  1.00  0.00     0.032 A 
HETATM   21  C17 UNL     1      -0.523   2.080   0.046  1.00  0.00     0.059 A 
BRANCH  21  22
HETATM   22  N2  UNL     1      -1.301   1.886   1.229  1.00  0.00    -0.355 N 
HETATM   23  H20 UNL     1      -1.635   1.109   1.840  1.00  0.00     0.166 HD
BRANCH  22  24
HETATM   24  C18 UNL     1      -1.939   2.888   2.027  1.00  0.00     0.170 C 
HETATM   25  S1  UNL     1      -1.741   3.701   3.397  1.00  0.00    -0.074 SA
ENDBRANCH  22  24
ENDBRANCH  21  22
ENDBRANCH   1  16
TORSDOF 9
