REMARK  8 active torsions:
REMARK  status: ('A' for Active; 'I' for Inactive)
REMARK    1  A    between atoms: C2_2  and  C3_3 
REMARK    2  A    between atoms: C3_3  and  C4_4 
REMARK    3  A    between atoms: C4_4  and  N1_5 
REMARK    4  A    between atoms: N1_5  and  C5_6 
REMARK    5  A    between atoms: N1_5  and  C11_14 
REMARK    6  A    between atoms: C10_12  and  O1_13 
REMARK    7  A    between atoms: C11_14  and  N2_16 
REMARK    8  A    between atoms: C17_21  and  S1_22 
ROOT
HETATM    1  N1  UNL     1       0.408   0.547  -0.007  1.00  0.00    -0.349 N 
ENDROOT
BRANCH   1   2
HETATM    2  C4  UNL     1       1.195  -0.425  -0.727  1.00  0.00     0.125 C 
BRANCH   2   3
HETATM    3  C3  UNL     1       1.912  -1.438   0.087  1.00  0.00     0.019 C 
BRANCH   3   4
HETATM    4  C2  UNL     1       2.727  -2.398  -0.786  1.00  0.00    -0.003 C 
HETATM    5  C1  UNL     1       3.401  -3.369   0.158  1.00  0.00     0.005 C 
ENDBRANCH   3   4
ENDBRANCH   2   3
ENDBRANCH   1   2
BRANCH   1   6
HETATM    6  C5  UNL     1       0.839   1.922  -0.059  1.00  0.00     0.067 A 
HETATM    7  C6  UNL     1       0.059   2.893  -0.658  1.00  0.00     0.032 A 
HETATM    8  C7  UNL     1       0.405   4.223  -0.754  1.00  0.00     0.004 A 
HETATM    9  C8  UNL     1       1.604   4.650  -0.226  1.00  0.00     0.027 A 
HETATM   10  C9  UNL     1       2.425   3.729   0.384  1.00  0.00     0.069 A 
HETATM   11 CL1  UNL     1       3.950   4.259   1.057  1.00  0.00    -0.081 Cl
HETATM   12  C10 UNL     1       2.017   2.420   0.443  1.00  0.00     0.114 A 
BRANCH  12  13
HETATM   13  O1  UNL     1       2.901   1.563   1.074  1.00  0.00    -0.357 OA
HETATM   14  H13 UNL     1       3.844   1.747   1.327  1.00  0.00     0.218 HD
ENDBRANCH  12  13
ENDBRANCH   1   6
BRANCH   1  15
HETATM   15  C11 UNL     1      -0.800   0.219   0.766  1.00  0.00     0.322 C 
HETATM   16  C12 UNL     1      -0.390  -0.559   2.001  1.00  0.00     0.066 C 
BRANCH  15  17
HETATM   17  N2  UNL     1      -1.765  -0.498  -0.015  1.00  0.00     0.128 N 
HETATM   18  C13 UNL     1      -2.244   0.203  -1.156  1.00  0.00     0.304 C 
HETATM   19  C14 UNL     1      -3.319  -0.537  -1.878  1.00  0.00    -0.001 C 
HETATM   20  C15 UNL     1      -3.826  -1.679  -1.367  1.00  0.00    -0.026 C 
HETATM   21  C16 UNL     1      -3.342  -2.262  -0.059  1.00  0.00     0.073 C 
HETATM   22  C17 UNL     1      -2.861  -1.031   0.727  1.00  0.00     0.287 C 
BRANCH  22  23
HETATM   23  S1  UNL     1      -4.287   0.123   0.691  1.00  0.00    -0.146 SA
HETATM   24  H25 UNL     1      -4.282   0.973   1.807  1.00  0.00     0.103 HD
ENDBRANCH  22  23
ENDBRANCH  15  17
ENDBRANCH   1  15
TORSDOF 8
