REMARK  6 active torsions:
REMARK  status: ('A' for Active; 'I' for Inactive)
REMARK    1  A    between atoms: C2_2  and  C3_3 
REMARK    2  A    between atoms: C3_3  and  C4_4 
REMARK    3  A    between atoms: C4_4  and  N1_5 
REMARK    4  A    between atoms: C8_9  and  S1_10 
REMARK    5  A    between atoms: S1_10  and  C9_11 
REMARK    6  A    between atoms: C13_16  and  O1_17 
ROOT
HETATM    1  N1  UNL     1       2.513   0.997  -0.108  1.00  0.00    -0.324 N 
HETATM    2  C5  UNL     1       2.311   1.818   1.006  1.00  0.00     0.170 C 
HETATM    3  C6  UNL     1       1.153   2.739   0.936  1.00  0.00    -0.004 C 
HETATM    4  C7  UNL     1      -0.073   2.313   0.548  1.00  0.00     0.018 C 
HETATM    5  C8  UNL     1      -0.638   1.001   0.121  1.00  0.00     0.028 C 
HETATM    6  C15 UNL     1       0.263   0.111  -0.242  1.00  0.00     0.038 C 
HETATM    7  C16 UNL     1      -0.589  -1.058  -0.602  1.00  0.00     0.071 C 
HETATM    8  N2  UNL     1       1.665  -0.017  -0.366  1.00  0.00    -0.306 N 
HETATM    9  H23 UNL     1       1.895  -0.990  -0.675  1.00  0.00     0.186 HD
ENDROOT
BRANCH   5  10
HETATM   10  S1  UNL     1      -2.345   1.100   0.249  1.00  0.00    -0.091 SA
BRANCH  10  11
HETATM   11  C9  UNL     1      -3.340  -0.282  -0.197  1.00  0.00     0.012 A 
HETATM   12  C10 UNL     1      -4.510   0.309   0.110  1.00  0.00     0.055 A 
HETATM   13 CL1  UNL     1      -4.797   1.943   0.744  1.00  0.00    -0.083 Cl
HETATM   14  C11 UNL     1      -5.721  -0.503  -0.103  1.00  0.00    -0.010 A 
HETATM   15  C12 UNL     1      -7.203  -0.417   0.041  1.00  0.00     0.052 C 
HETATM   16  C13 UNL     1      -5.238  -1.627  -0.557  1.00  0.00     0.055 A 
HETATM   17  C14 UNL     1      -3.784  -1.629  -0.668  1.00  0.00     0.113 A 
BRANCH  16  18
HETATM   18  O1  UNL     1      -5.846  -2.832  -0.960  1.00  0.00    -0.364 OA
HETATM   19  H17 UNL     1      -5.850  -2.991  -1.966  1.00  0.00     0.217 HD
ENDBRANCH  16  18
ENDBRANCH  10  11
ENDBRANCH   5  10
BRANCH   1  20
HETATM   20  C4  UNL     1       3.671   1.165  -0.895  1.00  0.00     0.143 C 
BRANCH  20  21
HETATM   21  C3  UNL     1       4.951   0.761  -0.153  1.00  0.00     0.021 C 
BRANCH  21  22
HETATM   22  C2  UNL     1       4.901  -0.687   0.257  1.00  0.00    -0.003 C 
HETATM   23  C1  UNL     1       6.139  -1.148   0.995  1.00  0.00     0.005 C 
ENDBRANCH  21  22
ENDBRANCH  20  21
ENDBRANCH   1  20
TORSDOF 6
