REMARK  9 active torsions:
REMARK  status: ('A' for Active; 'I' for Inactive)
REMARK    1  A    between atoms: C5_5  and  N1_6 
REMARK    2  A    between atoms: N1_6  and  C6_7 
REMARK    3  A    between atoms: C6_7  and  N2_9 
REMARK    4  A    between atoms: N2_9  and  C7_10 
REMARK    5  A    between atoms: N2_9  and  C11_14 
REMARK    6  A    between atoms: C7_10  and  C8_11 
REMARK    7  A    between atoms: C8_11  and  C9_12 
REMARK    8  A    between atoms: C11_14  and  C12_15 
REMARK    9  A    between atoms: C17_21  and  O1_22 
ROOT
HETATM    1  N2  UNL     1      -0.319  -0.128  -0.100  1.00  0.00    -0.354 N 
ENDROOT
BRANCH   1   2
HETATM    2  C6  UNL     1       1.069   0.164  -0.190  1.00  0.00     0.174 C 
HETATM    3  S1  UNL     1       1.747   1.641  -0.334  1.00  0.00    -0.041 SA
BRANCH   2   4
HETATM    4  N1  UNL     1       2.073  -0.840  -0.162  1.00  0.00    -0.333 N 
HETATM    5  H5  UNL     1       1.856  -1.871  -0.073  1.00  0.00     0.168 HD
BRANCH   4   6
HETATM    6  C5  UNL     1       3.475  -0.706  -0.240  1.00  0.00     0.035 A 
HETATM    7  C4  UNL     1       4.206  -0.447  -1.483  1.00  0.00     0.030 A 
HETATM    8  C3  UNL     1       5.528  -0.357  -1.325  1.00  0.00     0.013 A 
HETATM    9  C2  UNL     1       5.671  -0.570   0.109  1.00  0.00    -0.043 A 
HETATM   10  C1  UNL     1       6.813  -0.570   0.746  1.00  0.00     0.023 C 
HETATM   11  C18 UNL     1       4.376  -0.780   0.737  1.00  0.00     0.040 A 
ENDBRANCH   4   6
ENDBRANCH   2   4
ENDBRANCH   1   2
BRANCH   1  12
HETATM   12  C7  UNL     1      -1.453   0.759  -0.114  1.00  0.00     0.125 C 
BRANCH  12  13
HETATM   13  C8  UNL     1      -1.044   2.209  -0.258  1.00  0.00     0.020 C 
BRANCH  13  14
HETATM   14  C9  UNL     1      -2.259   3.121  -0.269  1.00  0.00    -0.003 C 
HETATM   15  C10 UNL     1      -1.765   4.538  -0.413  1.00  0.00     0.005 C 
ENDBRANCH  13  14
ENDBRANCH  12  13
ENDBRANCH   1  12
BRANCH   1  16
HETATM   16  C11 UNL     1      -0.622  -1.541   0.006  1.00  0.00     0.166 C 
BRANCH  16  17
HETATM   17  C12 UNL     1      -2.037  -1.854   0.210  1.00  0.00    -0.006 A 
HETATM   18  C13 UNL     1      -2.824  -2.251  -0.859  1.00  0.00     0.012 A 
HETATM   19  C14 UNL     1      -4.187  -2.556  -0.767  1.00  0.00     0.002 A 
HETATM   20  C15 UNL     1      -4.762  -2.444   0.494  1.00  0.00     0.022 A 
HETATM   21  C16 UNL     1      -4.004  -2.049   1.588  1.00  0.00     0.044 A 
HETATM   22 BR1  UNL     1      -4.879  -1.922   3.290  1.00  0.00    -0.048 Br
HETATM   23  C17 UNL     1      -2.663  -1.758   1.455  1.00  0.00     0.090 A 
BRANCH  23  24
HETATM   24  O1  UNL     1      -1.953  -1.370   2.586  1.00  0.00    -0.359 OA
HETATM   25  H20 UNL     1      -2.358  -0.684   3.218  1.00  0.00     0.217 HD
ENDBRANCH  23  24
ENDBRANCH  16  17
ENDBRANCH   1  16
TORSDOF 9
