REMARK  2 active torsions:
REMARK  status: ('A' for Active; 'I' for Inactive)
REMARK    1  A    between atoms: C2_2  and  C3_3 
REMARK    2  A    between atoms: C3_3  and  N1_4 
ROOT
HETATM    1  N1  UNL     1       1.361  -0.208  -0.339  1.00  0.00    -0.325 N 
HETATM    2  C4  UNL     1       0.601  -1.160  -1.097  1.00  0.00     0.178 C 
HETATM    3  S1  UNL     1       1.443  -2.593  -1.269  1.00  0.00    -0.045 SA
HETATM    4  N2  UNL     1      -0.743  -0.848  -1.585  1.00  0.00    -0.072 NA
HETATM    5  N3  UNL     1      -1.732  -1.509  -2.348  1.00  0.00     0.009 N 
HETATM    6  C5  UNL     1      -2.588  -2.373  -1.546  1.00  0.00     0.282 C 
HETATM    7  C6  UNL     1      -3.474  -1.624  -0.642  1.00  0.00     0.002 C 
HETATM    8  C7  UNL     1      -4.446  -1.064   0.065  1.00  0.00    -0.003 C 
HETATM    9  C8  UNL     1      -4.700  -0.081   1.148  1.00  0.00    -0.002 C 
HETATM   10  C9  UNL     1      -3.451   0.217   1.292  1.00  0.00    -0.000 C 
HETATM   11  C10 UNL     1      -2.081   0.596   1.507  1.00  0.00     0.203 C 
HETATM   12  O1  UNL     1      -1.506   1.146   0.326  1.00  0.00    -0.343 OA
HETATM   13  C11 UNL     1      -0.221   1.607   0.324  1.00  0.00     0.117 A 
HETATM   14  C12 UNL     1      -0.366   2.942   0.705  1.00  0.00     0.069 A 
HETATM   15 CL1  UNL     1      -1.872   3.796   1.093  1.00  0.00    -0.081 Cl
HETATM   16  C13 UNL     1       0.714   3.830   0.840  1.00  0.00     0.027 A 
HETATM   17  C14 UNL     1       1.983   3.354   0.581  1.00  0.00     0.004 A 
HETATM   18  C15 UNL     1       2.062   2.029   0.209  1.00  0.00     0.033 A 
HETATM   19  C16 UNL     1       1.032   1.123   0.065  1.00  0.00     0.071 A 
HETATM   20  H8  UNL     1      -0.631  -1.780  -2.025  1.00  0.00     0.423 HD
HETATM   21  H9  UNL     1      -2.363  -0.705  -2.675  1.00  0.00     0.301 HD
ENDROOT
BRANCH   1  22
HETATM   22  C3  UNL     1       2.664  -0.629   0.088  1.00  0.00     0.131 C 
BRANCH  22  23
HETATM   23  C2  UNL     1       3.736  -0.817  -0.894  1.00  0.00     0.016 C 
HETATM   24  C1  UNL     1       4.982  -1.256  -0.089  1.00  0.00     0.006 C 
ENDBRANCH  22  23
ENDBRANCH   1  22
TORSDOF 2
