REMARK  11 active torsions:
REMARK  status: ('A' for Active; 'I' for Inactive)
REMARK    1  A    between atoms: C2_2  and  C3_3 
REMARK    2  A    between atoms: C4_4  and  C5_5 
REMARK    3  A    between atoms: C5_5  and  N1_6 
REMARK    4  A    between atoms: N1_6  and  C6_7 
REMARK    5  A    between atoms: C6_7  and  N2_9 
REMARK    6  A    between atoms: N2_9  and  C7_10 
REMARK    7  A    between atoms: N2_9  and  C11_14 
REMARK    8  A    between atoms: C7_10  and  C8_11 
REMARK    9  A    between atoms: C8_11  and  C9_12 
REMARK   10  A    between atoms: C11_14  and  C12_15 
REMARK   11  A    between atoms: C17_21  and  O1_22 
ROOT
HETATM    1  N2  UNL     1      -0.439  -0.204   1.010  1.00  0.00    -0.354 N 
ENDROOT
BRANCH   1   2
HETATM    2  C6  UNL     1       0.846  -0.138   0.413  1.00  0.00     0.170 C 
HETATM    3  S1  UNL     1       1.858   1.059   0.017  1.00  0.00    -0.041 SA
BRANCH   2   4
HETATM    4  N1  UNL     1       1.520  -1.318   0.013  1.00  0.00    -0.364 N 
HETATM    5  H8  UNL     1       1.201  -2.308   0.085  1.00  0.00     0.162 HD
BRANCH   4   6
HETATM    6  C5  UNL     1       2.810  -1.484  -0.597  1.00  0.00     0.149 C 
BRANCH   6   7
HETATM    7  C4  UNL     1       3.882  -1.145   0.351  1.00  0.00    -0.007 C 
HETATM    8  C3  UNL     1       4.870  -0.276   0.381  1.00  0.00    -0.003 C 
BRANCH   8   9
HETATM    9  C2  UNL     1       5.322   0.740  -0.543  1.00  0.00    -0.011 C 
HETATM   10  C1  UNL     1       6.325   1.601  -0.487  1.00  0.00     0.011 C 
ENDBRANCH   8   9
ENDBRANCH   6   7
ENDBRANCH   4   6
ENDBRANCH   2   4
ENDBRANCH   1   2
BRANCH   1  11
HETATM   11  C7  UNL     1      -0.974  -1.553   1.185  1.00  0.00     0.125 C 
BRANCH  11  12
HETATM   12  C8  UNL     1      -2.132  -1.886   0.307  1.00  0.00     0.020 C 
BRANCH  12  13
HETATM   13  C9  UNL     1      -2.506  -3.340   0.641  1.00  0.00    -0.003 C 
HETATM   14  C10 UNL     1      -3.667  -3.720  -0.217  1.00  0.00     0.005 C 
ENDBRANCH  12  13
ENDBRANCH  11  12
ENDBRANCH   1  11
BRANCH   1  15
HETATM   15  C11 UNL     1      -1.363   0.779   1.500  1.00  0.00     0.166 C 
BRANCH  15  16
HETATM   16  C12 UNL     1      -1.746   1.870   0.588  1.00  0.00    -0.006 A 
HETATM   17  C13 UNL     1      -2.867   1.674  -0.202  1.00  0.00     0.012 A 
HETATM   18  C14 UNL     1      -3.325   2.609  -1.142  1.00  0.00     0.002 A 
HETATM   19  C15 UNL     1      -2.632   3.809  -1.308  1.00  0.00     0.022 A 
HETATM   20  C16 UNL     1      -1.511   4.049  -0.543  1.00  0.00     0.044 A 
HETATM   21 BR1  UNL     1      -0.547   5.663  -0.735  1.00  0.00    -0.048 Br
HETATM   22  C17 UNL     1      -1.135   3.077   0.353  1.00  0.00     0.090 A 
BRANCH  22  23
HETATM   23  O1  UNL     1      -0.008   3.376   1.100  1.00  0.00    -0.359 OA
HETATM   24  H23 UNL     1       0.081   4.275   1.525  1.00  0.00     0.217 HD
ENDBRANCH  22  23
ENDBRANCH  15  16
ENDBRANCH   1  15
TORSDOF 11
