REMARK  10 active torsions:
REMARK  status: ('A' for Active; 'I' for Inactive)
REMARK    1  A    between atoms: C2_2  and  C3_3 
REMARK    2  A    between atoms: C3_3  and  N1_4 
REMARK    3  A    between atoms: N1_4  and  C4_5 
REMARK    4  A    between atoms: N1_4  and  C12_14 
REMARK    5  A    between atoms: C4_5  and  C5_6 
REMARK    6  A    between atoms: C5_6  and  N2_7 
REMARK    7  A    between atoms: N2_7  and  C6_8 
REMARK    8  A    between atoms: C12_14  and  C13_15 
REMARK    9  A    between atoms: C17_19  and  C18_20 
REMARK   10  A    between atoms: C19_22  and  O1_23 
ROOT
HETATM    1  N1  UNL     1      -0.351   0.166   0.288  1.00  0.00     0.094 N 
ENDROOT
BRANCH   1   2
HETATM    2  C3  UNL     1      -0.775   1.486   0.643  1.00  0.00     0.272 C 
BRANCH   2   3
HETATM    3  C2  UNL     1      -0.742   1.804   2.101  1.00  0.00     0.026 C 
HETATM    4  C1  UNL     1      -1.235   3.250   2.270  1.00  0.00     0.007 C 
ENDBRANCH   2   3
ENDBRANCH   1   2
BRANCH   1   5
HETATM    5  C4  UNL     1       1.062   0.049   0.553  1.00  0.00     0.292 C 
BRANCH   5   6
HETATM    6  C5  UNL     1       1.654  -1.292   0.220  1.00  0.00     0.150 C 
BRANCH   6   7
HETATM    7  N2  UNL     1       3.067  -1.317   0.498  1.00  0.00    -0.388 N 
HETATM    8  H12 UNL     1       3.313  -1.934   1.327  1.00  0.00     0.159 HD
BRANCH   7   9
HETATM    9  C6  UNL     1       4.145  -0.667  -0.142  1.00  0.00     0.027 A 
HETATM   10  C7  UNL     1       4.048   0.137  -1.253  1.00  0.00     0.029 A 
HETATM   11  C8  UNL     1       5.083   0.791  -1.884  1.00  0.00     0.002 A 
HETATM   12  C9  UNL     1       6.340   0.617  -1.342  1.00  0.00     0.000 A 
HETATM   13  C10 UNL     1       6.500  -0.177  -0.228  1.00  0.00     0.002 A 
HETATM   14  C11 UNL     1       5.422  -0.804   0.355  1.00  0.00     0.029 A 
ENDBRANCH   7   9
ENDBRANCH   6   7
ENDBRANCH   5   6
ENDBRANCH   1   5
BRANCH   1  15
HETATM   15  C12 UNL     1      -1.172  -0.879   0.781  1.00  0.00     0.313 C 
BRANCH  15  16
HETATM   16  C13 UNL     1      -2.585  -0.770   0.321  1.00  0.00     0.004 A 
HETATM   17  C14 UNL     1      -3.627  -0.343   1.122  1.00  0.00     0.012 A 
HETATM   18  C15 UNL     1      -4.937  -0.242   0.706  1.00  0.00     0.001 A 
HETATM   19  C16 UNL     1      -5.193  -0.601  -0.608  1.00  0.00     0.011 A 
HETATM   20  C17 UNL     1      -4.214  -1.037  -1.474  1.00  0.00    -0.015 A 
HETATM   21  C19 UNL     1      -2.916  -1.117  -0.996  1.00  0.00     0.080 A 
BRANCH  20  22
HETATM   22  C18 UNL     1      -4.515  -1.419  -2.892  1.00  0.00     0.126 C 
HETATM   23 BR1  UNL     1      -4.510  -3.336  -3.082  1.00  0.00    -0.091 Br
ENDBRANCH  20  22
BRANCH  21  24
HETATM   24  O1  UNL     1      -1.855  -1.548  -1.800  1.00  0.00    -0.360 OA
HETATM   25  H25 UNL     1      -2.027  -1.582  -2.796  1.00  0.00     0.217 HD
ENDBRANCH  21  24
ENDBRANCH  15  16
ENDBRANCH   1  15
TORSDOF 10
