REMARK  8 active torsions:
REMARK  status: ('A' for Active; 'I' for Inactive)
REMARK    1  A    between atoms: C2_2  and  C3_3 
REMARK    2  A    between atoms: C3_3  and  C4_4 
REMARK    3  A    between atoms: C4_4  and  N1_5 
REMARK    4  A    between atoms: N1_5  and  C5_6 
REMARK    5  A    between atoms: N1_5  and  C12_15 
REMARK    6  A    between atoms: C5_6  and  N2_8 
REMARK    7  A    between atoms: N2_8  and  C6_9 
REMARK    8  A    between atoms: C17_21  and  O1_22 
ROOT
HETATM    1  N1  UNL     1      -0.888   0.207  -0.395  1.00  0.00    -0.321 N 
ENDROOT
BRANCH   1   2
HETATM    2  C4  UNL     1      -1.864  -0.868  -0.591  1.00  0.00     0.132 C 
BRANCH   2   3
HETATM    3  C3  UNL     1      -1.925  -1.834   0.545  1.00  0.00     0.020 C 
BRANCH   3   4
HETATM    4  C2  UNL     1      -2.962  -2.881   0.164  1.00  0.00    -0.003 C 
HETATM    5  C1  UNL     1      -3.110  -3.939   1.223  1.00  0.00     0.005 C 
ENDBRANCH   3   4
ENDBRANCH   2   3
ENDBRANCH   1   2
BRANCH   1   6
HETATM    6  C5  UNL     1       0.461  -0.226  -0.415  1.00  0.00     0.179 C 
HETATM    7  S1  UNL     1       0.876  -1.798  -0.697  1.00  0.00    -0.040 SA
BRANCH   6   8
HETATM    8  N2  UNL     1       1.662   0.518  -0.263  1.00  0.00    -0.333 N 
HETATM    9  H10 UNL     1       1.482   1.544  -0.138  1.00  0.00     0.168 HD
BRANCH   8  10
HETATM   10  C6  UNL     1       3.030   0.145  -0.252  1.00  0.00     0.034 A 
HETATM   11  C7  UNL     1       3.440  -1.050   0.329  1.00  0.00     0.029 A 
HETATM   12  C8  UNL     1       4.763  -1.455   0.323  1.00  0.00     0.002 A 
HETATM   13  C9  UNL     1       5.667  -0.592  -0.303  1.00  0.00     0.000 A 
HETATM   14  C10 UNL     1       5.265   0.591  -0.877  1.00  0.00     0.002 A 
HETATM   15  C11 UNL     1       3.945   0.981  -0.864  1.00  0.00     0.029 A 
ENDBRANCH   8  10
ENDBRANCH   6   8
ENDBRANCH   1   6
BRANCH   1  16
HETATM   16  C12 UNL     1      -1.248   1.568  -0.208  1.00  0.00     0.071 A 
HETATM   17  C13 UNL     1      -1.948   2.020  -1.334  1.00  0.00     0.033 A 
HETATM   18  C14 UNL     1      -2.415   3.330  -1.400  1.00  0.00     0.004 A 
HETATM   19  C15 UNL     1      -2.210   4.231  -0.370  1.00  0.00     0.022 A 
HETATM   20  C16 UNL     1      -1.509   3.745   0.735  1.00  0.00     0.046 A 
HETATM   21 BR1  UNL     1      -1.158   4.876   2.217  1.00  0.00    -0.048 Br
HETATM   22  C17 UNL     1      -1.047   2.462   0.811  1.00  0.00     0.110 A 
BRANCH  22  23
HETATM   23  O1  UNL     1      -0.349   1.900   1.861  1.00  0.00    -0.357 OA
HETATM   24  H19 UNL     1      -0.859   1.626   2.670  1.00  0.00     0.217 HD
ENDBRANCH  22  23
ENDBRANCH   1  16
TORSDOF 8
