REMARK  9 active torsions:
REMARK  status: ('A' for Active; 'I' for Inactive)
REMARK    1  A    between atoms: C2_2  and  C3_3 
REMARK    2  A    between atoms: C3_3  and  C4_4 
REMARK    3  A    between atoms: C4_4  and  C5_5 
REMARK    4  A    between atoms: C5_5  and  N1_6 
REMARK    5  A    between atoms: N1_6  and  C6_7 
REMARK    6  A    between atoms: N1_6  and  C13_16 
REMARK    7  A    between atoms: C6_7  and  N2_9 
REMARK    8  A    between atoms: N2_9  and  C7_10 
REMARK    9  A    between atoms: C18_21  and  O1_22 
ROOT
HETATM    1  N1  UNL     1       0.333   0.463   0.028  1.00  0.00    -0.344 N 
ENDROOT
BRANCH   1   2
HETATM    2  C5  UNL     1       1.178  -0.740  -0.086  1.00  0.00     0.126 C 
BRANCH   2   3
HETATM    3  C4  UNL     1       1.985  -1.020   1.133  1.00  0.00     0.020 C 
BRANCH   3   4
HETATM    4  C3  UNL     1       2.795  -2.295   0.887  1.00  0.00     0.001 C 
BRANCH   4   5
HETATM    5  C2  UNL     1       3.722  -2.131  -0.298  1.00  0.00    -0.004 C 
HETATM    6  C1  UNL     1       4.685  -0.994  -0.054  1.00  0.00     0.005 C 
ENDBRANCH   4   5
ENDBRANCH   3   4
ENDBRANCH   2   3
ENDBRANCH   1   2
BRANCH   1   7
HETATM    7  C6  UNL     1      -1.087   0.433   0.091  1.00  0.00     0.175 C 
HETATM    8  S1  UNL     1      -1.830   1.884   0.131  1.00  0.00    -0.041 SA
BRANCH   7   9
HETATM    9  N2  UNL     1      -1.877  -0.737   0.080  1.00  0.00    -0.333 N 
HETATM   10  H12 UNL     1      -1.263  -1.576   0.023  1.00  0.00     0.168 HD
BRANCH   9  11
HETATM   11  C7  UNL     1      -3.247  -1.019   0.129  1.00  0.00     0.034 A 
HETATM   12  C8  UNL     1      -3.679  -2.343   0.084  1.00  0.00     0.029 A 
HETATM   13  C9  UNL     1      -5.004  -2.685   0.130  1.00  0.00     0.002 A 
HETATM   14  C10 UNL     1      -5.942  -1.699   0.225  1.00  0.00     0.000 A 
HETATM   15  C11 UNL     1      -5.619  -0.377   0.275  1.00  0.00     0.002 A 
HETATM   16  C12 UNL     1      -4.276  -0.107   0.224  1.00  0.00     0.029 A 
ENDBRANCH   9  11
ENDBRANCH   7   9
ENDBRANCH   1   7
BRANCH   1  17
HETATM   17  C13 UNL     1       1.114   1.667   0.054  1.00  0.00     0.172 A 
HETATM   18  C14 UNL     1       0.474   2.858   0.614  1.00  0.00    -0.055 A 
HETATM   19  C15 UNL     1       0.045   3.022   2.052  1.00  0.00     0.046 C 
HETATM   20  C16 UNL     1       0.334   3.854  -0.277  1.00  0.00     0.007 A 
HETATM   21  C17 UNL     1       0.908   3.347  -1.534  1.00  0.00     0.035 A 
HETATM   22  C18 UNL     1       1.365   2.101  -1.383  1.00  0.00     0.070 A 
BRANCH  22  23
HETATM   23  O1  UNL     1       1.948   1.458  -2.471  1.00  0.00    -0.362 OA
HETATM   24  H24 UNL     1       1.415   1.105  -3.265  1.00  0.00     0.217 HD
ENDBRANCH  22  23
ENDBRANCH   1  17
TORSDOF 9
