REMARK  7 active torsions:
REMARK  status: ('A' for Active; 'I' for Inactive)
REMARK    1  A    between atoms: C2_2  and  C3_3 
REMARK    2  A    between atoms: C3_3  and  C4_4 
REMARK    3  A    between atoms: C4_4  and  C5_5 
REMARK    4  A    between atoms: C6_6  and  O1_7 
REMARK    5  A    between atoms: C8_9  and  C9_10 
REMARK    6  A    between atoms: C9_10  and  N1_11 
REMARK    7  A    between atoms: N2_14  and  C11_15 
ROOT
HETATM    1  C5  UNL     1      -2.031  -0.866   0.755  1.00  0.00     0.043 A 
HETATM    2  C6  UNL     1      -1.230   0.103   0.345  1.00  0.00     0.098 A 
HETATM    3  C7  UNL     1      -0.233  -0.058  -0.706  1.00  0.00    -0.002 A 
HETATM    4  C8  UNL     1       0.572   0.903  -1.123  1.00  0.00     0.009 C 
HETATM    5  C17 UNL     1      -0.136  -1.375  -1.322  1.00  0.00     0.031 A 
HETATM    6  C18 UNL     1      -0.958  -2.310  -0.877  1.00  0.00     0.089 A 
HETATM    7  N3  UNL     1      -1.925  -2.132   0.150  1.00  0.00    -0.367 N 
HETATM    8  H21 UNL     1      -2.534  -2.927   0.439  1.00  0.00     0.165 HD
ENDROOT
BRANCH   2   9
HETATM    9  O1  UNL     1      -1.379   1.320   0.972  1.00  0.00    -0.358 OA
HETATM   10  H10 UNL     1      -2.232   1.781   1.193  1.00  0.00     0.217 HD
ENDBRANCH   2   9
BRANCH   4  11
HETATM   11  C9  UNL     1       0.819   2.304  -0.814  1.00  0.00     0.180 C 
BRANCH  11  12
HETATM   12  N1  UNL     1       2.195   2.478  -0.376  1.00  0.00    -0.253 N 
HETATM   13  C10 UNL     1       3.280   3.318   0.088  1.00  0.00     0.216 A 
HETATM   14  S1  UNL     1       3.666   4.860   0.462  1.00  0.00    -0.037 SA
HETATM   15  N2  UNL     1       3.469   1.907  -0.094  1.00  0.00    -0.224 N 
BRANCH  15  16
HETATM   16  C11 UNL     1       4.386   0.823  -0.005  1.00  0.00     0.059 A 
HETATM   17  C12 UNL     1       5.667   1.087   0.420  1.00  0.00     0.031 A 
HETATM   18  C13 UNL     1       6.565   0.029   0.508  1.00  0.00     0.002 A 
HETATM   19  C14 UNL     1       6.119  -1.225   0.164  1.00  0.00     0.000 A 
HETATM   20  C15 UNL     1       4.823  -1.523  -0.271  1.00  0.00     0.002 A 
HETATM   21  C16 UNL     1       3.966  -0.444  -0.344  1.00  0.00     0.031 A 
ENDBRANCH  15  16
ENDBRANCH  11  12
ENDBRANCH   4  11
BRANCH   1  22
HETATM   22  C4  UNL     1      -3.038  -0.702   1.816  1.00  0.00     0.060 C 
BRANCH  22  23
HETATM   23  C3  UNL     1      -4.433  -0.969   1.360  1.00  0.00     0.006 C 
BRANCH  23  24
HETATM   24  C2  UNL     1      -4.817  -0.023   0.243  1.00  0.00    -0.004 C 
HETATM   25  C1  UNL     1      -6.247  -0.387  -0.136  1.00  0.00     0.005 C 
ENDBRANCH  23  24
ENDBRANCH  22  23
ENDBRANCH   1  22
TORSDOF 7
