REMARK  4 active torsions:
REMARK  status: ('A' for Active; 'I' for Inactive)
REMARK    1  A    between atoms: N2_7  and  C5_8 
REMARK    2  A    between atoms: C5_8  and  O1_9 
REMARK    3  A    between atoms: O1_9  and  S2_10 
REMARK    4  A    between atoms: S2_10  and  C6_11 
ROOT
HETATM    1  C1  UNL     1       5.921  -1.605   1.025  1.00  0.00     0.020 C 
HETATM    2  C2  UNL     1       4.964  -0.819   0.495  1.00  0.00    -0.050 C 
HETATM    3  C3  UNL     1       3.777  -1.361   1.142  1.00  0.00     0.126 C 
HETATM    4  N1  UNL     1       2.573  -1.464   1.454  1.00  0.00    -0.233 NA
HETATM    5  C4  UNL     1       1.403  -0.734   1.122  1.00  0.00     0.197 C 
HETATM    6  S1  UNL     1       0.130  -1.672   1.429  1.00  0.00    -0.039 SA
HETATM    7  N2  UNL     1       1.381   0.647   0.590  1.00  0.00    -0.334 N 
HETATM    8  C14 UNL     1       2.652   1.242   0.374  1.00  0.00     0.127 C 
HETATM    9  C15 UNL     1       3.311   1.659  -0.781  1.00  0.00     0.020 C 
HETATM   10  C16 UNL     1       4.804   1.601  -0.454  1.00  0.00     0.006 C 
HETATM   11  C17 UNL     1       5.336   0.193  -0.426  1.00  0.00     0.039 C 
ENDROOT
BRANCH   7  12
HETATM   12  C5  UNL     1       0.029   1.132   0.386  1.00  0.00     0.313 C 
BRANCH  12  13
HETATM   13  O1  UNL     1      -0.713   0.378  -0.502  1.00  0.00    -0.296 OA
BRANCH  13  14
HETATM   14  S2  UNL     1      -2.259   1.081  -0.626  1.00  0.00     0.027 SA
BRANCH  14  15
HETATM   15  C6  UNL     1      -3.578  -0.110  -0.744  1.00  0.00     0.015 C 
HETATM   16  C7  UNL     1      -4.752   0.535  -0.838  1.00  0.00    -0.047 C 
HETATM   17  C8  UNL     1      -4.637   2.018  -0.819  1.00  0.00     0.049 C 
HETATM   18  C9  UNL     1      -6.125  -0.003  -0.955  1.00  0.00     0.008 C 
HETATM   19  C10 UNL     1      -6.525  -1.220  -0.556  1.00  0.00     0.000 C 
HETATM   20  C11 UNL     1      -5.723  -2.276   0.072  1.00  0.00    -0.004 C 
HETATM   21  C12 UNL     1      -4.399  -2.347  -0.057  1.00  0.00    -0.021 C 
HETATM   22  C13 UNL     1      -3.345  -1.580  -0.735  1.00  0.00     0.075 C 
ENDBRANCH  14  15
ENDBRANCH  13  14
ENDBRANCH  12  13
ENDBRANCH   7  12
TORSDOF 4
