REMARK  9 active torsions:
REMARK  status: ('A' for Active; 'I' for Inactive)
REMARK    1  A    between atoms: C2_2  and  C3_3 
REMARK    2  A    between atoms: C3_3  and  C4_4 
REMARK    3  A    between atoms: C4_4  and  N1_5 
REMARK    4  A    between atoms: N1_5  and  C5_6 
REMARK    5  A    between atoms: N1_5  and  C13_15 
REMARK    6  A    between atoms: C5_6  and  C6_7 
REMARK    7  A    between atoms: C12_13  and  O1_14 
REMARK    8  A    between atoms: C13_15  and  N2_17 
REMARK    9  A    between atoms: N2_17  and  C14_18 
ROOT
HETATM    1  N1  UNL     1      -0.041   0.156   0.759  1.00  0.00    -0.354 N 
ENDROOT
BRANCH   1   2
HETATM    2  C4  UNL     1      -0.670   1.431   0.732  1.00  0.00     0.125 C 
BRANCH   2   3
HETATM    3  C3  UNL     1       0.189   2.615   0.440  1.00  0.00     0.020 C 
BRANCH   3   4
HETATM    4  C2  UNL     1      -0.765   3.828   0.486  1.00  0.00    -0.003 C 
HETATM    5  C1  UNL     1      -0.014   5.099   0.203  1.00  0.00     0.005 C 
ENDBRANCH   3   4
ENDBRANCH   2   3
ENDBRANCH   1   2
BRANCH   1   6
HETATM    6  C5  UNL     1      -0.826  -1.000   1.047  1.00  0.00     0.166 C 
BRANCH   6   7
HETATM    7  C6  UNL     1      -1.967  -1.277   0.178  1.00  0.00    -0.007 A 
HETATM    8  C7  UNL     1      -1.813  -2.214  -0.848  1.00  0.00     0.011 A 
HETATM    9  C8  UNL     1      -2.779  -2.576  -1.764  1.00  0.00     0.001 A 
HETATM   10  C9  UNL     1      -4.004  -1.950  -1.650  1.00  0.00     0.009 A 
HETATM   11  C10 UNL     1      -4.246  -1.008  -0.664  1.00  0.00    -0.028 A 
HETATM   12  C11 UNL     1      -5.571  -0.339  -0.549  1.00  0.00     0.051 C 
HETATM   13  C12 UNL     1      -3.226  -0.713   0.203  1.00  0.00     0.079 A 
BRANCH  13  14
HETATM   14  O1  UNL     1      -3.494   0.220   1.171  1.00  0.00    -0.360 OA
HETATM   15  H18 UNL     1      -3.662   1.173   0.876  1.00  0.00     0.217 HD
ENDBRANCH  13  14
ENDBRANCH   6   7
ENDBRANCH   1   6
BRANCH   1  16
HETATM   16  C13 UNL     1       1.379  -0.022   0.514  1.00  0.00     0.176 C 
HETATM   17  S1  UNL     1       2.506   1.116   0.182  1.00  0.00    -0.041 SA
BRANCH  16  18
HETATM   18  N2  UNL     1       2.013  -1.325   0.540  1.00  0.00    -0.314 N 
HETATM   19  H19 UNL     1       1.746  -2.343   0.699  1.00  0.00     0.170 HD
BRANCH  18  20
HETATM   20  C14 UNL     1       3.376  -1.633   0.324  1.00  0.00     0.144 A 
HETATM   21  C15 UNL     1       3.690  -1.512  -0.957  1.00  0.00     0.056 A 
HETATM   22  C16 UNL     1       5.074  -1.788  -1.407  1.00  0.00     0.002 A 
HETATM   23  C17 UNL     1       5.944  -2.148  -0.487  1.00  0.00    -0.000 A 
HETATM   24  C18 UNL     1       5.683  -2.305   0.949  1.00  0.00     0.204 A 
HETATM   25  O2  UNL     1       4.349  -2.017   1.219  1.00  0.00    -0.332 OA
ENDBRANCH  18  20
ENDBRANCH  16  18
ENDBRANCH   1  16
TORSDOF 9
