REMARK  8 active torsions:
REMARK  status: ('A' for Active; 'I' for Inactive)
REMARK    1  A    between atoms: C2_2  and  C3_3 
REMARK    2  A    between atoms: C3_3  and  C4_4 
REMARK    3  A    between atoms: C4_4  and  N1_5 
REMARK    4  A    between atoms: N1_5  and  C5_6 
REMARK    5  A    between atoms: N1_5  and  C13_14 
REMARK    6  A    between atoms: C5_6  and  C6_7 
REMARK    7  A    between atoms: C13_14  and  N2_16 
REMARK    8  A    between atoms: N2_16  and  C14_17 
ROOT
HETATM    1  N1  UNL     1       0.560   0.997  -0.150  1.00  0.00    -0.354 N 
ENDROOT
BRANCH   1   2
HETATM    2  C4  UNL     1       0.058   2.253  -0.666  1.00  0.00     0.125 C 
BRANCH   2   3
HETATM    3  C3  UNL     1      -0.021   3.263   0.457  1.00  0.00     0.020 C 
BRANCH   3   4
HETATM    4  C2  UNL     1      -0.558   4.561  -0.144  1.00  0.00    -0.003 C 
HETATM    5  C1  UNL     1      -1.920   4.255  -0.717  1.00  0.00     0.005 C 
ENDBRANCH   3   4
ENDBRANCH   2   3
ENDBRANCH   1   2
BRANCH   1   6
HETATM    6  C5  UNL     1       1.922   1.041   0.263  1.00  0.00     0.163 C 
BRANCH   6   7
HETATM    7  C6  UNL     1       2.483  -0.209   0.781  1.00  0.00    -0.040 A 
HETATM    8  C7  UNL     1       2.467  -0.623   2.091  1.00  0.00     0.009 A 
HETATM    9  C8  UNL     1       3.000  -1.802   2.568  1.00  0.00     0.001 A 
HETATM   10  C9  UNL     1       3.601  -2.616   1.599  1.00  0.00     0.007 A 
HETATM   11  C10 UNL     1       3.666  -2.285   0.262  1.00  0.00    -0.061 A 
HETATM   12  C11 UNL     1       4.315  -3.183  -0.725  1.00  0.00     0.048 C 
HETATM   13  C12 UNL     1       3.099  -1.082  -0.099  1.00  0.00     0.015 A 
ENDBRANCH   6   7
ENDBRANCH   1   6
BRANCH   1  14
HETATM   14  C13 UNL     1      -0.299  -0.115  -0.099  1.00  0.00     0.174 C 
HETATM   15  S1  UNL     1       0.117  -1.591   0.455  1.00  0.00    -0.041 SA
BRANCH  14  16
HETATM   16  N2  UNL     1      -1.637   0.018  -0.557  1.00  0.00    -0.333 N 
HETATM   17  H19 UNL     1      -2.283   0.712  -0.960  1.00  0.00     0.168 HD
BRANCH  16  18
HETATM   18  C14 UNL     1      -2.619  -1.011  -0.568  1.00  0.00     0.034 A 
HETATM   19  C15 UNL     1      -2.803  -1.892  -1.612  1.00  0.00     0.029 A 
HETATM   20  C16 UNL     1      -3.769  -2.882  -1.595  1.00  0.00     0.002 A 
HETATM   21  C17 UNL     1      -4.603  -3.012  -0.486  1.00  0.00     0.000 A 
HETATM   22  C18 UNL     1      -4.476  -2.162   0.600  1.00  0.00     0.002 A 
HETATM   23  C19 UNL     1      -3.480  -1.196   0.501  1.00  0.00     0.029 A 
ENDBRANCH  16  18
ENDBRANCH  14  16
ENDBRANCH   1  14
TORSDOF 8
