REMARK  9 active torsions:
REMARK  status: ('A' for Active; 'I' for Inactive)
REMARK    1  A    between atoms: O1_1  and  C1_2 
REMARK    2  A    between atoms: C2_3  and  C3_4 
REMARK    3  A    between atoms: C3_4  and  C4_5 
REMARK    4  A    between atoms: C4_5  and  C5_6 
REMARK    5  A    between atoms: C5_6  and  C6_7 
REMARK    6  A    between atoms: C6_7  and  C7_8 
REMARK    7  A    between atoms: C11_13  and  C12_14 
REMARK    8  A    between atoms: C12_14  and  C13_15 
REMARK    9  A    between atoms: C13_15  and  C14_16 
ROOT
HETATM    1  C1  UNL     1       0.934  -0.475   0.194  1.00  0.00     0.078 A 
HETATM    2  C2  UNL     1       2.125  -0.312  -0.493  1.00  0.00    -0.024 A 
HETATM    3  C8  UNL     1       2.387   0.970  -0.904  1.00  0.00     0.010 A 
HETATM    4  C9  UNL     1       1.569   2.033  -0.678  1.00  0.00     0.001 A 
HETATM    5  C10 UNL     1       0.403   1.801   0.010  1.00  0.00     0.010 A 
HETATM    6  C11 UNL     1       0.031   0.558   0.474  1.00  0.00    -0.024 A 
ENDROOT
BRANCH   6   7
HETATM    7  C12 UNL     1      -1.195   0.203   1.224  1.00  0.00     0.043 C 
BRANCH   7   8
HETATM    8  C13 UNL     1      -2.207  -0.511   0.384  1.00  0.00     0.032 C 
BRANCH   8   9
HETATM    9  C14 UNL     1      -2.704   0.281  -0.807  1.00  0.00     0.111 C 
HETATM   10  C15 UNL     1      -3.361   1.547  -0.400  1.00  0.00     0.054 C 
HETATM   11  C16 UNL     1      -4.602   1.477   0.360  1.00  0.00    -0.025 C 
HETATM   12  C17 UNL     1      -5.827   0.968   0.285  1.00  0.00    -0.004 C 
HETATM   13  C18 UNL     1      -6.404   0.163  -0.811  1.00  0.00     0.001 C 
HETATM   14  C19 UNL     1      -5.910  -0.623  -1.762  1.00  0.00     0.019 C 
HETATM   15  C20 UNL     1      -4.532  -0.996  -2.084  1.00  0.00     0.111 C 
HETATM   16  N1  UNL     1      -3.373  -0.604  -1.677  1.00  0.00    -0.296 NA
ENDBRANCH   8   9
ENDBRANCH   7   8
ENDBRANCH   6   7
BRANCH   1  17
HETATM   17  O1  UNL     1       0.624  -1.772   0.635  1.00  0.00    -0.360 OA
HETATM   18  H1  UNL     1       0.589  -2.560   0.000  1.00  0.00     0.217 HD
ENDBRANCH   1  17
BRANCH   2  19
HETATM   19  C3  UNL     1       2.996  -1.508  -0.725  1.00  0.00     0.041 C 
BRANCH  19  20
HETATM   20  C4  UNL     1       3.702  -1.867   0.551  1.00  0.00     0.005 C 
BRANCH  20  21
HETATM   21  C5  UNL     1       4.588  -0.777   1.085  1.00  0.00     0.005 C 
BRANCH  21  22
HETATM   22  C6  UNL     1       5.666  -0.446   0.084  1.00  0.00     0.038 C 
BRANCH  22  23
HETATM   23  C7  UNL     1       6.539   0.635   0.631  1.00  0.00     0.054 C 
HETATM   24  S1  UNL     1       7.876   0.942   0.247  1.00  0.00    -0.097 SA
ENDBRANCH  22  23
ENDBRANCH  21  22
ENDBRANCH  20  21
ENDBRANCH  19  20
ENDBRANCH   2  19
TORSDOF 9
