REMARK  10 active torsions:
REMARK  status: ('A' for Active; 'I' for Inactive)
REMARK    1  A    between atoms: N1_1  and  C1_2 
REMARK    2  A    between atoms: C1_2  and  C2_3 
REMARK    3  A    between atoms: C2_3  and  C3_4 
REMARK    4  A    between atoms: C7_8  and  C8_9 
REMARK    5  A    between atoms: C8_9  and  C9_10 
REMARK    6  A    between atoms: C9_10  and  C10_11 
REMARK    7  A    between atoms: C10_11  and  C11_12 
REMARK    8  A    between atoms: C11_12  and  C12_13 
REMARK    9  A    between atoms: C12_13  and  N2_15 
REMARK   10  A    between atoms: N2_15  and  C13_16 
ROOT
HETATM    1  C9  UNL     1      -0.233  -0.193   0.036  1.00  0.00     0.005 C 
ENDROOT
BRANCH   1   2
HETATM    2  C8  UNL     1       1.099   0.014   0.640  1.00  0.00     0.034 C 
BRANCH   2   3
HETATM    3  C7  UNL     1       2.270  -0.535  -0.005  1.00  0.00    -0.079 C 
HETATM    4  C6  UNL     1       2.430  -1.200  -1.119  1.00  0.00     0.002 C 
HETATM    5  C5  UNL     1       3.625  -1.719  -1.726  1.00  0.00    -0.003 C 
HETATM    6  C4  UNL     1       4.681  -1.396  -0.956  1.00  0.00    -0.022 C 
HETATM    7  C3  UNL     1       4.784  -0.645   0.309  1.00  0.00     0.013 C 
HETATM    8  C19 UNL     1       3.450  -0.392   0.880  1.00  0.00     0.042 C 
BRANCH   7   9
HETATM    9  C2  UNL     1       5.496   0.657  -0.079  1.00  0.00     0.038 C 
BRANCH   9  10
HETATM   10  C1  UNL     1       5.710   1.586   1.061  1.00  0.00     0.267 C 
BRANCH  10  11
HETATM   11  N1  UNL     1       6.382   2.789   0.567  1.00  0.00     0.078 N 
HETATM   12  H1  UNL     1       5.707   3.368   0.017  1.00  0.00     0.312 HD
HETATM   13  H2  UNL     1       7.252   2.613   0.060  1.00  0.00     0.312 HD
ENDBRANCH  10  11
ENDBRANCH   9  10
ENDBRANCH   7   9
ENDBRANCH   2   3
ENDBRANCH   1   2
BRANCH   1  14
HETATM   14  C10 UNL     1      -0.769  -1.568  -0.059  1.00  0.00     0.007 C 
BRANCH  14  15
HETATM   15  C11 UNL     1      -2.142  -1.496  -0.735  1.00  0.00     0.069 C 
BRANCH  15  16
HETATM   16  C12 UNL     1      -3.118  -0.680  -0.009  1.00  0.00     0.077 C 
HETATM   17  S1  UNL     1      -3.290   0.131   1.424  1.00  0.00    -0.065 SA
BRANCH  16  18
HETATM   18  N2  UNL     1      -4.306  -0.574  -0.846  1.00  0.00    -0.351 N 
HETATM   19  H19 UNL     1      -4.547  -0.942  -1.778  1.00  0.00     0.166 HD
BRANCH  18  20
HETATM   20  C13 UNL     1      -5.482   0.141  -0.462  1.00  0.00     0.032 A 
HETATM   21  C14 UNL     1      -5.596   1.511  -0.502  1.00  0.00     0.029 A 
HETATM   22  C15 UNL     1      -6.753   2.159  -0.139  1.00  0.00     0.002 A 
HETATM   23  C16 UNL     1      -7.820   1.350   0.275  1.00  0.00     0.000 A 
HETATM   24  C17 UNL     1      -7.727  -0.025   0.322  1.00  0.00     0.002 A 
HETATM   25  C18 UNL     1      -6.532  -0.653  -0.054  1.00  0.00     0.029 A 
ENDBRANCH  18  20
ENDBRANCH  16  18
ENDBRANCH  15  16
ENDBRANCH  14  15
ENDBRANCH   1  14
TORSDOF 10
