REMARK  8 active torsions:
REMARK  status: ('A' for Active; 'I' for Inactive)
REMARK    1  A    between atoms: C2_2  and  C3_3 
REMARK    2  A    between atoms: C3_3  and  C4_4 
REMARK    3  A    between atoms: C4_4  and  N1_5 
REMARK    4  A    between atoms: N1_5  and  C5_6 
REMARK    5  A    between atoms: N1_5  and  C11_13 
REMARK    6  A    between atoms: C5_6  and  C6_7 
REMARK    7  A    between atoms: C11_13  and  N2_14 
REMARK    8  A    between atoms: C16_19  and  S1_20 
ROOT
HETATM    1  N1  UNL     1      -0.833  -0.095   0.039  1.00  0.00     0.120 N 
ENDROOT
BRANCH   1   2
HETATM    2  C4  UNL     1      -1.232  -1.445   0.250  1.00  0.00     0.275 C 
BRANCH   2   3
HETATM    3  C3  UNL     1      -0.259  -2.498  -0.162  1.00  0.00     0.030 C 
BRANCH   3   4
HETATM    4  C2  UNL     1      -0.913  -3.855   0.152  1.00  0.00    -0.003 C 
HETATM    5  C1  UNL     1      -2.208  -4.001  -0.618  1.00  0.00     0.005 C 
ENDBRANCH   3   4
ENDBRANCH   2   3
ENDBRANCH   1   2
BRANCH   1   6
HETATM    6  C5  UNL     1      -1.954   0.738   0.510  1.00  0.00     0.309 C 
BRANCH   6   7
HETATM    7  C6  UNL     1      -1.673   2.176   0.321  1.00  0.00    -0.047 A 
HETATM    8  C7  UNL     1      -1.579   3.213   1.152  1.00  0.00     0.028 A 
HETATM    9  C8  UNL     1      -1.272   4.405   0.338  1.00  0.00     0.030 A 
HETATM   10 CL1  UNL     1      -1.062   5.992   1.028  1.00  0.00    -0.085 Cl
HETATM   11  C9  UNL     1      -1.192   4.058  -0.935  1.00  0.00     0.001 A 
HETATM   12  C10 UNL     1      -1.442   2.592  -1.082  1.00  0.00     0.065 A 
ENDBRANCH   6   7
ENDBRANCH   1   6
BRANCH   1  13
HETATM   13  C11 UNL     1       0.310   0.354   0.765  1.00  0.00     0.545 C 
BRANCH  13  14
HETATM   14  N2  UNL     1       1.540  -0.329   0.484  1.00  0.00     0.137 N 
HETATM   15  C12 UNL     1       2.554   0.294   1.346  1.00  0.00     0.305 C 
HETATM   16  C13 UNL     1       3.923   0.063   0.785  1.00  0.00     0.015 C 
HETATM   17  C14 UNL     1       4.087   0.624  -0.402  1.00  0.00    -0.029 C 
HETATM   18  C15 UNL     1       2.956   1.063  -0.926  1.00  0.00     0.031 C 
HETATM   19  C16 UNL     1       1.961  -0.052  -0.880  1.00  0.00     0.308 C 
BRANCH  19  20
HETATM   20  S1  UNL     1       2.733  -1.471  -1.686  1.00  0.00    -0.143 SA
HETATM   21  H23 UNL     1       3.310  -0.977  -2.890  1.00  0.00     0.104 HD
ENDBRANCH  19  20
ENDBRANCH  13  14
ENDBRANCH   1  13
TORSDOF 8
