REMARK  9 active torsions:
REMARK  status: ('A' for Active; 'I' for Inactive)
REMARK    1  A    between atoms: O1_1  and  C1_2 
REMARK    2  A    between atoms: C6_9  and  C7_10 
REMARK    3  A    between atoms: C7_10  and  N1_11 
REMARK    4  A    between atoms: N1_11  and  C8_12 
REMARK    5  A    between atoms: N1_11  and  C11_16 
REMARK    6  A    between atoms: C8_12  and  C9_13 
REMARK    7  A    between atoms: C9_13  and  C10_14 
REMARK    8  A    between atoms: C11_16  and  N2_17 
REMARK    9  A    between atoms: N2_17  and  C12_18 
ROOT
HETATM    1  N1  UNL     1      -0.567  -1.052  -0.137  1.00  0.00     0.110 N 
ENDROOT
BRANCH   1   2
HETATM    2  C7  UNL     1      -1.577  -0.792  -1.142  1.00  0.00     0.316 C 
BRANCH   2   3
HETATM    3  C6  UNL     1      -2.253   0.528  -0.902  1.00  0.00     0.006 A 
HETATM    4  C1  UNL     1      -3.167   0.421   0.142  1.00  0.00     0.095 A 
HETATM    5  C2  UNL     1      -3.915   1.498   0.556  1.00  0.00     0.069 A 
HETATM    6 CL1  UNL     1      -5.089   1.482   1.852  1.00  0.00    -0.081 Cl
HETATM    7  C3  UNL     1      -3.762   2.734  -0.080  1.00  0.00     0.050 A 
HETATM    8  C4  UNL     1      -2.851   2.817  -1.111  1.00  0.00     0.036 A 
HETATM    9 CL2  UNL     1      -2.569   4.315  -1.987  1.00  0.00    -0.084 Cl
HETATM   10  C5  UNL     1      -2.099   1.743  -1.530  1.00  0.00     0.035 A 
BRANCH   4  11
HETATM   11  O1  UNL     1      -3.447  -0.712   0.878  1.00  0.00    -0.358 OA
HETATM   12  H1  UNL     1      -2.899  -1.058   1.646  1.00  0.00     0.217 HD
ENDBRANCH   4  11
ENDBRANCH   2   3
ENDBRANCH   1   2
BRANCH   1  13
HETATM   13  C8  UNL     1       0.002  -2.364  -0.408  1.00  0.00     0.279 C 
BRANCH  13  14
HETATM   14  C9  UNL     1      -0.933  -3.499  -0.170  1.00  0.00     0.069 C 
BRANCH  14  15
HETATM   15  C10 UNL     1      -1.429  -3.584   1.219  1.00  0.00     0.056 C 
HETATM   16  S1  UNL     1      -2.500  -4.532   1.389  1.00  0.00    -0.097 SA
ENDBRANCH  14  15
ENDBRANCH  13  14
ENDBRANCH   1  13
BRANCH   1  17
HETATM   17  C11 UNL     1       0.500  -0.102  -0.381  1.00  0.00     0.395 C 
BRANCH  17  18
HETATM   18  N2  UNL     1       1.578  -0.231   0.587  1.00  0.00    -0.365 N 
HETATM   19  H13 UNL     1       1.447  -0.938   1.334  1.00  0.00     0.161 HD
BRANCH  18  20
HETATM   20  C12 UNL     1       2.766   0.550   0.553  1.00  0.00     0.029 A 
HETATM   21  C13 UNL     1       2.994   1.495  -0.416  1.00  0.00     0.029 A 
HETATM   22  C14 UNL     1       4.145   2.266  -0.463  1.00  0.00     0.002 A 
HETATM   23  C15 UNL     1       5.119   2.075   0.519  1.00  0.00     0.000 A 
HETATM   24  C16 UNL     1       4.887   1.121   1.494  1.00  0.00     0.002 A 
HETATM   25  C17 UNL     1       3.729   0.364   1.519  1.00  0.00     0.029 A 
ENDBRANCH  18  20
ENDBRANCH  17  18
ENDBRANCH   1  17
TORSDOF 9
