REMARK  9 active torsions:
REMARK  status: ('A' for Active; 'I' for Inactive)
REMARK    1  A    between atoms: C2_2  and  C3_3 
REMARK    2  A    between atoms: C3_3  and  C4_4 
REMARK    3  A    between atoms: C4_4  and  N1_5 
REMARK    4  A    between atoms: N1_5  and  C5_6 
REMARK    5  A    between atoms: N1_5  and  C12_16 
REMARK    6  A    between atoms: C5_6  and  N2_8 
REMARK    7  A    between atoms: N2_8  and  C6_9 
REMARK    8  A    between atoms: C6_9  and  C7_10 
REMARK    9  A    between atoms: C17_23  and  O1_24 
ROOT
HETATM    1  N1  UNL     1      -1.418  -0.258   1.144  1.00  0.00    -0.322 N 
ENDROOT
BRANCH   1   2
HETATM    2  C4  UNL     1      -2.478  -0.710   1.959  1.00  0.00     0.131 C 
BRANCH   2   3
HETATM    3  C3  UNL     1      -3.872  -0.442   1.611  1.00  0.00     0.020 C 
BRANCH   3   4
HETATM    4  C2  UNL     1      -4.324  -1.032   0.307  1.00  0.00    -0.003 C 
HETATM    5  C1  UNL     1      -4.143  -2.553   0.360  1.00  0.00     0.005 C 
ENDBRANCH   3   4
ENDBRANCH   2   3
ENDBRANCH   1   2
BRANCH   1   6
HETATM    6  C5  UNL     1      -0.133  -0.619   1.745  1.00  0.00     0.174 C 
HETATM    7  S1  UNL     1      -0.116  -1.437   3.203  1.00  0.00    -0.041 SA
BRANCH   6   8
HETATM    8  N2  UNL     1       1.188  -0.341   1.207  1.00  0.00    -0.363 N 
HETATM    9  H10 UNL     1       1.910  -0.699   1.830  1.00  0.00     0.162 HD
BRANCH   8  10
HETATM   10  C6  UNL     1       1.852   0.270   0.095  1.00  0.00     0.157 C 
BRANCH  10  11
HETATM   11  C7  UNL     1       3.306   0.163   0.118  1.00  0.00    -0.043 A 
HETATM   12  C8  UNL     1       4.225  -0.362   0.898  1.00  0.00     0.092 A 
HETATM   13  N3  UNL     1       5.634  -0.382   0.781  1.00  0.00    -0.375 N 
HETATM   14  C9  UNL     1       6.192   0.261  -0.354  1.00  0.00     0.084 A 
HETATM   15  H14 UNL     1       6.200  -0.843   1.491  1.00  0.00     0.164 HD
HETATM   16  C10 UNL     1       5.265   0.785  -1.130  1.00  0.00    -0.005 A 
HETATM   17  C11 UNL     1       3.798   0.873  -1.118  1.00  0.00     0.065 A 
ENDBRANCH  10  11
ENDBRANCH   8  10
ENDBRANCH   6   8
ENDBRANCH   1   6
BRANCH   1  18
HETATM   18  C12 UNL     1      -1.300   0.428  -0.103  1.00  0.00     0.072 A 
HETATM   19  C13 UNL     1      -1.227   1.796   0.212  1.00  0.00     0.052 A 
HETATM   20  C14 UNL     1      -1.144   2.763  -0.798  1.00  0.00     0.014 A 
HETATM   21 BR1  UNL     1      -1.040   4.644  -0.517  1.00  0.00    -0.051 Br
HETATM   22  C15 UNL     1      -1.132   2.379  -2.141  1.00  0.00     0.041 A 
HETATM   23  C16 UNL     1      -1.205   1.032  -2.419  1.00  0.00     0.047 A 
HETATM   24 BR2  UNL     1      -1.202   0.299  -4.183  1.00  0.00    -0.048 Br
HETATM   25  C17 UNL     1      -1.286   0.076  -1.436  1.00  0.00     0.110 A 
BRANCH  25  26
HETATM   26  O1  UNL     1      -1.365  -1.304  -1.535  1.00  0.00    -0.357 OA
HETATM   27  H21 UNL     1      -1.615  -1.792  -2.390  1.00  0.00     0.217 HD
ENDBRANCH  25  26
ENDBRANCH   1  18
TORSDOF 9
