REMARK  4 active torsions:
REMARK  status: ('A' for Active; 'I' for Inactive)
REMARK    1  A    between atoms: N1_1  and  C1_2 
REMARK    2  A    between atoms: C1_2  and  C2_3 
REMARK    3  A    between atoms: C2_3  and  C3_4 
REMARK    4  A    between atoms: C3_4  and  N2_5 
ROOT
HETATM    1  N2  UNL     1      -1.412  -0.150   0.608  1.00  0.00     0.029 N 
HETATM    2  C4  UNL     1      -1.037   1.258   0.694  1.00  0.00     0.283 C 
HETATM    3  C5  UNL     1       0.320   1.506   0.095  1.00  0.00     0.003 C 
HETATM    4  C6  UNL     1       1.063   2.202  -0.747  1.00  0.00     0.018 C 
HETATM    5  C7  UNL     1       2.303   2.546  -1.418  1.00  0.00     0.020 C 
HETATM    6 CL1  UNL     1       2.095   3.948  -2.506  1.00  0.00    -0.088 Cl
HETATM    7  C8  UNL     1       3.165   1.674  -0.970  1.00  0.00     0.067 C 
HETATM    8  C9  UNL     1       4.567   1.299  -1.087  1.00  0.00     0.009 C 
HETATM    9  C10 UNL     1       4.857   0.201  -0.351  1.00  0.00     0.041 C 
HETATM   10 CL2  UNL     1       5.836  -1.062   0.321  1.00  0.00    -0.084 Cl
HETATM   11  C11 UNL     1       3.714  -0.563   0.226  1.00  0.00    -0.015 A 
HETATM   12  C12 UNL     1       3.106  -0.957  -0.967  1.00  0.00     0.015 A 
HETATM   13  C13 UNL     1       1.985  -1.654  -1.335  1.00  0.00     0.024 A 
HETATM   14  C14 UNL     1       1.438  -1.968  -0.140  1.00  0.00     0.011 A 
HETATM   15  C15 UNL     1       1.926  -1.654   1.102  1.00  0.00     0.024 A 
HETATM   16  C16 UNL     1       3.063  -0.950   1.372  1.00  0.00     0.015 A 
HETATM   17  N3  UNL     1       0.164  -2.550   0.182  1.00  0.00    -0.244 NA
HETATM   18  C17 UNL     1      -0.666  -1.380   0.410  1.00  0.00     0.334 A 
HETATM   19  S1  UNL     1      -0.198  -0.433  -0.902  1.00  0.00     0.120 SA
HETATM   20  H19 UNL     1      -0.807  -2.763   0.430  1.00  0.00     0.131 HD
ENDROOT
BRANCH   1  21
HETATM   21  C3  UNL     1      -2.780  -0.317   0.993  1.00  0.00     0.258 C 
BRANCH  21  22
HETATM   22  C2  UNL     1      -3.791   0.275   0.041  1.00  0.00     0.059 C 
BRANCH  22  23
HETATM   23  C1  UNL     1      -5.217   0.013   0.560  1.00  0.00     0.268 C 
BRANCH  23  24
HETATM   24  N1  UNL     1      -5.377  -1.442   0.639  1.00  0.00     0.078 N 
HETATM   25  H1  UNL     1      -6.250  -1.617   1.211  1.00  0.00     0.312 HD
HETATM   26  H2  UNL     1      -5.628  -1.824  -0.321  1.00  0.00     0.312 HD
ENDBRANCH  23  24
ENDBRANCH  22  23
ENDBRANCH  21  22
ENDBRANCH   1  21
TORSDOF 4
