REMARK  7 active torsions:
REMARK  status: ('A' for Active; 'I' for Inactive)
REMARK    1  A    between atoms: C2_2  and  C3_3 
REMARK    2  A    between atoms: C3_3  and  C4_4 
REMARK    3  A    between atoms: C4_4  and  N1_5 
REMARK    4  A    between atoms: N1_5  and  C5_6 
REMARK    5  A    between atoms: N1_5  and  C12_15 
REMARK    6  A    between atoms: N2_8  and  C6_9 
REMARK    7  A    between atoms: C17_21  and  O1_22 
ROOT
HETATM    1  N1  UNL     1      -0.972   0.215  -0.011  1.00  0.00    -0.342 N 
ENDROOT
BRANCH   1   2
HETATM    2  C4  UNL     1      -2.180  -0.388   0.495  1.00  0.00     0.126 C 
BRANCH   2   3
HETATM    3  C3  UNL     1      -2.129  -1.758   1.046  1.00  0.00     0.020 C 
BRANCH   3   4
HETATM    4  C2  UNL     1      -3.580  -2.109   1.479  1.00  0.00    -0.003 C 
HETATM    5  C1  UNL     1      -4.534  -2.032   0.303  1.00  0.00     0.005 C 
ENDBRANCH   3   4
ENDBRANCH   2   3
ENDBRANCH   1   2
BRANCH   1   6
HETATM    6  C5  UNL     1       0.371  -0.090  -0.028  1.00  0.00     0.290 A 
HETATM    7  S1  UNL     1       0.417  -1.551   0.762  1.00  0.00     0.151 SA
HETATM    8  N2  UNL     1       1.715  -0.382  -0.053  1.00  0.00     0.071 N 
HETATM    9  H10 UNL     1       1.571   0.564  -0.472  1.00  0.00     0.312 HD
BRANCH   8  10
HETATM   10  C6  UNL     1       3.007  -0.900   0.049  1.00  0.00     0.156 A 
HETATM   11  C7  UNL     1       3.152  -2.127   0.628  1.00  0.00     0.039 A 
HETATM   12  C8  UNL     1       4.435  -2.596   0.727  1.00  0.00     0.002 A 
HETATM   13  C9  UNL     1       5.435  -1.796   0.238  1.00  0.00     0.000 A 
HETATM   14  C10 UNL     1       5.282  -0.543  -0.355  1.00  0.00     0.002 A 
HETATM   15  C11 UNL     1       4.002  -0.102  -0.440  1.00  0.00     0.039 A 
ENDBRANCH   8  10
ENDBRANCH   1   6
BRANCH   1  16
HETATM   16  C12 UNL     1      -1.326   1.521  -0.643  1.00  0.00     0.144 A 
HETATM   17  C13 UNL     1      -1.403   2.464   0.485  1.00  0.00     0.003 A 
HETATM   18  C14 UNL     1      -0.776   3.612   0.713  1.00  0.00     0.021 A 
HETATM   19  C15 UNL     1       0.149   3.986  -0.377  1.00  0.00     0.032 A 
HETATM   20 CL1  UNL     1       1.104   5.467  -0.264  1.00  0.00    -0.085 Cl
HETATM   21  C16 UNL     1       0.246   3.191  -1.425  1.00  0.00     0.032 A 
HETATM   22  C17 UNL     1      -0.443   1.915  -1.753  1.00  0.00     0.196 A 
BRANCH  22  23
HETATM   23  O1  UNL     1      -1.310   2.273  -2.851  1.00  0.00    -0.272 OA
HETATM   24 CL2  UNL     1      -0.855   1.261  -4.148  1.00  0.00     0.062 Cl
ENDBRANCH  22  23
ENDBRANCH   1  16
TORSDOF 7
