REMARK  5 active torsions:
REMARK  status: ('A' for Active; 'I' for Inactive)
REMARK    1  A    between atoms: P1_3  and  C3_4 
REMARK    2  A    between atoms: C8_11  and  O1_12 
REMARK    3  A    between atoms: N1_14  and  C10_15 
REMARK    4  A    between atoms: C10_15  and  N2_17 
REMARK    5  A    between atoms: N2_17  and  C11_18 
ROOT
HETATM    1  C1  UNL     1      -5.488   3.688   0.262  1.00  0.00     0.102 C 
HETATM    2  C2  UNL     1      -4.587   2.710  -0.104  1.00  0.00    -0.155 C 
HETATM    3  P1  UNL     1      -3.776   1.859  -0.418  1.00  0.00    -0.029 P 
HETATM    4  H4  UNL     1      -3.493   1.559  -0.536  1.00  0.00     0.074 HD
ENDROOT
BRANCH   3   5
HETATM    5  C3  UNL     1      -2.193   0.238  -0.990  1.00  0.00    -0.016 C 
HETATM    6  C4  UNL     1      -2.291  -0.898  -0.441  1.00  0.00     0.002 C 
HETATM    7  C5  UNL     1      -3.165  -1.538   0.510  1.00  0.00     0.045 C 
HETATM    8  C9  UNL     1      -1.055  -1.353  -1.103  1.00  0.00     0.181 C 
HETATM    9 CL1  UNL     1      -4.657  -0.806   1.025  1.00  0.00    -0.084 Cl
HETATM   10  C6  UNL     1      -2.705  -2.700   0.924  1.00  0.00     0.051 C 
HETATM   11  C7  UNL     1      -1.445  -3.230   0.417  1.00  0.00     0.067 C 
HETATM   12 CL2  UNL     1      -0.778  -4.758   0.950  1.00  0.00    -0.082 Cl
HETATM   13  C8  UNL     1      -0.660  -2.644  -0.491  1.00  0.00     0.092 C 
HETATM   14  N1  UNL     1      -0.117  -0.299  -1.029  1.00  0.00    -0.339 N 
HETATM   15  C17 UNL     1      -1.036   0.550  -1.852  1.00  0.00     0.167 C 
BRANCH  13  16
HETATM   16  O1  UNL     1       0.544  -2.993  -1.062  1.00  0.00    -0.361 OA
HETATM   17  H6  UNL     1       0.622  -3.364  -2.002  1.00  0.00     0.217 HD
ENDBRANCH  13  16
BRANCH  14  18
HETATM   18  C10 UNL     1       1.125   0.220  -0.588  1.00  0.00     0.175 C 
HETATM   19  S1  UNL     1       1.631   1.728  -0.908  1.00  0.00    -0.041 SA
BRANCH  18  20
HETATM   20  N2  UNL     1       2.077  -0.509   0.187  1.00  0.00    -0.333 N 
HETATM   21  H8  UNL     1       2.118  -1.489   0.583  1.00  0.00     0.168 HD
BRANCH  20  22
HETATM   22  C11 UNL     1       3.356  -0.063   0.682  1.00  0.00     0.034 A 
HETATM   23  C12 UNL     1       3.780   0.057   1.987  1.00  0.00     0.029 A 
HETATM   24  C13 UNL     1       5.055   0.519   2.240  1.00  0.00     0.002 A 
HETATM   25  C14 UNL     1       5.895   0.858   1.203  1.00  0.00     0.000 A 
HETATM   26  C15 UNL     1       5.509   0.753  -0.121  1.00  0.00     0.002 A 
HETATM   27  C16 UNL     1       4.215   0.283  -0.363  1.00  0.00     0.029 A 
ENDBRANCH  20  22
ENDBRANCH  18  20
ENDBRANCH  14  18
ENDBRANCH   3   5
TORSDOF 5
