REMARK  1 active torsions:
REMARK  status: ('A' for Active; 'I' for Inactive)
REMARK    1  A    between atoms: C5_5  and  O1_6 
ROOT
HETATM    1  C1  UNL     1      -2.999   0.403   1.436  1.00  0.00     0.044 C 
HETATM    2  C2  UNL     1      -2.324   0.574   0.142  1.00  0.00    -0.078 C 
HETATM    3  C3  UNL     1      -1.333   1.179  -0.529  1.00  0.00     0.005 C 
HETATM    4  C4  UNL     1      -0.203   2.103  -0.260  1.00  0.00     0.034 C 
HETATM    5  C5  UNL     1       0.835   2.905  -0.648  1.00  0.00     0.061 C 
HETATM    6  C6  UNL     1       1.195   3.203   0.799  1.00  0.00     0.194 C 
HETATM    7  N1  UNL     1       1.119   1.858   1.457  1.00  0.00    -0.323 N 
HETATM    8  C7  UNL     1       1.001   0.887   2.476  1.00  0.00     0.093 C 
HETATM    9  C8  UNL     1       0.499  -0.275   2.583  1.00  0.00     0.014 C 
HETATM   10  C9  UNL     1      -0.194  -1.453   2.128  1.00  0.00    -0.018 C 
HETATM   11  C10 UNL     1      -0.749  -1.709   0.835  1.00  0.00     0.041 C 
HETATM   12  C11 UNL     1      -1.118  -1.453  -0.621  1.00  0.00     0.095 C 
HETATM   13  N2  UNL     1      -0.037  -1.407  -1.425  1.00  0.00    -0.385 N 
HETATM   14  C12 UNL     1       1.151  -0.764  -1.382  1.00  0.00     0.332 C 
HETATM   15  C13 UNL     1       2.133  -1.654  -2.171  1.00  0.00     0.040 C 
HETATM   16  C14 UNL     1       3.157  -2.345  -1.717  1.00  0.00    -0.029 C 
HETATM   17  C15 UNL     1       3.533  -2.150  -0.464  1.00  0.00     0.014 C 
HETATM   18  C16 UNL     1       2.894  -1.258   0.522  1.00  0.00     0.292 C 
HETATM   19  N3  UNL     1       1.872  -0.428  -0.135  1.00  0.00     0.071 N 
HETATM   20  C17 UNL     1       1.571   0.870   0.466  1.00  0.00     0.292 A 
HETATM   21  S1  UNL     1       2.582   1.352  -0.784  1.00  0.00     0.150 SA
HETATM   22  C18 UNL     1      -2.386  -0.670  -0.692  1.00  0.00     0.033 C 
HETATM   23  C19 UNL     1      -3.411  -0.737  -1.706  1.00  0.00     0.017 C 
HETATM   24  H14 UNL     1      -0.069  -2.077  -2.257  1.00  0.00     0.156 HD
ENDROOT
BRANCH   5  25
HETATM   25  O1  UNL     1       0.496   2.624  -1.973  1.00  0.00    -0.363 OA
HETATM   26  H6  UNL     1       0.006   3.312  -2.532  1.00  0.00     0.217 HD
ENDBRANCH   5  25
TORSDOF 1
