REMARK  7 active torsions:
REMARK  status: ('A' for Active; 'I' for Inactive)
REMARK    1  A    between atoms: S1_2  and  C2_3 
REMARK    2  A    between atoms: C5_6  and  C6_7 
REMARK    3  A    between atoms: C6_7  and  O1_8 
REMARK    4  A    between atoms: O1_8  and  C7_9 
REMARK    5  A    between atoms: C8_10  and  C9_11 
REMARK    6  A    between atoms: C9_11  and  N1_12 
REMARK    7  A    between atoms: N1_12  and  C10_13 
ROOT
HETATM    1  C7  UNL     1      -0.302  -1.572  -0.360  1.00  0.00     0.146 A 
HETATM    2  C8  UNL     1      -1.099  -1.605   0.697  1.00  0.00     0.010 A 
HETATM    3  C16 UNL     1      -2.141  -2.643   0.740  1.00  0.00     0.010 A 
HETATM    4  C17 UNL     1      -2.306  -3.541  -0.241  1.00  0.00    -0.007 A 
HETATM    5  C18 UNL     1      -1.442  -3.553  -1.449  1.00  0.00     0.149 A 
HETATM    6  N2  UNL     1      -0.453  -2.511  -1.413  1.00  0.00    -0.367 N 
HETATM    7  H19 UNL     1       0.206  -2.422  -2.204  1.00  0.00     0.161 HD
ENDROOT
BRANCH   1   8
HETATM    8  O1  UNL     1       0.689  -0.601  -0.421  1.00  0.00    -0.331 OA
BRANCH   8   9
HETATM    9  C6  UNL     1       1.994  -1.074  -0.075  1.00  0.00     0.216 C 
BRANCH   9  10
HETATM   10  C5  UNL     1       3.021  -0.022  -0.149  1.00  0.00    -0.032 A 
HETATM   11  C4  UNL     1       3.058   1.232   0.612  1.00  0.00     0.023 A 
HETATM   12  C3  UNL     1       4.191   1.827   0.289  1.00  0.00    -0.007 A 
HETATM   13  C2  UNL     1       4.851   1.216  -0.680  1.00  0.00     0.011 A 
HETATM   14  C19 UNL     1       4.114  -0.017  -0.928  1.00  0.00     0.028 A 
BRANCH  13  15
HETATM   15  S1  UNL     1       6.325   1.698  -1.565  1.00  0.00    -0.134 SA
HETATM   16  C1  UNL     1       6.970   3.293  -0.991  1.00  0.00     0.095 C 
ENDBRANCH  13  15
ENDBRANCH   9  10
ENDBRANCH   8   9
ENDBRANCH   1   8
BRANCH   2  17
HETATM   17  C9  UNL     1      -1.188  -0.781   1.927  1.00  0.00     0.162 C 
BRANCH  17  18
HETATM   18  N1  UNL     1      -2.510  -0.191   1.970  1.00  0.00    -0.386 N 
HETATM   19  H9  UNL     1      -3.103  -0.515   2.794  1.00  0.00     0.160 HD
BRANCH  18  20
HETATM   20  C10 UNL     1      -3.133   0.737   1.101  1.00  0.00     0.028 A 
HETATM   21  C11 UNL     1      -4.437   1.168   1.316  1.00  0.00     0.029 A 
HETATM   22  C12 UNL     1      -5.042   2.061   0.495  1.00  0.00     0.002 A 
HETATM   23  C13 UNL     1      -4.387   2.584  -0.595  1.00  0.00     0.000 A 
HETATM   24  C14 UNL     1      -3.091   2.198  -0.866  1.00  0.00     0.002 A 
HETATM   25  C15 UNL     1      -2.523   1.289  -0.002  1.00  0.00     0.029 A 
ENDBRANCH  18  20
ENDBRANCH  17  18
ENDBRANCH   2  17
TORSDOF 7
