REMARK  6 active torsions:
REMARK  status: ('A' for Active; 'I' for Inactive)
REMARK    1  A    between atoms: C2_2  and  C3_3 
REMARK    2  A    between atoms: C4_4  and  O1_5 
REMARK    3  A    between atoms: C5_6  and  N1_7 
REMARK    4  A    between atoms: N1_7  and  N2_8 
REMARK    5  A    between atoms: N1_7  and  C12_15 
REMARK    6  A    between atoms: N2_8  and  C6_9 
ROOT
HETATM    1  N1  UNL     1      -0.607   0.747   0.277  1.00  0.00    -0.253 N 
ENDROOT
BRANCH   1   2
HETATM    2  C5  UNL     1       0.599  -0.001   0.409  1.00  0.00     0.091 A 
HETATM    3  C4  UNL     1       1.486   0.096  -0.647  1.00  0.00     0.102 A 
HETATM    4  C3  UNL     1       2.718  -0.566  -0.667  1.00  0.00    -0.009 A 
HETATM    5  P1  UNL     1       3.102  -1.543   0.727  1.00  0.00    -0.018 P 
HETATM    6  C18 UNL     1       1.813  -1.490   1.911  1.00  0.00    -0.045 A 
HETATM    7  C17 UNL     1       0.743  -0.719   1.572  1.00  0.00     0.042 A 
HETATM    8  C19 UNL     1       1.920  -2.251   3.190  1.00  0.00     0.049 C 
BRANCH   3   9
HETATM    9  O1  UNL     1       1.192   0.870  -1.762  1.00  0.00    -0.358 OA
HETATM   10  H6  UNL     1       1.787   1.691  -1.898  1.00  0.00     0.217 HD
ENDBRANCH   3   9
BRANCH   4  11
HETATM   11  C2  UNL     1       3.624  -0.421  -1.829  1.00  0.00     0.038 C 
HETATM   12  C1  UNL     1       4.886  -1.207  -1.474  1.00  0.00     0.010 C 
ENDBRANCH   4  11
ENDBRANCH   1   2
BRANCH   1  13
HETATM   13  N2  UNL     1      -1.883   0.507  -0.228  1.00  0.00    -0.293 N 
HETATM   14  H7  UNL     1      -2.391   1.318  -0.634  1.00  0.00     0.187 HD
BRANCH  13  15
HETATM   15  C6  UNL     1      -2.801  -0.561  -0.388  1.00  0.00     0.048 A 
HETATM   16  C7  UNL     1      -3.684  -0.940   0.622  1.00  0.00     0.031 A 
HETATM   17  C8  UNL     1      -4.493  -1.997   0.254  1.00  0.00     0.002 A 
HETATM   18  C9  UNL     1      -4.499  -2.659  -0.945  1.00  0.00     0.000 A 
HETATM   19  C10 UNL     1      -3.597  -2.225  -1.891  1.00  0.00     0.002 A 
HETATM   20  C11 UNL     1      -2.737  -1.181  -1.643  1.00  0.00     0.031 A 
ENDBRANCH  13  15
ENDBRANCH   1  13
BRANCH   1  21
HETATM   21  C12 UNL     1      -0.325   2.046   0.827  1.00  0.00     0.062 A 
HETATM   22  C13 UNL     1      -0.674   3.249   0.347  1.00  0.00    -0.033 A 
HETATM   23  C14 UNL     1      -1.434   3.718  -0.854  1.00  0.00     0.050 C 
HETATM   24  C15 UNL     1      -0.019   3.956   1.460  1.00  0.00     0.011 A 
HETATM   25  C16 UNL     1       0.320   2.766   1.925  1.00  0.00     0.033 A 
ENDBRANCH   1  21
TORSDOF 6
