REMARK  6 active torsions:
REMARK  status: ('A' for Active; 'I' for Inactive)
REMARK    1  A    between atoms: C7_7  and  N1_8 
REMARK    2  A    between atoms: N1_8  and  C8_9 
REMARK    3  A    between atoms: N1_8  and  C16_18 
REMARK    4  A    between atoms: C8_9  and  C9_10 
REMARK    5  A    between atoms: C15_16  and  O1_17 
REMARK    6  A    between atoms: C16_18  and  C17_20 
ROOT
HETATM    1  N1  UNL     1      -1.100   1.045   0.186  1.00  0.00    -0.331 N 
ENDROOT
BRANCH   1   2
HETATM    2  C7  UNL     1      -1.643  -0.012  -0.591  1.00  0.00     0.041 A 
HETATM    3  C2  UNL     1      -2.011  -0.071  -1.917  1.00  0.00    -0.035 A 
HETATM    4  C1  UNL     1      -1.803   1.209  -2.642  1.00  0.00     0.050 C 
HETATM    5  C3  UNL     1      -2.517  -1.237  -2.443  1.00  0.00     0.009 A 
HETATM    6  C4  UNL     1      -2.674  -2.376  -1.679  1.00  0.00     0.001 A 
HETATM    7  C5  UNL     1      -2.312  -2.355  -0.324  1.00  0.00     0.002 A 
HETATM    8  C6  UNL     1      -1.807  -1.172   0.175  1.00  0.00     0.030 A 
ENDBRANCH   1   2
BRANCH   1   9
HETATM    9  C8  UNL     1       0.179   1.662  -0.101  1.00  0.00     0.171 C 
BRANCH   9  10
HETATM   10  C9  UNL     1       1.292   0.691  -0.053  1.00  0.00    -0.006 A 
HETATM   11  C10 UNL     1       1.897   0.183  -1.192  1.00  0.00     0.012 A 
HETATM   12  C11 UNL     1       2.934  -0.721  -1.172  1.00  0.00     0.001 A 
HETATM   13  C12 UNL     1       3.429  -1.173   0.043  1.00  0.00     0.009 A 
HETATM   14  C13 UNL     1       2.847  -0.686   1.218  1.00  0.00    -0.028 A 
HETATM   15  C14 UNL     1       3.402  -1.192   2.502  1.00  0.00     0.051 C 
HETATM   16  C15 UNL     1       1.807   0.221   1.133  1.00  0.00     0.079 A 
BRANCH  16  17
HETATM   17  O1  UNL     1       1.276   0.664   2.348  1.00  0.00    -0.360 OA
HETATM   18  H16 UNL     1       0.726   0.051   2.961  1.00  0.00     0.217 HD
ENDBRANCH  16  17
ENDBRANCH   9  10
ENDBRANCH   1   9
BRANCH   1  19
HETATM   19  C16 UNL     1      -1.893   1.475   1.284  1.00  0.00     0.141 C 
HETATM   20  S1  UNL     1      -3.320   0.845   1.676  1.00  0.00    -0.057 SA
BRANCH  19  21
HETATM   21  C17 UNL     1      -1.383   2.556   2.115  1.00  0.00     0.300 C 
HETATM   22  O2  UNL     1      -0.590   3.468   2.534  1.00  0.00    -0.299 OA
ENDBRANCH  19  21
ENDBRANCH   1  19
TORSDOF 6
