REMARK  5 active torsions:
REMARK  status: ('A' for Active; 'I' for Inactive)
REMARK    1  A    between atoms: C2_2  and  C3_3 
REMARK    2  A    between atoms: C3_3  and  C4_4 
REMARK    3  A    between atoms: C4_4  and  N1_5 
REMARK    4  A    between atoms: C7_8  and  O1_10 
REMARK    5  A    between atoms: C14_18  and  C15_19 
ROOT
HETATM    1  N1  UNL     1       0.701  -0.436  -1.082  1.00  0.00    -0.367 N 
HETATM    2  C5  UNL     1       0.118  -1.719  -0.811  1.00  0.00     0.087 C 
HETATM    3  C6  UNL     1      -0.971  -2.119  -0.170  1.00  0.00     0.033 C 
HETATM    4  C7  UNL     1      -2.002  -1.353   0.617  1.00  0.00     0.121 C 
HETATM    5  C8  UNL     1      -3.334  -1.953   0.288  1.00  0.00     0.057 C 
HETATM    6  C9  UNL     1      -1.939   0.071   0.174  1.00  0.00     0.016 C 
HETATM    7  C10 UNL     1      -2.472  -0.263  -1.026  1.00  0.00    -0.018 C 
HETATM    8  C11 UNL     1      -1.624  -0.190  -2.062  1.00  0.00    -0.010 C 
HETATM    9  C12 UNL     1      -0.705   0.973  -2.342  1.00  0.00     0.077 C 
HETATM   10  C13 UNL     1       0.309   0.971  -1.183  1.00  0.00     0.211 C 
HETATM   11  N2  UNL     1      -0.283   1.482   0.047  1.00  0.00    -0.268 NA
HETATM   12  C14 UNL     1      -1.523   1.432   0.488  1.00  0.00     0.041 C 
ENDROOT
BRANCH   1  13
HETATM   13  C4  UNL     1       2.142  -0.632  -1.328  1.00  0.00     0.124 C 
BRANCH  13  14
HETATM   14  C3  UNL     1       2.840  -0.031  -0.123  1.00  0.00     0.019 C 
BRANCH  14  15
HETATM   15  C2  UNL     1       4.348  -0.159  -0.236  1.00  0.00    -0.003 C 
HETATM   16  C1  UNL     1       4.928   0.454   1.021  1.00  0.00     0.005 C 
ENDBRANCH  14  15
ENDBRANCH  13  14
ENDBRANCH   1  13
BRANCH   4  17
HETATM   17  O1  UNL     1      -1.712  -1.595   1.935  1.00  0.00    -0.292 OA
HETATM   18 BR1  UNL     1      -1.797  -3.395   2.327  1.00  0.00     0.100 Br
ENDBRANCH   4  17
BRANCH  12  19
HETATM   19  C15 UNL     1      -2.212   2.587   1.147  1.00  0.00     0.055 C 
HETATM   20  C16 UNL     1      -2.673   2.263   2.538  1.00  0.00     0.011 C 
ENDBRANCH  12  19
TORSDOF 5
