REMARK  8 active torsions:
REMARK  status: ('A' for Active; 'I' for Inactive)
REMARK    1  A    between atoms: B1_1  and  C1_2 
REMARK    2  A    between atoms: C5_6  and  O1_7 
REMARK    3  A    between atoms: C6_8  and  C7_9 
REMARK    4  A    between atoms: C7_9  and  N1_10 
REMARK    5  A    between atoms: N1_10  and  C8_11 
REMARK    6  A    between atoms: N1_10  and  C15_18 
REMARK    7  A    between atoms: C8_11  and  C9_12 
REMARK    8  A    between atoms: C15_18  and  N2_20 
ROOT
HETATM    1  N1  UNL     1      -0.873  -0.607  -1.029  1.00  0.00    -0.349 N 
ENDROOT
BRANCH   1   2
HETATM    2  C7  UNL     1       0.335  -1.328  -0.750  1.00  0.00     0.167 C 
BRANCH   2   3
HETATM    3  C6  UNL     1       1.500  -0.531  -0.292  1.00  0.00    -0.007 A 
HETATM    4  C5  UNL     1       1.443  -0.151   1.059  1.00  0.00     0.079 A 
HETATM    5  C3  UNL     1       2.502   0.591   1.537  1.00  0.00    -0.029 A 
HETATM    6  C2  UNL     1       3.568   0.942   0.720  1.00  0.00     0.003 A 
HETATM    7  C4  UNL     1       2.542   1.045   2.952  1.00  0.00     0.051 C 
HETATM    8  C1  UNL     1       3.603   0.558  -0.603  1.00  0.00    -0.107 A 
HETATM    9  C21 UNL     1       2.554  -0.188  -1.113  1.00  0.00     0.006 A 
BRANCH   4  10
HETATM   10  O1  UNL     1       0.391  -0.486   1.901  1.00  0.00    -0.360 OA
HETATM   11  H7  UNL     1       0.615  -0.779   2.859  1.00  0.00     0.217 HD
ENDBRANCH   4  10
BRANCH   8  12
HETATM   12  B1  UNL     1       4.743   0.890  -1.616  1.00  0.00     0.174 B 
HETATM   13  H1  UNL     1       4.406   1.309  -2.689  1.00  0.00    -0.026 HD
HETATM   14  H2  UNL     1       5.662   0.127  -1.637  1.00  0.00    -0.026 HD
ENDBRANCH   8  12
ENDBRANCH   2   3
ENDBRANCH   1   2
BRANCH   1  15
HETATM   15  C8  UNL     1      -1.739  -1.747  -1.401  1.00  0.00     0.164 C 
BRANCH  15  16
HETATM   16  C9  UNL     1      -1.894  -2.763  -0.374  1.00  0.00    -0.040 A 
HETATM   17  C10 UNL     1      -2.881  -2.514   0.587  1.00  0.00     0.009 A 
HETATM   18  C11 UNL     1      -3.207  -3.350   1.624  1.00  0.00     0.001 A 
HETATM   19  C12 UNL     1      -2.518  -4.537   1.748  1.00  0.00     0.000 A 
HETATM   20  C13 UNL     1      -1.529  -4.862   0.844  1.00  0.00     0.001 A 
HETATM   21  C14 UNL     1      -1.243  -3.985  -0.179  1.00  0.00     0.009 A 
ENDBRANCH  15  16
ENDBRANCH   1  15
BRANCH   1  22
HETATM   22  C15 UNL     1      -1.510   0.695  -1.125  1.00  0.00     0.176 C 
HETATM   23  S1  UNL     1      -3.134   0.542  -1.521  1.00  0.00    -0.040 SA
BRANCH  22  24
HETATM   24  N2  UNL     1      -1.236   2.082  -0.992  1.00  0.00    -0.331 N 
HETATM   25  C16 UNL     1       0.001   2.695  -0.676  1.00  0.00     0.093 A 
HETATM   26  C17 UNL     1       0.323   3.960  -0.503  1.00  0.00     0.017 A 
HETATM   27  C18 UNL     1      -0.754   4.930  -0.660  1.00  0.00    -0.001 A 
HETATM   28  C19 UNL     1      -1.905   4.364  -0.962  1.00  0.00    -0.007 A 
HETATM   29  C20 UNL     1      -2.348   2.990  -1.177  1.00  0.00     0.158 A 
ENDBRANCH  22  24
ENDBRANCH   1  22
TORSDOF 8
