REMARK  6 active torsions:
REMARK  status: ('A' for Active; 'I' for Inactive)
REMARK    1  A    between atoms: C10_11  and  C11_12 
REMARK    2  A    between atoms: C12_13  and  C13_14 
REMARK    3  A    between atoms: C13_14  and  O1_15 
REMARK    4  A    between atoms: O1_15  and  C14_16 
REMARK    5  A    between atoms: C14_16  and  C15_17 
REMARK    6  A    between atoms: C15_17  and  O2_18 
ROOT
HETATM    1  C1  UNL     1      -7.152  -3.278  -0.885  1.00  0.00     0.018 C 
HETATM    2  C2  UNL     1      -6.445  -2.390  -0.473  1.00  0.00    -0.078 C 
HETATM    3  C3  UNL     1      -5.584  -1.345   0.027  1.00  0.00     0.019 A 
HETATM    4  C4  UNL     1      -6.160  -0.198   0.537  1.00  0.00     0.023 A 
HETATM    5  C5  UNL     1      -5.391   0.837   1.030  1.00  0.00     0.035 A 
HETATM    6  C6  UNL     1      -4.000   0.685   0.995  1.00  0.00     0.084 A 
HETATM    7  C7  UNL     1      -3.408  -0.474   0.479  1.00  0.00     0.058 A 
HETATM    8  C8  UNL     1      -4.212  -1.510  -0.015  1.00  0.00     0.052 A 
HETATM    9  N1  UNL     1      -2.042  -0.875   0.329  1.00  0.00    -0.382 N 
HETATM   10  C9  UNL     1      -0.770  -0.409   0.888  1.00  0.00     0.179 C 
HETATM   11  C10 UNL     1      -0.497   1.009   0.555  1.00  0.00     0.053 C 
HETATM   12  N2  UNL     1      -1.113   2.110   0.816  1.00  0.00    -0.245 NA
HETATM   13  C17 UNL     1      -2.293   2.490   1.513  1.00  0.00     0.234 C 
HETATM   14  N3  UNL     1      -3.435   1.888   1.559  1.00  0.00    -0.240 NA
HETATM   15  H5  UNL     1      -1.982  -1.682  -0.334  1.00  0.00     0.160 HD
ENDROOT
BRANCH  11  16
HETATM   16  C11 UNL     1       0.697   1.232  -0.220  1.00  0.00     0.027 C 
HETATM   17  C12 UNL     1       1.616   0.433  -0.706  1.00  0.00     0.001 C 
BRANCH  17  18
HETATM   18  C13 UNL     1       2.843   0.661  -1.502  1.00  0.00     0.195 C 
BRANCH  18  19
HETATM   19  O1  UNL     1       3.983   0.212  -0.837  1.00  0.00    -0.385 OA
BRANCH  19  20
HETATM   20  C14 UNL     1       5.098   0.436  -1.597  1.00  0.00     0.194 C 
BRANCH  20  21
HETATM   21  C15 UNL     1       6.375  -0.006  -0.983  1.00  0.00     0.193 C 
BRANCH  21  22
HETATM   22  O2  UNL     1       6.717   0.575   0.193  1.00  0.00    -0.394 OA
HETATM   23  C16 UNL     1       5.842   0.375   1.218  1.00  0.00     0.201 C 
ENDBRANCH  21  22
ENDBRANCH  20  21
ENDBRANCH  19  20
ENDBRANCH  18  19
ENDBRANCH  17  18
ENDBRANCH  11  16
TORSDOF 6
