REMARK  6 active torsions:
REMARK  status: ('A' for Active; 'I' for Inactive)
REMARK    1  A    between atoms: O1_2  and  C2_3 
REMARK    2  A    between atoms: C5_6  and  C6_7 
REMARK    3  A    between atoms: C6_7  and  N1_8 
REMARK    4  A    between atoms: C11_13  and  S1_14 
REMARK    5  A    between atoms: N2_17  and  C14_18 
REMARK    6  A    between atoms: C14_18  and  C15_19 
ROOT
HETATM    1  C2  UNL     1      -0.930  -0.335   0.498  1.00  0.00     0.146 A 
HETATM    2  C3  UNL     1       0.320  -0.652   0.730  1.00  0.00    -0.023 A 
HETATM    3  C4  UNL     1       0.632  -2.098   0.969  1.00  0.00     0.049 C 
HETATM    4  C5  UNL     1       1.632   0.087   0.832  1.00  0.00     0.060 A 
HETATM    5  C12 UNL     1       1.241   1.532   0.582  1.00  0.00     0.001 A 
HETATM    6  C13 UNL     1      -0.015   1.955   0.338  1.00  0.00     0.090 A 
HETATM    7  N2  UNL     1      -1.142   1.049   0.286  1.00  0.00    -0.334 N 
ENDROOT
BRANCH   4   8
HETATM    8  C6  UNL     1       2.516  -0.330  -0.287  1.00  0.00     0.142 C 
BRANCH   8   9
HETATM    9  N1  UNL     1       3.827   0.195  -0.361  1.00  0.00    -0.350 N 
HETATM   10  C7  UNL     1       4.429  -0.109  -1.645  1.00  0.00     0.104 C 
HETATM   11  C8  UNL     1       5.502   0.509  -2.113  1.00  0.00    -0.009 C 
HETATM   12  C9  UNL     1       6.444   0.851  -1.305  1.00  0.00     0.016 C 
HETATM   13  C10 UNL     1       5.947   1.207   0.017  1.00  0.00     0.038 C 
HETATM   14  C11 UNL     1       4.738   0.906   0.458  1.00  0.00     0.069 C 
BRANCH  14  15
HETATM   15  S1  UNL     1       4.120   1.276   2.084  1.00  0.00    -0.125 SA
HETATM   16  H13 UNL     1       4.596   0.248   2.942  1.00  0.00     0.108 HD
ENDBRANCH  14  15
ENDBRANCH   8   9
ENDBRANCH   4   8
BRANCH   1  17
HETATM   17  O1  UNL     1      -1.982  -1.219   0.453  1.00  0.00    -0.340 OA
HETATM   18  C1  UNL     1      -2.186  -2.211  -0.529  1.00  0.00     0.211 C 
ENDBRANCH   1  17
BRANCH   7  19
HETATM   19  C14 UNL     1      -2.365   1.722   0.044  1.00  0.00     0.169 C 
BRANCH  19  20
HETATM   20  C15 UNL     1      -3.569   0.905  -0.045  1.00  0.00    -0.040 A 
HETATM   21  C16 UNL     1      -4.240   0.349  -1.111  1.00  0.00     0.009 A 
HETATM   22  C17 UNL     1      -5.376  -0.398  -0.970  1.00  0.00     0.001 A 
HETATM   23  C18 UNL     1      -5.916  -0.635   0.284  1.00  0.00     0.000 A 
HETATM   24  C19 UNL     1      -5.283  -0.103   1.366  1.00  0.00     0.001 A 
HETATM   25  C20 UNL     1      -4.122   0.660   1.217  1.00  0.00     0.009 A 
ENDBRANCH  19  20
ENDBRANCH   7  19
TORSDOF 6
