REMARK  9 active torsions:
REMARK  status: ('A' for Active; 'I' for Inactive)
REMARK    1  A    between atoms: C7_7  and  N1_8 
REMARK    2  A    between atoms: N1_8  and  C8_9 
REMARK    3  A    between atoms: C12_15  and  C13_16 
REMARK    4  A    between atoms: C13_16  and  O1_17 
REMARK    5  A    between atoms: C13_16  and  C14_18 
REMARK    6  A    between atoms: C14_18  and  C15_19 
REMARK    7  A    between atoms: C15_19  and  O2_20 
REMARK    8  A    between atoms: O2_20  and  C16_21 
REMARK    9  A    between atoms: C16_21  and  C17_22 
ROOT
HETATM    1  C1  UNL     1       7.537   0.876  -1.003  1.00  0.00     0.018 C 
HETATM    2  C2  UNL     1       6.458   0.358  -1.253  1.00  0.00    -0.078 C 
HETATM    3  C3  UNL     1       5.181  -0.248  -1.556  1.00  0.00     0.019 A 
HETATM    4  C4  UNL     1       5.020  -0.907  -2.756  1.00  0.00     0.021 A 
HETATM    5  C5  UNL     1       3.763  -1.470  -2.984  1.00  0.00     0.004 A 
HETATM    6  C6  UNL     1       2.768  -1.358  -2.055  1.00  0.00     0.029 A 
HETATM    7  C7  UNL     1       2.931  -0.693  -0.845  1.00  0.00     0.035 A 
HETATM    8  C19 UNL     1       4.168  -0.143  -0.626  1.00  0.00     0.050 A 
ENDROOT
BRANCH   7   9
HETATM    9  N1  UNL     1       1.814  -0.648   0.027  1.00  0.00    -0.340 N 
HETATM   10  H5  UNL     1       0.892  -1.072  -0.228  1.00  0.00     0.167 HD
BRANCH   9  11
HETATM   11  C8  UNL     1       1.785  -0.051   1.314  1.00  0.00     0.137 A 
HETATM   12  N2  UNL     1       2.880  -0.209   2.021  1.00  0.00    -0.224 NA
HETATM   13  C9  UNL     1       2.949   0.342   3.322  1.00  0.00     0.229 A 
HETATM   14  N3  UNL     1       1.933   0.953   3.729  1.00  0.00    -0.278 NA
HETATM   15  C10 UNL     1       0.677   1.219   3.142  1.00  0.00     0.192 A 
HETATM   16  C11 UNL     1       0.615   0.714   1.748  1.00  0.00     0.006 A 
HETATM   17  C12 UNL     1      -0.402   0.972   0.948  1.00  0.00     0.017 C 
BRANCH  17  18
HETATM   18  C13 UNL     1      -1.188   0.962  -0.281  1.00  0.00     0.143 C 
BRANCH  18  19
HETATM   19  O1  UNL     1      -0.376   0.878  -1.430  1.00  0.00    -0.392 OA
HETATM   20  H11 UNL     1      -0.471   0.004  -1.883  1.00  0.00     0.210 HD
ENDBRANCH  18  19
BRANCH  18  21
HETATM   21  C14 UNL     1      -2.107  -0.257  -0.312  1.00  0.00     0.062 C 
BRANCH  21  22
HETATM   22  C15 UNL     1      -3.048  -0.201   0.885  1.00  0.00     0.170 C 
BRANCH  22  23
HETATM   23  O2  UNL     1      -3.831   0.894   0.881  1.00  0.00    -0.391 OA
BRANCH  23  24
HETATM   24  C16 UNL     1      -4.739   1.125  -0.097  1.00  0.00     0.167 C 
BRANCH  24  25
HETATM   25  C17 UNL     1      -5.910   0.195  -0.211  1.00  0.00     0.022 C 
HETATM   26  C18 UNL     1      -5.605  -1.223  -0.483  1.00  0.00     0.007 C 
ENDBRANCH  24  25
ENDBRANCH  23  24
ENDBRANCH  22  23
ENDBRANCH  21  22
ENDBRANCH  18  21
ENDBRANCH  17  18
ENDBRANCH   9  11
ENDBRANCH   7   9
TORSDOF 9
