REMARK  3 active torsions:
REMARK  status: ('A' for Active; 'I' for Inactive)
REMARK    1  A    between atoms: O1_2  and  C2_3 
REMARK    2  A    between atoms: C10_12  and  N1_13 
REMARK    3  A    between atoms: N1_13  and  C11_14 
ROOT
HETATM    1  C2  UNL     1      -2.501   1.352   1.182  1.00  0.00     0.084 A 
HETATM    2  C3  UNL     1      -3.832   1.151   1.242  1.00  0.00     0.069 A 
HETATM    3  C4  UNL     1      -3.823  -0.230   0.819  1.00  0.00     0.071 A 
HETATM    4  C5  UNL     1      -2.518  -0.600   0.614  1.00  0.00     0.070 A 
HETATM    5  C6  UNL     1      -1.344  -0.928   0.431  1.00  0.00     0.066 A 
HETATM    6  C7  UNL     1      -1.423   0.539   0.852  1.00  0.00     0.132 A 
HETATM    7  O2  UNL     1      -0.274   1.454   0.991  1.00  0.00    -0.365 OA
HETATM    8  C8  UNL     1       1.139   0.832   0.954  1.00  0.00     0.230 C 
HETATM    9  C9  UNL     1       0.499  -0.551   0.719  1.00  0.00     0.075 C 
HETATM   10  C10 UNL     1       0.781  -0.871  -0.597  1.00  0.00     0.154 C 
HETATM   11  N2  UNL     1       0.360  -1.846  -1.652  1.00  0.00    -0.222 NA
HETATM   12  C17 UNL     1      -0.931  -2.141  -2.045  1.00  0.00     0.237 C 
HETATM   13  N3  UNL     1      -2.454  -2.033  -2.024  1.00  0.00    -0.230 NA
HETATM   14  C18 UNL     1      -3.281  -1.865  -0.982  1.00  0.00     0.259 C 
HETATM   15  O3  UNL     1      -4.035  -1.667   0.389  1.00  0.00    -0.307 OA
HETATM   16  N4  UNL     1      -0.303  -0.842   2.063  1.00  0.00    -0.388 N 
HETATM   17  C19 UNL     1      -1.811  -0.590   2.106  1.00  0.00     0.131 C 
HETATM   18  H15 UNL     1       0.335  -1.194   2.758  1.00  0.00     0.159 HD
ENDROOT
BRANCH  10  19
HETATM   19  N1  UNL     1       1.554   0.091  -1.295  1.00  0.00    -0.339 N 
HETATM   20  H8  UNL     1       1.241   0.926  -1.861  1.00  0.00     0.167 HD
BRANCH  19  21
HETATM   21  C11 UNL     1       2.985  -0.123  -1.215  1.00  0.00     0.035 A 
HETATM   22  C12 UNL     1       3.485  -1.176  -0.456  1.00  0.00     0.029 A 
HETATM   23  C13 UNL     1       4.866  -1.404  -0.370  1.00  0.00     0.004 A 
HETATM   24  C14 UNL     1       5.759  -0.578  -1.045  1.00  0.00     0.019 A 
HETATM   25  C15 UNL     1       5.246   0.471  -1.799  1.00  0.00     0.013 A 
HETATM   26 BR1  UNL     1       6.465   1.597  -2.720  1.00  0.00    -0.051 Br
HETATM   27  C16 UNL     1       3.879   0.693  -1.881  1.00  0.00     0.048 A 
ENDBRANCH  19  21
ENDBRANCH  10  19
BRANCH   1  28
HETATM   28  O1  UNL     1      -2.219   2.647   1.526  1.00  0.00    -0.357 OA
HETATM   29  C1  UNL     1      -3.235   3.547   1.860  1.00  0.00     0.209 C 
ENDBRANCH   1  28
TORSDOF 3
