REMARK  8 active torsions:
REMARK  status: ('A' for Active; 'I' for Inactive)
REMARK    1  A    between atoms: C7_7  and  N1_8 
REMARK    2  A    between atoms: N1_8  and  C8_9 
REMARK    3  A    between atoms: C8_9  and  C9_10 
REMARK    4  A    between atoms: C12_15  and  C13_16 
REMARK    5  A    between atoms: C13_16  and  O1_17 
REMARK    6  A    between atoms: O1_17  and  C14_18 
REMARK    7  A    between atoms: C14_18  and  C15_19 
REMARK    8  A    between atoms: C15_19  and  O2_20 
ROOT
HETATM    1  C1  UNL     1       6.727  -2.027   1.808  1.00  0.00     0.018 C 
HETATM    2  C2  UNL     1       6.293  -1.364   0.906  1.00  0.00    -0.078 C 
HETATM    3  C3  UNL     1       5.772  -0.545  -0.166  1.00  0.00     0.019 A 
HETATM    4  C4  UNL     1       6.722   0.028  -1.015  1.00  0.00     0.021 A 
HETATM    5  C5  UNL     1       6.270   0.816  -2.050  1.00  0.00     0.004 A 
HETATM    6  C6  UNL     1       4.917   1.019  -2.223  1.00  0.00     0.029 A 
HETATM    7  C7  UNL     1       3.965   0.465  -1.399  1.00  0.00     0.029 A 
HETATM    8  C17 UNL     1       4.425  -0.325  -0.362  1.00  0.00     0.049 A 
ENDROOT
BRANCH   7   9
HETATM    9  N1  UNL     1       2.570   0.680  -1.585  1.00  0.00    -0.384 N 
HETATM   10  H5  UNL     1       2.284   1.294  -2.396  1.00  0.00     0.160 HD
BRANCH   9  11
HETATM   11  C8  UNL     1       1.603   0.074  -0.689  1.00  0.00     0.181 C 
BRANCH  11  12
HETATM   12  C9  UNL     1       0.256   0.484  -1.144  1.00  0.00     0.082 A 
HETATM   13  N2  UNL     1      -0.062   1.239  -2.143  1.00  0.00    -0.242 NA
HETATM   14  C10 UNL     1      -1.489   1.357  -2.196  1.00  0.00     0.234 A 
HETATM   15  N3  UNL     1      -2.016   0.680  -1.237  1.00  0.00    -0.240 NA
HETATM   16  C11 UNL     1      -0.961   0.076  -0.497  1.00  0.00     0.082 A 
HETATM   17  C12 UNL     1      -1.184  -0.690   0.559  1.00  0.00     0.033 C 
BRANCH  17  18
HETATM   18  C13 UNL     1      -2.524  -1.036   1.129  1.00  0.00     0.197 C 
BRANCH  18  19
HETATM   19  O1  UNL     1      -3.475  -0.406   0.346  1.00  0.00    -0.385 OA
BRANCH  19  20
HETATM   20  C14 UNL     1      -4.782  -0.636   0.757  1.00  0.00     0.194 C 
BRANCH  20  21
HETATM   21  C15 UNL     1      -5.064  -0.176   2.140  1.00  0.00     0.193 C 
BRANCH  21  22
HETATM   22  O2  UNL     1      -6.378  -0.446   2.472  1.00  0.00    -0.394 OA
HETATM   23  C16 UNL     1      -7.330   0.149   1.681  1.00  0.00     0.201 C 
ENDBRANCH  21  22
ENDBRANCH  20  21
ENDBRANCH  19  20
ENDBRANCH  18  19
ENDBRANCH  17  18
ENDBRANCH  11  12
ENDBRANCH   9  11
ENDBRANCH   7   9
TORSDOF 8
