REMARK  7 active torsions:
REMARK  status: ('A' for Active; 'I' for Inactive)
REMARK    1  A    between atoms: C6_6  and  O1_7 
REMARK    2  A    between atoms: C7_8  and  C8_9 
REMARK    3  A    between atoms: C8_9  and  N1_10 
REMARK    4  A    between atoms: N1_10  and  C9_11 
REMARK    5  A    between atoms: N1_10  and  C16_18 
REMARK    6  A    between atoms: C9_11  and  C10_12 
REMARK    7  A    between atoms: C16_18  and  N2_19 
ROOT
HETATM    1  N1  UNL     1      -0.589  -0.209  -0.503  1.00  0.00     0.114 N 
ENDROOT
BRANCH   1   2
HETATM    2  C8  UNL     1       0.384   0.829  -0.661  1.00  0.00     0.316 C 
BRANCH   2   3
HETATM    3  C7  UNL     1       1.736   0.543  -0.180  1.00  0.00     0.004 A 
HETATM    4  C6  UNL     1       2.806  -0.100  -0.752  1.00  0.00     0.079 A 
HETATM    5  C4  UNL     1       3.985  -0.313  -0.102  1.00  0.00    -0.028 A 
HETATM    6  C3  UNL     1       4.162   0.116   1.188  1.00  0.00     0.016 A 
HETATM    7  C5  UNL     1       5.041  -1.021  -0.859  1.00  0.00     0.051 C 
HETATM    8  C2  UNL     1       3.124   0.768   1.812  1.00  0.00    -0.061 A 
HETATM    9  C1  UNL     1       3.381   1.200   3.204  1.00  0.00     0.048 C 
HETATM   10  C23 UNL     1       1.938   0.974   1.136  1.00  0.00     0.018 A 
BRANCH   4  11
HETATM   11  O1  UNL     1       2.611  -0.522  -2.058  1.00  0.00    -0.360 OA
HETATM   12  H8  UNL     1       2.494  -1.533  -2.214  1.00  0.00     0.217 HD
ENDBRANCH   4  11
ENDBRANCH   2   3
ENDBRANCH   1   2
BRANCH   1  13
HETATM   13  C9  UNL     1      -0.183  -1.428  -1.096  1.00  0.00     0.313 C 
BRANCH  13  14
HETATM   14  C10 UNL     1      -1.223  -2.504  -0.949  1.00  0.00    -0.030 A 
HETATM   15  C11 UNL     1      -1.117  -3.288   0.205  1.00  0.00     0.009 A 
HETATM   16  C12 UNL     1      -1.984  -4.322   0.511  1.00  0.00     0.001 A 
HETATM   17  C13 UNL     1      -2.986  -4.555  -0.397  1.00  0.00     0.000 A 
HETATM   18  C14 UNL     1      -3.125  -3.795  -1.562  1.00  0.00     0.001 A 
HETATM   19  C15 UNL     1      -2.243  -2.770  -1.835  1.00  0.00     0.009 A 
ENDBRANCH  13  14
ENDBRANCH   1  13
BRANCH   1  20
HETATM   20  C16 UNL     1      -1.824   0.319  -1.114  1.00  0.00     0.402 C 
BRANCH  20  21
HETATM   21  N2  UNL     1      -2.212   1.528  -0.458  1.00  0.00    -0.341 N 
HETATM   22  C17 UNL     1      -2.452   1.399   0.936  1.00  0.00     0.092 A 
HETATM   23  C18 UNL     1      -2.708   2.291   1.879  1.00  0.00     0.017 A 
HETATM   24  C19 UNL     1      -2.809   3.749   1.666  1.00  0.00     0.001 A 
HETATM   25  C20 UNL     1      -2.746   4.459   0.546  1.00  0.00     0.001 A 
HETATM   26  C21 UNL     1      -2.555   3.987  -0.820  1.00  0.00     0.017 A 
HETATM   27  C22 UNL     1      -2.332   2.743  -1.204  1.00  0.00     0.092 A 
ENDBRANCH  20  21
ENDBRANCH   1  20
TORSDOF 7
