REMARK  6 active torsions:
REMARK  status: ('A' for Active; 'I' for Inactive)
REMARK    1  A    between atoms: C2_2  and  C3_3 
REMARK    2  A    between atoms: C3_3  and  C4_4 
REMARK    3  A    between atoms: C4_4  and  N1_5 
REMARK       I    between atoms: N1_5  and  C5_6 
REMARK    4  A    between atoms: N1_5  and  C12_15 
REMARK       I    between atoms: C5_6  and  N2_8 
REMARK    5  A    between atoms: N2_8  and  C6_9 
REMARK    6  A    between atoms: C17_20  and  O2_21 
ROOT
HETATM    1  N1  UNL     1      -0.507  -0.470  -0.271  1.00  0.00    -0.297 N 
HETATM    2  C5  UNL     1       0.885  -0.483  -0.062  1.00  0.00     0.327 C 
HETATM    3  O1  UNL     1       1.525  -1.524   0.121  1.00  0.00    -0.246 OA
HETATM    4  N2  UNL     1       1.645   0.715  -0.049  1.00  0.00    -0.309 N 
HETATM    5  H10 UNL     1       1.218   1.657  -0.192  1.00  0.00     0.170 HD
ENDROOT
BRANCH   1   6
HETATM    6  C4  UNL     1      -1.234   0.745  -0.567  1.00  0.00     0.134 C 
BRANCH   6   7
HETATM    7  C3  UNL     1      -1.712   1.421   0.661  1.00  0.00     0.020 C 
BRANCH   7   8
HETATM    8  C2  UNL     1      -2.482   2.696   0.348  1.00  0.00    -0.003 C 
HETATM    9  C1  UNL     1      -3.697   2.408  -0.506  1.00  0.00     0.005 C 
ENDBRANCH   7   8
ENDBRANCH   6   7
ENDBRANCH   1   6
BRANCH   1  10
HETATM   10  C12 UNL     1      -1.279  -1.658  -0.280  1.00  0.00     0.074 A 
HETATM   11  C13 UNL     1      -1.688  -2.128  -1.498  1.00  0.00     0.033 A 
HETATM   12  C14 UNL     1      -2.441  -3.275  -1.630  1.00  0.00     0.002 A 
HETATM   13  C15 UNL     1      -2.783  -3.959  -0.463  1.00  0.00     0.003 A 
HETATM   14  C16 UNL     1      -2.351  -3.457   0.770  1.00  0.00     0.041 A 
HETATM   15  C17 UNL     1      -1.585  -2.291   0.893  1.00  0.00     0.118 A 
BRANCH  15  16
HETATM   16  O2  UNL     1      -1.328  -2.088   2.212  1.00  0.00    -0.239 OA
HETATM   17 CL1  UNL     1      -0.361  -0.816   2.791  1.00  0.00     0.067 Cl
ENDBRANCH  15  16
ENDBRANCH   1  10
BRANCH   4  18
HETATM   18  C6  UNL     1       3.059   0.756   0.159  1.00  0.00     0.036 A 
HETATM   19  C7  UNL     1       3.812   0.668  -1.004  1.00  0.00     0.029 A 
HETATM   20  C8  UNL     1       5.191   0.699  -0.905  1.00  0.00     0.002 A 
HETATM   21  C9  UNL     1       5.792   0.816   0.338  1.00  0.00     0.000 A 
HETATM   22  C10 UNL     1       5.019   0.901   1.471  1.00  0.00     0.002 A 
HETATM   23  C11 UNL     1       3.625   0.874   1.412  1.00  0.00     0.029 A 
ENDBRANCH   4  18
TORSDOF 6
