REMARK  7 active torsions:
REMARK  status: ('A' for Active; 'I' for Inactive)
REMARK    1  A    between atoms: C2_2  and  C3_3 
REMARK    2  A    between atoms: C3_3  and  C4_4 
REMARK    3  A    between atoms: C4_4  and  N1_5 
REMARK    4  A    between atoms: N1_5  and  C5_6 
REMARK       I    between atoms: N1_5  and  C11_13 
REMARK    5  A    between atoms: C5_6  and  C6_7 
REMARK    6  A    between atoms: C10_11  and  O1_12 
REMARK       I    between atoms: C11_13  and  N2_15 
REMARK    7  A    between atoms: N2_15  and  C12_16 
ROOT
HETATM    1  N1  UNL     1      -0.902   0.213   0.194  1.00  0.00    -0.330 N 
HETATM    2  C11 UNL     1       0.421   0.184  -0.387  1.00  0.00     0.323 C 
HETATM    3  O2  UNL     1       0.644  -0.012  -1.621  1.00  0.00    -0.247 OA
HETATM    4  N2  UNL     1       1.632   0.366   0.327  1.00  0.00    -0.309 N 
HETATM    5  H17 UNL     1       1.557   0.536   1.374  1.00  0.00     0.170 HD
ENDROOT
BRANCH   1   6
HETATM    6  C4  UNL     1      -1.296   0.435   1.581  1.00  0.00     0.128 C 
BRANCH   6   7
HETATM    7  C3  UNL     1      -1.548   1.865   1.916  1.00  0.00     0.020 C 
BRANCH   7   8
HETATM    8  C2  UNL     1      -0.324   2.724   1.698  1.00  0.00    -0.003 C 
HETATM    9  C1  UNL     1      -0.740   4.139   2.076  1.00  0.00     0.005 C 
ENDBRANCH   7   8
ENDBRANCH   6   7
ENDBRANCH   1   6
BRANCH   1  10
HETATM   10  C5  UNL     1      -1.986  -0.012  -0.743  1.00  0.00     0.169 C 
BRANCH  10  11
HETATM   11  C6  UNL     1      -2.355  -1.433  -0.893  1.00  0.00    -0.006 A 
HETATM   12  C7  UNL     1      -2.375  -2.285  -1.931  1.00  0.00     0.021 A 
HETATM   13  C8  UNL     1      -2.861  -3.370  -1.087  1.00  0.00    -0.028 A 
HETATM   14  C9  UNL     1      -3.222  -4.803  -1.292  1.00  0.00     0.051 C 
HETATM   15  C10 UNL     1      -2.841  -2.527  -0.065  1.00  0.00     0.079 A 
BRANCH  15  16
HETATM   16  O1  UNL     1      -3.171  -2.707   1.251  1.00  0.00    -0.360 OA
HETATM   17  H16 UNL     1      -2.609  -3.270   1.883  1.00  0.00     0.217 HD
ENDBRANCH  15  16
ENDBRANCH  10  11
ENDBRANCH   1  10
BRANCH   4  18
HETATM   18  C12 UNL     1       2.874   0.315  -0.366  1.00  0.00     0.036 A 
HETATM   19  C13 UNL     1       3.615  -0.839  -0.558  1.00  0.00     0.029 A 
HETATM   20  C14 UNL     1       4.810  -0.795  -1.242  1.00  0.00     0.002 A 
HETATM   21  C15 UNL     1       5.307   0.395  -1.757  1.00  0.00     0.000 A 
HETATM   22  C16 UNL     1       4.573   1.531  -1.565  1.00  0.00     0.002 A 
HETATM   23  C17 UNL     1       3.378   1.509  -0.886  1.00  0.00     0.029 A 
ENDBRANCH   4  18
TORSDOF 7
