REMARK  2 active torsions:
REMARK  status: ('A' for Active; 'I' for Inactive)
REMARK    1  A    between atoms: N1_1  and  C1_2 
REMARK    2  A    between atoms: C5_7  and  O1_8 
ROOT
HETATM    1  C1  UNL     1      -3.236   0.787  -1.028  1.00  0.00     0.249 C 
HETATM    2  C2  UNL     1      -3.474   0.004   0.211  1.00  0.00     0.008 C 
HETATM    3  C3  UNL     1      -3.154  -1.023   0.971  1.00  0.00    -0.001 C 
HETATM    4  C4  UNL     1      -2.093  -1.950   0.614  1.00  0.00     0.076 C 
HETATM    5  P1  UNL     1      -0.934  -3.084   0.353  1.00  0.00    -0.079 P 
HETATM    6  C5  UNL     1       0.077  -2.795  -1.214  1.00  0.00     0.144 C 
HETATM    7  C6  UNL     1       1.492  -3.235  -1.036  1.00  0.00     0.036 C 
HETATM    8  C7  UNL     1       2.210  -2.715   0.140  1.00  0.00     0.003 C 
HETATM    9  C8  UNL     1       2.554  -1.293   0.291  1.00  0.00     0.005 C 
HETATM   10  C9  UNL     1       1.475  -0.284   0.225  1.00  0.00     0.041 C 
HETATM   11  C10 UNL     1       1.983   1.083   0.554  1.00  0.00    -0.031 A 
HETATM   12  C11 UNL     1       3.282   1.156   0.972  1.00  0.00     0.009 A 
HETATM   13  C12 UNL     1       3.808   2.375   1.308  1.00  0.00     0.001 A 
HETATM   14  C13 UNL     1       3.135   3.574   1.266  1.00  0.00     0.002 A 
HETATM   15  C14 UNL     1       1.832   3.461   0.841  1.00  0.00     0.030 A 
HETATM   16  C15 UNL     1       1.277   2.235   0.493  1.00  0.00     0.041 A 
HETATM   17  N2  UNL     1      -0.029   2.469   0.079  1.00  0.00    -0.327 N 
HETATM   18  C16 UNL     1      -1.320   2.268  -0.347  1.00  0.00     0.224 C 
HETATM   19  O2  UNL     1      -1.250   1.018  -0.365  1.00  0.00    -0.273 OA
HETATM   20  C17 UNL     1      -2.695   2.155  -0.798  1.00  0.00     0.142 C 
HETATM   21  H21 UNL     1      -0.519   3.382  -0.051  1.00  0.00     0.169 HD
ENDROOT
BRANCH   1  22
HETATM   22  N1  UNL     1      -4.559   1.055  -1.668  1.00  0.00     0.086 N 
HETATM   23  H1  UNL     1      -5.000   1.886  -1.212  1.00  0.00     0.313 HD
HETATM   24  H2  UNL     1      -5.184   0.237  -1.525  1.00  0.00     0.313 HD
ENDBRANCH   1  22
BRANCH   6  25
HETATM   25  O1  UNL     1      -0.556  -3.728  -2.102  1.00  0.00    -0.391 OA
HETATM   26  H8  UNL     1      -0.642  -4.589  -1.607  1.00  0.00     0.210 HD
ENDBRANCH   6  25
TORSDOF 2
