REMARK  4 active torsions:
REMARK  status: ('A' for Active; 'I' for Inactive)
REMARK    1  A    between atoms: O1_2  and  C2_3 
REMARK    2  A    between atoms: C7_8  and  O2_9 
REMARK    3  A    between atoms: C11_16  and  C12_17 
REMARK    4  A    between atoms: C12_17  and  C13_18 
ROOT
HETATM    1  C2  UNL     1      -3.747   1.188  -0.645  1.00  0.00     0.102 A 
HETATM    2  C3  UNL     1      -2.409   1.505  -0.446  1.00  0.00     0.051 A 
HETATM    3  C4  UNL     1      -1.435   0.501  -0.464  1.00  0.00    -0.004 A 
HETATM    4  C5  UNL     1      -1.868  -0.811  -0.688  1.00  0.00     0.088 A 
HETATM    5  C6  UNL     1      -3.205  -1.088  -0.881  1.00  0.00     0.077 A 
HETATM    6  C7  UNL     1      -4.175  -0.113  -0.867  1.00  0.00     0.104 A 
HETATM    7  O3  UNL     1      -1.095  -1.989  -0.752  1.00  0.00    -0.289 OA
HETATM    8  C9  UNL     1       0.100  -2.219  -0.040  1.00  0.00     0.200 A 
HETATM    9  N1  UNL     1       0.498  -3.527  -0.028  1.00  0.00    -0.215 NA
HETATM   10  C10 UNL     1       1.644  -3.828   0.641  1.00  0.00     0.236 A 
HETATM   11  N2  UNL     1       2.365  -2.910   1.263  1.00  0.00    -0.244 NA
HETATM   12  C11 UNL     1       2.058  -1.576   1.312  1.00  0.00     0.070 A 
HETATM   13  C19 UNL     1       0.894  -1.286   0.632  1.00  0.00     0.107 A 
HETATM   14  N3  UNL     1       0.641   0.128   0.744  1.00  0.00    -0.380 N 
HETATM   15  C20 UNL     1      -0.050   0.983  -0.237  1.00  0.00     0.161 C 
HETATM   16  H16 UNL     1       1.024   0.480   1.648  1.00  0.00     0.160 HD
ENDROOT
BRANCH  12  17
HETATM   17  C12 UNL     1       2.929  -0.638   2.016  1.00  0.00     0.100 C 
BRANCH  17  18
HETATM   18  C13 UNL     1       3.812   0.175   1.142  1.00  0.00    -0.051 A 
HETATM   19  C14 UNL     1       3.614   1.459   0.686  1.00  0.00     0.007 A 
HETATM   20  C15 UNL     1       4.494   2.128  -0.133  1.00  0.00     0.002 A 
HETATM   21  C16 UNL     1       5.657   1.523  -0.549  1.00  0.00     0.019 A 
HETATM   22  C17 UNL     1       5.937   0.253  -0.147  1.00  0.00     0.011 A 
HETATM   23 BR1  UNL     1       7.525  -0.646  -0.683  1.00  0.00    -0.051 Br
HETATM   24  C18 UNL     1       5.017  -0.361   0.671  1.00  0.00     0.026 A 
ENDBRANCH  17  18
ENDBRANCH  12  17
BRANCH   6  25
HETATM   25  O2  UNL     1      -5.529  -0.286  -1.048  1.00  0.00    -0.353 OA
HETATM   26  C8  UNL     1      -6.144  -1.533  -1.284  1.00  0.00     0.210 C 
ENDBRANCH   6  25
BRANCH   1  27
HETATM   27  O1  UNL     1      -4.680   2.243  -0.615  1.00  0.00    -0.353 OA
HETATM   28  C1  UNL     1      -4.184   3.549  -0.384  1.00  0.00     0.210 C 
ENDBRANCH   1  27
TORSDOF 4
