REMARK  6 active torsions:
REMARK  status: ('A' for Active; 'I' for Inactive)
REMARK    1  A    between atoms: C2_2  and  C3_3 
REMARK    2  A    between atoms: C3_3  and  N1_4 
REMARK    3  A    between atoms: N1_4  and  C4_5 
REMARK       I    between atoms: N1_4  and  C11_14 
REMARK    4  A    between atoms: C4_5  and  C5_6 
REMARK    5  A    between atoms: C10_12  and  O1_13 
REMARK       I    between atoms: C11_14  and  N2_16 
REMARK    6  A    between atoms: N2_16  and  C12_17 
ROOT
HETATM    1  N1  UNL     1      -0.622   0.712  -0.378  1.00  0.00    -0.330 N 
HETATM    2  C11 UNL     1       0.748   0.515  -0.050  1.00  0.00     0.323 C 
HETATM    3  O2  UNL     1       1.160   1.621   0.437  1.00  0.00    -0.247 OA
HETATM    4  N2  UNL     1       1.472  -0.694  -0.244  1.00  0.00    -0.309 N 
HETATM    5  H14 UNL     1       0.959  -1.500  -0.660  1.00  0.00     0.170 HD
ENDROOT
BRANCH   1   6
HETATM    6  C3  UNL     1      -1.158   2.030  -0.093  1.00  0.00     0.127 C 
BRANCH   6   7
HETATM    7  C2  UNL     1      -0.999   2.976  -1.267  1.00  0.00     0.015 C 
HETATM    8  C1  UNL     1      -1.579   4.327  -0.894  1.00  0.00     0.006 C 
ENDBRANCH   6   7
ENDBRANCH   1   6
BRANCH   1   9
HETATM    9  C4  UNL     1      -1.429  -0.338  -0.959  1.00  0.00     0.169 C 
BRANCH   9  10
HETATM   10  C5  UNL     1      -2.106  -1.167   0.070  1.00  0.00    -0.005 A 
HETATM   11  C6  UNL     1      -2.027  -1.020   1.438  1.00  0.00     0.012 A 
HETATM   12  C7  UNL     1      -2.724  -1.881   2.265  1.00  0.00     0.002 A 
HETATM   13  C8  UNL     1      -3.511  -2.904   1.753  1.00  0.00     0.026 A 
HETATM   14  C9  UNL     1      -3.594  -3.056   0.376  1.00  0.00     0.067 A 
HETATM   15 CL1  UNL     1      -4.599  -4.360  -0.230  1.00  0.00    -0.081 Cl
HETATM   16  C10 UNL     1      -2.898  -2.196  -0.430  1.00  0.00     0.095 A 
BRANCH  16  17
HETATM   17  O1  UNL     1      -3.036  -2.418  -1.811  1.00  0.00    -0.358 OA
HETATM   18  H13 UNL     1      -2.261  -2.698  -2.387  1.00  0.00     0.217 HD
ENDBRANCH  16  17
ENDBRANCH   9  10
ENDBRANCH   1   9
BRANCH   4  19
HETATM   19  C12 UNL     1       2.854  -0.652   0.167  1.00  0.00     0.036 A 
HETATM   20  C13 UNL     1       3.674  -0.239  -0.887  1.00  0.00     0.029 A 
HETATM   21  C14 UNL     1       5.038  -0.128  -0.715  1.00  0.00     0.002 A 
HETATM   22  C15 UNL     1       5.567  -0.434   0.520  1.00  0.00     0.000 A 
HETATM   23  C16 UNL     1       4.748  -0.840   1.553  1.00  0.00     0.002 A 
HETATM   24  C17 UNL     1       3.399  -0.952   1.390  1.00  0.00     0.029 A 
ENDBRANCH   4  19
TORSDOF 6
