REMARK  4 active torsions:
REMARK  status: ('A' for Active; 'I' for Inactive)
REMARK    1  A    between atoms: C2_2  and  C3_3 
REMARK    2  A    between atoms: C3_3  and  C4_4 
REMARK    3  A    between atoms: C4_4  and  N1_5 
REMARK    4  A    between atoms: C10_11  and  O1_12 
ROOT
HETATM    1  N1  UNL     1       1.471   1.000  -0.805  1.00  0.00    -0.349 N 
HETATM    2  C5  UNL     1       0.977   2.266  -0.116  1.00  0.00     0.127 C 
HETATM    3  C6  UNL     1       0.690   1.761   1.253  1.00  0.00     0.014 C 
HETATM    4  C7  UNL     1      -0.650   1.422   1.262  1.00  0.00     0.025 C 
HETATM    5  C8  UNL     1      -1.845   1.447   0.327  1.00  0.00    -0.014 C 
HETATM    6  C9  UNL     1      -2.720   1.660  -0.770  1.00  0.00     0.050 C 
HETATM    7  C10 UNL     1      -3.761   0.888  -0.107  1.00  0.00     0.168 C 
HETATM    8 CL1  UNL     1      -5.162   0.623  -1.142  1.00  0.00    -0.083 Cl
HETATM    9  C11 UNL     1      -3.098  -0.562  -0.036  1.00  0.00     0.029 A 
HETATM   10  C12 UNL     1      -3.936  -1.319   0.702  1.00  0.00     0.014 A 
HETATM   11  C13 UNL     1      -3.757  -2.632   1.052  1.00  0.00     0.001 A 
HETATM   12  C14 UNL     1      -2.625  -3.289   0.633  1.00  0.00     0.002 A 
HETATM   13  C15 UNL     1      -1.767  -2.479  -0.134  1.00  0.00     0.041 A 
HETATM   14  C16 UNL     1      -1.894  -1.141  -0.522  1.00  0.00     0.183 A 
HETATM   15  N2  UNL     1      -0.614  -0.993  -1.255  1.00  0.00     0.142 N 
HETATM   16  C17 UNL     1       0.583  -0.104  -1.216  1.00  0.00     0.452 A 
HETATM   17  O2  UNL     1      -0.461  -0.347  -0.772  1.00  0.00    -0.120 OA
HETATM   18  H21 UNL     1      -0.424  -1.685  -2.104  1.00  0.00     0.332 HD
ENDROOT
BRANCH   1  19
HETATM   19  C4  UNL     1       2.739   0.691  -1.406  1.00  0.00     0.122 C 
BRANCH  19  20
HETATM   20  C3  UNL     1       3.664  -0.168  -0.601  1.00  0.00     0.019 C 
BRANCH  20  21
HETATM   21  C2  UNL     1       4.078   0.423   0.697  1.00  0.00    -0.003 C 
HETATM   22  C1  UNL     1       5.036  -0.537   1.412  1.00  0.00     0.005 C 
ENDBRANCH  20  21
ENDBRANCH  19  20
ENDBRANCH   1  19
BRANCH   7  23
HETATM   23  O1  UNL     1      -4.074   1.330   1.124  1.00  0.00    -0.370 OA
HETATM   24  H16 UNL     1      -5.050   1.433   1.299  1.00  0.00     0.212 HD
ENDBRANCH   7  23
TORSDOF 4
