REMARK  8 active torsions:
REMARK  status: ('A' for Active; 'I' for Inactive)
REMARK    1  A    between atoms: N1_1  and  C1_2 
REMARK       I    between atoms: N2_7  and  C6_8 
REMARK    2  A    between atoms: C6_8  and  C7_10 
REMARK    3  A    between atoms: C7_10  and  C8_11 
REMARK    4  A    between atoms: C8_11  and  C9_12 
REMARK    5  A    between atoms: C9_12  and  C10_13 
REMARK    6  A    between atoms: C10_13  and  C11_14 
REMARK    7  A    between atoms: C11_14  and  C12_15 
REMARK    8  A    between atoms: C17_21  and  O2_22 
ROOT
HETATM    1  C8  UNL     1      -0.016  -2.190   1.228  1.00  0.00     0.009 C 
ENDROOT
BRANCH   1   2
HETATM    2  C7  UNL     1      -0.924  -1.015   0.901  1.00  0.00     0.103 C 
BRANCH   2   3
HETATM    3  C6  UNL     1      -1.739  -1.374  -0.264  1.00  0.00     0.221 C 
HETATM    4  N2  UNL     1      -2.661  -0.386  -0.753  1.00  0.00    -0.318 N 
HETATM    5  C1  UNL     1      -2.888   0.943  -0.229  1.00  0.00     0.325 C 
HETATM    6  C5  UNL     1      -3.525  -0.647  -1.916  1.00  0.00     0.155 C 
HETATM    7  C2  UNL     1      -4.342   1.329  -0.144  1.00  0.00     0.084 C 
HETATM    8  C3  UNL     1      -5.164   0.133  -0.463  1.00  0.00    -0.025 C 
HETATM    9  C4  UNL     1      -4.882  -0.867  -1.285  1.00  0.00    -0.011 C 
HETATM   10  O1  UNL     1      -2.041  -2.234  -1.127  1.00  0.00    -0.273 OA
BRANCH   5  11
HETATM   11  N1  UNL     1      -2.179   1.951  -0.996  1.00  0.00     0.101 N 
HETATM   12  H1  UNL     1      -2.792   2.759  -1.260  1.00  0.00     0.315 HD
HETATM   13  H2  UNL     1      -1.276   2.233  -0.603  1.00  0.00     0.315 HD
ENDBRANCH   5  11
ENDBRANCH   2   3
ENDBRANCH   1   2
BRANCH   1  14
HETATM   14  C9  UNL     1       0.864  -2.470   0.044  1.00  0.00     0.001 C 
BRANCH  14  15
HETATM   15  C10 UNL     1       1.727  -1.314  -0.336  1.00  0.00     0.005 C 
BRANCH  15  16
HETATM   16  C11 UNL     1       2.626  -0.962   0.821  1.00  0.00     0.041 C 
BRANCH  16  17
HETATM   17  C12 UNL     1       3.519   0.191   0.485  1.00  0.00    -0.023 A 
HETATM   18  C13 UNL     1       4.867  -0.034   0.186  1.00  0.00     0.010 A 
HETATM   19  C14 UNL     1       5.749   0.976  -0.131  1.00  0.00     0.002 A 
HETATM   20  C15 UNL     1       5.305   2.274  -0.161  1.00  0.00     0.026 A 
HETATM   21  C16 UNL     1       3.984   2.527   0.129  1.00  0.00     0.067 A 
HETATM   22 CL1  UNL     1       3.366   4.148   0.107  1.00  0.00    -0.081 Cl
HETATM   23  C17 UNL     1       3.084   1.509   0.451  1.00  0.00     0.093 A 
BRANCH  23  24
HETATM   24  O2  UNL     1       1.752   1.772   0.742  1.00  0.00    -0.358 OA
HETATM   25  H23 UNL     1       1.353   2.590   0.262  1.00  0.00     0.217 HD
ENDBRANCH  23  24
ENDBRANCH  16  17
ENDBRANCH  15  16
ENDBRANCH  14  15
ENDBRANCH   1  14
TORSDOF 8
