REMARK  9 active torsions:
REMARK  status: ('A' for Active; 'I' for Inactive)
REMARK    1  A    between atoms: C7_8  and  O1_9 
REMARK    2  A    between atoms: O1_9  and  C8_10 
REMARK    3  A    between atoms: C8_10  and  C9_11 
REMARK    4  A    between atoms: C9_11  and  O2_12 
REMARK    5  A    between atoms: C10_13  and  C11_14 
REMARK    6  A    between atoms: C11_14  and  O3_15 
REMARK    7  A    between atoms: O3_15  and  C12_16 
REMARK    8  A    between atoms: C12_16  and  C13_17 
REMARK    9  A    between atoms: C13_17  and  O4_18 
ROOT
HETATM    1  C1  UNL     1      -5.322   3.179   1.091  1.00  0.00     0.013 C 
HETATM    2  C2  UNL     1      -4.872   2.056   1.259  1.00  0.00    -0.102 C 
HETATM    3  C3  UNL     1      -4.347   0.715   1.438  1.00  0.00     0.137 C 
HETATM    4  C4  UNL     1      -2.925   0.907   2.000  1.00  0.00     0.112 C 
HETATM    5  N1  UNL     1      -2.084   0.312   1.416  1.00  0.00    -0.263 NA
HETATM    6  C5  UNL     1      -0.888  -0.137   1.097  1.00  0.00     0.066 A 
HETATM    7  C6  UNL     1       0.084   0.824   0.950  1.00  0.00     0.069 A 
HETATM    8  C7  UNL     1       1.408   0.601   0.593  1.00  0.00     0.079 A 
HETATM    9  C10 UNL     1       1.775  -0.703   0.368  1.00  0.00    -0.001 A 
HETATM   10  C14 UNL     1       0.810  -1.676   0.512  1.00  0.00     0.023 A 
HETATM   11  C15 UNL     1      -0.539  -1.496   0.872  1.00  0.00    -0.011 A 
HETATM   12  C16 UNL     1      -1.310  -2.735   0.965  1.00  0.00     0.160 C 
HETATM   13  N2  UNL     1      -2.140  -3.034  -0.194  1.00  0.00    -0.386 N 
HETATM   14  C17 UNL     1      -2.989  -1.928  -0.565  1.00  0.00     0.028 A 
HETATM   15  C18 UNL     1      -3.261  -1.576  -1.869  1.00  0.00     0.029 A 
HETATM   16  C19 UNL     1      -3.978  -0.440  -2.176  1.00  0.00     0.003 A 
HETATM   17  C20 UNL     1      -4.461   0.410  -1.204  1.00  0.00     0.009 A 
HETATM   18  C21 UNL     1      -4.193   0.066   0.097  1.00  0.00    -0.035 A 
HETATM   19  C22 UNL     1      -3.480  -1.080   0.395  1.00  0.00     0.038 A 
HETATM   20  H20 UNL     1      -2.300  -3.830  -0.845  1.00  0.00     0.160 HD
ENDROOT
BRANCH   8  21
HETATM   21  O1  UNL     1       2.353   1.602   0.457  1.00  0.00    -0.348 OA
BRANCH  21  22
HETATM   22  C8  UNL     1       1.933   2.921   0.698  1.00  0.00     0.201 C 
BRANCH  22  23
HETATM   23  C9  UNL     1       3.002   3.956   0.533  1.00  0.00     0.190 C 
BRANCH  23  24
HETATM   24  O2  UNL     1       2.429   5.206   0.806  1.00  0.00    -0.399 OA
HETATM   25  H9  UNL     1       2.766   5.929   0.248  1.00  0.00     0.209 HD
ENDBRANCH  23  24
ENDBRANCH  22  23
ENDBRANCH  21  22
ENDBRANCH   8  21
BRANCH   9  26
HETATM   26  C11 UNL     1       3.179  -0.991  -0.016  1.00  0.00     0.209 C 
BRANCH  26  27
HETATM   27  O3  UNL     1       3.330  -0.636  -1.345  1.00  0.00    -0.385 OA
BRANCH  27  28
HETATM   28  C12 UNL     1       4.616  -0.860  -1.821  1.00  0.00     0.194 C 
BRANCH  28  29
HETATM   29  C13 UNL     1       5.053  -2.298  -1.741  1.00  0.00     0.190 C 
BRANCH  29  30
HETATM   30  O4  UNL     1       4.237  -3.138  -2.469  1.00  0.00    -0.399 OA
HETATM   31  H16 UNL     1       4.209  -4.065  -2.124  1.00  0.00     0.209 HD
ENDBRANCH  29  30
ENDBRANCH  28  29
ENDBRANCH  27  28
ENDBRANCH  26  27
ENDBRANCH   9  26
TORSDOF 9
