REMARK  6 active torsions:
REMARK  status: ('A' for Active; 'I' for Inactive)
REMARK    1  A    between atoms: C2_2  and  C3_3 
REMARK    2  A    between atoms: C3_3  and  N1_4 
REMARK    3  A    between atoms: N1_4  and  C4_5 
REMARK       I    between atoms: N1_4  and  C11_14 
REMARK    4  A    between atoms: C4_5  and  C5_6 
REMARK    5  A    between atoms: C10_12  and  O1_13 
REMARK       I    between atoms: C11_14  and  N2_16 
REMARK    6  A    between atoms: N2_16  and  C12_17 
ROOT
HETATM    1  N1  UNL     1      -0.810   0.308  -0.383  1.00  0.00    -0.330 N 
HETATM    2  C11 UNL     1       0.489  -0.319  -0.465  1.00  0.00     0.323 C 
HETATM    3  O2  UNL     1       0.596  -1.481  -0.932  1.00  0.00    -0.247 OA
HETATM    4  N2  UNL     1       1.668   0.326  -0.034  1.00  0.00    -0.309 N 
HETATM    5  H12 UNL     1       1.477   1.283   0.336  1.00  0.00     0.170 HD
ENDROOT
BRANCH   1   6
HETATM    6  C3  UNL     1      -1.080   1.614   0.126  1.00  0.00     0.127 C 
BRANCH   6   7
HETATM    7  C2  UNL     1      -1.026   2.724  -0.886  1.00  0.00     0.015 C 
HETATM    8  C1  UNL     1      -1.322   4.073  -0.276  1.00  0.00     0.006 C 
ENDBRANCH   6   7
ENDBRANCH   1   6
BRANCH   1   9
HETATM    9  C4  UNL     1      -1.952  -0.452  -0.864  1.00  0.00     0.169 C 
BRANCH   9  10
HETATM   10  C5  UNL     1      -2.547  -1.262   0.225  1.00  0.00     0.007 C 
HETATM   11  C6  UNL     1      -2.004  -1.199   1.418  1.00  0.00    -0.002 C 
HETATM   12  C7  UNL     1      -2.612  -1.687   2.453  1.00  0.00    -0.011 C 
HETATM   13  C8  UNL     1      -3.493  -2.661   2.304  1.00  0.00     0.040 C 
HETATM   14  C9  UNL     1      -4.199  -2.829   1.033  1.00  0.00     0.068 C 
HETATM   15 CL1  UNL     1      -5.585  -3.884   0.878  1.00  0.00    -0.081 Cl
HETATM   16  C10 UNL     1      -3.707  -2.128   0.037  1.00  0.00     0.096 C 
BRANCH  16  17
HETATM   17  O1  UNL     1      -4.301  -2.213  -1.209  1.00  0.00    -0.358 OA
HETATM   18  H11 UNL     1      -3.938  -1.777  -2.040  1.00  0.00     0.217 HD
ENDBRANCH  16  17
ENDBRANCH   9  10
ENDBRANCH   1   9
BRANCH   4  19
HETATM   19  C12 UNL     1       3.007  -0.128  -0.037  1.00  0.00     0.036 A 
HETATM   20  C13 UNL     1       3.472  -1.344  -0.478  1.00  0.00     0.029 A 
HETATM   21  C14 UNL     1       4.793  -1.733  -0.456  1.00  0.00     0.002 A 
HETATM   22  C15 UNL     1       5.728  -0.872   0.030  1.00  0.00     0.000 A 
HETATM   23  C16 UNL     1       5.315   0.349   0.479  1.00  0.00     0.002 A 
HETATM   24  C17 UNL     1       3.988   0.704   0.443  1.00  0.00     0.029 A 
ENDBRANCH   4  19
TORSDOF 6
