REMARK  5 active torsions:
REMARK  status: ('A' for Active; 'I' for Inactive)
REMARK    1  A    between atoms: C4_4  and  O1_5 
REMARK    2  A    between atoms: C9_10  and  O2_11 
REMARK    3  A    between atoms: N1_15  and  C13_16 
REMARK    4  A    between atoms: C13_16  and  C14_17 
REMARK       I    between atoms: C14_17  and  N2_19 
REMARK    5  A    between atoms: N2_19  and  C15_20 
ROOT
HETATM    1  C1  UNL     1      -3.631  -3.447  -2.324  1.00  0.00     0.047 C 
HETATM    2  C2  UNL     1      -3.393  -2.104  -1.701  1.00  0.00    -0.066 C 
HETATM    3  C3  UNL     1      -4.095  -1.008  -1.737  1.00  0.00     0.021 C 
HETATM    4  C4  UNL     1      -3.420  -0.010  -0.922  1.00  0.00     0.116 C 
HETATM    5  C5  UNL     1      -3.040   1.073  -0.276  1.00  0.00     0.050 C 
HETATM    6  C6  UNL     1      -1.847   1.361   0.652  1.00  0.00     0.014 A 
HETATM    7  C7  UNL     1      -2.630   1.663   1.949  1.00  0.00    -0.012 A 
HETATM    8  C8  UNL     1      -2.877   2.718   2.690  1.00  0.00     0.033 A 
HETATM    9  C9  UNL     1      -2.301   3.997   2.271  1.00  0.00     0.061 A 
HETATM   10  C10 UNL     1      -1.596   3.773   1.157  1.00  0.00     0.011 A 
HETATM   11  C11 UNL     1      -1.217   2.639   0.227  1.00  0.00     0.045 A 
HETATM   12  C12 UNL     1      -1.014   0.215   0.971  1.00  0.00     0.287 C 
HETATM   13  N1  UNL     1       0.233  -0.119   0.352  1.00  0.00     0.099 NA
HETATM   14  C21 UNL     1      -0.046  -0.369  -1.077  1.00  0.00     0.282 C 
HETATM   15  C22 UNL     1      -0.729  -1.635  -1.215  1.00  0.00     0.046 C 
HETATM   16  C23 UNL     1      -1.909  -2.278  -1.443  1.00  0.00    -0.013 C 
ENDROOT
BRANCH  13  17
HETATM   17  C13 UNL     1       1.383   0.638   0.546  1.00  0.00     0.375 C 
BRANCH  17  18
HETATM   18  C14 UNL     1       2.664  -0.151   0.349  1.00  0.00     0.250 C 
HETATM   19  O3  UNL     1       3.654   0.648   0.530  1.00  0.00    -0.271 OA
HETATM   20  N2  UNL     1       3.012  -1.464   0.038  1.00  0.00    -0.326 N 
HETATM   21  H17 UNL     1       2.149  -2.052  -0.094  1.00  0.00     0.169 HD
BRANCH  20  22
HETATM   22  C15 UNL     1       4.454  -1.527   0.015  1.00  0.00     0.034 A 
HETATM   23  C16 UNL     1       4.948  -1.814   1.293  1.00  0.00     0.029 A 
HETATM   24  C17 UNL     1       6.333  -1.908   1.327  1.00  0.00     0.002 A 
HETATM   25  C18 UNL     1       7.124  -1.732   0.216  1.00  0.00     0.000 A 
HETATM   26  C19 UNL     1       6.549  -1.450  -1.001  1.00  0.00     0.002 A 
HETATM   27  C20 UNL     1       5.157  -1.335  -1.157  1.00  0.00     0.029 A 
ENDBRANCH  20  22
ENDBRANCH  17  18
ENDBRANCH  13  17
BRANCH   4  28
HETATM   28  O1  UNL     1      -4.558   0.747  -1.404  1.00  0.00    -0.382 OA
HETATM   29  H5  UNL     1      -5.332   0.806  -0.710  1.00  0.00     0.211 HD
ENDBRANCH   4  28
BRANCH   9  30
HETATM   30  O2  UNL     1      -2.403   5.233   2.833  1.00  0.00    -0.361 OA
HETATM   31  H9  UNL     1      -2.286   6.052   2.198  1.00  0.00     0.217 HD
ENDBRANCH   9  30
TORSDOF 5
