REMARK  3 active torsions:
REMARK  status: ('A' for Active; 'I' for Inactive)
REMARK    1  A    between atoms: C5_5  and  O1_6 
REMARK    2  A    between atoms: N1_9  and  C8_10 
REMARK    3  A    between atoms: C12_15  and  O3_16 
ROOT
HETATM    1  C1  UNL     1      -1.969  -1.264   2.543  1.00  0.00     0.048 C 
HETATM    2  C2  UNL     1      -1.572  -0.796   1.199  1.00  0.00    -0.059 A 
HETATM    3  C3  UNL     1      -1.300  -1.538   0.038  1.00  0.00     0.016 A 
HETATM    4  C4  UNL     1      -0.934  -0.979  -1.182  1.00  0.00    -0.022 A 
HETATM    5  C5  UNL     1      -0.832   0.369  -1.279  1.00  0.00     0.099 A 
HETATM    6  C6  UNL     1      -1.094   1.128  -0.127  1.00  0.00     0.071 A 
HETATM    7  C7  UNL     1      -1.454   0.588   1.074  1.00  0.00     0.039 A 
HETATM    8  N1  UNL     1      -0.828   2.552  -0.280  1.00  0.00    -0.319 N 
HETATM    9  C9  UNL     1       0.527   2.353  -0.554  1.00  0.00     0.159 C 
HETATM   10  C10 UNL     1       1.577   2.381   0.441  1.00  0.00    -0.004 C 
HETATM   11  C11 UNL     1       2.247   1.259   0.764  1.00  0.00     0.034 C 
HETATM   12  C12 UNL     1       2.604  -0.177   0.728  1.00  0.00     0.062 C 
HETATM   13  C13 UNL     1       2.205  -1.338   0.172  1.00  0.00     0.015 C 
HETATM   14  C14 UNL     1       1.054  -1.637  -0.736  1.00  0.00     0.046 C 
HETATM   15  C15 UNL     1       0.584  -2.753  -1.378  1.00  0.00    -0.015 C 
HETATM   16  C16 UNL     1      -0.651  -2.160  -2.063  1.00  0.00     0.042 C 
ENDROOT
BRANCH   5  17
HETATM   17  O1  UNL     1      -0.479   0.478  -2.611  1.00  0.00    -0.358 OA
HETATM   18  H5  UNL     1      -0.988   1.049  -3.270  1.00  0.00     0.217 HD
ENDBRANCH   5  17
BRANCH   8  19
HETATM   19  C8  UNL     1      -2.126   3.058  -0.051  1.00  0.00     0.356 C 
HETATM   20  O2  UNL     1      -3.037   2.223   0.186  1.00  0.00    -0.283 OA
ENDBRANCH   8  19
BRANCH  12  21
HETATM   21  O3  UNL     1       3.748  -0.376   1.562  1.00  0.00    -0.361 OA
HETATM   22  H12 UNL     1       4.675  -0.198   1.256  1.00  0.00     0.217 HD
ENDBRANCH  12  21
TORSDOF 3
