REMARK  7 active torsions:
REMARK  status: ('A' for Active; 'I' for Inactive)
REMARK    1  A    between atoms: C1_2  and  N1_3 
REMARK    2  A    between atoms: N1_3  and  C2_4 
REMARK    3  A    between atoms: N2_11  and  C9_13 
REMARK    4  A    between atoms: C9_13  and  C10_14 
REMARK    5  A    between atoms: C10_14  and  C11_15 
REMARK    6  A    between atoms: C11_15  and  C12_16 
REMARK    7  A    between atoms: C17_22  and  O2_23 
ROOT
HETATM    1  O1  UNL     1      -1.632   1.184  -0.495  1.00  0.00    -0.238 OA
HETATM    2  C1  UNL     1      -1.306  -0.009  -0.376  1.00  0.00     0.244 A 
HETATM    3  N2  UNL     1       0.053   0.365  -0.501  1.00  0.00    -0.276 N 
HETATM    4  S1  UNL     1      -0.206   2.099  -0.687  1.00  0.00     0.014 SA
HETATM    5  H9  UNL     1      -0.476   2.684   0.544  1.00  0.00     0.145 HD
ENDROOT
BRANCH   3   6
HETATM    6  C9  UNL     1       1.388  -0.278  -0.506  1.00  0.00     0.142 C 
BRANCH   6   7
HETATM    7  C10 UNL     1       1.838  -0.287   0.908  1.00  0.00     0.026 C 
BRANCH   7   8
HETATM    8  C11 UNL     1       3.163  -0.891   1.203  1.00  0.00     0.043 C 
BRANCH   8   9
HETATM    9  C12 UNL     1       4.285  -0.229   0.506  1.00  0.00    -0.023 A 
HETATM   10  C13 UNL     1       5.035   0.705   1.233  1.00  0.00     0.010 A 
HETATM   11  C14 UNL     1       6.100   1.430   0.742  1.00  0.00     0.002 A 
HETATM   12  C15 UNL     1       6.473   1.233  -0.570  1.00  0.00     0.026 A 
HETATM   13  C16 UNL     1       5.760   0.314  -1.336  1.00  0.00     0.067 A 
HETATM   14 CL1  UNL     1       6.194   0.028  -3.007  1.00  0.00    -0.081 Cl
HETATM   15  C17 UNL     1       4.708  -0.380  -0.795  1.00  0.00     0.093 A 
BRANCH  15  16
HETATM   16  O2  UNL     1       4.018  -1.287  -1.570  1.00  0.00    -0.358 OA
HETATM   17  H19 UNL     1       4.369  -2.243  -1.622  1.00  0.00     0.217 HD
ENDBRANCH  15  16
ENDBRANCH   8   9
ENDBRANCH   7   8
ENDBRANCH   6   7
ENDBRANCH   3   6
BRANCH   2  18
HETATM   18  N1  UNL     1      -2.015  -1.219  -0.193  1.00  0.00    -0.330 N 
HETATM   19  H1  UNL     1      -1.217  -1.881  -0.163  1.00  0.00     0.168 HD
BRANCH  18  20
HETATM   20  C2  UNL     1      -3.411  -1.354  -0.094  1.00  0.00     0.099 C 
HETATM   21  C3  UNL     1      -4.492  -0.644  -0.112  1.00  0.00    -0.039 A 
HETATM   22  C4  UNL     1      -4.632   0.812  -0.273  1.00  0.00     0.067 A 
HETATM   23  C8  UNL     1      -5.727  -1.437   0.052  1.00  0.00     0.009 A 
HETATM   24  C5  UNL     1      -6.081   1.215  -0.236  1.00  0.00    -0.022 A 
HETATM   25  C6  UNL     1      -7.168   0.481  -0.088  1.00  0.00    -0.004 A 
HETATM   26  C7  UNL     1      -6.944  -0.942   0.065  1.00  0.00     0.000 A 
ENDBRANCH  18  20
ENDBRANCH   2  18
TORSDOF 7
