REMARK  8 active torsions:
REMARK  status: ('A' for Active; 'I' for Inactive)
REMARK    1  A    between atoms: C2_2  and  C3_3 
REMARK    2  A    between atoms: C3_3  and  C4_4 
REMARK    3  A    between atoms: C4_4  and  N1_5 
REMARK    4  A    between atoms: N1_5  and  C5_6 
REMARK       I    between atoms: N1_5  and  C12_15 
REMARK    5  A    between atoms: C5_6  and  C6_7 
REMARK    6  A    between atoms: C11_13  and  O1_14 
REMARK       I    between atoms: C12_15  and  N2_17 
REMARK    7  A    between atoms: N2_17  and  C13_18 
REMARK    8  A    between atoms: C14_19  and  C15_20 
ROOT
HETATM    1  C15 UNL     1       5.153  -0.209   1.233  1.00  0.00     0.012 C 
HETATM    2  C16 UNL     1       5.670   0.495   2.206  1.00  0.00     0.093 C 
HETATM    3  C17 UNL     1       7.033   0.356   2.609  1.00  0.00     0.087 C 
HETATM    4  N3  UNL     1       8.132   0.226   2.927  1.00  0.00    -0.192 NA
ENDROOT
BRANCH   1   5
HETATM    5  C14 UNL     1       3.746  -0.089   0.791  1.00  0.00     0.018 C 
HETATM    6  C13 UNL     1       3.295  -0.831  -0.198  1.00  0.00     0.092 C 
BRANCH   6   7
HETATM    7  N2  UNL     1       1.992  -0.843  -0.740  1.00  0.00    -0.319 N 
HETATM    8  C12 UNL     1       0.887  -0.055  -0.337  1.00  0.00     0.322 C 
HETATM    9  N1  UNL     1      -0.460   0.043  -0.774  1.00  0.00    -0.330 N 
HETATM   10  O2  UNL     1       1.015   0.770   0.602  1.00  0.00    -0.247 OA
HETATM   11  H16 UNL     1       1.721  -1.460  -1.531  1.00  0.00     0.170 HD
BRANCH   9  12
HETATM   12  C4  UNL     1      -1.164   1.075   0.006  1.00  0.00     0.128 C 
BRANCH  12  13
HETATM   13  C3  UNL     1      -1.056   2.436  -0.624  1.00  0.00     0.020 C 
BRANCH  13  14
HETATM   14  C2  UNL     1      -1.840   3.368   0.311  1.00  0.00    -0.003 C 
HETATM   15  C1  UNL     1      -1.827   4.784  -0.188  1.00  0.00     0.005 C 
ENDBRANCH  13  14
ENDBRANCH  12  13
ENDBRANCH   9  12
BRANCH   9  16
HETATM   16  C5  UNL     1      -1.290  -0.643  -1.780  1.00  0.00     0.169 C 
BRANCH  16  17
HETATM   17  C6  UNL     1      -2.002  -1.803  -1.246  1.00  0.00    -0.005 A 
HETATM   18  C7  UNL     1      -3.365  -1.633  -0.965  1.00  0.00     0.012 A 
HETATM   19  C8  UNL     1      -4.218  -2.586  -0.454  1.00  0.00     0.002 A 
HETATM   20  C9  UNL     1      -3.670  -3.835  -0.195  1.00  0.00     0.026 A 
HETATM   21  C10 UNL     1      -2.334  -4.079  -0.447  1.00  0.00     0.067 A 
HETATM   22 CL1  UNL     1      -1.609  -5.640  -0.131  1.00  0.00    -0.081 Cl
HETATM   23  C11 UNL     1      -1.551  -3.067  -0.958  1.00  0.00     0.095 A 
BRANCH  23  24
HETATM   24  O1  UNL     1      -0.223  -3.308  -1.210  1.00  0.00    -0.358 OA
HETATM   25  H15 UNL     1       0.480  -3.485  -0.504  1.00  0.00     0.217 HD
ENDBRANCH  23  24
ENDBRANCH  16  17
ENDBRANCH   9  16
ENDBRANCH   6   7
ENDBRANCH   1   5
TORSDOF 8
