REMARK  7 active torsions:
REMARK  status: ('A' for Active; 'I' for Inactive)
REMARK    1  A    between atoms: C6_6  and  O1_7 
REMARK    2  A    between atoms: C7_8  and  C8_9 
REMARK    3  A    between atoms: C8_9  and  N1_10 
REMARK    4  A    between atoms: N1_10  and  C9_11 
REMARK       I    between atoms: N1_10  and  C16_19 
REMARK    5  A    between atoms: C9_11  and  C10_12 
REMARK    6  A    between atoms: C13_15  and  O2_16 
REMARK    7  A    between atoms: C16_19  and  C17_21 
ROOT
HETATM    1  N1  UNL     1       1.146   1.353   0.837  1.00  0.00    -0.339 N 
HETATM    2  C16 UNL     1       1.728   2.177  -0.202  1.00  0.00     0.255 C 
HETATM    3  O3  UNL     1       2.906   2.024  -0.678  1.00  0.00    -0.267 OA
ENDROOT
BRANCH   1   4
HETATM    4  C8  UNL     1      -0.196   1.382   1.335  1.00  0.00     0.167 C 
BRANCH   4   5
HETATM    5  C7  UNL     1      -1.156   0.451   0.727  1.00  0.00    -0.006 A 
HETATM    6  C6  UNL     1      -1.791   0.345  -0.480  1.00  0.00     0.079 A 
HETATM    7  C4  UNL     1      -2.710  -0.596  -0.857  1.00  0.00    -0.028 A 
HETATM    8  C3  UNL     1      -3.075  -1.570   0.036  1.00  0.00     0.016 A 
HETATM    9  C5  UNL     1      -3.284  -0.526  -2.233  1.00  0.00     0.051 C 
HETATM   10  C2  UNL     1      -2.526  -1.595   1.283  1.00  0.00    -0.061 A 
HETATM   11  C1  UNL     1      -2.904  -2.631   2.259  1.00  0.00     0.048 C 
HETATM   12  C22 UNL     1      -1.609  -0.596   1.557  1.00  0.00     0.018 A 
BRANCH   6  13
HETATM   13  O1  UNL     1      -1.445   1.303  -1.394  1.00  0.00    -0.360 OA
HETATM   14  H8  UNL     1      -0.874   1.194  -2.204  1.00  0.00     0.217 HD
ENDBRANCH   6  13
ENDBRANCH   4   5
ENDBRANCH   1   4
BRANCH   1  15
HETATM   15  C9  UNL     1       2.118   0.446   1.391  1.00  0.00     0.165 C 
BRANCH  15  16
HETATM   16  C10 UNL     1       2.177  -0.900   0.797  1.00  0.00    -0.040 A 
HETATM   17  C11 UNL     1       1.466  -1.954   1.332  1.00  0.00     0.011 A 
HETATM   18  C12 UNL     1       1.466  -3.243   0.836  1.00  0.00     0.037 A 
HETATM   19  C13 UNL     1       2.219  -3.542  -0.271  1.00  0.00     0.065 A 
HETATM   20  C14 UNL     1       2.954  -2.537  -0.854  1.00  0.00     0.037 A 
HETATM   21  C15 UNL     1       2.906  -1.275  -0.307  1.00  0.00     0.011 A 
BRANCH  19  22
HETATM   22  O2  UNL     1       2.251  -4.823  -0.804  1.00  0.00    -0.361 OA
HETATM   23  H15 UNL     1       2.641  -5.618  -0.340  1.00  0.00     0.217 HD
ENDBRANCH  19  22
ENDBRANCH  15  16
ENDBRANCH   1  15
BRANCH   2  24
HETATM   24  C17 UNL     1       1.035   3.319  -0.846  1.00  0.00     0.043 C 
HETATM   25  C18 UNL     1      -0.105   3.994  -0.774  1.00  0.00    -0.009 C 
HETATM   26  C19 UNL     1      -0.001   5.284  -0.912  1.00  0.00     0.013 C 
HETATM   27  C20 UNL     1       1.014   5.333  -1.959  1.00  0.00     0.002 C 
HETATM   28  C21 UNL     1       1.633   4.132  -1.905  1.00  0.00     0.018 C 
ENDBRANCH   2  24
TORSDOF 7
