REMARK  10 active torsions:
REMARK  status: ('A' for Active; 'I' for Inactive)
REMARK    1  A    between atoms: C2_2  and  C3_3 
REMARK    2  A    between atoms: C3_3  and  C5_5 
REMARK    3  A    between atoms: C5_5  and  C6_6 
REMARK    4  A    between atoms: C6_6  and  C7_7 
REMARK    5  A    between atoms: C7_7  and  C8_8 
REMARK    6  A    between atoms: C8_8  and  N1_9 
REMARK    7  A    between atoms: N1_9  and  C9_10 
REMARK    8  A    between atoms: N1_9  and  C10_12 
REMARK    9  A    between atoms: C10_12  and  C11_13 
REMARK   10  A    between atoms: C17_19  and  O2_20 
ROOT
HETATM    1  N1  UNL     1      -0.895   0.213   0.073  1.00  0.00    -0.365 N 
ENDROOT
BRANCH   1   2
HETATM    2  C8  UNL     1       0.214   0.002   0.932  1.00  0.00     0.128 C 
BRANCH   2   3
HETATM    3  C7  UNL     1       1.220   1.118   0.807  1.00  0.00     0.047 C 
BRANCH   3   4
HETATM    4  C6  UNL     1       1.793   1.291  -0.539  1.00  0.00    -0.025 C 
BRANCH   4   5
HETATM    5  C5  UNL     1       2.960   1.256  -1.125  1.00  0.00     0.002 C 
BRANCH   5   6
HETATM    6  C3  UNL     1       4.333   1.018  -0.737  1.00  0.00    -0.066 C 
HETATM    7  C4  UNL     1       5.066   0.670   0.505  1.00  0.00     0.048 C 
BRANCH   6   8
HETATM    8  C2  UNL     1       5.356   1.051  -1.558  1.00  0.00    -0.024 C 
HETATM    9  C1  UNL     1       6.688   0.995  -2.143  1.00  0.00     0.036 C 
ENDBRANCH   6   8
ENDBRANCH   5   6
ENDBRANCH   4   5
ENDBRANCH   3   4
ENDBRANCH   2   3
ENDBRANCH   1   2
BRANCH   1  10
HETATM   10  C9  UNL     1      -0.696  -0.423  -1.217  1.00  0.00     0.472 C 
HETATM   11  O1  UNL     1      -0.272  -1.054  -2.216  1.00  0.00    -0.392 OA
ENDBRANCH   1  10
BRANCH   1  12
HETATM   12  C10 UNL     1      -2.176   0.874   0.120  1.00  0.00     0.165 C 
BRANCH  12  13
HETATM   13  C11 UNL     1      -3.174  -0.085   0.658  1.00  0.00    -0.007 A 
HETATM   14  C12 UNL     1      -4.030  -0.885  -0.058  1.00  0.00     0.018 A 
HETATM   15  C13 UNL     1      -4.882  -1.756   0.573  1.00  0.00    -0.061 A 
HETATM   16  C14 UNL     1      -5.814  -2.641  -0.184  1.00  0.00     0.048 C 
HETATM   17  C15 UNL     1      -4.920  -1.867   1.967  1.00  0.00     0.009 A 
HETATM   18  C16 UNL     1      -4.065  -1.069   2.720  1.00  0.00     0.037 A 
HETATM   19  C17 UNL     1      -3.249  -0.232   2.037  1.00  0.00     0.073 A 
BRANCH  19  20
HETATM   20  O2  UNL     1      -2.455   0.506   2.938  1.00  0.00    -0.360 OA
HETATM   21  H23 UNL     1      -2.943   1.320   3.340  1.00  0.00     0.217 HD
ENDBRANCH  19  20
ENDBRANCH  12  13
ENDBRANCH   1  12
TORSDOF 10
