REMARK  5 active torsions:
REMARK  status: ('A' for Active; 'I' for Inactive)
REMARK    1  A    between atoms: C2_2  and  C3_3 
REMARK    2  A    between atoms: C3_3  and  O1_18 
REMARK    3  A    between atoms: C4_4  and  C5_5 
REMARK    4  A    between atoms: O1_18  and  C15_19 
REMARK    5  A    between atoms: C15_19  and  O2_20 
ROOT
HETATM    1  C5  UNL     1      -0.716  -0.213  -0.001  1.00  0.00    -0.022 C 
HETATM    2  C6  UNL     1      -1.393  -1.333   0.172  1.00  0.00     0.005 C 
HETATM    3  C7  UNL     1      -2.414  -2.331   0.497  1.00  0.00     0.147 C 
HETATM    4  N1  UNL     1      -3.625  -1.732   1.000  1.00  0.00    -0.394 N 
HETATM    5  C8  UNL     1      -4.325  -1.038  -0.016  1.00  0.00     0.100 C 
HETATM    6  C9  UNL     1      -4.580  -0.011  -0.793  1.00  0.00     0.105 C 
HETATM    7  N2  UNL     1      -3.855   1.204  -0.759  1.00  0.00    -0.364 N 
HETATM    8  C10 UNL     1      -2.883   1.407   0.235  1.00  0.00     0.040 A 
HETATM    9  C11 UNL     1      -3.129   2.345   1.122  1.00  0.00     0.009 A 
HETATM   10  C12 UNL     1      -2.027   2.480   2.140  1.00  0.00     0.077 A 
HETATM   11  C13 UNL     1      -1.126   1.423   1.585  1.00  0.00     0.005 A 
HETATM   12 BR1  UNL     1       0.478   1.310   2.607  1.00  0.00    -0.054 Br
HETATM   13  C14 UNL     1      -1.622   0.806   0.505  1.00  0.00     0.014 A 
HETATM   14  H10 UNL     1      -3.966  -1.782   1.983  1.00  0.00     0.159 HD
HETATM   15  H13 UNL     1      -4.016   1.969  -1.447  1.00  0.00     0.165 HD
ENDROOT
BRANCH   1  16
HETATM   16  C4  UNL     1       0.615   0.198  -0.505  1.00  0.00     0.044 C 
HETATM   17  C3  UNL     1       1.674  -0.385  -0.988  1.00  0.00     0.049 C 
BRANCH  17  18
HETATM   18  C2  UNL     1       2.177  -1.723  -1.313  1.00  0.00     0.060 C 
HETATM   19  C1  UNL     1       3.443  -2.020  -0.509  1.00  0.00     0.012 C 
ENDBRANCH  17  18
BRANCH  17  20
HETATM   20  O1  UNL     1       2.770   0.421  -1.361  1.00  0.00    -0.331 OA
BRANCH  20  21
HETATM   21  C15 UNL     1       3.389   1.263  -0.421  1.00  0.00     0.343 C 
BRANCH  21  22
HETATM   22  O2  UNL     1       4.388   2.010  -1.024  1.00  0.00    -0.371 OA
HETATM   23  C16 UNL     1       5.329   1.138  -1.557  1.00  0.00     0.204 C 
ENDBRANCH  21  22
ENDBRANCH  20  21
ENDBRANCH  17  20
ENDBRANCH   1  16
TORSDOF 5
