REMARK  7 active torsions:
REMARK  status: ('A' for Active; 'I' for Inactive)
REMARK    1  A    between atoms: C2_2  and  C3_3 
REMARK    2  A    between atoms: C3_3  and  C4_4 
REMARK    3  A    between atoms: C4_4  and  C5_5 
REMARK    4  A    between atoms: C4_4  and  C12_14 
REMARK    5  A    between atoms: C5_5  and  C6_6 
REMARK    6  A    between atoms: C11_12  and  O1_13 
REMARK       I    between atoms: C12_14  and  N1_16 
REMARK    7  A    between atoms: N1_16  and  C13_17 
ROOT
HETATM    1  C4  UNL     1      -0.565  -0.542  -0.086  1.00  0.00     0.082 C 
ENDROOT
BRANCH   1   2
HETATM    2  C3  UNL     1      -1.501  -1.608   0.354  1.00  0.00     0.014 C 
BRANCH   2   3
HETATM    3  C2  UNL     1      -1.295  -2.966  -0.209  1.00  0.00    -0.004 C 
HETATM    4  C1  UNL     1       0.017  -3.616   0.065  1.00  0.00     0.005 C 
ENDBRANCH   2   3
ENDBRANCH   1   2
BRANCH   1   5
HETATM    5  C5  UNL     1      -1.016   0.745   0.630  1.00  0.00     0.055 C 
BRANCH   5   6
HETATM    6  C6  UNL     1      -2.428   1.073   0.238  1.00  0.00    -0.022 A 
HETATM    7  C7  UNL     1      -3.517   0.848   1.066  1.00  0.00     0.010 A 
HETATM    8  C8  UNL     1      -4.745   1.197   0.574  1.00  0.00     0.002 A 
HETATM    9  C9  UNL     1      -4.943   1.751  -0.683  1.00  0.00     0.026 A 
HETATM   10  C10 UNL     1      -3.839   1.970  -1.500  1.00  0.00     0.067 A 
HETATM   11 CL1  UNL     1      -4.123   2.671  -3.082  1.00  0.00    -0.081 Cl
HETATM   12  C11 UNL     1      -2.610   1.624  -1.015  1.00  0.00     0.093 A 
BRANCH  12  13
HETATM   13  O1  UNL     1      -1.565   1.888  -1.922  1.00  0.00    -0.358 OA
HETATM   14  H14 UNL     1      -0.782   2.385  -1.539  1.00  0.00     0.217 HD
ENDBRANCH  12  13
ENDBRANCH   5   6
ENDBRANCH   1   5
BRANCH   1  15
HETATM   15  C12 UNL     1       0.846  -0.734   0.412  1.00  0.00     0.226 C 
HETATM   16  O2  UNL     1       1.758  -1.338   1.036  1.00  0.00    -0.273 OA
HETATM   17  N1  UNL     1       1.606   0.393  -0.093  1.00  0.00    -0.327 N 
HETATM   18  H15 UNL     1       1.451   1.269  -0.686  1.00  0.00     0.169 HD
BRANCH  17  19
HETATM   19  C13 UNL     1       2.996   0.601   0.147  1.00  0.00     0.034 A 
HETATM   20  C14 UNL     1       3.491   1.311   1.221  1.00  0.00     0.029 A 
HETATM   21  C15 UNL     1       4.836   1.514   1.455  1.00  0.00     0.002 A 
HETATM   22  C16 UNL     1       5.763   0.982   0.571  1.00  0.00     0.000 A 
HETATM   23  C17 UNL     1       5.257   0.274  -0.498  1.00  0.00     0.002 A 
HETATM   24  C18 UNL     1       3.899   0.060  -0.748  1.00  0.00     0.029 A 
ENDBRANCH  17  19
ENDBRANCH   1  15
TORSDOF 7
