REMARK  4 active torsions:
REMARK  status: ('A' for Active; 'I' for Inactive)
REMARK    1  A    between atoms: C4_4  and  C5_5 
REMARK    2  A    between atoms: N2_17  and  C13_18 
REMARK    3  A    between atoms: C13_18  and  N3_19 
REMARK    4  A    between atoms: N3_19  and  C14_20 
ROOT
HETATM    1  C1  UNL     1      -3.046   1.128  -2.321  1.00  0.00     0.044 C 
HETATM    2  C2  UNL     1      -1.740   1.404  -1.688  1.00  0.00     0.143 C 
HETATM    3  C3  UNL     1      -1.720   2.551  -0.740  1.00  0.00     0.015 C 
HETATM    4  C4  UNL     1      -2.218   2.358   0.458  1.00  0.00    -0.012 C 
HETATM    5  C6  UNL     1      -2.877   1.465   1.434  1.00  0.00     0.214 C 
HETATM    6  O2  UNL     1      -3.093   0.201   0.812  1.00  0.00    -0.357 OA
HETATM    7  C7  UNL     1      -3.595  -0.896   1.469  1.00  0.00     0.159 C 
HETATM    8  C8  UNL     1      -3.303  -2.132   1.117  1.00  0.00     0.161 C 
HETATM    9  O3  UNL     1      -2.630  -2.936   0.273  1.00  0.00    -0.340 OA
HETATM   10  C9  UNL     1      -1.260  -3.304   0.348  1.00  0.00     0.323 C 
HETATM   11  N1  UNL     1      -0.905  -4.340  -0.560  1.00  0.00    -0.262 NA
HETATM   12  C10 UNL     1      -1.304  -4.039  -1.762  1.00  0.00     0.079 C 
HETATM   13  C11 UNL     1      -0.927  -2.794  -2.065  1.00  0.00     0.026 C 
HETATM   14  C12 UNL     1       0.325  -2.428  -1.388  1.00  0.00     0.150 C 
HETATM   15  N2  UNL     1       0.664  -1.102  -1.170  1.00  0.00    -0.373 N 
HETATM   16  C20 UNL     1      -0.050  -0.035  -1.610  1.00  0.00     0.290 C 
HETATM   17  O4  UNL     1      -1.289   0.230  -1.043  1.00  0.00    -0.364 OA
ENDROOT
BRANCH  15  18
HETATM   18  C13 UNL     1       1.856  -0.891  -0.453  1.00  0.00     0.243 C 
BRANCH  18  19
HETATM   19  N3  UNL     1       2.137   0.463  -0.092  1.00  0.00    -0.374 N 
HETATM   20  H18 UNL     1       1.643   1.375  -0.241  1.00  0.00     0.161 HD
BRANCH  19  21
HETATM   21  C14 UNL     1       3.354   0.691   0.652  1.00  0.00     0.029 A 
HETATM   22  C15 UNL     1       3.764   1.938   1.078  1.00  0.00     0.029 A 
HETATM   23  C16 UNL     1       4.957   2.071   1.799  1.00  0.00     0.002 A 
HETATM   24  C17 UNL     1       5.740   1.006   2.100  1.00  0.00     0.000 A 
HETATM   25  C18 UNL     1       5.381  -0.281   1.699  1.00  0.00     0.002 A 
HETATM   26  C19 UNL     1       4.203  -0.368   0.993  1.00  0.00     0.029 A 
ENDBRANCH  19  21
ENDBRANCH  18  19
ENDBRANCH  15  18
BRANCH   4  27
HETATM   27  C5  UNL     1      -2.105   3.612   1.253  1.00  0.00     0.387 C 
HETATM   28  O1  UNL     1      -1.703   4.798   1.190  1.00  0.00    -0.405 OA
ENDBRANCH   4  27
TORSDOF 4
