REMARK  8 active torsions:
REMARK  status: ('A' for Active; 'I' for Inactive)
REMARK    1  A    between atoms: C6_6  and  O1_7 
REMARK    2  A    between atoms: C7_8  and  C8_9 
REMARK    3  A    between atoms: C8_9  and  N1_10 
REMARK    4  A    between atoms: N1_10  and  C9_11 
REMARK       I    between atoms: N1_10  and  C16_18 
REMARK    5  A    between atoms: C9_11  and  C10_12 
REMARK    6  A    between atoms: C10_12  and  C11_13 
REMARK    7  A    between atoms: C12_14  and  C13_15 
REMARK       I    between atoms: C16_18  and  N2_20 
REMARK    8  A    between atoms: N2_20  and  C17_21 
ROOT
HETATM    1  N1  UNL     1       0.045   0.355   0.341  1.00  0.00    -0.334 N 
HETATM    2  C16 UNL     1       0.198   1.738  -0.051  1.00  0.00     0.322 C 
HETATM    3  O2  UNL     1      -0.825   2.288   0.482  1.00  0.00    -0.247 OA
HETATM    4  N2  UNL     1       1.153   2.425  -0.805  1.00  0.00    -0.309 N 
HETATM    5  H21 UNL     1       1.877   1.780  -1.128  1.00  0.00     0.170 HD
ENDROOT
BRANCH   1   6
HETATM    6  C8  UNL     1      -1.127   0.119   1.139  1.00  0.00     0.129 C 
BRANCH   6   7
HETATM    7  C7  UNL     1      -2.395  -0.159   0.412  1.00  0.00     0.022 A 
HETATM    8  C6  UNL     1      -2.391  -1.334  -0.478  1.00  0.00     0.046 A 
HETATM    9  C4  UNL     1      -3.016  -2.495  -0.487  1.00  0.00    -0.034 A 
HETATM   10  C3  UNL     1      -3.965  -2.812   0.573  1.00  0.00    -0.001 A 
HETATM   11  C5  UNL     1      -2.790  -3.509  -1.549  1.00  0.00     0.050 C 
HETATM   12  C2  UNL     1      -4.156  -1.896   1.506  1.00  0.00    -0.126 A 
HETATM   13  C1  UNL     1      -5.148  -2.303   2.563  1.00  0.00     0.030 C 
HETATM   14  B1  UNL     1      -3.480  -0.499   1.558  1.00  0.00     0.202 B 
HETATM   15  H27 UNL     1      -4.017   0.350   2.179  1.00  0.00    -0.021 HD
BRANCH   8  16
HETATM   16  O1  UNL     1      -1.519  -1.150  -1.543  1.00  0.00    -0.365 OA
HETATM   17  H8  UNL     1      -0.882  -1.818  -1.909  1.00  0.00     0.217 HD
ENDBRANCH   8  16
ENDBRANCH   6   7
ENDBRANCH   1   6
BRANCH   1  18
HETATM   18  C9  UNL     1       1.112  -0.507  -0.129  1.00  0.00     0.131 C 
BRANCH  18  19
HETATM   19  C10 UNL     1       2.260  -0.543   0.872  1.00  0.00     0.047 C 
BRANCH  19  20
HETATM   20  C11 UNL     1       3.302  -1.439   0.323  1.00  0.00    -0.028 C 
HETATM   21  C12 UNL     1       4.591  -1.432  -0.062  1.00  0.00    -0.018 C 
BRANCH  21  22
HETATM   22  C13 UNL     1       5.353  -2.593  -0.597  1.00  0.00     0.052 A 
HETATM   23  C14 UNL     1       5.336  -3.820   0.252  1.00  0.00    -0.017 A 
HETATM   24  C15 UNL     1       6.562  -3.052   0.134  1.00  0.00    -0.017 A 
ENDBRANCH  21  22
ENDBRANCH  19  20
ENDBRANCH  18  19
ENDBRANCH   1  18
BRANCH   4  25
HETATM   25  C17 UNL     1       0.856   3.820  -0.914  1.00  0.00     0.036 A 
HETATM   26  C18 UNL     1       0.074   4.203  -1.990  1.00  0.00     0.029 A 
HETATM   27  C19 UNL     1      -0.232   5.533  -2.129  1.00  0.00     0.002 A 
HETATM   28  C20 UNL     1       0.209   6.479  -1.245  1.00  0.00     0.000 A 
HETATM   29  C21 UNL     1       0.990   6.106  -0.169  1.00  0.00     0.002 A 
HETATM   30  C22 UNL     1       1.302   4.774  -0.021  1.00  0.00     0.029 A 
ENDBRANCH   4  25
TORSDOF 8
