REMARK  4 active torsions:
REMARK  status: ('A' for Active; 'I' for Inactive)
REMARK    1  A    between atoms: C6_6  and  O1_7 
REMARK    2  A    between atoms: C7_8  and  C8_9 
REMARK    3  A    between atoms: C8_9  and  N1_10 
REMARK    4  A    between atoms: C14_16  and  O2_17 
ROOT
HETATM    1  N1  UNL     1      -0.347   0.781   0.426  1.00  0.00    -0.400 N 
HETATM    2  C9  UNL     1      -0.946  -0.412   0.134  1.00  0.00     0.121 C 
HETATM    3  C10 UNL     1      -0.109  -1.672   0.352  1.00  0.00     0.046 C 
HETATM    4  C11 UNL     1      -0.823  -2.729  -0.397  1.00  0.00    -0.025 C 
HETATM    5  C12 UNL     1      -1.882  -3.103  -1.103  1.00  0.00    -0.001 C 
HETATM    6  C13 UNL     1      -2.944  -2.150  -1.328  1.00  0.00     0.036 C 
HETATM    7  C14 UNL     1      -3.961  -1.303  -1.573  1.00  0.00     0.065 C 
HETATM    8  C15 UNL     1      -4.025   0.009  -0.909  1.00  0.00     0.037 C 
HETATM    9  C16 UNL     1      -3.608   0.952  -0.070  1.00  0.00     0.012 C 
HETATM   10  C17 UNL     1      -2.640   1.414   0.953  1.00  0.00    -0.035 C 
HETATM   11  C18 UNL     1      -3.360   1.322   2.117  1.00  0.00     0.009 C 
HETATM   12  C19 UNL     1      -2.886   1.678   3.482  1.00  0.00    -0.003 C 
HETATM   13  C20 UNL     1      -1.650   2.120   3.366  1.00  0.00    -0.024 C 
HETATM   14  C21 UNL     1      -0.739   2.316   2.248  1.00  0.00     0.057 C 
HETATM   15  C22 UNL     1      -1.259   1.796   0.965  1.00  0.00     0.116 C 
ENDROOT
BRANCH   1  16
HETATM   16  C8  UNL     1       0.685   1.387  -0.260  1.00  0.00     0.159 C 
BRANCH  16  17
HETATM   17  C7  UNL     1       1.956   0.712  -0.491  1.00  0.00    -0.006 A 
HETATM   18  C6  UNL     1       2.937   0.505   0.461  1.00  0.00     0.079 A 
HETATM   19  C4  UNL     1       4.099  -0.141   0.088  1.00  0.00    -0.028 A 
HETATM   20  C3  UNL     1       4.362  -0.603  -1.185  1.00  0.00     0.016 A 
HETATM   21  C5  UNL     1       5.150  -0.355   1.138  1.00  0.00     0.051 C 
HETATM   22  C2  UNL     1       3.362  -0.386  -2.133  1.00  0.00    -0.061 A 
HETATM   23  C1  UNL     1       3.602  -0.869  -3.524  1.00  0.00     0.048 C 
HETATM   24  C23 UNL     1       2.181   0.257  -1.803  1.00  0.00     0.018 A 
BRANCH  18  25
HETATM   25  O1  UNL     1       2.713   0.954   1.753  1.00  0.00    -0.360 OA
HETATM   26  H8  UNL     1       3.238   1.731   2.128  1.00  0.00     0.217 HD
ENDBRANCH  18  25
ENDBRANCH  16  17
ENDBRANCH   1  16
BRANCH   7  27
HETATM   27  O2  UNL     1      -5.102  -1.497  -2.405  1.00  0.00    -0.361 OA
HETATM   28  H18 UNL     1      -5.890  -1.917  -1.933  1.00  0.00     0.217 HD
ENDBRANCH   7  27
TORSDOF 4
