REMARK  7 active torsions:
REMARK  status: ('A' for Active; 'I' for Inactive)
REMARK    1  A    between atoms: C6_6  and  O1_7 
REMARK    2  A    between atoms: C7_8  and  C8_9 
REMARK    3  A    between atoms: C8_9  and  N1_10 
REMARK    4  A    between atoms: N1_10  and  C9_11 
REMARK       I    between atoms: N1_10  and  C16_19 
REMARK    5  A    between atoms: C9_11  and  C10_12 
REMARK    6  A    between atoms: C13_15  and  O2_16 
REMARK       I    between atoms: C16_19  and  N2_21 
REMARK    7  A    between atoms: N2_21  and  C17_22 
ROOT
HETATM    1  N1  UNL     1       0.112  -0.754   0.038  1.00  0.00    -0.325 N 
HETATM    2  C16 UNL     1       1.158   0.033   0.645  1.00  0.00     0.323 C 
HETATM    3  O3  UNL     1       1.939  -0.265   1.612  1.00  0.00    -0.247 OA
HETATM    4  N2  UNL     1       1.438   1.340   0.172  1.00  0.00    -0.309 N 
HETATM    5  H18 UNL     1       0.916   1.782  -0.616  1.00  0.00     0.170 HD
ENDROOT
BRANCH   1   6
HETATM    6  C8  UNL     1      -0.696  -0.307  -1.044  1.00  0.00     0.169 C 
BRANCH   6   7
HETATM    7  C7  UNL     1      -1.931   0.392  -0.627  1.00  0.00    -0.006 A 
HETATM    8  C6  UNL     1      -2.341   0.634   0.670  1.00  0.00     0.079 A 
HETATM    9  C4  UNL     1      -3.525   1.303   0.905  1.00  0.00    -0.028 A 
HETATM   10  C3  UNL     1      -4.275   1.717  -0.188  1.00  0.00     0.016 A 
HETATM   11  C5  UNL     1      -3.935   1.545   2.312  1.00  0.00     0.051 C 
HETATM   12  C2  UNL     1      -3.894   1.492  -1.497  1.00  0.00    -0.061 A 
HETATM   13  C1  UNL     1      -4.726   1.952  -2.642  1.00  0.00     0.048 C 
HETATM   14  C23 UNL     1      -2.707   0.821  -1.709  1.00  0.00     0.018 A 
BRANCH   8  15
HETATM   15  O1  UNL     1      -1.492   0.163   1.680  1.00  0.00    -0.360 OA
HETATM   16  H8  UNL     1      -1.551   0.621   2.591  1.00  0.00     0.217 HD
ENDBRANCH   8  15
ENDBRANCH   6   7
ENDBRANCH   1   6
BRANCH   1  17
HETATM   17  C9  UNL     1      -0.131  -2.093   0.570  1.00  0.00     0.166 C 
BRANCH  17  18
HETATM   18  C10 UNL     1       0.704  -3.109  -0.137  1.00  0.00    -0.040 A 
HETATM   19  C11 UNL     1       1.961  -3.408   0.346  1.00  0.00     0.011 A 
HETATM   20  C12 UNL     1       2.806  -4.330  -0.236  1.00  0.00     0.037 A 
HETATM   21  C13 UNL     1       2.394  -5.007  -1.368  1.00  0.00     0.065 A 
HETATM   22  C14 UNL     1       1.137  -4.727  -1.875  1.00  0.00     0.037 A 
HETATM   23  C15 UNL     1       0.317  -3.799  -1.268  1.00  0.00     0.011 A 
BRANCH  21  24
HETATM   24  O2  UNL     1       3.193  -5.946  -2.003  1.00  0.00    -0.361 OA
HETATM   25  H15 UNL     1       3.606  -6.741  -1.531  1.00  0.00     0.217 HD
ENDBRANCH  21  24
ENDBRANCH  17  18
ENDBRANCH   1  17
BRANCH   4  26
HETATM   26  C17 UNL     1       2.442   2.206   0.690  1.00  0.00     0.036 A 
HETATM   27  C18 UNL     1       3.678   2.093   0.095  1.00  0.00     0.029 A 
HETATM   28  C19 UNL     1       4.723   2.906   0.541  1.00  0.00     0.002 A 
HETATM   29  C20 UNL     1       4.502   3.804   1.566  1.00  0.00     0.000 A 
HETATM   30  C21 UNL     1       3.248   3.905   2.157  1.00  0.00     0.002 A 
HETATM   31  C22 UNL     1       2.192   3.107   1.730  1.00  0.00     0.029 A 
ENDBRANCH   4  26
TORSDOF 7
