REMARK  3 active torsions:
REMARK  status: ('A' for Active; 'I' for Inactive)
REMARK    1  A    between atoms: N1_7  and  C7_8 
REMARK    2  A    between atoms: C7_8  and  C8_9 
REMARK    3  A    between atoms: C13_14  and  O1_15 
ROOT
HETATM    1  C1  UNL     1      -4.924  -1.801   0.938  1.00  0.00     0.049 C 
HETATM    2  C2  UNL     1      -3.474  -1.936   0.943  1.00  0.00    -0.055 C 
HETATM    3  C3  UNL     1      -2.143  -2.161   0.920  1.00  0.00    -0.010 C 
HETATM    4  C4  UNL     1      -0.697  -1.987   1.020  1.00  0.00     0.040 C 
HETATM    5  C5  UNL     1       0.306  -1.127   1.374  1.00  0.00    -0.014 C 
HETATM    6  C6  UNL     1       0.616   0.210   1.916  1.00  0.00     0.300 A 
HETATM    7  N1  UNL     1       1.172   1.191   1.012  1.00  0.00     0.134 N 
HETATM    8  C14 UNL     1       0.236   1.927   0.047  1.00  0.00     0.351 A 
HETATM    9  O2  UNL     1      -0.074   0.893   0.602  1.00  0.00     0.000 OA
HETATM   10  N2  UNL     1      -1.050   2.093  -0.709  1.00  0.00    -0.348 N 
HETATM   11  C15 UNL     1      -2.275   1.215  -0.815  1.00  0.00     0.030 A 
HETATM   12  C16 UNL     1      -2.575   1.130  -2.132  1.00  0.00     0.029 A 
HETATM   13  C17 UNL     1      -3.261  -0.096  -2.295  1.00  0.00     0.003 A 
HETATM   14  C18 UNL     1      -3.422  -0.844  -1.086  1.00  0.00     0.012 A 
HETATM   15  C19 UNL     1      -3.054  -0.657   0.308  1.00  0.00    -0.028 A 
HETATM   16  C20 UNL     1      -2.415   0.549   0.361  1.00  0.00     0.041 A 
HETATM   17  H16 UNL     1      -0.813   2.975  -1.121  1.00  0.00     0.162 HD
ENDROOT
BRANCH   7  18
HETATM   18  C7  UNL     1       2.481   1.759   0.718  1.00  0.00     0.318 C 
BRANCH  18  19
HETATM   19  C8  UNL     1       3.231   1.054  -0.320  1.00  0.00     0.003 A 
HETATM   20  C9  UNL     1       3.286   1.590  -1.601  1.00  0.00     0.012 A 
HETATM   21  C10 UNL     1       3.953   1.014  -2.662  1.00  0.00     0.001 A 
HETATM   22  C11 UNL     1       4.610  -0.178  -2.430  1.00  0.00     0.003 A 
HETATM   23  C12 UNL     1       4.603  -0.775  -1.184  1.00  0.00     0.037 A 
HETATM   24  C13 UNL     1       3.906  -0.134  -0.155  1.00  0.00     0.073 A 
BRANCH  24  25
HETATM   25  O1  UNL     1       3.894  -0.723   1.099  1.00  0.00    -0.360 OA
HETATM   26  H15 UNL     1       4.731  -1.037   1.572  1.00  0.00     0.217 HD
ENDBRANCH  24  25
ENDBRANCH  18  19
ENDBRANCH   7  18
TORSDOF 3
