REMARK  4 active torsions:
REMARK  status: ('A' for Active; 'I' for Inactive)
REMARK    1  A    between atoms: C3_3  and  C4_4 
REMARK    2  A    between atoms: N1_7  and  C7_8 
REMARK    3  A    between atoms: C7_8  and  C8_9 
REMARK    4  A    between atoms: C13_14  and  O1_15 
ROOT
HETATM    1  C4  UNL     1       2.710  -1.581   0.237  1.00  0.00     0.034 C 
HETATM    2  C5  UNL     1       1.277  -1.600   0.323  1.00  0.00     0.022 C 
HETATM    3  C6  UNL     1       0.397  -0.506   0.963  1.00  0.00     0.152 C 
HETATM    4  N1  UNL     1      -0.355   0.375   0.143  1.00  0.00    -0.378 N 
HETATM    5  C14 UNL     1      -0.106   1.893   0.082  1.00  0.00     0.041 C 
HETATM    6  C15 UNL     1       0.906   2.838   0.345  1.00  0.00     0.084 C 
HETATM    7  C16 UNL     1       0.718   4.290   0.124  1.00  0.00     0.094 C 
HETATM    8  C17 UNL     1      -0.488   4.767   0.896  1.00  0.00    -0.024 C 
HETATM    9  C18 UNL     1      -1.426   3.873   0.520  1.00  0.00    -0.024 C 
HETATM   10  C19 UNL     1      -1.194   2.754  -0.429  1.00  0.00     0.086 C 
HETATM   11  O2  UNL     1       1.664   1.940   0.709  1.00  0.00    -0.263 OA
HETATM   12  C20 UNL     1       2.514   1.139   1.221  1.00  0.00     0.370 C 
HETATM   13  O3  UNL     1       3.237   1.362   2.105  1.00  0.00    -0.238 OA
HETATM   14  N2  UNL     1       2.613  -0.234   0.724  1.00  0.00    -0.303 N 
HETATM   15  H24 UNL     1       2.400  -0.209  -0.293  1.00  0.00     0.171 HD
ENDROOT
BRANCH   4  16
HETATM   16  C7  UNL     1      -1.449   0.012  -0.687  1.00  0.00     0.134 C 
BRANCH  16  17
HETATM   17  C8  UNL     1      -2.806  -0.344  -0.229  1.00  0.00     0.063 A 
HETATM   18  C9  UNL     1      -3.567  -0.664  -1.540  1.00  0.00     0.040 A 
HETATM   19  C10 UNL     1      -4.165  -1.977  -1.587  1.00  0.00    -0.026 A 
HETATM   20  C11 UNL     1      -4.273  -2.940  -0.689  1.00  0.00    -0.002 A 
HETATM   21  C12 UNL     1      -3.640  -2.595   0.616  1.00  0.00     0.032 A 
HETATM   22  C13 UNL     1      -3.006  -1.405   0.761  1.00  0.00     0.049 A 
BRANCH  22  23
HETATM   23  O1  UNL     1      -2.641  -1.523   2.123  1.00  0.00    -0.365 OA
HETATM   24  H17 UNL     1      -2.806  -0.724   2.763  1.00  0.00     0.217 HD
ENDBRANCH  22  23
ENDBRANCH  16  17
ENDBRANCH   4  16
BRANCH   1  25
HETATM   25  C3  UNL     1       3.895  -2.206  -0.165  1.00  0.00     0.025 C 
HETATM   26  C2  UNL     1       5.125  -1.748  -0.017  1.00  0.00    -0.029 C 
HETATM   27  C1  UNL     1       5.966  -2.802  -0.612  1.00  0.00     0.036 C 
ENDBRANCH   1  25
TORSDOF 4
