REMARK  7 active torsions:
REMARK  status: ('A' for Active; 'I' for Inactive)
REMARK       I    between atoms: C1_2  and  N1_3 
REMARK       I    between atoms: C1_2  and  N2_17 
REMARK    1  A    between atoms: N1_3  and  C2_4 
REMARK    2  A    between atoms: N1_3  and  C6_9 
REMARK    3  A    between atoms: C2_4  and  C3_5 
REMARK    4  A    between atoms: C3_5  and  C4_6 
REMARK    5  A    between atoms: C4_6  and  C5_7 
REMARK    6  A    between atoms: C6_9  and  C7_10 
REMARK    7  A    between atoms: C10_13  and  O2_14 
ROOT
HETATM    1  O1  UNL     1      -1.905   0.838   1.198  1.00  0.00    -0.246 OA
HETATM    2  C1  UNL     1      -1.515   0.059   0.266  1.00  0.00     0.328 C 
HETATM    3  N1  UNL     1      -0.400   0.811  -0.179  1.00  0.00    -0.328 N 
HETATM    4  N2  UNL     1      -2.155  -1.159  -0.065  1.00  0.00    -0.286 N 
HETATM    5  C13 UNL     1      -1.909  -2.097  -0.996  1.00  0.00     0.101 A 
HETATM    6  C14 UNL     1      -2.820  -3.130  -0.927  1.00  0.00     0.019 A 
HETATM    7  C15 UNL     1      -3.623  -2.730   0.116  1.00  0.00     0.019 A 
HETATM    8  C16 UNL     1      -3.231  -1.539   0.646  1.00  0.00     0.101 A 
ENDROOT
BRANCH   3   9
HETATM    9  C2  UNL     1      -0.226   2.050   0.568  1.00  0.00     0.145 C 
BRANCH   9  10
HETATM   10  C3  UNL     1      -0.942   3.177  -0.001  1.00  0.00     0.092 C 
BRANCH  10  11
HETATM   11  C4  UNL     1      -1.820   3.792   0.783  1.00  0.00    -0.141 C 
BRANCH  11  12
HETATM   12  C5  UNL     1      -2.826   4.136   1.578  1.00  0.00     0.107 C 
HETATM   13 BR1  UNL     1      -4.440   3.163   1.434  1.00  0.00    -0.055 Br
ENDBRANCH  11  12
ENDBRANCH  10  11
ENDBRANCH   9  10
ENDBRANCH   3   9
BRANCH   3  14
HETATM   14  C6  UNL     1       0.557   0.507  -1.236  1.00  0.00     0.166 C 
BRANCH  14  15
HETATM   15  C7  UNL     1       1.760  -0.189  -0.779  1.00  0.00    -0.040 A 
HETATM   16  C8  UNL     1       1.947  -1.548  -0.656  1.00  0.00     0.011 A 
HETATM   17  C9  UNL     1       3.085  -2.197  -0.230  1.00  0.00     0.037 A 
HETATM   18  C10 UNL     1       4.164  -1.412   0.116  1.00  0.00     0.065 A 
HETATM   19  C11 UNL     1       4.070  -0.040   0.025  1.00  0.00     0.037 A 
HETATM   20  C12 UNL     1       2.898   0.539  -0.410  1.00  0.00     0.011 A 
BRANCH  18  21
HETATM   21  O2  UNL     1       5.320  -2.045   0.548  1.00  0.00    -0.361 OA
HETATM   22  H9  UNL     1       5.963  -1.485   1.109  1.00  0.00     0.217 HD
ENDBRANCH  18  21
ENDBRANCH  14  15
ENDBRANCH   3  14
TORSDOF 7
