REMARK  10 active torsions:
REMARK  status: ('A' for Active; 'I' for Inactive)
REMARK       I    between atoms: C1_2  and  N1_3 
REMARK       I    between atoms: C1_2  and  N2_10 
REMARK    1  A    between atoms: N1_3  and  C2_4 
REMARK    2  A    between atoms: N2_10  and  C8_11 
REMARK    3  A    between atoms: N2_10  and  C15_21 
REMARK    4  A    between atoms: C8_11  and  C9_12 
REMARK    5  A    between atoms: C9_12  and  C14_19 
REMARK    6  A    between atoms: C10_13  and  C11_14 
REMARK    7  A    between atoms: C12_16  and  C13_17 
REMARK    8  A    between atoms: C14_19  and  O2_20 
REMARK    9  A    between atoms: C15_21  and  C16_22 
REMARK   10  A    between atoms: C19_25  and  O3_26 
ROOT
HETATM    1  O1  UNL     1      -1.693  -1.689   0.966  1.00  0.00    -0.247 OA
HETATM    2  C1  UNL     1      -0.765  -0.818   1.162  1.00  0.00     0.323 C 
HETATM    3  N1  UNL     1       0.410  -1.615   1.308  1.00  0.00    -0.309 N 
HETATM    4  N2  UNL     1      -0.829   0.631   1.230  1.00  0.00    -0.326 N 
HETATM    5  H1  UNL     1       1.319  -1.168   1.480  1.00  0.00     0.170 HD
ENDROOT
BRANCH   4   6
HETATM    6  C8  UNL     1       0.380   1.313   1.464  1.00  0.00     0.164 C 
BRANCH   6   7
HETATM    7  C9  UNL     1       1.252   1.681   0.366  1.00  0.00    -0.037 C 
HETATM    8  C10 UNL     1       2.530   1.257   0.268  1.00  0.00     0.025 C 
BRANCH   8   9
HETATM    9  C11 UNL     1       3.697   1.366  -0.604  1.00  0.00     0.009 C 
HETATM   10 BR1  UNL     1       3.865   2.347  -2.260  1.00  0.00    -0.051 Br
HETATM   11  C12 UNL     1       4.841   0.729  -0.284  1.00  0.00     0.023 C 
BRANCH  11  12
HETATM   12  C13 UNL     1       5.305  -0.147   0.823  1.00  0.00     0.251 C 
HETATM   13  F1  UNL     1       6.376   0.397   1.491  1.00  0.00    -0.251 F 
ENDBRANCH  11  12
ENDBRANCH   8   9
BRANCH   7  14
HETATM   14  C14 UNL     1       0.714   2.562  -0.670  1.00  0.00     0.200 C 
BRANCH  14  15
HETATM   15  O2  UNL     1       0.287   3.797  -0.151  1.00  0.00    -0.397 OA
HETATM   16  H15 UNL     1       1.024   4.426  -0.058  1.00  0.00     0.209 HD
ENDBRANCH  14  15
ENDBRANCH   7  14
ENDBRANCH   6   7
ENDBRANCH   4   6
BRANCH   4  17
HETATM   17  C15 UNL     1      -2.213   1.021   1.075  1.00  0.00     0.166 C 
BRANCH  17  18
HETATM   18  C16 UNL     1      -2.658   1.349  -0.280  1.00  0.00    -0.040 A 
HETATM   19  C17 UNL     1      -2.701   2.679  -0.718  1.00  0.00     0.011 A 
HETATM   20  C18 UNL     1      -3.101   3.099  -1.970  1.00  0.00     0.037 A 
HETATM   21  C19 UNL     1      -3.498   2.152  -2.888  1.00  0.00     0.065 A 
HETATM   22  C20 UNL     1      -3.478   0.844  -2.521  1.00  0.00     0.037 A 
HETATM   23  C21 UNL     1      -3.070   0.474  -1.259  1.00  0.00     0.011 A 
BRANCH  21  24
HETATM   24  O3  UNL     1      -3.895   2.574  -4.131  1.00  0.00    -0.361 OA
HETATM   25  H20 UNL     1      -4.435   3.394  -4.308  1.00  0.00     0.217 HD
ENDBRANCH  21  24
ENDBRANCH  17  18
ENDBRANCH   4  17
BRANCH   3  26
HETATM   26  C2  UNL     1       0.064  -3.007   1.176  1.00  0.00     0.036 A 
HETATM   27  C3  UNL     1      -0.302  -3.810   2.236  1.00  0.00     0.029 A 
HETATM   28  C4  UNL     1      -0.617  -5.149   1.985  1.00  0.00     0.002 A 
HETATM   29  C5  UNL     1      -0.557  -5.642   0.699  1.00  0.00     0.000 A 
HETATM   30  C6  UNL     1      -0.187  -4.817  -0.342  1.00  0.00     0.002 A 
HETATM   31  C7  UNL     1       0.129  -3.491  -0.129  1.00  0.00     0.029 A 
ENDBRANCH   3  26
TORSDOF 10
