REMARK  6 active torsions:
REMARK  status: ('A' for Active; 'I' for Inactive)
REMARK    1  A    between atoms: C5_5  and  N1_6 
REMARK    2  A    between atoms: N1_6  and  C6_7 
REMARK    3  A    between atoms: N1_6  and  C13_17 
REMARK    4  A    between atoms: C7_8  and  C8_9 
REMARK    5  A    between atoms: C13_17  and  N2_19 
REMARK    6  A    between atoms: C20_26  and  O2_27 
ROOT
HETATM    1  N1  UNL     1      -0.125   0.271   1.102  1.00  0.00    -0.360 N 
ENDROOT
BRANCH   1   2
HETATM    2  C5  UNL     1      -1.218   1.231   0.869  1.00  0.00     0.042 A 
HETATM    3  C4  UNL     1      -0.992   2.566   0.945  1.00  0.00     0.028 A 
HETATM    4  C3  UNL     1      -2.115   3.417   0.711  1.00  0.00     0.007 A 
HETATM    5  C2  UNL     1      -3.104   2.615   0.479  1.00  0.00    -0.050 A 
HETATM    6  C1  UNL     1      -4.545   2.878   0.166  1.00  0.00     0.046 C 
HETATM    7  C20 UNL     1      -2.656   1.177   0.512  1.00  0.00     0.196 A 
BRANCH   7   8
HETATM    8  O2  UNL     1      -2.875   0.787  -0.818  1.00  0.00    -0.385 OA
HETATM    9  H23 UNL     1      -2.779   1.494  -1.471  1.00  0.00     0.210 HD
ENDBRANCH   7   8
ENDBRANCH   1   2
BRANCH   1  10
HETATM   10  C6  UNL     1       1.156   0.858   1.345  1.00  0.00     0.126 C 
HETATM   11  C7  UNL     1       2.229   1.065   0.421  1.00  0.00     0.035 C 
BRANCH  11  12
HETATM   12  C8  UNL     1       3.029   0.171  -0.384  1.00  0.00     0.010 C 
HETATM   13 CL1  UNL     1       2.293  -0.821  -1.609  1.00  0.00    -0.131 Cl
HETATM   14  B1  UNL     1       4.017   1.396  -1.418  1.00  0.00     0.199 B 
HETATM   15  C9  UNL     1       5.645   0.669  -1.718  1.00  0.00    -0.084 C 
HETATM   16  C10 UNL     1       6.054  -0.623  -1.227  1.00  0.00     0.003 C 
HETATM   17  C11 UNL     1       5.250  -1.035  -0.279  1.00  0.00     0.011 C 
HETATM   18 CL2  UNL     1       5.974  -2.608   0.130  1.00  0.00    -0.089 Cl
HETATM   19  C12 UNL     1       4.072  -0.585   0.426  1.00  0.00     0.066 C 
ENDBRANCH  11  12
ENDBRANCH   1  10
BRANCH   1  20
HETATM   20  C13 UNL     1      -0.545  -1.086   1.046  1.00  0.00     0.190 C 
HETATM   21  C14 UNL     1       0.663  -1.998   1.290  1.00  0.00     0.056 C 
BRANCH  20  22
HETATM   22  N2  UNL     1      -1.400  -1.634   0.093  1.00  0.00    -0.303 N 
HETATM   23  C15 UNL     1      -1.335  -1.899  -1.214  1.00  0.00     0.096 A 
HETATM   24  C16 UNL     1      -2.229  -2.478  -2.081  1.00  0.00     0.018 A 
HETATM   25  C17 UNL     1      -3.412  -2.862  -1.513  1.00  0.00     0.007 A 
HETATM   26  C18 UNL     1      -3.653  -2.666  -0.176  1.00  0.00     0.074 A 
HETATM   27  C19 UNL     1      -2.638  -2.066   0.552  1.00  0.00     0.249 A 
HETATM   28  O1  UNL     1      -2.990  -1.946   1.780  1.00  0.00    -0.268 OA
ENDBRANCH  20  22
ENDBRANCH   1  20
TORSDOF 6
