REMARK  6 active torsions:
REMARK  status: ('A' for Active; 'I' for Inactive)
REMARK    1  A    between atoms: C2_2  and  C3_3 
REMARK    2  A    between atoms: C3_3  and  C4_4 
REMARK    3  A    between atoms: C4_4  and  C5_5 
REMARK    4  A    between atoms: C4_4  and  C12_14 
REMARK       I    between atoms: C5_5  and  N1_7 
REMARK    5  A    between atoms: N1_7  and  C6_8 
REMARK    6  A    between atoms: C15_17  and  O2_18 
ROOT
HETATM    1  C4  UNL     1      -1.120  -0.564   0.261  1.00  0.00     0.111 C 
ENDROOT
BRANCH   1   2
HETATM    2  C3  UNL     1      -1.519  -1.580  -0.816  1.00  0.00     0.023 C 
BRANCH   2   3
HETATM    3  C2  UNL     1      -0.867  -2.892  -0.569  1.00  0.00    -0.009 C 
HETATM    4  C1  UNL     1      -1.658  -3.968  -0.373  1.00  0.00     0.005 C 
ENDBRANCH   2   3
ENDBRANCH   1   2
BRANCH   1   5
HETATM    5  C5  UNL     1       0.328  -0.338   0.288  1.00  0.00     0.230 C 
HETATM    6  O1  UNL     1       0.395   0.925   0.099  1.00  0.00    -0.272 OA
HETATM    7  N1  UNL     1       1.460  -1.169   0.463  1.00  0.00    -0.327 N 
HETATM    8  H7  UNL     1       1.147  -2.153   0.603  1.00  0.00     0.169 HD
BRANCH   7   9
HETATM    9  C6  UNL     1       2.765  -0.618   0.434  1.00  0.00     0.034 A 
HETATM   10  C7  UNL     1       3.271  -0.193   1.661  1.00  0.00     0.029 A 
HETATM   11  C8  UNL     1       4.554   0.355   1.673  1.00  0.00     0.002 A 
HETATM   12  C9  UNL     1       5.267   0.456   0.495  1.00  0.00     0.000 A 
HETATM   13  C10 UNL     1       4.727   0.020  -0.703  1.00  0.00     0.002 A 
HETATM   14  C11 UNL     1       3.460  -0.525  -0.743  1.00  0.00     0.029 A 
ENDBRANCH   7   9
ENDBRANCH   1   5
BRANCH   1  15
HETATM   15  C12 UNL     1      -1.886   0.693   0.069  1.00  0.00    -0.045 A 
HETATM   16  C13 UNL     1      -1.642   1.406  -1.099  1.00  0.00     0.011 A 
HETATM   17  C14 UNL     1      -2.295   2.583  -1.381  1.00  0.00     0.037 A 
HETATM   18  C15 UNL     1      -3.232   3.101  -0.493  1.00  0.00     0.065 A 
HETATM   19  C16 UNL     1      -3.477   2.398   0.665  1.00  0.00     0.037 A 
HETATM   20  C17 UNL     1      -2.823   1.210   0.958  1.00  0.00     0.011 A 
BRANCH  18  21
HETATM   21  O2  UNL     1      -3.863   4.292  -0.825  1.00  0.00    -0.361 OA
HETATM   22  H15 UNL     1      -4.107   4.963  -0.094  1.00  0.00     0.217 HD
ENDBRANCH  18  21
ENDBRANCH   1  15
TORSDOF 6
