REMARK  5 active torsions:
REMARK  status: ('A' for Active; 'I' for Inactive)
REMARK    1  A    between atoms: C2_2  and  C3_3 
REMARK    2  A    between atoms: C3_3  and  C7_8 
REMARK    3  A    between atoms: C4_4  and  C5_5 
REMARK    4  A    between atoms: C5_5  and  O1_6 
REMARK    5  A    between atoms: C7_8  and  N1_9 
ROOT
HETATM    1  N1  UNL     1       0.895  -0.289   0.084  1.00  0.00    -0.346 N 
HETATM    2  C8  UNL     1       1.234   0.298   1.344  1.00  0.00     0.131 C 
HETATM    3  C9  UNL     1       0.506  -0.281   2.489  1.00  0.00     0.016 C 
HETATM    4  C10 UNL     1      -0.554  -0.745   1.937  1.00  0.00     0.074 C 
HETATM    5  C11 UNL     1      -1.777  -1.453   2.268  1.00  0.00     0.030 A 
HETATM    6 CL1  UNL     1      -3.070  -2.355   3.082  1.00  0.00    -0.208 Cl
HETATM    7  C12 UNL     1      -2.741  -1.734   1.361  1.00  0.00     0.107 A 
HETATM    8  C13 UNL     1      -3.695  -1.972   0.299  1.00  0.00     0.136 C 
HETATM    9 CL2  UNL     1      -3.036  -2.922  -1.023  1.00  0.00    -0.118 Cl
HETATM   10  C14 UNL     1      -4.320  -0.703  -0.222  1.00  0.00    -0.012 A 
HETATM   11  C15 UNL     1      -5.565  -0.362   0.247  1.00  0.00     0.011 A 
HETATM   12  C16 UNL     1      -6.097   0.809  -0.233  1.00  0.00     0.001 A 
HETATM   13  C17 UNL     1      -5.585   1.722  -1.123  1.00  0.00     0.002 A 
HETATM   14  C18 UNL     1      -4.341   1.308  -1.544  1.00  0.00     0.030 A 
HETATM   15  C19 UNL     1      -3.724   0.160  -1.127  1.00  0.00     0.036 A 
HETATM   16  N2  UNL     1      -2.438  -0.102  -1.666  1.00  0.00    -0.381 N 
HETATM   17  C20 UNL     1      -1.049  -0.155  -2.037  1.00  0.00     0.222 C 
HETATM   18  C21 UNL     1      -0.068  -0.223  -0.971  1.00  0.00     0.237 C 
HETATM   19  O2  UNL     1       0.903  -0.429  -1.679  1.00  0.00    -0.272 OA
HETATM   20  H22 UNL     1      -2.989  -0.758  -2.312  1.00  0.00     0.160 HD
ENDROOT
BRANCH   1  21
HETATM   21  C7  UNL     1       2.198  -1.032  -0.052  1.00  0.00     0.160 C 
BRANCH  21  22
HETATM   22  C3  UNL     1       3.227  -0.140  -0.555  1.00  0.00    -0.059 C 
HETATM   23  C4  UNL     1       3.071   1.155  -0.855  1.00  0.00     0.004 C 
BRANCH  22  24
HETATM   24  C2  UNL     1       4.603  -0.482  -0.829  1.00  0.00     0.042 C 
HETATM   25  C1  UNL     1       4.826  -1.795  -0.543  1.00  0.00    -0.008 C 
ENDBRANCH  22  24
BRANCH  23  26
HETATM   26  C5  UNL     1       4.185   1.985  -1.369  1.00  0.00     0.194 C 
BRANCH  26  27
HETATM   27  O1  UNL     1       4.459   3.068  -0.525  1.00  0.00    -0.392 OA
HETATM   28  C6  UNL     1       4.806   2.612   0.750  1.00  0.00     0.201 C 
ENDBRANCH  26  27
ENDBRANCH  23  26
ENDBRANCH  21  22
ENDBRANCH   1  21
TORSDOF 5
