REMARK  9 active torsions:
REMARK  status: ('A' for Active; 'I' for Inactive)
REMARK    1  A    between atoms: O1_1  and  C1_2 
REMARK    2  A    between atoms: C4_5  and  C5_6 
REMARK    3  A    between atoms: C5_6  and  N1_7 
REMARK    4  A    between atoms: N1_7  and  C6_8 
REMARK    5  A    between atoms: N1_7  and  C13_17 
REMARK    6  A    between atoms: C6_8  and  C7_9 
REMARK    7  A    between atoms: C13_17  and  O2_18 
REMARK    8  A    between atoms: C13_17  and  N2_19 
REMARK    9  A    between atoms: C18_24  and  O3_25 
ROOT
HETATM    1  N1  UNL     1      -0.061  -0.007  -0.258  1.00  0.00     0.145 N 
ENDROOT
BRANCH   1   2
HETATM    2  C5  UNL     1       0.053  -1.209  -1.002  1.00  0.00     0.317 C 
BRANCH   2   3
HETATM    3  C4  UNL     1      -1.244  -1.984  -1.021  1.00  0.00    -0.030 A 
HETATM    4  C3  UNL     1      -1.476  -2.909   0.004  1.00  0.00     0.011 A 
HETATM    5  C2  UNL     1      -2.595  -3.703   0.143  1.00  0.00     0.037 A 
HETATM    6  C1  UNL     1      -3.563  -3.558  -0.826  1.00  0.00     0.065 A 
HETATM    7  C20 UNL     1      -3.371  -2.657  -1.852  1.00  0.00     0.037 A 
HETATM    8  C19 UNL     1      -2.242  -1.876  -1.967  1.00  0.00     0.011 A 
BRANCH   6   9
HETATM    9  O1  UNL     1      -4.706  -4.346  -0.714  1.00  0.00    -0.361 OA
HETATM   10  H1  UNL     1      -4.553  -5.318  -0.457  1.00  0.00     0.217 HD
ENDBRANCH   6   9
ENDBRANCH   2   3
ENDBRANCH   1   2
BRANCH   1  11
HETATM   11  C6  UNL     1      -1.240   0.721  -0.740  1.00  0.00     0.317 C 
BRANCH  11  12
HETATM   12  C7  UNL     1      -1.465   1.993  -0.044  1.00  0.00    -0.027 A 
HETATM   13  C8  UNL     1      -0.986   3.255  -0.405  1.00  0.00     0.032 A 
HETATM   14  C9  UNL     1      -1.268   4.379   0.338  1.00  0.00     0.036 A 
HETATM   15 CL1  UNL     1      -0.604   5.922  -0.220  1.00  0.00    -0.084 Cl
HETATM   16  C10 UNL     1      -2.039   4.317   1.479  1.00  0.00     0.047 A 
HETATM   17  C11 UNL     1      -2.555   3.116   1.912  1.00  0.00     0.036 A 
HETATM   18 CL2  UNL     1      -3.532   2.931   3.327  1.00  0.00    -0.084 Cl
HETATM   19  C12 UNL     1      -2.237   2.031   1.125  1.00  0.00     0.032 A 
ENDBRANCH  11  12
ENDBRANCH   1  11
BRANCH   1  20
HETATM   20  C13 UNL     1       1.099   0.809  -0.296  1.00  0.00     0.465 C 
BRANCH  20  21
HETATM   21  O2  UNL     1       1.407   1.231  -1.606  1.00  0.00    -0.352 OA
HETATM   22  H12 UNL     1       0.753   0.955  -2.270  1.00  0.00     0.214 HD
ENDBRANCH  20  21
BRANCH  20  23
HETATM   23  N2  UNL     1       2.251   0.283   0.264  1.00  0.00    -0.334 N 
HETATM   24  C14 UNL     1       3.083  -0.629  -0.436  1.00  0.00     0.128 C 
HETATM   25  C15 UNL     1       3.530  -1.733   0.511  1.00  0.00     0.046 C 
HETATM   26  C16 UNL     1       4.125  -1.105   1.755  1.00  0.00    -0.025 C 
HETATM   27  C17 UNL     1       3.866   0.203   1.963  1.00  0.00     0.022 C 
HETATM   28  C18 UNL     1       3.045   1.139   1.103  1.00  0.00     0.243 C 
BRANCH  28  29
HETATM   29  O3  UNL     1       3.928   1.849   0.298  1.00  0.00    -0.373 OA
HETATM   30  H20 UNL     1       3.522   2.657  -0.100  1.00  0.00     0.212 HD
ENDBRANCH  28  29
ENDBRANCH  20  23
ENDBRANCH   1  20
TORSDOF 9
