REMARK  4 active torsions:
REMARK  status: ('A' for Active; 'I' for Inactive)
REMARK    1  A    between atoms: C2_2  and  N1_3 
REMARK    2  A    between atoms: C2_2  and  N2_10 
REMARK    3  A    between atoms: C7_8  and  O1_9 
REMARK    4  A    between atoms: C11_14  and  O2_15 
ROOT
HETATM    1  N2  UNL     1      -0.244   0.581  -0.193  1.00  0.00    -0.357 N 
HETATM    2  C8  UNL     1       0.347   1.401  -1.234  1.00  0.00     0.131 C 
HETATM    3  C9  UNL     1       1.623   2.019  -0.810  1.00  0.00     0.017 C 
HETATM    4  C10 UNL     1       2.729   2.764  -0.462  1.00  0.00     0.114 C 
HETATM    5  C11 UNL     1       3.905   1.995   0.077  1.00  0.00     0.061 C 
HETATM    6  C12 UNL     1       4.680   0.974   0.507  1.00  0.00     0.004 C 
HETATM    7  C13 UNL     1       4.519  -0.494   0.676  1.00  0.00     0.066 C 
HETATM    8  C14 UNL     1       3.337  -1.153   0.398  1.00  0.00     0.133 C 
HETATM    9  O3  UNL     1       2.265  -1.939   0.173  1.00  0.00    -0.343 OA
HETATM   10  C15 UNL     1       1.076  -1.734  -0.444  1.00  0.00     0.117 A 
HETATM   11  C16 UNL     1       0.842  -2.929  -1.135  1.00  0.00     0.071 A 
HETATM   12 CL1  UNL     1       1.974  -4.302  -1.095  1.00  0.00    -0.081 Cl
HETATM   13  C17 UNL     1      -0.225  -3.269  -1.926  1.00  0.00     0.050 A 
HETATM   14  C18 UNL     1      -1.203  -2.304  -2.063  1.00  0.00     0.038 A 
HETATM   15 CL2  UNL     1      -2.615  -2.632  -3.065  1.00  0.00    -0.084 Cl
HETATM   16  C19 UNL     1      -1.019  -1.089  -1.391  1.00  0.00     0.056 A 
HETATM   17  C20 UNL     1       0.055  -0.780  -0.613  1.00  0.00     0.069 A 
ENDROOT
BRANCH   1  18
HETATM   18  C2  UNL     1      -0.954   0.454   1.034  1.00  0.00     0.189 C 
HETATM   19  C1  UNL     1      -0.734  -0.853   1.765  1.00  0.00     0.056 C 
BRANCH  18  20
HETATM   20  N1  UNL     1      -2.373   0.749   0.904  1.00  0.00    -0.316 N 
HETATM   21  C3  UNL     1      -2.998   1.883   0.289  1.00  0.00     0.095 C 
HETATM   22  C4  UNL     1      -4.332   1.944   0.277  1.00  0.00     0.018 C 
HETATM   23  C5  UNL     1      -5.220   0.939   0.846  1.00  0.00     0.018 C 
HETATM   24  C6  UNL     1      -4.633  -0.017   1.521  1.00  0.00     0.029 C 
HETATM   25  C7  UNL     1      -3.339  -0.155   1.419  1.00  0.00     0.155 C 
BRANCH  25  26
HETATM   26  O1  UNL     1      -3.113  -1.409   1.938  1.00  0.00    -0.345 OA
HETATM   27  H8  UNL     1      -3.291  -2.293   1.484  1.00  0.00     0.219 HD
ENDBRANCH  25  26
ENDBRANCH  18  20
ENDBRANCH   1  18
BRANCH   5  28
HETATM   28  O2  UNL     1       4.829   3.074   0.253  1.00  0.00    -0.391 OA
HETATM   29  H13 UNL     1       4.721   3.716   1.018  1.00  0.00     0.210 HD
ENDBRANCH   5  28
TORSDOF 4
