REMARK  4 active torsions:
REMARK  status: ('A' for Active; 'I' for Inactive)
REMARK    1  A    between atoms: C8_10  and  O2_11 
REMARK    2  A    between atoms: N2_19  and  C14_20 
REMARK    3  A    between atoms: C14_20  and  C15_21 
REMARK    4  A    between atoms: C18_24  and  O3_25 
ROOT
HETATM    1  O1  UNL     1      -0.148  -0.319   0.663  1.00  0.00    -0.118 OA
HETATM    2  C1  UNL     1      -0.210  -0.410  -0.579  1.00  0.00     0.457 A 
HETATM    3  N1  UNL     1      -0.901   0.778  -0.862  1.00  0.00    -0.324 N 
HETATM    4  C2  UNL     1      -1.555   1.990  -0.546  1.00  0.00     0.045 A 
HETATM    5  C3  UNL     1      -0.926   3.021  -1.183  1.00  0.00     0.030 A 
HETATM    6  C4  UNL     1      -1.336   4.330  -1.046  1.00  0.00     0.002 A 
HETATM    7  C5  UNL     1      -2.420   4.527  -0.226  1.00  0.00     0.001 A 
HETATM    8  C6  UNL     1      -3.036   3.437   0.408  1.00  0.00     0.016 A 
HETATM    9  C7  UNL     1      -2.633   2.092   0.282  1.00  0.00     0.025 A 
HETATM   10  C8  UNL     1      -3.580   1.393   1.140  1.00  0.00     0.097 C 
HETATM   11  C9  UNL     1      -3.205   0.521   2.117  1.00  0.00     0.062 A 
HETATM   12 CL1  UNL     1      -4.559  -0.193   3.045  1.00  0.00    -0.158 Cl
HETATM   13  C10 UNL     1      -2.639  -0.442   3.118  1.00  0.00     0.248 A 
HETATM   14  C11 UNL     1      -1.376  -0.898   3.049  1.00  0.00     0.061 A 
HETATM   15 CL2  UNL     1      -2.387  -1.455   4.410  1.00  0.00    -0.186 Cl
HETATM   16  C12 UNL     1       0.014  -1.391   2.904  1.00  0.00     0.024 C 
HETATM   17  C13 UNL     1       0.689  -1.541   1.781  1.00  0.00     0.242 C 
HETATM   18  N2  UNL     1       0.379  -1.330   0.382  1.00  0.00     0.139 N 
HETATM   19  H1  UNL     1      -0.769   0.418  -1.830  1.00  0.00     0.165 HD
ENDROOT
BRANCH  18  20
HETATM   20  C14 UNL     1       0.811  -2.457  -0.445  1.00  0.00     0.325 C 
BRANCH  20  21
HETATM   21  C15 UNL     1       2.194  -2.277  -0.968  1.00  0.00    -0.029 A 
HETATM   22  C16 UNL     1       3.367  -2.658  -0.354  1.00  0.00     0.012 A 
HETATM   23  C17 UNL     1       4.595  -2.426  -0.968  1.00  0.00     0.037 A 
HETATM   24  C18 UNL     1       4.685  -1.813  -2.201  1.00  0.00     0.065 A 
HETATM   25  C19 UNL     1       3.539  -1.420  -2.842  1.00  0.00     0.037 A 
HETATM   26  C20 UNL     1       2.328  -1.662  -2.211  1.00  0.00     0.012 A 
BRANCH  24  27
HETATM   27  O3  UNL     1       5.950  -1.621  -2.738  1.00  0.00    -0.361 OA
HETATM   28  H14 UNL     1       6.128  -0.982  -3.517  1.00  0.00     0.217 HD
ENDBRANCH  24  27
ENDBRANCH  20  21
ENDBRANCH  18  20
BRANCH  10  29
HETATM   29  O2  UNL     1      -4.970   1.589   0.995  1.00  0.00    -0.358 OA
HETATM   30  H6  UNL     1      -5.354   1.581   0.054  1.00  0.00     0.217 HD
ENDBRANCH  10  29
TORSDOF 4
