REMARK  7 active torsions:
REMARK  status: ('A' for Active; 'I' for Inactive)
REMARK    1  A    between atoms: C6_6  and  C7_7 
REMARK    2  A    between atoms: C7_7  and  N1_8 
REMARK    3  A    between atoms: N1_8  and  C8_9 
REMARK       I    between atoms: N1_8  and  C15_17 
REMARK    4  A    between atoms: C8_9  and  C9_10 
REMARK    5  A    between atoms: C12_13  and  O1_14 
REMARK       I    between atoms: C15_17  and  N2_19 
REMARK    6  A    between atoms: N2_19  and  C16_20 
REMARK    7  A    between atoms: C22_26  and  O3_27 
ROOT
HETATM    1  N1  UNL     1      -0.233   0.553  -0.019  1.00  0.00    -0.325 N 
HETATM    2  C15 UNL     1       0.854  -0.326  -0.300  1.00  0.00     0.323 C 
HETATM    3  O2  UNL     1       1.517  -0.255  -1.387  1.00  0.00    -0.247 OA
HETATM    4  N2  UNL     1       1.289  -1.335   0.579  1.00  0.00    -0.309 N 
HETATM    5  H16 UNL     1       0.818  -1.473   1.482  1.00  0.00     0.170 HD
ENDROOT
BRANCH   1   6
HETATM    6  C7  UNL     1      -0.935   0.426   1.211  1.00  0.00     0.169 C 
BRANCH   6   7
HETATM    7  C6  UNL     1      -2.098  -0.500   1.178  1.00  0.00    -0.006 A 
HETATM    8  C5  UNL     1      -2.748  -0.586   2.408  1.00  0.00     0.012 A 
HETATM    9  C4  UNL     1      -3.848  -1.393   2.575  1.00  0.00     0.001 A 
HETATM   10  C3  UNL     1      -4.326  -2.141   1.498  1.00  0.00     0.009 A 
HETATM   11  C2  UNL     1      -3.671  -2.039   0.302  1.00  0.00    -0.028 A 
HETATM   12  C1  UNL     1      -4.135  -2.817  -0.894  1.00  0.00     0.051 C 
HETATM   13  C22 UNL     1      -2.565  -1.236   0.108  1.00  0.00     0.079 A 
BRANCH  13  14
HETATM   14  O3  UNL     1      -1.851  -1.080  -1.064  1.00  0.00    -0.360 OA
HETATM   15  H22 UNL     1      -2.421  -0.824  -1.881  1.00  0.00     0.217 HD
ENDBRANCH  13  14
ENDBRANCH   6   7
ENDBRANCH   1   6
BRANCH   1  16
HETATM   16  C8  UNL     1      -0.587   1.552  -1.002  1.00  0.00     0.166 C 
BRANCH  16  17
HETATM   17  C9  UNL     1       0.131   2.842  -0.822  1.00  0.00    -0.040 A 
HETATM   18  C10 UNL     1       1.345   3.154  -1.401  1.00  0.00     0.011 A 
HETATM   19  C11 UNL     1       1.915   4.395  -1.155  1.00  0.00     0.037 A 
HETATM   20  C12 UNL     1       1.288   5.315  -0.343  1.00  0.00     0.065 A 
HETATM   21  C13 UNL     1       0.065   5.030   0.255  1.00  0.00     0.037 A 
HETATM   22  C14 UNL     1      -0.483   3.784  -0.007  1.00  0.00     0.011 A 
BRANCH  20  23
HETATM   23  O1  UNL     1       1.931   6.528  -0.153  1.00  0.00    -0.361 OA
HETATM   24  H13 UNL     1       2.919   6.643  -0.098  1.00  0.00     0.217 HD
ENDBRANCH  20  23
ENDBRANCH  16  17
ENDBRANCH   1  16
BRANCH   4  25
HETATM   25  C16 UNL     1       2.399  -2.105   0.099  1.00  0.00     0.036 A 
HETATM   26  C17 UNL     1       2.305  -3.264  -0.653  1.00  0.00     0.029 A 
HETATM   27  C18 UNL     1       3.456  -3.920  -1.057  1.00  0.00     0.002 A 
HETATM   28  C19 UNL     1       4.733  -3.450  -0.732  1.00  0.00     0.000 A 
HETATM   29  C20 UNL     1       4.830  -2.282   0.026  1.00  0.00     0.002 A 
HETATM   30  C21 UNL     1       3.665  -1.641   0.421  1.00  0.00     0.029 A 
ENDBRANCH   4  25
TORSDOF 7
