REMARK  5 active torsions:
REMARK  status: ('A' for Active; 'I' for Inactive)
REMARK    1  A    between atoms: O1_2  and  C2_3 
REMARK    2  A    between atoms: C2_3  and  C3_4 
REMARK    3  A    between atoms: C3_4  and  O2_5 
REMARK    4  A    between atoms: C10_15  and  N3_16 
REMARK    5  A    between atoms: N3_16  and  C11_17 
ROOT
HETATM    1  C3  UNL     1      -3.334   0.716  -0.793  1.00  0.00     0.144 A 
HETATM    2  C5  UNL     1      -2.099   0.806  -0.899  1.00  0.00    -0.001 A 
HETATM    3  C6  UNL     1      -1.979  -0.002   0.120  1.00  0.00     0.060 A 
HETATM    4  C7  UNL     1      -1.859  -0.654   0.941  1.00  0.00     0.022 C 
HETATM    5  O3  UNL     1      -1.667  -1.526   2.044  1.00  0.00    -0.246 OA
HETATM    6  C8  UNL     1      -0.061  -1.530   2.075  1.00  0.00     0.210 A 
HETATM    7  N1  UNL     1       0.623  -2.133   3.014  1.00  0.00    -0.215 NA
HETATM    8  C9  UNL     1       1.965  -2.111   3.014  1.00  0.00     0.238 A 
HETATM    9  N2  UNL     1       2.575  -1.464   2.039  1.00  0.00    -0.222 NA
HETATM   10  C10 UNL     1       2.080  -0.810   1.026  1.00  0.00     0.160 A 
HETATM   11  C17 UNL     1       0.702  -0.832   1.021  1.00  0.00     0.129 A 
HETATM   12  N4  UNL     1       0.195  -0.088  -0.186  1.00  0.00    -0.379 N 
HETATM   13  C18 UNL     1      -0.635   0.821  -0.907  1.00  0.00     0.159 C 
HETATM   14  H15 UNL     1       0.909  -0.530  -0.867  1.00  0.00     0.160 HD
ENDROOT
BRANCH  10  15
HETATM   15  N3  UNL     1       2.724  -0.095   0.012  1.00  0.00    -0.339 N 
HETATM   16  H10 UNL     1       2.299   0.492  -0.725  1.00  0.00     0.167 HD
BRANCH  15  17
HETATM   17  C11 UNL     1       4.127  -0.033  -0.136  1.00  0.00     0.035 A 
HETATM   18  C12 UNL     1       4.999  -0.746   0.648  1.00  0.00     0.029 A 
HETATM   19  C13 UNL     1       6.366  -0.691   0.539  1.00  0.00     0.004 A 
HETATM   20  C14 UNL     1       6.970   0.116  -0.402  1.00  0.00     0.019 A 
HETATM   21  C15 UNL     1       6.142   0.853  -1.217  1.00  0.00     0.013 A 
HETATM   22 BR1  UNL     1       6.895   1.998  -2.545  1.00  0.00    -0.051 Br
HETATM   23  C16 UNL     1       4.783   0.751  -1.054  1.00  0.00     0.048 A 
ENDBRANCH  15  17
ENDBRANCH  10  15
BRANCH   1  24
HETATM   24  C2  UNL     1      -4.483   0.156  -0.100  1.00  0.00     0.215 C 
BRANCH  24  25
HETATM   25  O1  UNL     1      -5.294   1.167   0.442  1.00  0.00    -0.392 OA
HETATM   26  C1  UNL     1      -6.349   0.522   1.081  1.00  0.00     0.201 C 
ENDBRANCH  24  25
ENDBRANCH   1  24
BRANCH   1  27
HETATM   27  O2  UNL     1      -3.659   1.560  -1.853  1.00  0.00    -0.372 OA
HETATM   28  C4  UNL     1      -4.646   1.150  -2.781  1.00  0.00     0.203 C 
ENDBRANCH   1  27
TORSDOF 5
