REMARK  4 active torsions:
REMARK  status: ('A' for Active; 'I' for Inactive)
REMARK    1  A    between atoms: N1_1  and  C1_2 
REMARK    2  A    between atoms: N2_13  and  C10_14 
REMARK    3  A    between atoms: C10_14  and  C11_15 
REMARK    4  A    between atoms: C14_18  and  O1_19 
ROOT
HETATM    1  C1  UNL     1      -0.039   0.308   1.355  1.00  0.00     0.108 C 
HETATM    2  B1  UNL     1      -1.349  -0.237   2.065  1.00  0.00     0.230 B 
HETATM    3  C2  UNL     1      -1.397  -0.849   3.496  1.00  0.00    -0.079 C 
HETATM    4  C3  UNL     1      -1.737  -2.113   3.699  1.00  0.00    -0.019 C 
HETATM    5  C4  UNL     1      -2.090  -3.054   2.638  1.00  0.00    -0.022 C 
HETATM    6  C5  UNL     1      -2.335  -3.614   1.468  1.00  0.00     0.021 C 
HETATM    7  C6  UNL     1      -2.348  -3.355   0.003  1.00  0.00     0.007 C 
HETATM    8  C7  UNL     1      -2.197  -2.655  -1.170  1.00  0.00     0.020 C 
HETATM    9  C8  UNL     1      -1.917  -1.616  -2.095  1.00  0.00    -0.035 C 
HETATM   10  C9  UNL     1      -1.502  -0.376  -2.222  1.00  0.00    -0.061 C 
HETATM   11  B2  UNL     1      -1.118   0.400  -0.889  1.00  0.00     0.294 B 
HETATM   12  N2  UNL     1      -0.063  -0.146   0.017  1.00  0.00    -0.447 N 
HETATM   13  H4  UNL     1      -2.282   0.506   1.915  1.00  0.00    -0.018 HD
HETATM   14  H13 UNL     1      -0.996   1.581  -1.142  1.00  0.00     0.004 HD
ENDROOT
BRANCH  12  15
HETATM   15  C10 UNL     1       1.220  -0.243  -0.541  1.00  0.00     0.139 C 
BRANCH  15  16
HETATM   16  C11 UNL     1       1.815   1.006  -1.055  1.00  0.00    -0.042 A 
HETATM   17  C12 UNL     1       2.609   1.824  -0.246  1.00  0.00     0.011 A 
HETATM   18  C13 UNL     1       3.171   3.009  -0.729  1.00  0.00     0.037 A 
HETATM   19  C14 UNL     1       2.920   3.365  -2.053  1.00  0.00     0.065 A 
HETATM   20  C15 UNL     1       2.155   2.610  -2.891  1.00  0.00     0.037 A 
HETATM   21  C16 UNL     1       1.627   1.450  -2.359  1.00  0.00     0.011 A 
BRANCH  19  22
HETATM   22  O1  UNL     1       3.517   4.556  -2.449  1.00  0.00    -0.361 OA
HETATM   23  H18 UNL     1       4.378   4.459  -2.988  1.00  0.00     0.217 HD
ENDBRANCH  19  22
ENDBRANCH  15  16
ENDBRANCH  12  15
BRANCH   1  24
HETATM   24  N1  UNL     1       0.114   1.744   1.458  1.00  0.00    -0.420 N 
HETATM   25  H1  UNL     1       0.724   2.079   2.202  1.00  0.00     0.151 HD
HETATM   26  H2  UNL     1      -0.720   2.304   1.312  1.00  0.00     0.151 HD
ENDBRANCH   1  24
TORSDOF 4
