REMARK  7 active torsions:
REMARK  status: ('A' for Active; 'I' for Inactive)
REMARK    1  A    between atoms: C4_5  and  C5_6 
REMARK    2  A    between atoms: C5_6  and  C6_7 
REMARK    3  A    between atoms: C6_7  and  C7_8 
REMARK    4  A    between atoms: C11_12  and  N1_13 
REMARK    5  A    between atoms: N1_13  and  C12_14 
REMARK    6  A    between atoms: C12_14  and  N2_15 
REMARK    7  A    between atoms: N2_15  and  C13_16 
ROOT
HETATM    1  C7  UNL     1       1.551  -0.441  -0.048  1.00  0.00     0.046 C 
HETATM    2  C8  UNL     1       0.979   0.293   0.921  1.00  0.00     0.032 C 
HETATM    3  C9  UNL     1      -0.447   0.254   1.315  1.00  0.00     0.001 C 
HETATM    4  C10 UNL     1      -1.542  -0.195   0.673  1.00  0.00    -0.000 C 
HETATM    5  C11 UNL     1      -1.393  -0.763  -0.660  1.00  0.00     0.125 C 
HETATM    6  C19 UNL     1      -0.388  -1.900  -0.673  1.00  0.00     0.204 C 
HETATM    7  O1  UNL     1       0.924  -1.388  -0.881  1.00  0.00    -0.353 OA
ENDROOT
BRANCH   5   8
HETATM    8  N1  UNL     1      -2.624  -1.095  -1.272  1.00  0.00    -0.397 N 
HETATM    9  H11 UNL     1      -2.662  -1.060  -2.295  1.00  0.00     0.155 HD
BRANCH   8  10
HETATM   10  C12 UNL     1      -3.460  -2.042  -0.625  1.00  0.00     0.238 C 
BRANCH  10  11
HETATM   11  N2  UNL     1      -4.044  -1.614   0.625  1.00  0.00    -0.374 N 
HETATM   12  H14 UNL     1      -3.881  -1.996   1.561  1.00  0.00     0.161 HD
BRANCH  11  13
HETATM   13  C13 UNL     1      -4.968  -0.510   0.512  1.00  0.00     0.029 A 
HETATM   14  C14 UNL     1      -5.282   0.100  -0.682  1.00  0.00     0.029 A 
HETATM   15  C15 UNL     1      -6.166   1.151  -0.767  1.00  0.00     0.002 A 
HETATM   16  C16 UNL     1      -6.776   1.634   0.364  1.00  0.00     0.000 A 
HETATM   17  C17 UNL     1      -6.497   1.059   1.585  1.00  0.00     0.002 A 
HETATM   18  C18 UNL     1      -5.608   0.007   1.644  1.00  0.00     0.029 A 
ENDBRANCH  11  13
ENDBRANCH  10  11
ENDBRANCH   8  10
ENDBRANCH   5   8
BRANCH   1  19
HETATM   19  C6  UNL     1       2.982  -0.288  -0.322  1.00  0.00     0.069 C 
BRANCH  19  20
HETATM   20  C5  UNL     1       3.641   0.722   0.559  1.00  0.00     0.045 C 
BRANCH  20  21
HETATM   21  C4  UNL     1       5.106   0.819   0.220  1.00  0.00    -0.058 A 
HETATM   22  C3  UNL     1       6.091   0.043   0.817  1.00  0.00     0.010 A 
HETATM   23  C2  UNL     1       7.401   0.209   0.436  1.00  0.00     0.043 A 
HETATM   24  C1  UNL     1       7.795   1.119  -0.523  1.00  0.00     0.116 A 
HETATM   25  F1  UNL     1       9.086   1.278  -0.895  1.00  0.00    -0.206 F 
HETATM   26  C21 UNL     1       6.834   1.911  -1.141  1.00  0.00     0.043 A 
HETATM   27  C20 UNL     1       5.540   1.727  -0.744  1.00  0.00     0.010 A 
ENDBRANCH  20  21
ENDBRANCH  19  20
ENDBRANCH   1  19
TORSDOF 7
