REMARK  7 active torsions:
REMARK  status: ('A' for Active; 'I' for Inactive)
REMARK    1  A    between atoms: C6_6  and  C7_7 
REMARK    2  A    between atoms: C7_7  and  N1_8 
REMARK    3  A    between atoms: N1_8  and  C8_9 
REMARK       I    between atoms: N1_8  and  C15_17 
REMARK    4  A    between atoms: C8_9  and  C9_10 
REMARK    5  A    between atoms: C12_13  and  O1_14 
REMARK    6  A    between atoms: C15_17  and  C16_19 
REMARK    7  A    between atoms: C21_24  and  O3_25 
ROOT
HETATM    1  N1  UNL     1       0.185   0.373   0.149  1.00  0.00    -0.339 N 
HETATM    2  C15 UNL     1       0.415   1.762   0.164  1.00  0.00     0.254 C 
HETATM    3  O2  UNL     1      -0.252   1.889   1.218  1.00  0.00    -0.267 OA
ENDROOT
BRANCH   1   4
HETATM    4  C7  UNL     1      -0.638  -0.196   1.190  1.00  0.00     0.167 C 
BRANCH   4   5
HETATM    5  C6  UNL     1      -2.084  -0.259   0.915  1.00  0.00    -0.007 A 
HETATM    6  C5  UNL     1      -2.939   0.674   1.516  1.00  0.00     0.011 A 
HETATM    7  C4  UNL     1      -4.303   0.693   1.317  1.00  0.00     0.001 A 
HETATM    8  C3  UNL     1      -4.912  -0.246   0.482  1.00  0.00     0.009 A 
HETATM    9  C2  UNL     1      -4.093  -1.176  -0.122  1.00  0.00    -0.028 A 
HETATM   10  C1  UNL     1      -4.726  -2.195  -1.023  1.00  0.00     0.051 C 
HETATM   11  C21 UNL     1      -2.741  -1.155   0.107  1.00  0.00     0.079 A 
BRANCH  11  12
HETATM   12  O3  UNL     1      -2.033  -2.125  -0.541  1.00  0.00    -0.360 OA
HETATM   13  H19 UNL     1      -1.926  -2.223  -1.538  1.00  0.00     0.217 HD
ENDBRANCH  11  12
ENDBRANCH   4   5
ENDBRANCH   1   4
BRANCH   1  14
HETATM   14  C8  UNL     1       0.855  -0.351  -0.918  1.00  0.00     0.165 C 
BRANCH  14  15
HETATM   15  C9  UNL     1       2.201  -0.842  -0.443  1.00  0.00    -0.040 A 
HETATM   16  C10 UNL     1       2.215  -2.112   0.153  1.00  0.00     0.011 A 
HETATM   17  C11 UNL     1       3.325  -2.757   0.656  1.00  0.00     0.037 A 
HETATM   18  C12 UNL     1       4.527  -2.084   0.562  1.00  0.00     0.065 A 
HETATM   19  C13 UNL     1       4.547  -0.834  -0.019  1.00  0.00     0.037 A 
HETATM   20  C14 UNL     1       3.431  -0.225  -0.507  1.00  0.00     0.011 A 
BRANCH  18  21
HETATM   21  O1  UNL     1       5.699  -2.651   1.040  1.00  0.00    -0.361 OA
HETATM   22  H13 UNL     1       6.004  -3.525   0.625  1.00  0.00     0.217 HD
ENDBRANCH  18  21
ENDBRANCH  14  15
ENDBRANCH   1  14
BRANCH   2  23
HETATM   23  C16 UNL     1       1.014   2.920  -0.448  1.00  0.00     0.033 C 
HETATM   24  C17 UNL     1       0.828   4.068   0.151  1.00  0.00     0.018 C 
HETATM   25  C18 UNL     1       1.558   5.013  -0.720  1.00  0.00     0.013 C 
HETATM   26  C19 UNL     1       1.974   4.346  -1.771  1.00  0.00    -0.025 C 
HETATM   27  C20 UNL     1       1.805   3.042  -1.653  1.00  0.00     0.029 C 
ENDBRANCH   2  23
TORSDOF 7
