REMARK  6 active torsions:
REMARK  status: ('A' for Active; 'I' for Inactive)
REMARK    1  A    between atoms: O1_2  and  C2_3 
REMARK    2  A    between atoms: C5_6  and  C6_7 
REMARK    3  A    between atoms: C6_7  and  N1_8 
REMARK       I    between atoms: N1_8  and  C7_9 
REMARK    4  A    between atoms: N1_8  and  C14_18 
REMARK    5  A    between atoms: C7_9  and  C8_11 
REMARK    6  A    between atoms: C20_24  and  O3_25 
ROOT
HETATM    1  N1  UNL     1      -0.544   0.236  -0.913  1.00  0.00    -0.333 N 
HETATM    2  C7  UNL     1      -1.652  -0.271  -0.185  1.00  0.00     0.256 C 
HETATM    3  O2  UNL     1      -2.556   0.598   0.020  1.00  0.00    -0.267 OA
ENDROOT
BRANCH   1   4
HETATM    4  C6  UNL     1       0.641  -0.450  -1.384  1.00  0.00     0.160 C 
BRANCH   4   5
HETATM    5  C5  UNL     1       1.760  -0.501  -0.451  1.00  0.00    -0.071 A 
HETATM    6  C4  UNL     1       1.867  -0.021   0.778  1.00  0.00     0.005 A 
HETATM    7  C3  UNL     1       2.986  -0.075   1.701  1.00  0.00     0.019 A 
HETATM    8  C2  UNL     1       4.036  -0.707   1.201  1.00  0.00    -0.004 A 
HETATM    9  B1  UNL     1       4.133  -1.347  -0.214  1.00  0.00     0.229 B 
HETATM   10  C21 UNL     1       2.855  -1.229  -1.139  1.00  0.00    -0.010 A 
HETATM   11  H25 UNL     1       5.128  -1.877  -0.576  1.00  0.00    -0.018 HD
BRANCH   8  12
HETATM   12  O1  UNL     1       5.157  -0.810   2.011  1.00  0.00    -0.373 OA
HETATM   13  C1  UNL     1       6.426  -0.530   1.490  1.00  0.00     0.208 C 
ENDBRANCH   8  12
ENDBRANCH   4   5
ENDBRANCH   1   4
BRANCH   1  14
HETATM   14  C14 UNL     1      -0.588   1.649  -1.254  1.00  0.00     0.143 A 
HETATM   15  C15 UNL     1      -1.692   1.851  -2.265  1.00  0.00     0.001 A 
HETATM   16  C16 UNL     1      -2.706   2.697  -2.243  1.00  0.00    -0.002 A 
HETATM   17  C17 UNL     1      -2.862   3.604  -1.115  1.00  0.00     0.005 A 
HETATM   18  C18 UNL     1      -1.934   3.474  -0.197  1.00  0.00    -0.053 A 
HETATM   19  C19 UNL     1      -1.968   4.346   1.022  1.00  0.00     0.046 C 
HETATM   20  C20 UNL     1      -0.770   2.557  -0.092  1.00  0.00     0.173 A 
BRANCH  20  21
HETATM   21  O3  UNL     1       0.365   3.363   0.100  1.00  0.00    -0.389 OA
HETATM   22  H22 UNL     1       0.560   3.798  -0.768  1.00  0.00     0.210 HD
ENDBRANCH  20  21
ENDBRANCH   1  14
BRANCH   2  23
HETATM   23  C8  UNL     1      -2.027  -1.534   0.392  1.00  0.00     0.047 C 
HETATM   24  C9  UNL     1      -3.237  -1.545   0.980  1.00  0.00     0.104 C 
HETATM   25  N2  UNL     1      -3.959  -2.600   1.657  1.00  0.00    -0.374 N 
HETATM   26  C10 UNL     1      -3.784  -3.994   1.323  1.00  0.00     0.087 C 
HETATM   27  H9  UNL     1      -4.632  -2.351   2.406  1.00  0.00     0.164 HD
HETATM   28  C11 UNL     1      -2.718  -4.660   0.857  1.00  0.00     0.017 C 
HETATM   29  C12 UNL     1      -1.429  -4.015   0.584  1.00  0.00     0.002 C 
HETATM   30  C13 UNL     1      -1.185  -2.739   0.400  1.00  0.00     0.018 C 
ENDBRANCH   2  23
TORSDOF 6
