REMARK  6 active torsions:
REMARK  status: ('A' for Active; 'I' for Inactive)
REMARK    1  A    between atoms: C7_7  and  N1_8 
REMARK    2  A    between atoms: N1_8  and  C8_9 
REMARK    3  A    between atoms: N1_8  and  C15_17 
REMARK    4  A    between atoms: C8_9  and  N2_10 
REMARK    5  A    between atoms: N2_10  and  C9_11 
REMARK    6  A    between atoms: C20_23  and  O2_24 
ROOT
HETATM    1  N1  UNL     1      -0.386   0.752   0.040  1.00  0.00    -0.351 N 
ENDROOT
BRANCH   1   2
HETATM    2  C7  UNL     1      -1.740   0.216  -0.139  1.00  0.00     0.138 C 
HETATM    3  C5  UNL     1      -2.050  -0.724   0.922  1.00  0.00    -0.057 C 
HETATM    4  C4  UNL     1      -2.755  -1.868   0.888  1.00  0.00     0.005 C 
HETATM    5  C6  UNL     1      -1.607  -0.570   2.331  1.00  0.00     0.046 C 
HETATM    6  C3  UNL     1      -3.434  -2.527  -0.229  1.00  0.00     0.007 C 
HETATM    7  C2  UNL     1      -3.289  -2.290  -1.544  1.00  0.00    -0.062 C 
HETATM    8  C1  UNL     1      -4.094  -3.094  -2.504  1.00  0.00     0.048 C 
HETATM    9  C22 UNL     1      -2.400  -1.298  -2.137  1.00  0.00     0.005 C 
HETATM   10  C21 UNL     1      -1.800  -0.299  -1.497  1.00  0.00     0.003 C 
ENDBRANCH   1   2
BRANCH   1  11
HETATM   11  C8  UNL     1       0.537  -0.339   0.005  1.00  0.00     0.247 C 
BRANCH  11  12
HETATM   12  N2  UNL     1       1.920   0.027   0.217  1.00  0.00    -0.374 N 
HETATM   13  H12 UNL     1       2.315   0.975   0.397  1.00  0.00     0.161 HD
BRANCH  12  14
HETATM   14  C9  UNL     1       2.858  -1.041   0.175  1.00  0.00     0.029 A 
HETATM   15  C10 UNL     1       4.213  -0.860   0.357  1.00  0.00     0.029 A 
HETATM   16  C11 UNL     1       5.123  -1.895   0.317  1.00  0.00     0.002 A 
HETATM   17  C12 UNL     1       4.703  -3.183   0.088  1.00  0.00     0.000 A 
HETATM   18  C13 UNL     1       3.370  -3.426  -0.101  1.00  0.00     0.002 A 
HETATM   19  C14 UNL     1       2.515  -2.359  -0.050  1.00  0.00     0.029 A 
ENDBRANCH  12  14
ENDBRANCH  11  12
ENDBRANCH   1  11
BRANCH   1  20
HETATM   20  C15 UNL     1      -0.211   2.155   0.201  1.00  0.00     0.064 C 
HETATM   21  C16 UNL     1      -0.905   2.866   1.066  1.00  0.00     0.031 C 
HETATM   22  C17 UNL     1      -0.949   4.286   1.450  1.00  0.00     0.197 C 
HETATM   23  O1  UNL     1      -0.188   5.133   0.694  1.00  0.00    -0.384 OA
HETATM   24  C18 UNL     1       1.162   4.887   0.668  1.00  0.00     0.198 C 
HETATM   25  C19 UNL     1       1.432   3.998  -0.520  1.00  0.00     0.038 C 
HETATM   26  C20 UNL     1       0.796   2.820  -0.658  1.00  0.00     0.090 C 
BRANCH  26  27
HETATM   27  O2  UNL     1       1.139   2.088  -1.811  1.00  0.00    -0.359 OA
HETATM   28  H24 UNL     1       2.135   1.964  -1.973  1.00  0.00     0.217 HD
ENDBRANCH  26  27
ENDBRANCH   1  20
TORSDOF 6
