REMARK  6 active torsions:
REMARK  status: ('A' for Active; 'I' for Inactive)
REMARK    1  A    between atoms: C6_6  and  N1_7 
REMARK    2  A    between atoms: N1_7  and  C7_8 
REMARK       I    between atoms: N1_7  and  C14_17 
REMARK    3  A    between atoms: C7_8  and  C8_9 
REMARK    4  A    between atoms: C11_12  and  O1_13 
REMARK    5  A    between atoms: C13_15  and  O2_16 
REMARK       I    between atoms: C14_17  and  N2_19 
REMARK    6  A    between atoms: N2_19  and  C15_20 
ROOT
HETATM    1  N1  UNL     1      -0.103   0.345   0.714  1.00  0.00    -0.295 N 
HETATM    2  C14 UNL     1       1.127   0.296   0.021  1.00  0.00     0.327 C 
HETATM    3  O3  UNL     1       1.163   1.221  -0.847  1.00  0.00    -0.246 OA
HETATM    4  N2  UNL     1       2.128  -0.668   0.303  1.00  0.00    -0.309 N 
HETATM    5  H14 UNL     1       1.991  -1.386   1.046  1.00  0.00     0.170 HD
ENDROOT
BRANCH   1   6
HETATM    6  C6  UNL     1      -0.718   1.478   0.066  1.00  0.00     0.039 A 
HETATM    7  C5  UNL     1      -1.519   1.308  -1.069  1.00  0.00     0.030 A 
HETATM    8  C4  UNL     1      -2.087   2.428  -1.651  1.00  0.00     0.003 A 
HETATM    9  C3  UNL     1      -1.902   3.706  -1.166  1.00  0.00     0.007 A 
HETATM   10  C2  UNL     1      -1.112   3.873  -0.047  1.00  0.00    -0.060 A 
HETATM   11  C1  UNL     1      -0.901   5.233   0.488  1.00  0.00     0.048 C 
HETATM   12  C21 UNL     1      -0.533   2.773   0.553  1.00  0.00     0.036 A 
ENDBRANCH   1   6
BRANCH   1  13
HETATM   13  C7  UNL     1      -0.961  -0.228   1.732  1.00  0.00     0.175 C 
BRANCH  13  14
HETATM   14  C8  UNL     1      -1.870  -1.271   1.224  1.00  0.00    -0.006 A 
HETATM   15  C9  UNL     1      -3.201  -0.884   1.041  1.00  0.00     0.014 A 
HETATM   16  C10 UNL     1      -4.203  -1.717   0.569  1.00  0.00     0.037 A 
HETATM   17  C11 UNL     1      -3.867  -3.014   0.259  1.00  0.00     0.068 A 
HETATM   18  C12 UNL     1      -2.565  -3.413   0.431  1.00  0.00     0.073 A 
HETATM   19  C13 UNL     1      -1.577  -2.574   0.902  1.00  0.00     0.076 A 
BRANCH  17  20
HETATM   20  O1  UNL     1      -4.797  -3.925  -0.221  1.00  0.00    -0.361 OA
HETATM   21  H11 UNL     1      -5.329  -3.628  -1.029  1.00  0.00     0.217 HD
ENDBRANCH  17  20
BRANCH  19  22
HETATM   22  O2  UNL     1      -0.257  -2.951   1.086  1.00  0.00    -0.360 OA
HETATM   23  H13 UNL     1       0.328  -3.042   0.257  1.00  0.00     0.217 HD
ENDBRANCH  19  22
ENDBRANCH  13  14
ENDBRANCH   1  13
BRANCH   4  24
HETATM   24  C15 UNL     1       3.418  -0.950  -0.213  1.00  0.00     0.036 A 
HETATM   25  C16 UNL     1       3.423  -1.847  -1.278  1.00  0.00     0.029 A 
HETATM   26  C17 UNL     1       4.599  -2.206  -1.870  1.00  0.00     0.002 A 
HETATM   27  C18 UNL     1       5.791  -1.691  -1.428  1.00  0.00     0.000 A 
HETATM   28  C19 UNL     1       5.813  -0.802  -0.377  1.00  0.00     0.002 A 
HETATM   29  C20 UNL     1       4.636  -0.426   0.235  1.00  0.00     0.029 A 
ENDBRANCH   4  24
TORSDOF 6
