REMARK  4 active torsions:
REMARK  status: ('A' for Active; 'I' for Inactive)
REMARK    1  A    between atoms: C6_6  and  C7_7 
REMARK    2  A    between atoms: C7_7  and  O1_8 
REMARK    3  A    between atoms: O1_8  and  C8_9 
REMARK    4  A    between atoms: C8_9  and  N1_10 
ROOT
HETATM    1  N1  UNL     1      -0.219  -0.802   0.607  1.00  0.00    -0.312 N 
HETATM    2  C9  UNL     1      -0.637  -1.341   1.927  1.00  0.00     0.133 C 
HETATM    3  C10 UNL     1      -0.534  -2.872   1.833  1.00  0.00     0.047 C 
HETATM    4  C11 UNL     1      -1.651  -3.451   1.081  1.00  0.00    -0.029 C 
HETATM    5  C12 UNL     1      -2.707  -4.083   0.507  1.00  0.00    -0.030 C 
HETATM    6  C13 UNL     1      -3.443  -3.898  -0.848  1.00  0.00     0.031 C 
HETATM    7  C14 UNL     1      -2.758  -2.719  -1.345  1.00  0.00     0.044 C 
HETATM    8  C15 UNL     1      -3.209  -1.902  -2.469  1.00  0.00    -0.031 A 
HETATM    9  C16 UNL     1      -4.090  -2.244  -3.412  1.00  0.00     0.009 A 
HETATM   10  C17 UNL     1      -4.384  -1.223  -4.239  1.00  0.00     0.001 A 
HETATM   11  C18 UNL     1      -4.036   0.081  -4.395  1.00  0.00     0.002 A 
HETATM   12  C19 UNL     1      -3.102   0.447  -3.399  1.00  0.00     0.030 A 
HETATM   13  C20 UNL     1      -2.769  -0.549  -2.541  1.00  0.00     0.042 A 
HETATM   14  N2  UNL     1      -1.811  -0.571  -1.563  1.00  0.00    -0.308 N 
HETATM   15  C21 UNL     1      -0.846  -0.583  -0.609  1.00  0.00     0.324 C 
HETATM   16  O2  UNL     1       0.197  -0.158  -0.861  1.00  0.00    -0.247 OA
HETATM   17  H24 UNL     1      -1.122  -0.213  -2.309  1.00  0.00     0.170 HD
ENDROOT
BRANCH   1  18
HETATM   18  C8  UNL     1       1.205  -0.441   0.669  1.00  0.00     0.298 C 
BRANCH  18  19
HETATM   19  O1  UNL     1       1.417   0.869   1.047  1.00  0.00    -0.368 OA
BRANCH  19  20
HETATM   20  C7  UNL     1       2.811   1.054   1.061  1.00  0.00     0.204 C 
BRANCH  20  21
HETATM   21  C6  UNL     1       3.181   2.408   1.454  1.00  0.00    -0.052 C 
HETATM   22  C5  UNL     1       2.106   3.165   1.710  1.00  0.00     0.006 C 
HETATM   23  C4  UNL     1       2.279   4.576   2.127  1.00  0.00     0.013 C 
HETATM   24  C3  UNL     1       3.384   4.792   2.808  1.00  0.00    -0.023 C 
HETATM   25  C2  UNL     1       4.493   4.311   2.273  1.00  0.00    -0.069 C 
HETATM   26  C1  UNL     1       5.680   5.188   2.412  1.00  0.00     0.044 C 
HETATM   27  C22 UNL     1       4.540   2.970   1.583  1.00  0.00     0.071 C 
ENDBRANCH  20  21
ENDBRANCH  19  20
ENDBRANCH  18  19
ENDBRANCH   1  18
TORSDOF 4
