REMARK  5 active torsions:
REMARK  status: ('A' for Active; 'I' for Inactive)
REMARK    1  A    between atoms: C6_6  and  C7_7 
REMARK    2  A    between atoms: C7_7  and  N1_8 
REMARK       I    between atoms: N1_8  and  C8_9 
REMARK    3  A    between atoms: N1_8  and  C15_18 
REMARK       I    between atoms: C8_9  and  N2_11 
REMARK    4  A    between atoms: N2_11  and  C9_12 
REMARK    5  A    between atoms: C16_19  and  O2_20 
ROOT
HETATM    1  N1  UNL     1       0.286  -0.818   0.458  1.00  0.00    -0.296 N 
HETATM    2  C8  UNL     1       1.420  -0.192  -0.069  1.00  0.00     0.327 C 
HETATM    3  O1  UNL     1       1.432   1.030   0.257  1.00  0.00    -0.246 OA
HETATM    4  N2  UNL     1       2.614  -0.155  -0.796  1.00  0.00    -0.309 N 
HETATM    5  H9  UNL     1       2.781  -1.106  -1.157  1.00  0.00     0.170 HD
ENDROOT
BRANCH   1   6
HETATM    6  C7  UNL     1      -0.485   0.155   1.162  1.00  0.00     0.172 C 
BRANCH   6   7
HETATM    7  C6  UNL     1      -1.418   0.974   0.377  1.00  0.00    -0.039 A 
HETATM    8  C5  UNL     1      -2.639   0.603  -0.138  1.00  0.00     0.009 A 
HETATM    9  C4  UNL     1      -3.526   1.392  -0.834  1.00  0.00     0.001 A 
HETATM   10  C3  UNL     1      -3.217   2.706  -1.074  1.00  0.00     0.007 A 
HETATM   11  C2  UNL     1      -2.011   3.178  -0.597  1.00  0.00    -0.061 A 
HETATM   12  C1  UNL     1      -1.732   4.608  -0.888  1.00  0.00     0.048 C 
HETATM   13  C22 UNL     1      -1.187   2.329   0.085  1.00  0.00     0.015 A 
ENDBRANCH   6   7
ENDBRANCH   1   6
BRANCH   1  14
HETATM   14  C15 UNL     1      -0.312  -2.121   0.529  1.00  0.00     0.049 C 
HETATM   15  C16 UNL     1       0.201  -3.229  -0.043  1.00  0.00     0.066 C 
HETATM   16  C17 UNL     1       0.012  -4.664  -0.255  1.00  0.00     0.070 C 
HETATM   17  C18 UNL     1      -1.250  -5.219   0.322  1.00  0.00     0.033 C 
HETATM   18  C19 UNL     1      -2.459  -4.448  -0.047  1.00  0.00    -0.030 C 
HETATM   19  C20 UNL     1      -2.549  -3.199   0.402  1.00  0.00    -0.025 C 
HETATM   20  C21 UNL     1      -1.535  -2.482   1.257  1.00  0.00     0.086 C 
BRANCH  15  21
HETATM   21  O2  UNL     1       1.385  -3.072  -0.736  1.00  0.00    -0.363 OA
HETATM   22  H15 UNL     1       1.419  -3.079  -1.763  1.00  0.00     0.217 HD
ENDBRANCH  15  21
ENDBRANCH   1  14
BRANCH   4  23
HETATM   23  C9  UNL     1       3.154   1.181  -0.764  1.00  0.00     0.036 A 
HETATM   24  C10 UNL     1       4.012   1.399   0.307  1.00  0.00     0.029 A 
HETATM   25  C11 UNL     1       4.597   2.624   0.461  1.00  0.00     0.002 A 
HETATM   26  C12 UNL     1       4.307   3.601  -0.463  1.00  0.00     0.000 A 
HETATM   27  C13 UNL     1       3.452   3.417  -1.549  1.00  0.00     0.002 A 
HETATM   28  C14 UNL     1       2.875   2.170  -1.679  1.00  0.00     0.029 A 
ENDBRANCH   4  23
TORSDOF 5
