REMARK  6 active torsions:
REMARK  status: ('A' for Active; 'I' for Inactive)
REMARK       I    between atoms: C1_2  and  N1_3 
REMARK       I    between atoms: C1_2  and  N2_10 
REMARK    1  A    between atoms: N1_3  and  C2_4 
REMARK    2  A    between atoms: N2_10  and  C8_11 
REMARK    3  A    between atoms: N2_10  and  C13_17 
REMARK    4  A    between atoms: C8_11  and  C9_12 
REMARK    5  A    between atoms: C13_17  and  C14_18 
REMARK    6  A    between atoms: C19_24  and  O3_25 
ROOT
HETATM    1  O1  UNL     1       1.099  -1.081  -0.506  1.00  0.00    -0.247 OA
HETATM    2  C1  UNL     1       0.648  -0.029   0.068  1.00  0.00     0.323 C 
HETATM    3  N1  UNL     1       1.658   0.311   1.023  1.00  0.00    -0.309 N 
HETATM    4  N2  UNL     1      -0.578   0.711  -0.133  1.00  0.00    -0.325 N 
HETATM    5  H1  UNL     1       1.535   1.163   1.647  1.00  0.00     0.170 HD
ENDROOT
BRANCH   4   6
HETATM    6  C8  UNL     1      -0.791   1.850   0.666  1.00  0.00     0.168 C 
BRANCH   6   7
HETATM    7  C9  UNL     1      -0.287   3.125   0.159  1.00  0.00    -0.016 A 
HETATM    8  C10 UNL     1      -1.025   4.000  -0.653  1.00  0.00     0.035 A 
HETATM    9  C11 UNL     1      -0.225   5.091  -0.929  1.00  0.00     0.142 A 
HETATM   10  O2  UNL     1       0.934   4.921  -0.337  1.00  0.00    -0.334 OA
HETATM   11  C12 UNL     1       0.911   3.776   0.302  1.00  0.00     0.150 A 
ENDBRANCH   6   7
ENDBRANCH   4   6
BRANCH   4  12
HETATM   12  C13 UNL     1      -1.340   0.064  -1.188  1.00  0.00     0.169 C 
BRANCH  12  13
HETATM   13  C14 UNL     1      -2.271  -0.985  -0.720  1.00  0.00    -0.006 A 
HETATM   14  C15 UNL     1      -1.857  -2.305  -0.902  1.00  0.00     0.012 A 
HETATM   15  C16 UNL     1      -2.639  -3.375  -0.501  1.00  0.00     0.002 A 
HETATM   16  C17 UNL     1      -3.865  -3.189   0.097  1.00  0.00     0.022 A 
HETATM   17  C18 UNL     1      -4.288  -1.889   0.283  1.00  0.00     0.044 A 
HETATM   18 BR1  UNL     1      -5.979  -1.530   1.106  1.00  0.00    -0.048 Br
HETATM   19  C19 UNL     1      -3.500  -0.840  -0.121  1.00  0.00     0.090 A 
BRANCH  19  20
HETATM   20  O3  UNL     1      -3.959   0.427   0.081  1.00  0.00    -0.359 OA
HETATM   21  H17 UNL     1      -4.397   0.647   0.973  1.00  0.00     0.217 HD
ENDBRANCH  19  20
ENDBRANCH  12  13
ENDBRANCH   4  12
BRANCH   3  22
HETATM   22  C2  UNL     1       2.708  -0.646   0.927  1.00  0.00     0.036 A 
HETATM   23  C3  UNL     1       3.681  -0.255   0.009  1.00  0.00     0.029 A 
HETATM   24  C4  UNL     1       4.792  -1.031  -0.247  1.00  0.00     0.002 A 
HETATM   25  C5  UNL     1       4.903  -2.232   0.455  1.00  0.00     0.000 A 
HETATM   26  C6  UNL     1       3.957  -2.627   1.357  1.00  0.00     0.002 A 
HETATM   27  C7  UNL     1       2.835  -1.832   1.607  1.00  0.00     0.029 A 
ENDBRANCH   3  22
TORSDOF 6
