REMARK  7 active torsions:
REMARK  status: ('A' for Active; 'I' for Inactive)
REMARK       I    between atoms: C1_2  and  N1_3 
REMARK       I    between atoms: C1_2  and  N2_10 
REMARK    1  A    between atoms: N1_3  and  C2_4 
REMARK    2  A    between atoms: N2_10  and  C8_11 
REMARK    3  A    between atoms: N2_10  and  C15_20 
REMARK    4  A    between atoms: C8_11  and  C9_12 
REMARK    5  A    between atoms: C12_15  and  O2_16 
REMARK    6  A    between atoms: C15_20  and  C16_21 
REMARK    7  A    between atoms: C19_24  and  O3_25 
ROOT
HETATM    1  O1  UNL     1       1.254  -0.723   1.646  1.00  0.00    -0.247 OA
HETATM    2  C1  UNL     1       0.930  -0.227   0.536  1.00  0.00     0.323 C 
HETATM    3  N1  UNL     1       1.966   0.180  -0.323  1.00  0.00    -0.309 N 
HETATM    4  N2  UNL     1      -0.463  -0.103   0.205  1.00  0.00    -0.326 N 
HETATM    5  H1  UNL     1       1.595   0.573  -1.216  1.00  0.00     0.170 HD
ENDROOT
BRANCH   4   6
HETATM    6  C8  UNL     1      -1.038   0.443  -1.004  1.00  0.00     0.166 C 
BRANCH   6   7
HETATM    7  C9  UNL     1      -1.330   1.872  -0.969  1.00  0.00    -0.040 A 
HETATM    8  C10 UNL     1      -2.592   2.297  -0.533  1.00  0.00     0.011 A 
HETATM    9  C11 UNL     1      -2.939   3.626  -0.473  1.00  0.00     0.038 A 
HETATM   10  C12 UNL     1      -2.054   4.622  -0.842  1.00  0.00     0.084 A 
HETATM   11  C13 UNL     1      -0.799   4.249  -1.278  1.00  0.00     0.038 A 
HETATM   12  C14 UNL     1      -0.491   2.906  -1.323  1.00  0.00     0.011 A 
BRANCH  10  13
HETATM   13  O2  UNL     1      -2.328   5.970  -0.810  1.00  0.00    -0.271 OA
HETATM   14 BR1  UNL     1      -3.804   6.513   0.226  1.00  0.00     0.105 Br
ENDBRANCH  10  13
ENDBRANCH   6   7
ENDBRANCH   4   6
BRANCH   4  15
HETATM   15  C15 UNL     1      -1.450  -0.564   1.159  1.00  0.00     0.166 C 
BRANCH  15  16
HETATM   16  C16 UNL     1      -1.845  -1.968   1.000  1.00  0.00    -0.040 A 
HETATM   17  C17 UNL     1      -2.909  -2.390   0.196  1.00  0.00     0.011 A 
HETATM   18  C18 UNL     1      -3.299  -3.698   0.030  1.00  0.00     0.037 A 
HETATM   19  C19 UNL     1      -2.614  -4.680   0.685  1.00  0.00     0.065 A 
HETATM   20  C20 UNL     1      -1.556  -4.338   1.492  1.00  0.00     0.037 A 
HETATM   21  C21 UNL     1      -1.201  -3.014   1.629  1.00  0.00     0.011 A 
BRANCH  19  22
HETATM   22  O3  UNL     1      -2.999  -6.000   0.523  1.00  0.00    -0.361 OA
HETATM   23  H17 UNL     1      -3.891  -6.232   0.106  1.00  0.00     0.217 HD
ENDBRANCH  19  22
ENDBRANCH  15  16
ENDBRANCH   4  15
BRANCH   3  24
HETATM   24  C2  UNL     1       3.369   0.128  -0.152  1.00  0.00     0.036 A 
HETATM   25  C3  UNL     1       4.058  -0.348   0.932  1.00  0.00     0.029 A 
HETATM   26  C4  UNL     1       5.425  -0.381   1.061  1.00  0.00     0.002 A 
HETATM   27  C5  UNL     1       6.188   0.102   0.021  1.00  0.00     0.000 A 
HETATM   28  C6  UNL     1       5.549   0.592  -1.090  1.00  0.00     0.002 A 
HETATM   29  C7  UNL     1       4.174   0.599  -1.164  1.00  0.00     0.029 A 
ENDBRANCH   3  24
TORSDOF 7
