REMARK  9 active torsions:
REMARK  status: ('A' for Active; 'I' for Inactive)
REMARK    1  A    between atoms: C2_2  and  C3_3 
REMARK    2  A    between atoms: C4_4  and  C5_5 
REMARK    3  A    between atoms: C4_4  and  N1_9 
REMARK    4  A    between atoms: N1_9  and  C8_10 
REMARK    5  A    between atoms: N1_9  and  C15_18 
REMARK    6  A    between atoms: C8_10  and  C9_11 
REMARK    7  A    between atoms: C12_14  and  O2_15 
REMARK    8  A    between atoms: C15_18  and  N2_19 
REMARK    9  A    between atoms: C15_18  and  C16_20 
ROOT
HETATM    1  N1  UNL     1       0.165  -0.650  -0.004  1.00  0.00    -0.341 N 
ENDROOT
BRANCH   1   2
HETATM    2  C4  UNL     1      -1.053  -1.343   0.249  1.00  0.00     0.069 C 
HETATM    3  C3  UNL     1      -1.590  -2.019  -0.751  1.00  0.00     0.028 C 
BRANCH   3   4
HETATM    4  C2  UNL     1      -2.822  -2.790  -0.705  1.00  0.00    -0.024 C 
HETATM    5  C1  UNL     1      -3.443  -3.488  -1.611  1.00  0.00     0.031 C 
ENDBRANCH   3   4
BRANCH   2   6
HETATM    6  C5  UNL     1      -1.661  -1.289   1.573  1.00  0.00     0.131 A 
HETATM    7  C6  UNL     1      -2.699  -1.707   2.308  1.00  0.00     0.086 A 
HETATM    8  C7  UNL     1      -3.959  -2.439   2.524  1.00  0.00     0.079 C 
HETATM    9  O1  UNL     1      -1.693  -0.886   2.842  1.00  0.00    -0.308 OA
ENDBRANCH   2   6
ENDBRANCH   1   2
BRANCH   1  10
HETATM   10  C8  UNL     1       1.165  -1.143   0.959  1.00  0.00     0.164 C 
BRANCH  10  11
HETATM   11  C9  UNL     1       2.471  -0.435   0.731  1.00  0.00    -0.040 A 
HETATM   12  C10 UNL     1       3.457  -0.876  -0.121  1.00  0.00     0.011 A 
HETATM   13  C11 UNL     1       4.605  -0.117  -0.227  1.00  0.00     0.037 A 
HETATM   14  C12 UNL     1       4.804   1.042   0.469  1.00  0.00     0.065 A 
HETATM   15  C13 UNL     1       3.831   1.505   1.330  1.00  0.00     0.037 A 
HETATM   16  C14 UNL     1       2.676   0.737   1.434  1.00  0.00     0.011 A 
BRANCH  14  17
HETATM   17  O2  UNL     1       5.955   1.813   0.371  1.00  0.00    -0.361 OA
HETATM   18  H12 UNL     1       6.783   1.357   0.006  1.00  0.00     0.217 HD
ENDBRANCH  14  17
ENDBRANCH  10  11
ENDBRANCH   1  10
BRANCH   1  19
HETATM   19  C15 UNL     1       0.431   0.348  -0.994  1.00  0.00     0.353 C 
BRANCH  19  20
HETATM   20  N2  UNL     1       0.228  -0.092  -2.362  1.00  0.00     0.106 N 
HETATM   21  H16 UNL     1       0.844   0.494  -2.971  1.00  0.00     0.316 HD
HETATM   22  H17 UNL     1      -0.737   0.092  -2.704  1.00  0.00     0.316 HD
ENDBRANCH  19  20
BRANCH  19  23
HETATM   23  C16 UNL     1      -0.237   1.640  -0.844  1.00  0.00    -0.006 A 
HETATM   24  C17 UNL     1      -1.579   1.682  -0.528  1.00  0.00     0.011 A 
HETATM   25  C18 UNL     1      -2.292   2.850  -0.367  1.00  0.00     0.001 A 
HETATM   26  C19 UNL     1      -1.632   4.072  -0.528  1.00  0.00     0.000 A 
HETATM   27  C20 UNL     1      -0.285   4.051  -0.845  1.00  0.00     0.001 A 
HETATM   28  C21 UNL     1       0.389   2.867  -0.998  1.00  0.00     0.011 A 
ENDBRANCH  19  23
ENDBRANCH   1  19
TORSDOF 9
