REMARK  8 active torsions:
REMARK  status: ('A' for Active; 'I' for Inactive)
REMARK    1  A    between atoms: N1_7  and  C6_8 
REMARK    2  A    between atoms: C6_8  and  N2_9 
REMARK    3  A    between atoms: N2_9  and  C7_10 
REMARK    4  A    between atoms: N2_9  and  C14_18 
REMARK    5  A    between atoms: C7_10  and  C8_11 
REMARK    6  A    between atoms: C11_14  and  O2_15 
REMARK    7  A    between atoms: C14_18  and  C15_19 
REMARK    8  A    between atoms: C20_25  and  O3_26 
ROOT
HETATM    1  N2  UNL     1      -0.268   0.304   0.463  1.00  0.00    -0.388 N 
ENDROOT
BRANCH   1   2
HETATM    2  C6  UNL     1      -1.466   1.057   0.665  1.00  0.00     0.252 C 
BRANCH   2   3
HETATM    3  N1  UNL     1      -1.190   2.488   0.447  1.00  0.00    -0.308 N 
HETATM    4  C1  UNL     1      -0.768   3.333   1.406  1.00  0.00     0.248 A 
HETATM    5  O1  UNL     1      -0.594   2.841   2.558  1.00  0.00    -0.268 OA
HETATM    6  C2  UNL     1      -0.529   4.658   1.192  1.00  0.00     0.074 A 
HETATM    7  C3  UNL     1      -0.728   5.169  -0.075  1.00  0.00     0.007 A 
HETATM    8  C4  UNL     1      -1.164   4.354  -1.120  1.00  0.00     0.018 A 
HETATM    9  C5  UNL     1      -1.374   3.033  -0.789  1.00  0.00     0.096 A 
ENDBRANCH   2   3
ENDBRANCH   1   2
BRANCH   1  10
HETATM   10  C7  UNL     1       0.437   0.606  -0.718  1.00  0.00     0.157 C 
BRANCH  10  11
HETATM   11  C8  UNL     1       1.705  -0.068  -0.978  1.00  0.00    -0.041 A 
HETATM   12  C9  UNL     1       2.042  -1.174  -1.735  1.00  0.00     0.011 A 
HETATM   13  C10 UNL     1       3.318  -1.661  -1.834  1.00  0.00     0.037 A 
HETATM   14  C11 UNL     1       4.381  -1.080  -1.178  1.00  0.00     0.065 A 
HETATM   15  C12 UNL     1       4.092   0.025  -0.412  1.00  0.00     0.037 A 
HETATM   16  C13 UNL     1       2.817   0.494  -0.327  1.00  0.00     0.011 A 
BRANCH  14  17
HETATM   17  O2  UNL     1       5.649  -1.578  -1.286  1.00  0.00    -0.361 OA
HETATM   18  H11 UNL     1       5.793  -2.557  -1.568  1.00  0.00     0.217 HD
ENDBRANCH  14  17
ENDBRANCH  10  11
ENDBRANCH   1  10
BRANCH   1  19
HETATM   19  C14 UNL     1      -0.208  -0.990   1.011  1.00  0.00     0.160 C 
BRANCH  19  20
HETATM   20  C15 UNL     1      -1.122  -2.028   0.543  1.00  0.00    -0.006 A 
HETATM   21  C16 UNL     1      -0.711  -3.039  -0.299  1.00  0.00     0.012 A 
HETATM   22  C17 UNL     1      -1.470  -4.087  -0.812  1.00  0.00     0.002 A 
HETATM   23  C18 UNL     1      -2.797  -4.148  -0.452  1.00  0.00     0.022 A 
HETATM   24  C19 UNL     1      -3.281  -3.173   0.388  1.00  0.00     0.044 A 
HETATM   25 BR1  UNL     1      -5.131  -3.290   0.868  1.00  0.00    -0.048 Br
HETATM   26  C20 UNL     1      -2.459  -2.160   0.857  1.00  0.00     0.090 A 
BRANCH  26  27
HETATM   27  O3  UNL     1      -3.101  -1.275   1.685  1.00  0.00    -0.359 OA
HETATM   28  H19 UNL     1      -2.835  -1.068   2.642  1.00  0.00     0.217 HD
ENDBRANCH  26  27
ENDBRANCH  19  20
ENDBRANCH   1  19
TORSDOF 8
