REMARK  6 active torsions:
REMARK  status: ('A' for Active; 'I' for Inactive)
REMARK    1  A    between atoms: O1_2  and  C2_3 
REMARK    2  A    between atoms: C5_6  and  N1_7 
REMARK    3  A    between atoms: N1_7  and  C6_8 
REMARK       I    between atoms: N1_7  and  C13_17 
REMARK    4  A    between atoms: C6_8  and  C7_9 
REMARK    5  A    between atoms: C12_15  and  O2_16 
REMARK       I    between atoms: C13_17  and  N2_19 
REMARK    6  A    between atoms: N2_19  and  C14_20 
ROOT
HETATM    1  N1  UNL     1      -0.162   0.072  -0.775  1.00  0.00    -0.295 N 
HETATM    2  C13 UNL     1      -0.947  -0.972  -0.235  1.00  0.00     0.327 C 
HETATM    3  O3  UNL     1      -0.173  -1.687   0.464  1.00  0.00    -0.246 OA
HETATM    4  N2  UNL     1      -2.334  -1.213  -0.412  1.00  0.00    -0.312 N 
HETATM    5  H12 UNL     1      -2.827  -0.528  -1.021  1.00  0.00     0.170 HD
ENDROOT
BRANCH   1   6
HETATM    6  C5  UNL     1       1.184  -0.150  -0.298  1.00  0.00     0.039 A 
HETATM    7  C4  UNL     1       2.011  -0.933  -1.077  1.00  0.00     0.032 A 
HETATM    8  C3  UNL     1       3.302  -1.161  -0.652  1.00  0.00     0.039 A 
HETATM    9  C2  UNL     1       3.677  -0.570   0.554  1.00  0.00     0.068 A 
HETATM   10  C20 UNL     1       2.856   0.209   1.329  1.00  0.00     0.039 A 
HETATM   11  C19 UNL     1       1.564   0.434   0.899  1.00  0.00     0.032 A 
BRANCH   9  12
HETATM   12  O1  UNL     1       4.974  -0.746   1.067  1.00  0.00    -0.356 OA
HETATM   13  C1  UNL     1       5.870  -1.535   0.319  1.00  0.00     0.210 C 
ENDBRANCH   9  12
ENDBRANCH   1   6
BRANCH   1  14
HETATM   14  C6  UNL     1      -0.194   1.247  -1.596  1.00  0.00     0.175 C 
BRANCH  14  15
HETATM   15  C7  UNL     1      -0.452   2.508  -0.865  1.00  0.00    -0.005 A 
HETATM   16  C8  UNL     1       0.659   3.332  -0.631  1.00  0.00     0.012 A 
HETATM   17  C9  UNL     1       0.612   4.547   0.041  1.00  0.00     0.002 A 
HETATM   18  C10 UNL     1      -0.613   4.973   0.511  1.00  0.00     0.022 A 
HETATM   19  C11 UNL     1      -1.702   4.187   0.293  1.00  0.00     0.044 A 
HETATM   20 BR1  UNL     1      -3.389   4.794   0.951  1.00  0.00    -0.048 Br
HETATM   21  C12 UNL     1      -1.642   3.000  -0.366  1.00  0.00     0.090 A 
BRANCH  21  22
HETATM   22  O2  UNL     1      -2.740   2.177  -0.603  1.00  0.00    -0.359 OA
HETATM   23  H11 UNL     1      -3.336   2.410  -1.386  1.00  0.00     0.217 HD
ENDBRANCH  21  22
ENDBRANCH  14  15
ENDBRANCH   1  14
BRANCH   4  24
HETATM   24  C14 UNL     1      -3.034  -2.293   0.176  1.00  0.00     0.017 A 
HETATM   25  C15 UNL     1      -4.060  -2.119   1.011  1.00  0.00     0.025 A 
HETATM   26  C16 UNL     1      -4.522  -3.446   1.409  1.00  0.00    -0.002 A 
HETATM   27  C17 UNL     1      -3.774  -4.381   0.814  1.00  0.00    -0.021 A 
HETATM   28  C18 UNL     1      -2.753  -3.737  -0.030  1.00  0.00     0.084 A 
ENDBRANCH   4  24
TORSDOF 6
