REMARK  8 active torsions:
REMARK  status: ('A' for Active; 'I' for Inactive)
REMARK       I    between atoms: C1_2  and  N1_3 
REMARK       I    between atoms: C1_2  and  N2_11 
REMARK    1  A    between atoms: N1_3  and  C2_4 
REMARK    2  A    between atoms: C2_4  and  C3_5 
REMARK    3  A    between atoms: N2_11  and  C8_12 
REMARK    4  A    between atoms: N2_11  and  C12_17 
REMARK    5  A    between atoms: C8_12  and  C9_13 
REMARK    6  A    between atoms: C9_13  and  C10_14 
REMARK    7  A    between atoms: C12_17  and  C13_18 
REMARK    8  A    between atoms: C18_24  and  O2_25 
ROOT
HETATM    1  C10 UNL     1      -2.623   1.935   0.804  1.00  0.00    -0.018 C 
HETATM    2  C11 UNL     1      -3.210   2.807   1.651  1.00  0.00     0.160 C 
HETATM    3 BR1  UNL     1      -3.925   3.897   3.050  1.00  0.00    -0.172 Br
ENDROOT
BRANCH   1   4
HETATM    4  C9  UNL     1      -2.826   2.097  -0.670  1.00  0.00     0.047 C 
BRANCH   4   5
HETATM    5  C8  UNL     1      -1.553   2.309  -1.418  1.00  0.00     0.132 C 
BRANCH   5   6
HETATM    6  N2  UNL     1      -0.578   1.259  -1.323  1.00  0.00    -0.329 N 
HETATM    7  C1  UNL     1       0.242   1.508  -0.164  1.00  0.00     0.322 C 
HETATM    8  O1  UNL     1       0.017   2.527   0.575  1.00  0.00    -0.247 OA
HETATM    9  N1  UNL     1       1.334   0.728   0.298  1.00  0.00    -0.318 N 
HETATM   10  H1  UNL     1       1.554  -0.103  -0.286  1.00  0.00     0.170 HD
BRANCH   9  11
HETATM   11  C2  UNL     1       2.111   0.991   1.426  1.00  0.00     0.102 C 
BRANCH  11  12
HETATM   12  C3  UNL     1       3.116   0.224   1.805  1.00  0.00    -0.036 A 
HETATM   13  C4  UNL     1       3.819   0.658   3.018  1.00  0.00    -0.075 A 
HETATM   14  B1  UNL     1       5.203  -0.292   3.640  1.00  0.00     0.174 B 
HETATM   15  C5  UNL     1       5.547  -1.721   2.626  1.00  0.00    -0.026 A 
HETATM   16  C6  UNL     1       4.560  -1.732   1.510  1.00  0.00    -0.036 A 
HETATM   17  C7  UNL     1       3.555  -0.966   1.132  1.00  0.00     0.006 A 
ENDBRANCH  11  12
ENDBRANCH   9  11
BRANCH   6  18
HETATM   18  C12 UNL     1      -0.264   0.088  -2.111  1.00  0.00     0.169 C 
BRANCH  18  19
HETATM   19  C13 UNL     1      -0.991  -1.115  -1.717  1.00  0.00    -0.006 A 
HETATM   20  C14 UNL     1      -0.598  -2.150  -0.925  1.00  0.00     0.012 A 
HETATM   21  C15 UNL     1      -1.352  -3.247  -0.586  1.00  0.00     0.002 A 
HETATM   22  C16 UNL     1      -2.635  -3.357  -1.069  1.00  0.00     0.022 A 
HETATM   23  C17 UNL     1      -3.105  -2.326  -1.892  1.00  0.00     0.044 A 
HETATM   24 BR2  UNL     1      -4.891  -2.580  -2.506  1.00  0.00    -0.048 Br
HETATM   25  C18 UNL     1      -2.295  -1.246  -2.198  1.00  0.00     0.090 A 
BRANCH  25  26
HETATM   26  O2  UNL     1      -2.962  -0.356  -3.026  1.00  0.00    -0.359 OA
HETATM   27  H19 UNL     1      -3.025  -0.437  -4.014  1.00  0.00     0.217 HD
ENDBRANCH  25  26
ENDBRANCH  18  19
ENDBRANCH   6  18
ENDBRANCH   5   6
ENDBRANCH   4   5
ENDBRANCH   1   4
TORSDOF 8
