REMARK  4 active torsions:
REMARK  status: ('A' for Active; 'I' for Inactive)
REMARK    1  A    between atoms: O1_1  and  C1_2 
REMARK    2  A    between atoms: C8_9  and  O2_10 
REMARK    3  A    between atoms: C13_15  and  N1_16 
REMARK    4  A    between atoms: C18_21  and  O3_22 
ROOT
HETATM    1  C1  UNL     1      -2.735  -3.279  -0.131  1.00  0.00     0.063 C 
HETATM    2  C2  UNL     1      -3.422  -2.149   0.139  1.00  0.00     0.033 C 
HETATM    3  C3  UNL     1      -3.674  -0.688   0.096  1.00  0.00    -0.001 C 
HETATM    4  C4  UNL     1      -3.047   0.354  -0.442  1.00  0.00    -0.022 C 
HETATM    5  C5  UNL     1      -2.065   1.188  -1.175  1.00  0.00     0.066 C 
HETATM    6  C6  UNL     1      -1.449   2.189  -0.306  1.00  0.00    -0.046 A 
HETATM    7  C7  UNL     1      -2.400   3.155   0.019  1.00  0.00     0.044 A 
HETATM    8  C8  UNL     1      -2.205   4.266   0.814  1.00  0.00     0.066 A 
HETATM    9  C9  UNL     1      -0.950   4.465   1.353  1.00  0.00     0.037 A 
HETATM   10  C10 UNL     1       0.009   3.499   1.030  1.00  0.00     0.010 A 
HETATM   11  C11 UNL     1      -0.189   2.367   0.222  1.00  0.00    -0.049 A 
HETATM   12  C12 UNL     1       1.126   1.694   0.192  1.00  0.00     0.080 C 
HETATM   13  C13 UNL     1       1.194   0.353  -0.419  1.00  0.00     0.270 C 
HETATM   14  C19 UNL     1       0.286  -0.637   0.207  1.00  0.00     0.119 C 
HETATM   15  N2  UNL     1      -0.459  -1.638   0.028  1.00  0.00    -0.302 NA
HETATM   16  C20 UNL     1      -0.742  -2.328  -1.171  1.00  0.00     0.175 C 
HETATM   17  C21 UNL     1      -1.472  -3.651  -0.852  1.00  0.00     0.158 C 
HETATM   18 CL1  UNL     1      -0.367  -4.595   0.168  1.00  0.00    -0.116 Cl
ENDROOT
BRANCH  13  19
HETATM   19  N1  UNL     1       2.576  -0.089  -0.372  1.00  0.00     0.130 N 
HETATM   20  C14 UNL     1       2.738  -1.367  -1.050  1.00  0.00     0.304 C 
HETATM   21  C15 UNL     1       4.197  -1.465  -1.389  1.00  0.00    -0.001 C 
HETATM   22  C16 UNL     1       4.895  -1.267  -0.276  1.00  0.00    -0.025 C 
HETATM   23  C17 UNL     1       4.356  -0.995   1.083  1.00  0.00     0.091 C 
HETATM   24  C18 UNL     1       3.144  -0.117   0.955  1.00  0.00     0.361 C 
BRANCH  24  25
HETATM   25  O3  UNL     1       2.208  -0.509   1.915  1.00  0.00    -0.367 OA
HETATM   26  H21 UNL     1       2.390  -0.110   2.794  1.00  0.00     0.212 HD
ENDBRANCH  24  25
ENDBRANCH  13  19
BRANCH   8  27
HETATM   27  O2  UNL     1      -3.192   5.210   1.113  1.00  0.00    -0.361 OA
HETATM   28  H8  UNL     1      -3.339   6.056   0.607  1.00  0.00     0.217 HD
ENDBRANCH   8  27
BRANCH   1  29
HETATM   29  O1  UNL     1      -3.090  -4.585   0.261  1.00  0.00    -0.363 OA
HETATM   30  H1  UNL     1      -4.041  -4.916   0.249  1.00  0.00     0.217 HD
ENDBRANCH   1  29
TORSDOF 4
