REMARK  1 active torsions:
REMARK  status: ('A' for Active; 'I' for Inactive)
REMARK    1  A    between atoms: C6_7  and  O1_8 
ROOT
HETATM    1  C1  UNL     1       2.593  -1.283   0.828  1.00  0.00     0.044 C 
HETATM    2  C2  UNL     1       1.294  -0.946   0.559  1.00  0.00    -0.047 C 
HETATM    3  C3  UNL     1       0.421  -2.077   0.571  1.00  0.00     0.005 C 
HETATM    4  C4  UNL     1      -0.559  -2.989   0.519  1.00  0.00    -0.007 C 
HETATM    5  C5  UNL     1      -1.909  -2.540   0.117  1.00  0.00     0.154 C 
HETATM    6  N1  UNL     1      -1.772  -1.125  -0.239  1.00  0.00    -0.337 N 
HETATM    7  C6  UNL     1      -1.027  -0.675  -1.391  1.00  0.00     0.157 C 
HETATM    8  C7  UNL     1       0.197  -0.460  -1.931  1.00  0.00     0.062 C 
HETATM    9 BR1  UNL     1       0.306   0.244  -3.744  1.00  0.00    -0.046 Br
HETATM   10  C8  UNL     1       1.647  -0.496  -1.866  1.00  0.00     0.036 C 
HETATM   11  C9  UNL     1       2.344   0.572  -1.482  1.00  0.00    -0.017 C 
HETATM   12  C10 UNL     1       2.166   0.811  -0.185  1.00  0.00    -0.039 C 
HETATM   13  C11 UNL     1       3.154   1.373   0.742  1.00  0.00     0.050 C 
HETATM   14  C12 UNL     1       0.795   0.429   0.250  1.00  0.00    -0.014 C 
HETATM   15  C13 UNL     1       0.232   1.633  -0.032  1.00  0.00    -0.017 A 
HETATM   16  C14 UNL     1       0.455   3.126  -0.301  1.00  0.00     0.071 A 
HETATM   17  C15 UNL     1      -0.990   3.071  -0.346  1.00  0.00     0.008 A 
HETATM   18  C16 UNL     1      -1.213   1.764  -0.112  1.00  0.00     0.033 A 
HETATM   19  N2  UNL     1      -2.469   1.144  -0.041  1.00  0.00    -0.369 N 
HETATM   20  C17 UNL     1      -2.449  -0.134   0.591  1.00  0.00     0.182 C 
HETATM   21  C18 UNL     1      -1.980  -0.075   1.992  1.00  0.00     0.056 C 
HETATM   22  H15 UNL     1      -3.410   1.440  -0.370  1.00  0.00     0.161 HD
ENDROOT
BRANCH   7  23
HETATM   23  O1  UNL     1      -2.112  -0.372  -2.195  1.00  0.00    -0.345 OA
HETATM   24  H7  UNL     1      -2.247  -0.805  -3.111  1.00  0.00     0.219 HD
ENDBRANCH   7  23
TORSDOF 1
