REMARK  7 active torsions:
REMARK  status: ('A' for Active; 'I' for Inactive)
REMARK    1  A    between atoms: O1_2  and  C2_3 
REMARK    2  A    between atoms: C2_3  and  C3_4 
REMARK    3  A    between atoms: C3_4  and  C4_5 
REMARK    4  A    between atoms: C6_9  and  N3_10 
REMARK    5  A    between atoms: N3_10  and  C7_11 
REMARK    6  A    between atoms: C13_18  and  N4_19 
REMARK    7  A    between atoms: C15_21  and  O2_22 
ROOT
HETATM    1  C4  UNL     1      -0.773  -0.892  -0.616  1.00  0.00     0.109 A 
HETATM    2  N1  UNL     1      -0.514  -2.257  -0.743  1.00  0.00    -0.343 N 
HETATM    3  C5  UNL     1       0.898  -2.550  -0.921  1.00  0.00     0.210 A 
HETATM    4  N2  UNL     1       1.792  -1.591  -0.952  1.00  0.00    -0.224 NA
HETATM    5  C6  UNL     1       1.428  -0.202  -0.811  1.00  0.00     0.159 A 
HETATM    6  C13 UNL     1       0.146   0.199  -0.640  1.00  0.00     0.109 A 
HETATM    7  H4  UNL     1      -1.224  -3.020  -0.719  1.00  0.00     0.167 HD
ENDROOT
BRANCH   5   8
HETATM    8  N3  UNL     1       2.468   0.797  -0.855  1.00  0.00    -0.339 N 
HETATM    9  H6  UNL     1       2.255   1.737  -1.257  1.00  0.00     0.167 HD
BRANCH   8  10
HETATM   10  C7  UNL     1       3.741   0.428  -0.338  1.00  0.00     0.035 A 
HETATM   11  C8  UNL     1       4.542  -0.125  -1.344  1.00  0.00     0.029 A 
HETATM   12  C9  UNL     1       5.828  -0.561  -1.086  1.00  0.00     0.004 A 
HETATM   13  C10 UNL     1       6.337  -0.446   0.204  1.00  0.00     0.019 A 
HETATM   14  C11 UNL     1       5.538   0.100   1.182  1.00  0.00     0.013 A 
HETATM   15 BR1  UNL     1       6.168   0.289   2.970  1.00  0.00    -0.051 Br
HETATM   16  C12 UNL     1       4.253   0.539   0.940  1.00  0.00     0.048 A 
ENDBRANCH   8  10
ENDBRANCH   5   8
BRANCH   6  17
HETATM   17  N4  UNL     1      -0.175   1.571  -0.505  1.00  0.00    -0.389 N 
HETATM   18  C14 UNL     1      -0.042   2.252   0.779  1.00  0.00     0.146 C 
HETATM   19  H11 UNL     1      -0.512   2.080  -1.355  1.00  0.00     0.159 HD
ENDBRANCH   6  17
BRANCH   1  20
HETATM   20  C3  UNL     1      -2.028  -0.582  -0.454  1.00  0.00    -0.080 C 
BRANCH  20  21
HETATM   21  C2  UNL     1      -3.226  -0.277   0.023  1.00  0.00     0.183 C 
HETATM   22  C15 UNL     1      -3.473  -0.268   1.447  1.00  0.00     0.222 C 
BRANCH  21  23
HETATM   23  O1  UNL     1      -3.990  -0.028  -1.062  1.00  0.00    -0.366 OA
HETATM   24  C1  UNL     1      -4.841  -1.055  -1.545  1.00  0.00     0.204 C 
ENDBRANCH  21  23
BRANCH  22  25
HETATM   25  O2  UNL     1      -3.884   0.956   1.978  1.00  0.00    -0.392 OA
HETATM   26  C16 UNL     1      -5.073   1.403   1.406  1.00  0.00     0.201 C 
ENDBRANCH  22  25
ENDBRANCH  20  21
ENDBRANCH   1  20
TORSDOF 7
