REMARK  3 active torsions:
REMARK  status: ('A' for Active; 'I' for Inactive)
REMARK    1  A    between atoms: C12_15  and  O2_16 
REMARK    2  A    between atoms: N2_18  and  C14_19 
REMARK    3  A    between atoms: C15_20  and  O3_21 
ROOT
HETATM    1  C1  UNL     1      -0.562  -1.938   1.960  1.00  0.00     0.064 C 
HETATM    2  C2  UNL     1      -0.555  -1.336   0.780  1.00  0.00     0.099 C 
HETATM    3  N1  UNL     1      -1.112  -2.083  -0.291  1.00  0.00    -0.369 N 
HETATM    4  C3  UNL     1      -2.156  -2.697  -1.063  1.00  0.00     0.101 C 
HETATM    5  C4  UNL     1      -1.588  -3.411  -2.295  1.00  0.00     0.036 C 
HETATM    6  C5  UNL     1      -3.267  -1.838  -1.460  1.00  0.00    -0.004 C 
HETATM    7  C6  UNL     1      -3.842  -0.615  -1.468  1.00  0.00    -0.003 C 
HETATM    8  C7  UNL     1      -3.579   0.763  -0.970  1.00  0.00     0.203 C 
HETATM    9  O1  UNL     1      -2.364   0.729  -0.302  1.00  0.00    -0.344 OA
HETATM   10  C8  UNL     1      -1.690   1.730   0.328  1.00  0.00     0.116 A 
HETATM   11  C9  UNL     1      -1.990   3.060   0.515  1.00  0.00     0.046 A 
HETATM   12 BR1  UNL     1      -3.664   3.579  -0.257  1.00  0.00    -0.048 Br
HETATM   13  C10 UNL     1      -1.150   3.913   1.196  1.00  0.00     0.025 A 
HETATM   14  C11 UNL     1       0.042   3.469   1.726  1.00  0.00     0.040 A 
HETATM   15  C12 UNL     1       0.380   2.139   1.560  1.00  0.00     0.095 A 
HETATM   16  C13 UNL     1      -0.476   1.294   0.873  1.00  0.00     0.109 A 
HETATM   17  N2  UNL     1       0.015  -0.037   0.790  1.00  0.00    -0.294 N 
HETATM   18  H3  UNL     1      -0.124  -2.217  -0.671  1.00  0.00     0.161 HD
ENDROOT
BRANCH  17  19
HETATM   19  C14 UNL     1       1.409  -0.304   0.686  1.00  0.00     0.052 C 
HETATM   20  C15 UNL     1       1.898   0.275  -0.398  1.00  0.00     0.074 C 
HETATM   21  C16 UNL     1       3.307   0.241  -0.870  1.00  0.00     0.062 C 
HETATM   22  C17 UNL     1       3.681   1.656  -1.254  1.00  0.00     0.021 C 
HETATM   23  C18 UNL     1       4.140  -0.317   0.210  1.00  0.00    -0.019 C 
HETATM   24  C19 UNL     1       3.643  -0.902   1.297  1.00  0.00    -0.024 C 
HETATM   25  C20 UNL     1       2.209  -1.114   1.649  1.00  0.00     0.087 C 
BRANCH  20  26
HETATM   26  O3  UNL     1       0.886   0.959  -1.085  1.00  0.00    -0.362 OA
HETATM   27  H15 UNL     1       1.008   1.357  -1.993  1.00  0.00     0.217 HD
ENDBRANCH  20  26
ENDBRANCH  17  19
BRANCH  15  28
HETATM   28  O2  UNL     1       1.578   1.755   2.109  1.00  0.00    -0.358 OA
HETATM   29  H14 UNL     1       1.624   1.559   3.111  1.00  0.00     0.217 HD
ENDBRANCH  15  28
TORSDOF 3
