REMARK  4 active torsions:
REMARK  status: ('A' for Active; 'I' for Inactive)
REMARK    1  A    between atoms: C4_4  and  O1_5 
REMARK    2  A    between atoms: C7_8  and  N1_9 
REMARK    3  A    between atoms: N1_9  and  C8_10 
REMARK    4  A    between atoms: N1_9  and  C13_16 
ROOT
HETATM    1  N1  UNL     1      -0.048   0.381   0.546  1.00  0.00    -0.344 N 
ENDROOT
BRANCH   1   2
HETATM    2  C7  UNL     1       1.219  -0.098   0.110  1.00  0.00     0.039 A 
HETATM    3  C2  UNL     1       1.991   0.227  -0.964  1.00  0.00    -0.033 A 
HETATM    4  C1  UNL     1       1.436   1.230  -1.880  1.00  0.00     0.050 C 
HETATM    5  C3  UNL     1       3.215  -0.359  -1.181  1.00  0.00     0.045 A 
HETATM    6  C4  UNL     1       3.743  -1.298  -0.348  1.00  0.00     0.066 A 
HETATM    7  C5  UNL     1       2.993  -1.655   0.750  1.00  0.00     0.039 A 
HETATM    8  C6  UNL     1       1.765  -1.066   0.965  1.00  0.00     0.033 A 
BRANCH   6   9
HETATM    9  O1  UNL     1       4.989  -1.821  -0.668  1.00  0.00    -0.361 OA
HETATM   10  H5  UNL     1       5.458  -2.503  -0.083  1.00  0.00     0.217 HD
ENDBRANCH   6   9
ENDBRANCH   1   2
BRANCH   1  11
HETATM   11  C8  UNL     1      -0.249   1.718   1.042  1.00  0.00     0.134 A 
HETATM   12  C9  UNL     1       0.981   2.543   0.993  1.00  0.00     0.004 A 
HETATM   13  C10 UNL     1       0.728   3.698   0.364  1.00  0.00     0.017 A 
HETATM   14  C11 UNL     1      -0.695   3.691  -0.038  1.00  0.00     0.009 A 
HETATM   15 BR1  UNL     1      -1.174   5.316  -0.959  1.00  0.00    -0.051 Br
HETATM   16  C12 UNL     1      -1.246   2.532   0.366  1.00  0.00     0.021 A 
ENDBRANCH   1  11
BRANCH   1  17
HETATM   17  C13 UNL     1      -1.163  -0.539   0.482  1.00  0.00     0.208 C 
HETATM   18  C14 UNL     1      -2.229  -0.075  -0.456  1.00  0.00     0.015 C 
HETATM   19  C15 UNL     1      -3.459  -0.580  -0.386  1.00  0.00    -0.023 C 
HETATM   20  C16 UNL     1      -3.892  -1.631   0.605  1.00  0.00     0.055 C 
HETATM   21  C17 UNL     1      -3.117  -2.899   0.359  1.00  0.00    -0.006 C 
HETATM   22  C18 UNL     1      -1.791  -2.894   0.148  1.00  0.00     0.081 C 
HETATM   23  N2  UNL     1      -0.775  -1.883   0.084  1.00  0.00    -0.375 N 
HETATM   24  H19 UNL     1       0.106  -2.347  -0.264  1.00  0.00     0.161 HD
ENDBRANCH   1  17
TORSDOF 4
