REMARK  6 active torsions:
REMARK  status: ('A' for Active; 'I' for Inactive)
REMARK       I    between atoms: C1_2  and  N1_3 
REMARK       I    between atoms: C1_2  and  N2_10 
REMARK    1  A    between atoms: N1_3  and  C2_4 
REMARK    2  A    between atoms: N2_10  and  C8_11 
REMARK    3  A    between atoms: N2_10  and  C15_18 
REMARK    4  A    between atoms: C8_11  and  C9_12 
REMARK    5  A    between atoms: C18_22  and  O2_23 
REMARK    6  A    between atoms: C19_24  and  O3_25 
ROOT
HETATM    1  O1  UNL     1       2.008  -0.955   0.901  1.00  0.00    -0.246 OA
HETATM    2  C1  UNL     1       1.058  -0.506   0.170  1.00  0.00     0.327 C 
HETATM    3  N1  UNL     1       1.999   0.501  -0.274  1.00  0.00    -0.309 N 
HETATM    4  N2  UNL     1      -0.229  -0.395  -0.423  1.00  0.00    -0.297 N 
HETATM    5  H1  UNL     1       1.954   1.308  -0.964  1.00  0.00     0.170 HD
ENDROOT
BRANCH   4   6
HETATM    6  C8  UNL     1      -0.603   0.661  -1.320  1.00  0.00     0.172 C 
BRANCH   6   7
HETATM    7  C9  UNL     1      -1.220   1.843  -0.696  1.00  0.00    -0.040 A 
HETATM    8  C10 UNL     1      -2.578   2.067  -0.543  1.00  0.00     0.009 A 
HETATM    9  C11 UNL     1      -3.173   3.149   0.038  1.00  0.00     0.001 A 
HETATM   10  C12 UNL     1      -2.399   4.154   0.543  1.00  0.00     0.000 A 
HETATM   11  C13 UNL     1      -1.027   4.023   0.438  1.00  0.00     0.001 A 
HETATM   12  C14 UNL     1      -0.492   2.903  -0.162  1.00  0.00     0.009 A 
ENDBRANCH   6   7
ENDBRANCH   4   6
BRANCH   4  13
HETATM   13  C15 UNL     1      -1.291  -1.344  -0.189  1.00  0.00     0.041 C 
HETATM   14  C16 UNL     1      -1.187  -2.388   0.656  1.00  0.00     0.041 C 
HETATM   15 CL1  UNL     1       0.230  -2.769   1.599  1.00  0.00    -0.086 Cl
HETATM   16  C17 UNL     1      -2.280  -3.362   0.901  1.00  0.00     0.120 C 
HETATM   17  C18 UNL     1      -2.719  -3.855  -0.448  1.00  0.00     0.077 C 
HETATM   18  C19 UNL     1      -2.869  -2.816  -1.249  1.00  0.00     0.078 C 
HETATM   19  C20 UNL     1      -2.617  -1.391  -0.801  1.00  0.00     0.125 C 
BRANCH  17  20
HETATM   20  O2  UNL     1      -2.942  -5.153  -0.833  1.00  0.00    -0.362 OA
HETATM   21  H16 UNL     1      -3.606  -5.724  -0.344  1.00  0.00     0.217 HD
ENDBRANCH  17  20
BRANCH  18  22
HETATM   22  O3  UNL     1      -3.277  -3.151  -2.539  1.00  0.00    -0.362 OA
HETATM   23  H17 UNL     1      -2.646  -3.732  -3.067  1.00  0.00     0.217 HD
ENDBRANCH  18  22
ENDBRANCH   4  13
BRANCH   3  24
HETATM   24  C2  UNL     1       3.326   0.518   0.237  1.00  0.00     0.036 A 
HETATM   25  C3  UNL     1       4.429  -0.145  -0.294  1.00  0.00     0.029 A 
HETATM   26  C4  UNL     1       5.644   0.001   0.359  1.00  0.00     0.002 A 
HETATM   27  C5  UNL     1       5.813   0.757   1.490  1.00  0.00     0.000 A 
HETATM   28  C6  UNL     1       4.711   1.427   2.031  1.00  0.00     0.002 A 
HETATM   29  C7  UNL     1       3.498   1.273   1.368  1.00  0.00     0.029 A 
ENDBRANCH   3  24
TORSDOF 6
