REMARK  7 active torsions:
REMARK  status: ('A' for Active; 'I' for Inactive)
REMARK    1  A    between atoms: C3_4  and  C4_5 
REMARK    2  A    between atoms: C4_5  and  N1_6 
REMARK       I    between atoms: N1_6  and  C5_7 
REMARK       I    between atoms: C5_7  and  N2_9 
REMARK    3  A    between atoms: N2_9  and  C6_10 
REMARK    4  A    between atoms: N2_9  and  C13_18 
REMARK    5  A    between atoms: C6_10  and  C7_11 
REMARK    6  A    between atoms: C13_18  and  C14_19 
REMARK    7  A    between atoms: C21_26  and  O2_27 
ROOT
HETATM    1  B1  UNL     1       3.405  -2.839  -4.511  1.00  0.00     0.195 B 
HETATM    2  C1  UNL     1       3.892  -2.848  -2.187  1.00  0.00    -0.236 C 
HETATM    3  C2  UNL     1       4.180  -2.829  -0.794  1.00  0.00     0.031 C 
HETATM    4  C3  UNL     1       4.103  -1.534  -0.609  1.00  0.00    -0.001 C 
ENDROOT
BRANCH   4   5
HETATM    5  C4  UNL     1       4.326  -0.937   0.724  1.00  0.00     0.152 C 
BRANCH   5   6
HETATM    6  N1  UNL     1       3.144  -0.194   1.189  1.00  0.00    -0.340 N 
HETATM    7  C5  UNL     1       1.903  -0.875   1.361  1.00  0.00     0.319 C 
HETATM    8  O1  UNL     1       2.280  -2.054   1.016  1.00  0.00    -0.247 OA
HETATM    9  N2  UNL     1       0.744  -0.166   1.808  1.00  0.00    -0.326 N 
HETATM   10  H5  UNL     1       3.295   0.829   1.380  1.00  0.00     0.164 HD
BRANCH   9  11
HETATM   11  C6  UNL     1       0.814   1.227   2.065  1.00  0.00     0.166 C 
BRANCH  11  12
HETATM   12  C7  UNL     1       0.477   2.212   1.088  1.00  0.00    -0.040 A 
HETATM   13  C8  UNL     1       1.289   2.747   0.102  1.00  0.00     0.012 A 
HETATM   14  C9  UNL     1       0.937   3.709  -0.818  1.00  0.00     0.043 A 
HETATM   15  C10 UNL     1      -0.330   4.222  -0.800  1.00  0.00     0.116 A 
HETATM   16  F1  UNL     1      -0.720   5.167  -1.683  1.00  0.00    -0.206 F 
HETATM   17  C11 UNL     1      -1.215   3.764   0.134  1.00  0.00     0.043 A 
HETATM   18  C12 UNL     1      -0.801   2.802   1.025  1.00  0.00     0.012 A 
ENDBRANCH  11  12
ENDBRANCH   9  11
BRANCH   9  19
HETATM   19  C13 UNL     1      -0.501  -0.896   1.995  1.00  0.00     0.169 C 
BRANCH  19  20
HETATM   20  C14 UNL     1      -1.401  -0.954   0.858  1.00  0.00    -0.006 A 
HETATM   21  C15 UNL     1      -2.555  -0.151   0.865  1.00  0.00     0.018 A 
HETATM   22  C16 UNL     1      -3.509  -0.076  -0.104  1.00  0.00    -0.061 A 
HETATM   23  C17 UNL     1      -4.699   0.794  -0.029  1.00  0.00     0.048 C 
HETATM   24  C18 UNL     1      -3.361  -0.857  -1.225  1.00  0.00     0.016 A 
HETATM   25  C19 UNL     1      -2.264  -1.681  -1.329  1.00  0.00    -0.028 A 
HETATM   26  C20 UNL     1      -2.076  -2.538  -2.528  1.00  0.00     0.051 C 
HETATM   27  C21 UNL     1      -1.358  -1.683  -0.296  1.00  0.00     0.079 A 
BRANCH  27  28
HETATM   28  O2  UNL     1      -0.277  -2.531  -0.455  1.00  0.00    -0.360 OA
HETATM   29  H22 UNL     1      -0.437  -3.497  -0.697  1.00  0.00     0.217 HD
ENDBRANCH  27  28
ENDBRANCH  19  20
ENDBRANCH   9  19
ENDBRANCH   5   6
ENDBRANCH   4   5
TORSDOF 7
