REMARK  7 active torsions:
REMARK  status: ('A' for Active; 'I' for Inactive)
REMARK    1  A    between atoms: C6_7  and  N2_8 
REMARK       I    between atoms: N2_8  and  C7_9 
REMARK       I    between atoms: C7_9  and  N3_11 
REMARK    2  A    between atoms: N3_11  and  C8_12 
REMARK    3  A    between atoms: N3_11  and  C15_20 
REMARK    4  A    between atoms: C8_12  and  C9_13 
REMARK    5  A    between atoms: C12_16  and  O2_17 
REMARK    6  A    between atoms: C15_20  and  C16_21 
REMARK    7  A    between atoms: C21_27  and  O3_28 
ROOT
HETATM    1  N2  UNL     1       1.768   0.318  -0.307  1.00  0.00    -0.307 N 
HETATM    2  C7  UNL     1       0.811  -0.492   0.351  1.00  0.00     0.323 C 
HETATM    3  O1  UNL     1       1.284  -1.317   1.198  1.00  0.00    -0.247 OA
HETATM    4  N3  UNL     1      -0.593  -0.432   0.121  1.00  0.00    -0.325 N 
HETATM    5  H7  UNL     1       1.278   0.963  -0.989  1.00  0.00     0.170 HD
ENDROOT
BRANCH   4   6
HETATM    6  C8  UNL     1      -1.324   0.415  -0.772  1.00  0.00     0.166 C 
BRANCH   6   7
HETATM    7  C9  UNL     1      -1.779   1.698  -0.181  1.00  0.00    -0.040 A 
HETATM    8  C10 UNL     1      -3.026   1.807   0.445  1.00  0.00     0.011 A 
HETATM    9  C11 UNL     1      -3.506   2.968   1.012  1.00  0.00     0.037 A 
HETATM   10  C12 UNL     1      -2.748   4.096   0.979  1.00  0.00     0.065 A 
HETATM   11  C13 UNL     1      -1.526   4.048   0.382  1.00  0.00     0.037 A 
HETATM   12  C14 UNL     1      -1.072   2.883  -0.174  1.00  0.00     0.011 A 
BRANCH  10  13
HETATM   13  O2  UNL     1      -3.165   5.293   1.527  1.00  0.00    -0.361 OA
HETATM   14  H12 UNL     1      -3.959   5.823   1.247  1.00  0.00     0.217 HD
ENDBRANCH  10  13
ENDBRANCH   6   7
ENDBRANCH   4   6
BRANCH   4  15
HETATM   15  C15 UNL     1      -1.441  -1.349   0.882  1.00  0.00     0.169 C 
BRANCH  15  16
HETATM   16  C16 UNL     1      -1.652  -2.636   0.197  1.00  0.00    -0.005 A 
HETATM   17  C17 UNL     1      -1.160  -3.040  -1.018  1.00  0.00     0.012 A 
HETATM   18  C18 UNL     1      -1.462  -4.288  -1.508  1.00  0.00     0.002 A 
HETATM   19  C19 UNL     1      -2.256  -5.180  -0.823  1.00  0.00     0.026 A 
HETATM   20  C20 UNL     1      -2.757  -4.768   0.413  1.00  0.00     0.067 A 
HETATM   21 CL1  UNL     1      -3.766  -5.927   1.263  1.00  0.00    -0.081 Cl
HETATM   22  C21 UNL     1      -2.456  -3.501   0.921  1.00  0.00     0.095 A 
BRANCH  22  23
HETATM   23  O3  UNL     1      -3.031  -3.250   2.158  1.00  0.00    -0.358 OA
HETATM   24  H20 UNL     1      -2.508  -2.975   2.976  1.00  0.00     0.217 HD
ENDBRANCH  22  23
ENDBRANCH  15  16
ENDBRANCH   4  15
BRANCH   1  25
HETATM   25  C6  UNL     1       3.152   0.401  -0.216  1.00  0.00     0.061 A 
HETATM   26  C2  UNL     1       3.869   1.357  -1.045  1.00  0.00    -0.016 A 
HETATM   27  C1  UNL     1       3.246   2.158  -1.888  1.00  0.00     0.026 C 
HETATM   28  C3  UNL     1       5.317   1.486  -0.990  1.00  0.00     0.030 A 
HETATM   29  C4  UNL     1       6.043   0.734  -0.179  1.00  0.00     0.088 A 
HETATM   30  N1  UNL     1       5.371  -0.210   0.643  1.00  0.00    -0.373 N 
HETATM   31  C5  UNL     1       3.956  -0.302   0.556  1.00  0.00     0.117 A 
HETATM   32  H5  UNL     1       5.941  -0.795   1.273  1.00  0.00     0.164 HD
ENDBRANCH   1  25
TORSDOF 7
