REMARK  4 active torsions:
REMARK  status: ('A' for Active; 'I' for Inactive)
REMARK    1  A    between atoms: N1_4  and  C4_5 
REMARK    2  A    between atoms: C4_5  and  C5_6 
REMARK    3  A    between atoms: C8_9  and  O1_10 
REMARK    4  A    between atoms: C18_23  and  O3_24 
ROOT
HETATM    1  C1  UNL     1      -1.845  -2.736   1.044  1.00  0.00     0.023 C 
HETATM    2  C2  UNL     1      -1.870  -1.437   0.828  1.00  0.00    -0.004 C 
HETATM    3  C3  UNL     1      -0.576  -0.738   1.155  1.00  0.00     0.321 C 
HETATM    4  N1  UNL     1       0.116  -0.357  -0.126  1.00  0.00     0.121 N 
HETATM    5  C11 UNL     1       0.204   0.515  -1.252  1.00  0.00     0.447 A 
HETATM    6  O2  UNL     1      -0.679   0.416  -0.427  1.00  0.00    -0.123 OA
HETATM    7  N2  UNL     1      -0.548   1.535  -1.918  1.00  0.00    -0.355 N 
HETATM    8  C12 UNL     1      -1.798   2.348  -1.980  1.00  0.00     0.147 C 
HETATM    9  C13 UNL     1      -2.945   1.419  -2.192  1.00  0.00     0.005 C 
HETATM   10  C14 UNL     1      -4.011   2.213  -2.062  1.00  0.00    -0.016 C 
HETATM   11  C15 UNL     1      -3.938   2.730  -0.847  1.00  0.00    -0.012 C 
HETATM   12  C16 UNL     1      -3.432   1.861  -0.026  1.00  0.00     0.040 C 
HETATM   13  C17 UNL     1      -3.702   0.427   0.060  1.00  0.00     0.068 C 
HETATM   14 CL1  UNL     1      -5.398   0.412  -0.375  1.00  0.00    -0.081 Cl
HETATM   15  C18 UNL     1      -3.117  -0.735   0.373  1.00  0.00     0.094 C 
HETATM   16  H12 UNL     1       0.332   1.484  -2.489  1.00  0.00     0.158 HD
ENDROOT
BRANCH   4  17
HETATM   17  C4  UNL     1       1.256  -1.243  -0.427  1.00  0.00     0.319 C 
BRANCH  17  18
HETATM   18  C5  UNL     1       2.531  -0.731   0.141  1.00  0.00    -0.029 A 
HETATM   19  C6  UNL     1       3.243   0.116  -0.717  1.00  0.00     0.012 A 
HETATM   20  C7  UNL     1       4.442   0.646  -0.284  1.00  0.00     0.037 A 
HETATM   21  C8  UNL     1       4.947   0.360   0.967  1.00  0.00     0.065 A 
HETATM   22  C9  UNL     1       4.240  -0.480   1.816  1.00  0.00     0.037 A 
HETATM   23  C10 UNL     1       3.026  -1.027   1.400  1.00  0.00     0.012 A 
BRANCH  21  24
HETATM   24  O1  UNL     1       6.148   0.852   1.483  1.00  0.00    -0.361 OA
HETATM   25  H9  UNL     1       7.032   0.541   1.077  1.00  0.00     0.217 HD
ENDBRANCH  21  24
ENDBRANCH  17  18
ENDBRANCH   4  17
BRANCH  15  26
HETATM   26  O3  UNL     1      -4.062  -1.787   0.215  1.00  0.00    -0.358 OA
HETATM   27  H17 UNL     1      -3.975  -2.393  -0.597  1.00  0.00     0.217 HD
ENDBRANCH  15  26
TORSDOF 4
