REMARK  2 active torsions:
REMARK  status: ('A' for Active; 'I' for Inactive)
REMARK    1  A    between atoms: O1_2  and  C2_3 
REMARK       I    between atoms: N1_11  and  C10_12 
REMARK       I    between atoms: C10_12  and  N2_14 
REMARK    2  A    between atoms: N2_14  and  C11_15 
ROOT
HETATM    1  C2  UNL     1      -2.963   0.130  -0.216  1.00  0.00     0.084 C 
HETATM    2  C3  UNL     1      -2.852  -1.204   0.064  1.00  0.00    -0.042 C 
HETATM    3  C4  UNL     1      -4.153  -1.922  -0.188  1.00  0.00     0.047 C 
HETATM    4  C5  UNL     1      -1.935  -2.211   0.671  1.00  0.00     0.035 C 
HETATM    5  C6  UNL     1      -2.596  -3.260   1.512  1.00  0.00     0.019 C 
HETATM    6  C7  UNL     1      -0.788  -1.603   1.378  1.00  0.00    -0.020 C 
HETATM    7  C8  UNL     1       0.204  -1.166   2.125  1.00  0.00    -0.010 C 
HETATM    8  C9  UNL     1       1.325  -0.321   2.462  1.00  0.00     0.155 C 
HETATM    9  N1  UNL     1       1.655   0.795   1.620  1.00  0.00    -0.326 N 
HETATM   10  C10 UNL     1       2.606   0.647   0.541  1.00  0.00     0.323 C 
HETATM   11  O2  UNL     1       2.973   1.569  -0.272  1.00  0.00    -0.247 OA
HETATM   12  N2  UNL     1       3.266  -0.577   0.247  1.00  0.00    -0.312 N 
HETATM   13  C16 UNL     1       1.149   2.217   1.696  1.00  0.00     0.166 C 
HETATM   14  C17 UNL     1       0.116   2.404   0.642  1.00  0.00    -0.039 A 
HETATM   15  C18 UNL     1       0.043   3.244  -0.478  1.00  0.00     0.012 A 
HETATM   16  C19 UNL     1      -0.976   3.093  -1.402  1.00  0.00     0.044 A 
HETATM   17  C20 UNL     1      -1.955   2.100  -1.243  1.00  0.00     0.129 A 
HETATM   18  F1  UNL     1      -2.879   2.098  -2.252  1.00  0.00    -0.205 F 
HETATM   19  C21 UNL     1      -1.987   1.201  -0.162  1.00  0.00     0.037 A 
HETATM   20  C22 UNL     1      -0.921   1.563   0.565  1.00  0.00     0.026 A 
HETATM   21  H15 UNL     1       3.068  -1.421   0.828  1.00  0.00     0.170 HD
ENDROOT
BRANCH  12  22
HETATM   22  C11 UNL     1       4.167  -0.549  -0.849  1.00  0.00     0.017 A 
HETATM   23  C12 UNL     1       3.968  -1.339  -1.866  1.00  0.00     0.025 A 
HETATM   24  C13 UNL     1       5.032  -1.124  -2.867  1.00  0.00    -0.002 A 
HETATM   25  C14 UNL     1       5.881  -0.185  -2.431  1.00  0.00    -0.021 A 
HETATM   26  C15 UNL     1       5.401   0.264  -1.103  1.00  0.00     0.084 A 
ENDBRANCH  12  22
BRANCH   1  27
HETATM   27  O1  UNL     1      -4.184   0.610  -0.646  1.00  0.00    -0.355 OA
HETATM   28  C1  UNL     1      -4.997   1.492   0.103  1.00  0.00     0.210 C 
ENDBRANCH   1  27
TORSDOF 2
