REMARK  5 active torsions:
REMARK  status: ('A' for Active; 'I' for Inactive)
REMARK    1  A    between atoms: C6_6  and  O1_7 
REMARK    2  A    between atoms: C7_8  and  C8_9 
REMARK    3  A    between atoms: C8_9  and  N1_10 
REMARK    4  A    between atoms: N1_10  and  C9_11 
REMARK    5  A    between atoms: N1_10  and  C10_13 
ROOT
HETATM    1  C8  UNL     1       0.133   1.592  -0.834  1.00  0.00     0.172 C 
ENDROOT
BRANCH   1   2
HETATM    2  C7  UNL     1      -1.033   0.728  -0.490  1.00  0.00    -0.006 A 
HETATM    3  C6  UNL     1      -1.219  -0.564  -0.911  1.00  0.00     0.079 A 
HETATM    4  C4  UNL     1      -2.337  -1.275  -0.522  1.00  0.00    -0.028 A 
HETATM    5  C3  UNL     1      -3.321  -0.726   0.306  1.00  0.00     0.016 A 
HETATM    6  C5  UNL     1      -2.499  -2.684  -1.011  1.00  0.00     0.051 C 
HETATM    7  C2  UNL     1      -3.177   0.561   0.750  1.00  0.00    -0.061 A 
HETATM    8  C1  UNL     1      -4.155   1.247   1.634  1.00  0.00     0.048 C 
HETATM    9  C16 UNL     1      -2.046   1.230   0.336  1.00  0.00     0.018 A 
BRANCH   3  10
HETATM   10  O1  UNL     1      -0.234  -1.107  -1.737  1.00  0.00    -0.360 OA
HETATM   11  H8  UNL     1      -0.264  -0.988  -2.746  1.00  0.00     0.217 HD
ENDBRANCH   3  10
ENDBRANCH   1   2
BRANCH   1  12
HETATM   12  N1  UNL     1       1.250   1.181  -0.028  1.00  0.00    -0.332 N 
BRANCH  12  13
HETATM   13  C9  UNL     1       1.405   1.818   1.231  1.00  0.00     0.477 C 
HETATM   14  O2  UNL     1       1.322   2.520   2.279  1.00  0.00    -0.392 OA
ENDBRANCH  12  13
BRANCH  12  15
HETATM   15  C10 UNL     1       2.354   0.289  -0.028  1.00  0.00     0.036 A 
HETATM   16  C11 UNL     1       3.482   0.894  -0.547  1.00  0.00     0.033 A 
HETATM   17  C12 UNL     1       4.690   0.197  -0.646  1.00  0.00     0.044 A 
HETATM   18  C13 UNL     1       4.701  -1.130  -0.198  1.00  0.00     0.116 A 
HETATM   19  F1  UNL     1       5.852  -1.834  -0.278  1.00  0.00    -0.206 F 
HETATM   20  C14 UNL     1       3.549  -1.711   0.320  1.00  0.00     0.044 A 
HETATM   21  C15 UNL     1       2.358  -1.016   0.414  1.00  0.00     0.033 A 
ENDBRANCH  12  15
ENDBRANCH   1  12
TORSDOF 5
