REMARK  3 active torsions:
REMARK  status: ('A' for Active; 'I' for Inactive)
REMARK    1  A    between atoms: C4_5  and  C5_6 
REMARK    2  A    between atoms: C5_6  and  O1_7 
REMARK    3  A    between atoms: O1_7  and  C6_8 
ROOT
HETATM    1  C6  UNL     1       0.397  -1.188   0.418  1.00  0.00     0.073 A 
HETATM    2  C7  UNL     1       0.355  -2.476   0.723  1.00  0.00     0.015 A 
HETATM    3  C8  UNL     1      -1.047  -2.955   0.851  1.00  0.00     0.065 A 
HETATM    4  C9  UNL     1      -1.812  -1.695   0.561  1.00  0.00    -0.066 A 
HETATM    5  C10 UNL     1      -0.992  -0.711   0.320  1.00  0.00    -0.009 A 
HETATM    6  C11 UNL     1      -1.212   0.689  -0.009  1.00  0.00     0.094 C 
HETATM    7  C12 UNL     1      -1.267   0.920  -1.494  1.00  0.00     0.005 C 
HETATM    8  C13 UNL     1      -1.847   2.024  -1.950  1.00  0.00     0.080 C 
HETATM    9  N1  UNL     1      -2.427   3.012  -1.074  1.00  0.00    -0.394 N 
HETATM   10  C14 UNL     1      -2.367   2.831   0.377  1.00  0.00     0.174 C 
HETATM   11  C15 UNL     1      -2.391   1.337   0.566  1.00  0.00     0.036 C 
HETATM   12  N2  UNL     1      -3.507   1.140   1.205  1.00  0.00    -0.296 NA
HETATM   13  C16 UNL     1      -4.121  -0.072   1.686  1.00  0.00     0.149 C 
HETATM   14  C17 UNL     1      -4.225  -1.018   0.505  1.00  0.00     0.026 C 
HETATM   15  C18 UNL     1      -3.206  -2.090   0.669  1.00  0.00     0.037 C 
HETATM   16  H11 UNL     1      -2.881   3.846  -1.541  1.00  0.00     0.159 HD
ENDROOT
BRANCH   1  17
HETATM   17  O1  UNL     1       1.532  -0.381   0.216  1.00  0.00    -0.346 OA
BRANCH  17  18
HETATM   18  C5  UNL     1       2.722  -1.074  -0.125  1.00  0.00     0.214 C 
BRANCH  18  19
HETATM   19  C4  UNL     1       3.879  -0.185  -0.326  1.00  0.00    -0.034 A 
HETATM   20  C3  UNL     1       4.764   0.207   0.643  1.00  0.00     0.012 A 
HETATM   21  C2  UNL     1       5.833   1.041   0.407  1.00  0.00     0.043 A 
HETATM   22  C1  UNL     1       6.064   1.536  -0.875  1.00  0.00     0.116 A 
HETATM   23  F1  UNL     1       7.099   2.355  -1.149  1.00  0.00    -0.206 F 
HETATM   24  C20 UNL     1       5.173   1.142  -1.855  1.00  0.00     0.043 A 
HETATM   25  C19 UNL     1       4.099   0.303  -1.612  1.00  0.00     0.012 A 
ENDBRANCH  18  19
ENDBRANCH  17  18
ENDBRANCH   1  17
TORSDOF 3
