REMARK  6 active torsions:
REMARK  status: ('A' for Active; 'I' for Inactive)
REMARK    1  A    between atoms: C6_6  and  O1_7 
REMARK    2  A    between atoms: C7_8  and  C8_9 
REMARK    3  A    between atoms: C8_9  and  N1_10 
REMARK    4  A    between atoms: N1_10  and  C9_11 
REMARK       I    between atoms: N1_10  and  C16_19 
REMARK    5  A    between atoms: C9_11  and  C10_12 
REMARK       I    between atoms: C16_19  and  N2_21 
REMARK    6  A    between atoms: N2_21  and  C17_22 
ROOT
HETATM    1  N1  UNL     1      -0.196   1.194   0.236  1.00  0.00    -0.325 N 
HETATM    2  C16 UNL     1       1.096   0.914   0.834  1.00  0.00     0.322 C 
HETATM    3  O2  UNL     1       1.612   1.599   1.789  1.00  0.00    -0.247 OA
HETATM    4  N2  UNL     1       1.986  -0.130   0.479  1.00  0.00    -0.318 N 
HETATM    5  H17 UNL     1       1.702  -0.760  -0.292  1.00  0.00     0.170 HD
ENDROOT
BRANCH   1   6
HETATM    6  C8  UNL     1      -0.687   0.332  -0.793  1.00  0.00     0.169 C 
BRANCH   6   7
HETATM    7  C7  UNL     1      -1.498  -0.809  -0.411  1.00  0.00    -0.006 A 
HETATM    8  C6  UNL     1      -2.839  -0.796  -0.059  1.00  0.00     0.079 A 
HETATM    9  C4  UNL     1      -3.604  -1.879   0.311  1.00  0.00    -0.028 A 
HETATM   10  C3  UNL     1      -3.021  -3.127   0.350  1.00  0.00     0.016 A 
HETATM   11  C5  UNL     1      -5.043  -1.744   0.672  1.00  0.00     0.051 C 
HETATM   12  C2  UNL     1      -1.703  -3.229   0.016  1.00  0.00    -0.061 A 
HETATM   13  C1  UNL     1      -1.123  -4.591   0.072  1.00  0.00     0.048 C 
HETATM   14  C23 UNL     1      -0.985  -2.102  -0.348  1.00  0.00     0.018 A 
BRANCH   8  15
HETATM   15  O1  UNL     1      -3.526   0.403  -0.066  1.00  0.00    -0.360 OA
HETATM   16  H8  UNL     1      -3.545   0.958  -0.894  1.00  0.00     0.217 HD
ENDBRANCH   8  15
ENDBRANCH   6   7
ENDBRANCH   1   6
BRANCH   1  17
HETATM   17  C9  UNL     1      -0.819   2.401   0.793  1.00  0.00     0.166 C 
BRANCH  17  18
HETATM   18  C10 UNL     1      -0.437   3.609   0.019  1.00  0.00    -0.040 A 
HETATM   19  C11 UNL     1      -1.295   3.890  -1.045  1.00  0.00     0.012 A 
HETATM   20  C12 UNL     1      -1.128   4.966  -1.893  1.00  0.00     0.043 A 
HETATM   21  C13 UNL     1      -0.055   5.810  -1.677  1.00  0.00     0.116 A 
HETATM   22  F1  UNL     1       0.118   6.872  -2.505  1.00  0.00    -0.206 F 
HETATM   23  C14 UNL     1       0.802   5.551  -0.633  1.00  0.00     0.043 A 
HETATM   24  C15 UNL     1       0.620   4.471   0.204  1.00  0.00     0.012 A 
ENDBRANCH  17  18
ENDBRANCH   1  17
BRANCH   4  25
HETATM   25  C17 UNL     1       3.226  -0.308   1.141  1.00  0.00     0.104 C 
HETATM   26  C18 UNL     1       4.011  -1.303   0.761  1.00  0.00    -0.021 A 
HETATM   27  C19 UNL     1       5.314  -1.698   1.269  1.00  0.00     0.013 A 
HETATM   28  C22 UNL     1       3.754  -2.288  -0.300  1.00  0.00     0.013 A 
HETATM   29  C20 UNL     1       5.751  -2.760   0.598  1.00  0.00     0.001 A 
HETATM   30  C21 UNL     1       4.757  -3.150  -0.415  1.00  0.00     0.001 A 
ENDBRANCH   4  25
TORSDOF 6
