REMARK  4 active torsions:
REMARK  status: ('A' for Active; 'I' for Inactive)
REMARK    1  A    between atoms: C2_2  and  C4_5 
REMARK    2  A    between atoms: C3_3  and  O1_4 
REMARK    3  A    between atoms: C5_6  and  C7_8 
REMARK    4  A    between atoms: C7_8  and  N1_9 
ROOT
HETATM    1  N1  UNL     1      -0.413  -1.224   0.016  1.00  0.00    -0.388 N 
HETATM    2  C8  UNL     1       0.337  -1.829   1.064  1.00  0.00     0.132 C 
HETATM    3  C9  UNL     1       0.487  -1.654   2.367  1.00  0.00     0.042 C 
HETATM    4  C10 UNL     1       0.429  -1.209   3.775  1.00  0.00     0.114 C 
HETATM    5  F1  UNL     1       1.251  -1.856   4.616  1.00  0.00    -0.206 F 
HETATM    6  C11 UNL     1      -0.337  -0.250   4.346  1.00  0.00     0.042 C 
HETATM    7  C12 UNL     1      -1.358   0.653   3.883  1.00  0.00    -0.001 C 
HETATM    8  C13 UNL     1      -2.175   1.213   3.049  1.00  0.00    -0.022 C 
HETATM    9  C14 UNL     1      -3.063   1.779   2.023  1.00  0.00     0.065 C 
HETATM   10  C15 UNL     1      -3.004   1.109   0.710  1.00  0.00    -0.056 C 
HETATM   11  C16 UNL     1      -2.387  -0.103   0.648  1.00  0.00     0.009 C 
HETATM   12  C17 UNL     1      -1.478  -0.373  -0.462  1.00  0.00     0.127 C 
HETATM   13  C18 UNL     1      -2.272  -0.830  -1.578  1.00  0.00     0.002 C 
HETATM   14  C19 UNL     1      -3.202   0.001  -2.093  1.00  0.00    -0.002 C 
HETATM   15  C20 UNL     1      -3.740   1.292  -1.635  1.00  0.00     0.000 C 
HETATM   16  C21 UNL     1      -3.634   1.813  -0.394  1.00  0.00     0.007 C 
ENDROOT
BRANCH   1  17
HETATM   17  C7  UNL     1       0.245  -1.625  -1.231  1.00  0.00     0.152 C 
BRANCH  17  18
HETATM   18  C5  UNL     1       1.641  -1.045  -1.248  1.00  0.00    -0.066 C 
HETATM   19  C4  UNL     1       2.053  -0.062  -2.066  1.00  0.00     0.012 C 
HETATM   20  C6  UNL     1       2.584  -1.746  -0.298  1.00  0.00     0.045 C 
BRANCH  19  21
HETATM   21  C2  UNL     1       3.340   0.549  -2.273  1.00  0.00    -0.040 C 
HETATM   22  C1  UNL     1       4.606   0.305  -1.539  1.00  0.00     0.050 C 
HETATM   23  C3  UNL     1       3.403   1.524  -3.213  1.00  0.00     0.138 C 
BRANCH  23  24
HETATM   24  O1  UNL     1       2.858   2.328  -4.219  1.00  0.00    -0.372 OA
HETATM   25  H5  UNL     1       2.131   2.996  -3.978  1.00  0.00     0.216 HD
ENDBRANCH  23  24
ENDBRANCH  19  21
ENDBRANCH  17  18
ENDBRANCH   1  17
TORSDOF 4
