REMARK  6 active torsions:
REMARK  status: ('A' for Active; 'I' for Inactive)
REMARK    1  A    between atoms: C6_6  and  O1_7 
REMARK    2  A    between atoms: O1_7  and  C7_8 
REMARK    3  A    between atoms: C8_10  and  C9_11 
REMARK    4  A    between atoms: C9_11  and  N1_12 
REMARK    5  A    between atoms: N1_12  and  C11_14 
REMARK    6  A    between atoms: C11_14  and  C12_15 
ROOT
HETATM    1  C1  UNL     1      -1.855   3.264   0.785  1.00  0.00     0.048 C 
HETATM    2  C2  UNL     1      -2.186   1.843   0.510  1.00  0.00    -0.061 A 
HETATM    3  C3  UNL     1      -3.480   1.375   0.535  1.00  0.00     0.016 A 
HETATM    4  C4  UNL     1      -3.708   0.029   0.266  1.00  0.00    -0.027 A 
HETATM    5  C5  UNL     1      -5.143  -0.341   0.327  1.00  0.00     0.051 C 
HETATM    6  C6  UNL     1      -2.646  -0.830  -0.025  1.00  0.00     0.092 A 
HETATM    7  C8  UNL     1      -1.338  -0.344  -0.048  1.00  0.00    -0.006 A 
HETATM    8  C18 UNL     1      -1.156   0.990   0.224  1.00  0.00     0.018 A 
ENDROOT
BRANCH   7   9
HETATM    9  C9  UNL     1      -0.375  -1.420  -0.367  1.00  0.00     0.158 C 
BRANCH   9  10
HETATM   10  N1  UNL     1       0.907  -0.872  -0.526  1.00  0.00    -0.409 N 
HETATM   11  C10 UNL     1       1.165   0.022  -1.574  1.00  0.00     0.143 C 
BRANCH  10  12
HETATM   12  C11 UNL     1       1.871  -1.082   0.474  1.00  0.00     0.155 C 
BRANCH  12  13
HETATM   13  C12 UNL     1       3.177  -0.437   0.202  1.00  0.00    -0.041 A 
HETATM   14  C13 UNL     1       4.149  -1.132  -0.494  1.00  0.00     0.012 A 
HETATM   15  C14 UNL     1       5.378  -0.515  -0.745  1.00  0.00     0.043 A 
HETATM   16  C15 UNL     1       5.670   0.779  -0.323  1.00  0.00     0.116 A 
HETATM   17  F1  UNL     1       6.854   1.340  -0.579  1.00  0.00    -0.206 F 
HETATM   18  C16 UNL     1       4.643   1.385   0.359  1.00  0.00     0.043 A 
HETATM   19  C17 UNL     1       3.417   0.849   0.643  1.00  0.00     0.012 A 
ENDBRANCH  12  13
ENDBRANCH  10  12
ENDBRANCH   9  10
ENDBRANCH   7   9
BRANCH   6  20
HETATM   20  O1  UNL     1      -3.129  -2.117  -0.256  1.00  0.00    -0.285 OA
BRANCH  20  21
HETATM   21  C7  UNL     1      -3.177  -3.091   0.703  1.00  0.00     0.403 C 
HETATM   22  O2  UNL     1      -2.889  -3.252   1.925  1.00  0.00    -0.276 OA
ENDBRANCH  20  21
ENDBRANCH   6  20
TORSDOF 6
