REMARK  5 active torsions:
REMARK  status: ('A' for Active; 'I' for Inactive)
REMARK    1  A    between atoms: C8_8  and  C9_9 
REMARK    2  A    between atoms: C9_9  and  N1_10 
REMARK    3  A    between atoms: N1_10  and  C10_11 
REMARK    4  A    between atoms: N1_10  and  C11_13 
REMARK    5  A    between atoms: C11_13  and  C12_14 
ROOT
HETATM    1  N1  UNL     1       0.973   0.288   0.829  1.00  0.00    -0.351 N 
ENDROOT
BRANCH   1   2
HETATM    2  C9  UNL     1       0.027  -0.753   0.462  1.00  0.00     0.164 C 
BRANCH   2   3
HETATM    3  C8  UNL     1      -1.318  -0.210   0.138  1.00  0.00    -0.033 A 
HETATM    4  C6  UNL     1      -2.309  -1.094  -0.226  1.00  0.00    -0.048 A 
HETATM    5  C4  UNL     1      -3.567  -0.620  -0.532  1.00  0.00    -0.055 A 
HETATM    6  C7  UNL     1      -2.100  -2.555  -0.310  1.00  0.00     0.049 C 
HETATM    7  C3  UNL     1      -3.807   0.751  -0.466  1.00  0.00     0.014 A 
HETATM    8  C5  UNL     1      -4.717  -1.473  -0.937  1.00  0.00     0.049 C 
HETATM    9  C2  UNL     1      -2.800   1.636  -0.097  1.00  0.00    -0.061 A 
HETATM   10  C1  UNL     1      -3.029   3.108  -0.018  1.00  0.00     0.048 C 
HETATM   11  C18 UNL     1      -1.541   1.147   0.208  1.00  0.00     0.016 A 
ENDBRANCH   2   3
ENDBRANCH   1   2
BRANCH   1  12
HETATM   12  C10 UNL     1       1.055   0.634   2.208  1.00  0.00     0.351 C 
HETATM   13  O1  UNL     1       0.279  -0.018   2.970  1.00  0.00    -0.284 OA
ENDBRANCH   1  12
BRANCH   1  14
HETATM   14  C11 UNL     1       1.831   0.994  -0.085  1.00  0.00     0.164 C 
BRANCH  14  15
HETATM   15  C12 UNL     1       3.157   0.350  -0.290  1.00  0.00    -0.040 A 
HETATM   16  C13 UNL     1       4.180   0.745   0.579  1.00  0.00     0.012 A 
HETATM   17  C14 UNL     1       5.484   0.242   0.528  1.00  0.00     0.043 A 
HETATM   18  C15 UNL     1       5.767  -0.701  -0.444  1.00  0.00     0.116 A 
HETATM   19  F1  UNL     1       7.028  -1.203  -0.512  1.00  0.00    -0.206 F 
HETATM   20  C16 UNL     1       4.774  -1.095  -1.299  1.00  0.00     0.043 A 
HETATM   21  C17 UNL     1       3.503  -0.606  -1.250  1.00  0.00     0.012 A 
ENDBRANCH  14  15
ENDBRANCH   1  14
TORSDOF 5
