REMARK  3 active torsions:
REMARK  status: ('A' for Active; 'I' for Inactive)
REMARK    1  A    between atoms: N2_16  and  C13_17 
REMARK    2  A    between atoms: C13_17  and  C14_18 
REMARK    3  A    between atoms: C14_18  and  C15_19 
ROOT
HETATM    1  O1  UNL     1      -0.430  -0.245   0.239  1.00  0.00    -0.120 OA
HETATM    2  C1  UNL     1       0.258  -0.395   1.211  1.00  0.00     0.452 A 
HETATM    3  N1  UNL     1      -1.073  -0.988   1.177  1.00  0.00     0.142 N 
HETATM    4  C2  UNL     1      -2.311  -1.168   0.415  1.00  0.00     0.182 A 
HETATM    5  C3  UNL     1      -2.596  -2.482   0.264  1.00  0.00     0.041 A 
HETATM    6  C4  UNL     1      -3.702  -2.892  -0.430  1.00  0.00     0.002 A 
HETATM    7  C5  UNL     1      -4.486  -1.896  -0.952  1.00  0.00     0.001 A 
HETATM    8  C6  UNL     1      -4.179  -0.564  -0.787  1.00  0.00     0.013 A 
HETATM    9  C7  UNL     1      -3.062  -0.083  -0.088  1.00  0.00     0.017 A 
HETATM   10  C8  UNL     1      -3.182   1.395  -0.196  1.00  0.00     0.228 C 
HETATM   11  F1  UNL     1      -3.230   1.729  -1.555  1.00  0.00    -0.240 F 
HETATM   12  C9  UNL     1      -1.992   2.141   0.305  1.00  0.00     0.011 C 
HETATM   13  C10 UNL     1      -0.815   2.199  -0.361  1.00  0.00    -0.026 C 
HETATM   14  C11 UNL     1       0.617   2.501  -0.766  1.00  0.00     0.046 C 
HETATM   15  C12 UNL     1       1.330   1.126  -0.922  1.00  0.00     0.125 C 
HETATM   16  N2  UNL     1       1.166   0.429   0.401  1.00  0.00    -0.348 N 
HETATM   17  H1  UNL     1      -1.101  -1.483   2.136  1.00  0.00     0.332 HD
ENDROOT
BRANCH  16  18
HETATM   18  C13 UNL     1       2.230   0.504   1.377  1.00  0.00     0.126 C 
BRANCH  18  19
HETATM   19  C14 UNL     1       3.220  -0.634   1.265  1.00  0.00     0.055 C 
BRANCH  19  20
HETATM   20  C15 UNL     1       3.873  -0.667  -0.065  1.00  0.00    -0.054 A 
HETATM   21  O2  UNL     1       4.145  -0.740  -1.419  1.00  0.00     0.000 OA
HETATM   22  H17 UNL     1       3.574  -1.273  -2.065  1.00  0.00     0.000 HD
HETATM   23  C16 UNL     1       5.205  -0.542  -0.195  1.00  0.00     0.266 A 
HETATM   24 CL1  UNL     1       6.110  -0.339   1.301  1.00  0.00    -0.250 Cl
ENDBRANCH  19  20
ENDBRANCH  18  19
ENDBRANCH  16  18
TORSDOF 3
