REMARK  1 active torsions:
REMARK  status: ('A' for Active; 'I' for Inactive)
REMARK    1  A    between atoms: N2_12  and  C8_13 
ROOT
HETATM    1  O1  UNL     1       0.480  -2.353  -0.667  1.00  0.00    -0.246 OA
HETATM    2  C1  UNL     1       0.480  -1.103  -0.682  1.00  0.00     0.334 C 
HETATM    3  N1  UNL     1      -0.390  -0.641  -1.552  1.00  0.00    -0.306 N 
HETATM    4  C2  UNL     1      -0.451   0.648  -1.913  1.00  0.00     0.098 C 
HETATM    5  C3  UNL     1      -0.906   1.934  -2.048  1.00  0.00     0.041 C 
HETATM    6  C4  UNL     1      -1.071   2.880  -1.099  1.00  0.00     0.035 C 
HETATM    7 CL1  UNL     1      -0.883   4.565  -1.495  1.00  0.00    -0.084 Cl
HETATM    8  C5  UNL     1      -1.373   2.228   0.044  1.00  0.00     0.034 C 
HETATM    9  C6  UNL     1      -0.543   1.488   0.852  1.00  0.00    -0.017 C 
HETATM   10  C7  UNL     1       0.648   0.966   0.432  1.00  0.00     0.120 C 
HETATM   11 CL2  UNL     1       1.636   2.382   0.551  1.00  0.00    -0.063 Cl
HETATM   12  N2  UNL     1       1.186  -0.192   0.009  1.00  0.00    -0.253 N 
HETATM   13  C14 UNL     1      -1.141   1.390   2.192  1.00  0.00     0.045 C 
HETATM   14  C15 UNL     1      -1.703   0.028   2.530  1.00  0.00     0.032 C 
HETATM   15  C16 UNL     1      -2.699  -0.497   1.604  1.00  0.00    -0.023 C 
HETATM   16  C17 UNL     1      -3.679  -0.981   0.810  1.00  0.00     0.038 C 
HETATM   17  C18 UNL     1      -3.586  -1.366  -0.629  1.00  0.00     0.114 C 
HETATM   18  F1  UNL     1      -4.836  -1.814  -1.028  1.00  0.00    -0.206 F 
HETATM   19  C19 UNL     1      -2.717  -1.428  -1.667  1.00  0.00     0.035 C 
HETATM   20  C20 UNL     1      -1.419  -1.273  -2.360  1.00  0.00     0.163 C 
ENDROOT
BRANCH  12  21
HETATM   21  C8  UNL     1       2.540  -0.431   0.313  1.00  0.00     0.045 A 
HETATM   22  C9  UNL     1       3.257  -1.099  -0.689  1.00  0.00     0.030 A 
HETATM   23  C10 UNL     1       4.588  -1.425  -0.589  1.00  0.00     0.002 A 
HETATM   24  C11 UNL     1       5.222  -1.057   0.577  1.00  0.00     0.000 A 
HETATM   25  C12 UNL     1       4.552  -0.398   1.587  1.00  0.00     0.002 A 
HETATM   26  C13 UNL     1       3.202  -0.077   1.466  1.00  0.00     0.030 A 
ENDBRANCH  12  21
TORSDOF 1
