REMARK  6 active torsions:
REMARK  status: ('A' for Active; 'I' for Inactive)
REMARK       I    between atoms: C1_2  and  N1_3 
REMARK       I    between atoms: C1_2  and  N2_10 
REMARK    1  A    between atoms: N1_3  and  C2_4 
REMARK    2  A    between atoms: N2_10  and  C8_11 
REMARK    3  A    between atoms: N2_10  and  P1_21 
REMARK    4  A    between atoms: C8_11  and  C9_12 
REMARK    5  A    between atoms: C11_14  and  O2_15 
REMARK    6  A    between atoms: P1_21  and  C15_22 
ROOT
HETATM    1  O1  UNL     1      -2.115   0.587  -1.507  1.00  0.00    -0.247 OA
HETATM    2  C1  UNL     1      -1.234   0.671  -0.595  1.00  0.00     0.326 C 
HETATM    3  N1  UNL     1      -1.452   1.802   0.242  1.00  0.00    -0.309 N 
HETATM    4  N2  UNL     1      -0.143  -0.217  -0.381  1.00  0.00    -0.304 N 
HETATM    5  H1  UNL     1      -0.814   2.017   1.044  1.00  0.00     0.170 HD
ENDROOT
BRANCH   4   6
HETATM    6  C8  UNL     1       0.828  -0.053   0.688  1.00  0.00     0.160 C 
BRANCH   6   7
HETATM    7  C9  UNL     1       1.959   0.764   0.258  1.00  0.00     0.007 C 
HETATM    8  C10 UNL     1       3.250   0.588   0.154  1.00  0.00     0.016 C 
HETATM    9  C11 UNL     1       3.907  -0.665   0.507  1.00  0.00     0.073 C 
HETATM   10  C14 UNL     1       4.077   1.715  -0.341  1.00  0.00     0.253 C 
HETATM   11  C12 UNL     1       5.158  -0.538   0.987  1.00  0.00     0.036 C 
HETATM   12  C13 UNL     1       5.694   0.827   1.093  1.00  0.00     0.200 C 
HETATM   13  O3  UNL     1       5.367   1.685   0.087  1.00  0.00    -0.362 OA
HETATM   14 CL1  UNL     1       4.059   1.575  -2.131  1.00  0.00    -0.090 Cl
BRANCH   9  15
HETATM   15  O2  UNL     1       3.213  -1.853   0.326  1.00  0.00    -0.360 OA
HETATM   16  H10 UNL     1       3.401  -2.637   0.934  1.00  0.00     0.217 HD
ENDBRANCH   9  15
ENDBRANCH   6   7
ENDBRANCH   4   6
BRANCH   4  17
HETATM   17  P1  UNL     1      -0.046  -1.575  -1.543  1.00  0.00     0.012 P 
HETATM   18  H15 UNL     1       1.295  -1.877  -1.945  1.00  0.00     0.085 HD
BRANCH  17  19
HETATM   19  C15 UNL     1      -0.961  -3.045  -1.000  1.00  0.00    -0.013 A 
HETATM   20  C16 UNL     1      -0.574  -4.277  -1.518  1.00  0.00     0.017 A 
HETATM   21  C17 UNL     1      -1.237  -5.404  -1.133  1.00  0.00     0.043 A 
HETATM   22  C18 UNL     1      -2.272  -5.332  -0.249  1.00  0.00     0.116 A 
HETATM   23  F1  UNL     1      -2.927  -6.453   0.129  1.00  0.00    -0.206 F 
HETATM   24  C19 UNL     1      -2.641  -4.092   0.254  1.00  0.00     0.043 A 
HETATM   25  C20 UNL     1      -2.004  -2.928  -0.102  1.00  0.00     0.017 A 
ENDBRANCH  17  19
ENDBRANCH   4  17
BRANCH   3  26
HETATM   26  C2  UNL     1      -2.494   2.751   0.131  1.00  0.00     0.036 A 
HETATM   27  C3  UNL     1      -2.465   3.928  -0.607  1.00  0.00     0.029 A 
HETATM   28  C4  UNL     1      -3.554   4.775  -0.632  1.00  0.00     0.002 A 
HETATM   29  C5  UNL     1      -4.669   4.449   0.076  1.00  0.00     0.000 A 
HETATM   30  C6  UNL     1      -4.779   3.293   0.838  1.00  0.00     0.002 A 
HETATM   31  C7  UNL     1      -3.662   2.473   0.835  1.00  0.00     0.029 A 
ENDBRANCH   3  26
TORSDOF 6
