REMARK  6 active torsions:
REMARK  status: ('A' for Active; 'I' for Inactive)
REMARK       I    between atoms: C1_2  and  N1_3 
REMARK       I    between atoms: C1_2  and  N2_10 
REMARK    1  A    between atoms: N1_3  and  C2_4 
REMARK    2  A    between atoms: N2_10  and  C8_11 
REMARK    3  A    between atoms: N2_10  and  C15_20 
REMARK    4  A    between atoms: C8_11  and  C9_12 
REMARK    5  A    between atoms: C9_12  and  C10_13 
REMARK    6  A    between atoms: C14_18  and  O2_19 
ROOT
HETATM    1  O1  UNL     1       1.487   1.279   0.245  1.00  0.00    -0.247 OA
HETATM    2  C1  UNL     1       0.727   0.551  -0.444  1.00  0.00     0.323 C 
HETATM    3  N1  UNL     1       1.005  -0.834  -0.336  1.00  0.00    -0.309 N 
HETATM    4  N2  UNL     1      -0.343   1.033  -1.288  1.00  0.00    -0.323 N 
HETATM    5  H1  UNL     1       0.369  -1.407  -0.934  1.00  0.00     0.170 HD
ENDROOT
BRANCH   4   6
HETATM    6  C8  UNL     1      -1.331   0.350  -2.110  1.00  0.00     0.133 C 
BRANCH   6   7
HETATM    7  C9  UNL     1      -2.622   0.066  -1.451  1.00  0.00     0.061 C 
BRANCH   7   8
HETATM    8  C10 UNL     1      -2.616  -0.806  -0.278  1.00  0.00    -0.025 A 
HETATM    9  C11 UNL     1      -3.009  -0.421   0.951  1.00  0.00    -0.011 A 
HETATM   10  C12 UNL     1      -2.913  -1.478   1.960  1.00  0.00     0.082 A 
HETATM   11  C13 UNL     1      -2.395  -2.637   1.158  1.00  0.00     0.049 A 
HETATM   12 CL1  UNL     1      -2.064  -4.238   1.778  1.00  0.00    -0.086 Cl
HETATM   13  C14 UNL     1      -2.250  -2.197  -0.079  1.00  0.00     0.089 A 
BRANCH  13  14
HETATM   14  O2  UNL     1      -1.783  -3.028  -1.082  1.00  0.00    -0.359 OA
HETATM   15  H14 UNL     1      -2.255  -3.157  -1.966  1.00  0.00     0.217 HD
ENDBRANCH  13  14
ENDBRANCH   7   8
ENDBRANCH   6   7
ENDBRANCH   4   6
BRANCH   4  16
HETATM   16  C15 UNL     1      -0.440   2.488  -1.307  1.00  0.00     0.149 A 
HETATM   17  C16 UNL     1       0.841   3.010  -1.849  1.00  0.00     0.001 A 
HETATM   18  C17 UNL     1       1.660   3.882  -1.285  1.00  0.00    -0.002 A 
HETATM   19  C18 UNL     1       1.379   4.465   0.020  1.00  0.00    -0.001 A 
HETATM   20  C19 UNL     1       0.233   4.015   0.555  1.00  0.00     0.012 A 
HETATM   21  C20 UNL     1      -0.770   3.037   0.040  1.00  0.00     0.219 A 
HETATM   22  F1  UNL     1      -0.942   2.028   0.990  1.00  0.00    -0.243 F 
ENDBRANCH   4  16
BRANCH   3  23
HETATM   23  C2  UNL     1       1.967  -1.555   0.402  1.00  0.00     0.036 A 
HETATM   24  C3  UNL     1       2.016  -2.932   0.321  1.00  0.00     0.029 A 
HETATM   25  C4  UNL     1       2.923  -3.697   1.010  1.00  0.00     0.002 A 
HETATM   26  C5  UNL     1       3.848  -3.111   1.832  1.00  0.00     0.000 A 
HETATM   27  C6  UNL     1       3.850  -1.742   1.955  1.00  0.00     0.002 A 
HETATM   28  C7  UNL     1       2.918  -1.022   1.242  1.00  0.00     0.029 A 
ENDBRANCH   3  23
TORSDOF 6
