REMARK  2 active torsions:
REMARK  status: ('A' for Active; 'I' for Inactive)
REMARK       I    between atoms: C1_2  and  N1_3 
REMARK       I    between atoms: C1_2  and  N2_9 
REMARK    1  A    between atoms: N1_3  and  C2_4 
REMARK    2  A    between atoms: C11_14  and  O2_15 
ROOT
HETATM    1  O1  UNL     1       2.043  -0.662   1.379  1.00  0.00    -0.247 OA
HETATM    2  C1  UNL     1       1.645  -0.427   0.209  1.00  0.00     0.323 C 
HETATM    3  N1  UNL     1       2.643  -0.150  -0.773  1.00  0.00    -0.312 N 
HETATM    4  N2  UNL     1       0.288  -0.391  -0.313  1.00  0.00    -0.326 N 
HETATM    5  C7  UNL     1      -0.395  -0.138  -1.639  1.00  0.00     0.155 C 
HETATM    6  C8  UNL     1      -0.844  -1.448  -2.105  1.00  0.00    -0.011 C 
HETATM    7  C9  UNL     1      -2.191  -1.251  -2.093  1.00  0.00    -0.026 C 
HETATM    8  C10 UNL     1      -3.023  -0.091  -1.754  1.00  0.00     0.065 C 
HETATM    9  C11 UNL     1      -3.726  -0.258  -0.427  1.00  0.00     0.182 C 
HETATM   10  C12 UNL     1      -2.970   0.267   0.723  1.00  0.00    -0.017 A 
HETATM   11  C13 UNL     1      -3.690   1.147   1.557  1.00  0.00     0.052 A 
HETATM   12  C14 UNL     1      -3.267   1.824   2.686  1.00  0.00     0.117 A 
HETATM   13  F1  UNL     1      -4.031   2.646   3.419  1.00  0.00    -0.206 F 
HETATM   14  C15 UNL     1      -1.957   1.623   3.069  1.00  0.00     0.043 A 
HETATM   15  C16 UNL     1      -1.163   0.779   2.322  1.00  0.00     0.012 A 
HETATM   16  C17 UNL     1      -1.652   0.142   1.215  1.00  0.00    -0.031 A 
HETATM   17  C18 UNL     1      -0.828  -0.769   0.476  1.00  0.00     0.167 C 
HETATM   18  H1  UNL     1       2.515   0.067  -1.787  1.00  0.00     0.170 HD
ENDROOT
BRANCH   3  19
HETATM   19  C2  UNL     1       4.044  -0.122  -0.525  1.00  0.00     0.017 A 
HETATM   20  C3  UNL     1       5.054  -0.836  -1.035  1.00  0.00     0.025 A 
HETATM   21  C4  UNL     1       6.318  -0.408  -0.431  1.00  0.00    -0.002 A 
HETATM   22  C5  UNL     1       6.097   0.561   0.443  1.00  0.00    -0.021 A 
HETATM   23  C6  UNL     1       4.641   0.818   0.454  1.00  0.00     0.084 A 
ENDBRANCH   3  19
BRANCH   9  24
HETATM   24  O2  UNL     1      -4.342  -1.464  -0.280  1.00  0.00    -0.274 OA
HETATM   25 CL1  UNL     1      -6.029  -1.221  -0.424  1.00  0.00     0.062 Cl
ENDBRANCH   9  24
TORSDOF 2
