REMARK  6 active torsions:
REMARK  status: ('A' for Active; 'I' for Inactive)
REMARK    1  A    between atoms: C3_3  and  C4_4 
REMARK    2  A    between atoms: C4_4  and  N1_5 
REMARK       I    between atoms: N1_5  and  C5_6 
REMARK       I    between atoms: C5_6  and  N2_8 
REMARK    3  A    between atoms: N2_8  and  C6_9 
REMARK    4  A    between atoms: N2_8  and  C12_16 
REMARK    5  A    between atoms: C6_9  and  C7_10 
REMARK    6  A    between atoms: C12_16  and  C13_17 
ROOT
HETATM    1  N1  UNL     1       1.818  -1.104  -0.579  1.00  0.00    -0.340 N 
HETATM    2  C5  UNL     1       1.010  -0.020  -0.155  1.00  0.00     0.318 C 
HETATM    3  O1  UNL     1       1.714   0.644   0.662  1.00  0.00    -0.247 OA
HETATM    4  N2  UNL     1      -0.353   0.285  -0.564  1.00  0.00    -0.328 N 
HETATM    5  H8  UNL     1       1.434  -1.788  -1.268  1.00  0.00     0.164 HD
ENDROOT
BRANCH   4   6
HETATM    6  C6  UNL     1      -0.891  -0.677  -1.504  1.00  0.00     0.162 C 
BRANCH   6   7
HETATM    7  C7  UNL     1      -1.548  -1.847  -0.942  1.00  0.00    -0.056 A 
HETATM    8  C8  UNL     1      -2.830  -2.212  -1.147  1.00  0.00     0.046 A 
HETATM    9  C9  UNL     1      -3.202  -3.428  -0.450  1.00  0.00     0.113 A 
HETATM   10  F1  UNL     1      -4.406  -4.044  -0.455  1.00  0.00    -0.206 F 
HETATM   11  C10 UNL     1      -2.100  -3.789   0.181  1.00  0.00     0.020 A 
HETATM   12  C11 UNL     1      -0.947  -2.885  -0.032  1.00  0.00     0.066 A 
ENDBRANCH   6   7
ENDBRANCH   4   6
BRANCH   4  13
HETATM   13  C12 UNL     1      -0.778   1.532  -0.010  1.00  0.00     0.158 C 
BRANCH  13  14
HETATM   14  C13 UNL     1      -1.335   1.667   1.339  1.00  0.00     0.139 C 
HETATM   15  N3  UNL     1      -1.601   3.147   1.442  1.00  0.00    -0.387 N 
HETATM   16  C14 UNL     1      -2.785   3.909   1.626  1.00  0.00     0.102 C 
HETATM   17  H18 UNL     1      -0.661   3.629   1.347  1.00  0.00     0.159 HD
HETATM   18  C15 UNL     1      -3.818   3.141   1.933  1.00  0.00     0.027 C 
HETATM   19 BR1  UNL     1      -5.362   4.217   2.176  1.00  0.00    -0.050 Br
HETATM   20  C16 UNL     1      -3.693   1.668   1.983  1.00  0.00     0.037 C 
HETATM   21  C17 UNL     1      -2.559   0.982   1.719  1.00  0.00     0.014 C 
HETATM   22 BR2  UNL     1      -3.040  -0.849   2.073  1.00  0.00    -0.053 Br
ENDBRANCH  13  14
ENDBRANCH   4  13
BRANCH   1  23
HETATM   23  C4  UNL     1       3.148  -1.257  -0.073  1.00  0.00     0.151 C 
BRANCH  23  24
HETATM   24  C3  UNL     1       3.994  -0.076  -0.406  1.00  0.00    -0.012 C 
HETATM   25  C2  UNL     1       5.112  -0.177  -1.142  1.00  0.00    -0.033 C 
HETATM   26  C1  UNL     1       6.093   0.858  -1.588  1.00  0.00     0.036 C 
ENDBRANCH  23  24
ENDBRANCH   1  23
TORSDOF 6
