REMARK  6 active torsions:
REMARK  status: ('A' for Active; 'I' for Inactive)
REMARK       I    between atoms: C1_2  and  N1_3 
REMARK       I    between atoms: C1_2  and  N2_9 
REMARK    1  A    between atoms: N1_3  and  C2_4 
REMARK    2  A    between atoms: N2_9  and  C7_10 
REMARK    3  A    between atoms: N2_9  and  C14_18 
REMARK    4  A    between atoms: C7_10  and  C8_11 
REMARK    5  A    between atoms: C14_18  and  C15_19 
REMARK    6  A    between atoms: C20_26  and  O2_27 
ROOT
HETATM    1  O1  UNL     1       1.547  -1.322   0.943  1.00  0.00    -0.247 OA
HETATM    2  C1  UNL     1       1.142  -0.422   0.130  1.00  0.00     0.323 C 
HETATM    3  N1  UNL     1       2.254   0.119  -0.605  1.00  0.00    -0.309 N 
HETATM    4  N2  UNL     1      -0.197   0.019  -0.059  1.00  0.00    -0.325 N 
HETATM    5  H1  UNL     1       2.088   0.866  -1.312  1.00  0.00     0.170 HD
ENDROOT
BRANCH   4   6
HETATM    6  C7  UNL     1      -0.661   1.033  -0.967  1.00  0.00     0.166 C 
BRANCH   6   7
HETATM    7  C8  UNL     1      -0.700   2.396  -0.391  1.00  0.00    -0.040 A 
HETATM    8  C9  UNL     1      -1.889   2.790   0.237  1.00  0.00     0.012 A 
HETATM    9  C10 UNL     1      -2.019   4.040   0.803  1.00  0.00     0.043 A 
HETATM   10  C11 UNL     1      -0.981   4.967   0.776  1.00  0.00     0.116 A 
HETATM   11  F1  UNL     1      -1.083   6.191   1.320  1.00  0.00    -0.206 F 
HETATM   12  C12 UNL     1       0.176   4.577   0.162  1.00  0.00     0.043 A 
HETATM   13  C13 UNL     1       0.293   3.324  -0.400  1.00  0.00     0.012 A 
ENDBRANCH   6   7
ENDBRANCH   4   6
BRANCH   4  14
HETATM   14  C14 UNL     1      -1.148  -0.674   0.788  1.00  0.00     0.169 C 
BRANCH  14  15
HETATM   15  C15 UNL     1      -1.702  -1.896   0.158  1.00  0.00    -0.004 A 
HETATM   16  C16 UNL     1      -1.427  -2.427  -1.092  1.00  0.00     0.035 A 
HETATM   17  C17 UNL     1      -2.041  -3.577  -1.509  1.00  0.00     0.036 A 
HETATM   18 CL1  UNL     1      -1.619  -4.167  -3.114  1.00  0.00    -0.084 Cl
HETATM   19  C18 UNL     1      -2.949  -4.254  -0.725  1.00  0.00     0.050 A 
HETATM   20  C19 UNL     1      -3.228  -3.733   0.517  1.00  0.00     0.069 A 
HETATM   21 CL2  UNL     1      -4.388  -4.622   1.486  1.00  0.00    -0.081 Cl
HETATM   22  C20 UNL     1      -2.618  -2.561   0.974  1.00  0.00     0.095 A 
BRANCH  22  23
HETATM   23  O2  UNL     1      -3.009  -2.169   2.248  1.00  0.00    -0.358 OA
HETATM   24  H15 UNL     1      -2.358  -2.211   3.040  1.00  0.00     0.217 HD
ENDBRANCH  22  23
ENDBRANCH  14  15
ENDBRANCH   4  14
BRANCH   3  25
HETATM   25  C2  UNL     1       3.579  -0.355  -0.380  1.00  0.00     0.037 A 
HETATM   26  C3  UNL     1       4.621   0.370   0.032  1.00  0.00     0.030 A 
HETATM   27  C4  UNL     1       5.807  -0.493   0.140  1.00  0.00     0.014 A 
HETATM   28  C5  UNL     1       5.360  -1.688  -0.171  1.00  0.00    -0.024 A 
HETATM   29  C6  UNL     1       4.094  -1.718  -0.545  1.00  0.00     0.042 A 
ENDBRANCH   3  25
TORSDOF 6
