REMARK  6 active torsions:
REMARK  status: ('A' for Active; 'I' for Inactive)
REMARK    1  A    between atoms: C5_6  and  C6_7 
REMARK    2  A    between atoms: C6_7  and  N1_8 
REMARK    3  A    between atoms: N1_8  and  C7_9 
REMARK       I    between atoms: N1_8  and  C14_17 
REMARK    4  A    between atoms: C7_9  and  C8_10 
REMARK       I    between atoms: C14_17  and  N2_19 
REMARK    5  A    between atoms: N2_19  and  C15_20 
REMARK    6  A    between atoms: C21_26  and  O2_27 
ROOT
HETATM    1  N1  UNL     1       0.070   0.939   0.044  1.00  0.00    -0.325 N 
HETATM    2  C14 UNL     1       1.112   0.135  -0.504  1.00  0.00     0.323 C 
HETATM    3  O1  UNL     1       1.686   0.452  -1.554  1.00  0.00    -0.247 OA
HETATM    4  N2  UNL     1       1.551  -1.064   0.110  1.00  0.00    -0.309 N 
HETATM    5  H17 UNL     1       1.024  -1.285   0.999  1.00  0.00     0.170 HD
ENDROOT
BRANCH   1   6
HETATM    6  C6  UNL     1      -0.685   0.716   1.239  1.00  0.00     0.169 C 
BRANCH   6   7
HETATM    7  C5  UNL     1      -1.913  -0.081   1.059  1.00  0.00    -0.002 A 
HETATM    8  C4  UNL     1      -2.756  -0.359   2.211  1.00  0.00     0.009 A 
HETATM    9  C3  UNL     1      -3.842  -1.066   2.028  1.00  0.00    -0.017 A 
HETATM   10  C2  UNL     1      -4.597  -1.755   0.960  1.00  0.00     0.085 A 
HETATM   11  S1  UNL     1      -3.729  -1.538  -0.555  1.00  0.00    -0.213 SA
HETATM   12  C1  UNL     1      -3.457  -3.033  -1.506  1.00  0.00     0.073 C 
HETATM   13  C21 UNL     1      -2.326  -0.575  -0.081  1.00  0.00     0.090 A 
HETATM   14  H4  UNL     1      -4.688  -0.569  -1.633  1.00  0.00     0.088 HD
BRANCH  13  15
HETATM   15  O2  UNL     1      -1.538  -0.327  -1.205  1.00  0.00    -0.355 OA
HETATM   16  H23 UNL     1      -1.196  -1.095  -1.748  1.00  0.00     0.218 HD
ENDBRANCH  13  15
ENDBRANCH   6   7
ENDBRANCH   1   6
BRANCH   1  17
HETATM   17  C7  UNL     1      -0.293   2.153  -0.675  1.00  0.00     0.166 C 
BRANCH  17  18
HETATM   18  C8  UNL     1       0.469   3.345  -0.233  1.00  0.00    -0.040 A 
HETATM   19  C9  UNL     1       1.674   3.734  -0.781  1.00  0.00     0.012 A 
HETATM   20  C10 UNL     1       2.403   4.834  -0.396  1.00  0.00     0.043 A 
HETATM   21  C11 UNL     1       1.916   5.626   0.614  1.00  0.00     0.116 A 
HETATM   22  F1  UNL     1       2.578   6.725   1.047  1.00  0.00    -0.206 F 
HETATM   23  C12 UNL     1       0.722   5.307   1.213  1.00  0.00     0.043 A 
HETATM   24  C13 UNL     1       0.041   4.189   0.777  1.00  0.00     0.012 A 
ENDBRANCH  17  18
ENDBRANCH   1  17
BRANCH   4  25
HETATM   25  C15 UNL     1       2.552  -1.994  -0.261  1.00  0.00     0.036 A 
HETATM   26  C16 UNL     1       2.795  -3.105   0.517  1.00  0.00     0.029 A 
HETATM   27  C17 UNL     1       3.736  -4.035   0.222  1.00  0.00     0.002 A 
HETATM   28  C18 UNL     1       4.522  -3.917  -0.902  1.00  0.00     0.000 A 
HETATM   29  C19 UNL     1       4.318  -2.837  -1.701  1.00  0.00     0.002 A 
HETATM   30  C20 UNL     1       3.365  -1.927  -1.371  1.00  0.00     0.029 A 
ENDBRANCH   4  25
TORSDOF 6
