REMARK  8 active torsions:
REMARK  status: ('A' for Active; 'I' for Inactive)
REMARK    1  A    between atoms: O1_1  and  C1_2 
REMARK    2  A    between atoms: C1_2  and  C2_3 
REMARK    3  A    between atoms: C3_4  and  C4_5 
REMARK    4  A    between atoms: C4_5  and  N1_6 
REMARK    5  A    between atoms: N1_6  and  C5_7 
REMARK    6  A    between atoms: N1_6  and  C11_15 
REMARK    7  A    between atoms: C11_15  and  C12_16 
REMARK    8  A    between atoms: C17_21  and  O2_22 
ROOT
HETATM    1  N1  UNL     1      -0.384  -0.547  -1.172  1.00  0.00    -0.385 N 
ENDROOT
BRANCH   1   2
HETATM    2  C4  UNL     1       0.940  -1.018  -1.537  1.00  0.00     0.161 C 
BRANCH   2   3
HETATM    3  C3  UNL     1       1.954  -0.874  -0.502  1.00  0.00    -0.036 C 
HETATM    4  C2  UNL     1       3.069  -0.125  -0.532  1.00  0.00    -0.045 C 
HETATM    5  C22 UNL     1       4.138   0.072   0.458  1.00  0.00     0.064 C 
HETATM    6  C21 UNL     1       3.655   0.176   1.867  1.00  0.00    -0.022 C 
HETATM    7  C20 UNL     1       2.741  -0.486   2.559  1.00  0.00    -0.004 C 
HETATM    8  C19 UNL     1       1.942  -1.584   1.971  1.00  0.00     0.000 C 
HETATM    9  C18 UNL     1       1.628  -1.716   0.669  1.00  0.00     0.009 C 
BRANCH   4  10
HETATM   10  C1  UNL     1       3.387   0.689  -1.725  1.00  0.00     0.199 C 
BRANCH  10  11
HETATM   11  O1  UNL     1       4.612   0.310  -2.287  1.00  0.00    -0.397 OA
HETATM   12  H1  UNL     1       4.516  -0.045  -3.199  1.00  0.00     0.209 HD
ENDBRANCH  10  11
ENDBRANCH   4  10
ENDBRANCH   2   3
ENDBRANCH   1   2
BRANCH   1  13
HETATM   13  C5  UNL     1      -0.369   0.859  -1.030  1.00  0.00     0.092 C 
HETATM   14  C6  UNL     1      -0.117   2.001  -0.432  1.00  0.00    -0.052 C 
HETATM   15  C7  UNL     1      -0.453   3.271  -1.010  1.00  0.00     0.009 C 
HETATM   16  C10 UNL     1       0.555   1.893   0.916  1.00  0.00    -0.010 C 
HETATM   17  C8  UNL     1      -0.918   4.279  -0.292  1.00  0.00     0.024 C 
HETATM   18  C9  UNL     1      -1.163   4.295   1.138  1.00  0.00     0.038 C 
HETATM   19  F1  UNL     1      -1.938   5.280   1.617  1.00  0.00    -0.225 F 
HETATM   20  B1  UNL     1      -0.367   2.945   2.053  1.00  0.00     0.227 B 
ENDBRANCH   1  13
BRANCH   1  21
HETATM   21  C11 UNL     1      -1.447  -1.502  -1.054  1.00  0.00     0.133 C 
BRANCH  21  22
HETATM   22  C12 UNL     1      -2.769  -0.950  -0.596  1.00  0.00     0.059 A 
HETATM   23  C13 UNL     1      -2.603  -0.372   0.754  1.00  0.00    -0.018 A 
HETATM   24  C14 UNL     1      -3.264  -0.749   1.858  1.00  0.00    -0.004 A 
HETATM   25  C15 UNL     1      -4.267  -1.834   1.814  1.00  0.00    -0.002 A 
HETATM   26  C16 UNL     1      -4.437  -2.372   0.613  1.00  0.00     0.005 A 
HETATM   27  C17 UNL     1      -3.788  -2.058  -0.662  1.00  0.00     0.150 A 
BRANCH  27  28
HETATM   28  O2  UNL     1      -3.155  -3.235  -1.088  1.00  0.00    -0.391 OA
HETATM   29  H19 UNL     1      -3.240  -3.291  -2.076  1.00  0.00     0.210 HD
ENDBRANCH  27  28
ENDBRANCH  21  22
ENDBRANCH   1  21
TORSDOF 8
