REMARK  7 active torsions:
REMARK  status: ('A' for Active; 'I' for Inactive)
REMARK    1  A    between atoms: C2_2  and  C3_3 
REMARK    2  A    between atoms: C3_3  and  N1_5 
REMARK    3  A    between atoms: N1_5  and  C4_6 
REMARK       I    between atoms: N1_5  and  C10_15 
REMARK    4  A    between atoms: C4_6  and  C5_7 
REMARK    5  A    between atoms: C6_8  and  P1_9 
REMARK    6  A    between atoms: C7_10  and  N2_11 
REMARK    7  A    between atoms: C10_15  and  C11_17 
ROOT
HETATM    1  N1  UNL     1       0.213   1.247   0.298  1.00  0.00    -0.313 N 
HETATM    2  C10 UNL     1       1.296   0.689  -0.425  1.00  0.00     0.256 C 
HETATM    3  O1  UNL     1       2.010   1.431  -1.138  1.00  0.00    -0.267 OA
ENDROOT
BRANCH   1   4
HETATM    4  C3  UNL     1       0.026   2.675   0.168  1.00  0.00     0.274 C 
HETATM    5  F1  UNL     1      -0.160   3.111  -1.113  1.00  0.00    -0.227 F 
BRANCH   4   6
HETATM    6  C2  UNL     1       1.244   3.418   0.735  1.00  0.00     0.055 C 
HETATM    7  C1  UNL     1       0.933   4.900   0.708  1.00  0.00     0.010 C 
ENDBRANCH   4   6
ENDBRANCH   1   4
BRANCH   1   8
HETATM    8  C4  UNL     1      -0.727   0.562   1.159  1.00  0.00     0.169 C 
BRANCH   8   9
HETATM    9  C5  UNL     1      -1.931   0.049   0.441  1.00  0.00    -0.021 A 
HETATM   10  C6  UNL     1      -2.220  -1.258   0.480  1.00  0.00    -0.001 A 
HETATM   11  C7  UNL     1      -3.386  -1.815  -0.201  1.00  0.00     0.055 A 
HETATM   12  C8  UNL     1      -4.367  -1.304  -0.930  1.00  0.00     0.051 A 
HETATM   13  S1  UNL     1      -4.154   0.306  -1.105  1.00  0.00    -0.098 SA
HETATM   14  C9  UNL     1      -2.844   0.888  -0.325  1.00  0.00     0.060 A 
BRANCH  10  15
HETATM   15  P1  UNL     1      -1.253  -2.534   1.359  1.00  0.00    -0.103 P 
HETATM   16  H9  UNL     1      -2.108  -2.979   2.473  1.00  0.00     0.059 HD
HETATM   17  H10 UNL     1      -0.939  -3.678   0.540  1.00  0.00     0.059 HD
ENDBRANCH  10  15
BRANCH  11  18
HETATM   18  N2  UNL     1      -3.758  -3.185  -0.231  1.00  0.00    -0.397 N 
HETATM   19  H11 UNL     1      -4.579  -3.695   0.219  1.00  0.00     0.156 HD
HETATM   20  H12 UNL     1      -3.300  -4.006  -0.712  1.00  0.00     0.156 HD
ENDBRANCH  11  18
ENDBRANCH   8   9
ENDBRANCH   1   8
BRANCH   2  21
HETATM   21  C11 UNL     1       1.901  -0.606  -0.620  1.00  0.00     0.032 A 
HETATM   22  C12 UNL     1       3.237  -0.826  -0.244  1.00  0.00     0.017 A 
HETATM   23  C13 UNL     1       3.822  -2.088  -0.431  1.00  0.00     0.001 A 
HETATM   24  C14 UNL     1       3.046  -3.083  -0.987  1.00  0.00     0.000 A 
HETATM   25  C15 UNL     1       1.724  -2.907  -1.371  1.00  0.00     0.001 A 
HETATM   26  C16 UNL     1       1.180  -1.639  -1.170  1.00  0.00     0.017 A 
ENDBRANCH   2  21
TORSDOF 7
