REMARK  6 active torsions:
REMARK  status: ('A' for Active; 'I' for Inactive)
REMARK    1  A    between atoms: C4_5  and  C5_6 
REMARK    2  A    between atoms: C6_7  and  N1_8 
REMARK    3  A    between atoms: N1_8  and  C7_9 
REMARK       I    between atoms: N1_8  and  C15_18 
REMARK    4  A    between atoms: C7_9  and  C8_10 
REMARK    5  A    between atoms: C14_16  and  O1_17 
REMARK       I    between atoms: C15_18  and  N2_20 
REMARK    6  A    between atoms: N2_20  and  C16_21 
ROOT
HETATM    1  C1  UNL     1      -1.562   7.243   1.325  1.00  0.00     0.020 C 
HETATM    2  C2  UNL     1      -0.987   6.298   0.850  1.00  0.00    -0.047 C 
HETATM    3  C3  UNL     1      -0.300   5.188   0.265  1.00  0.00     0.168 C 
HETATM    4  F1  UNL     1       0.926   5.235  -0.300  1.00  0.00    -0.196 F 
HETATM    5  C4  UNL     1      -0.936   4.031   0.289  1.00  0.00     0.053 C 
ENDROOT
BRANCH   5   6
HETATM    6  C5  UNL     1      -0.346   2.823  -0.274  1.00  0.00     0.021 C 
HETATM    7  C6  UNL     1      -0.806   1.609  -0.345  1.00  0.00     0.096 C 
BRANCH   7   8
HETATM    8  N1  UNL     1      -0.251   0.425  -0.882  1.00  0.00    -0.305 N 
HETATM    9  C15 UNL     1      -1.103  -0.747  -0.855  1.00  0.00     0.327 C 
HETATM   10  O2  UNL     1      -0.746  -1.864  -1.302  1.00  0.00    -0.246 OA
HETATM   11  N2  UNL     1      -2.428  -0.872  -0.353  1.00  0.00    -0.309 N 
HETATM   12  H14 UNL     1      -2.864  -0.013   0.055  1.00  0.00     0.170 HD
BRANCH   8  13
HETATM   13  C7  UNL     1       1.046   0.183  -1.480  1.00  0.00     0.174 C 
BRANCH  13  14
HETATM   14  C8  UNL     1       2.086  -0.292  -0.547  1.00  0.00    -0.006 A 
HETATM   15  C9  UNL     1       2.405  -1.660  -0.575  1.00  0.00     0.012 A 
HETATM   16  C10 UNL     1       3.334  -2.256   0.217  1.00  0.00     0.001 A 
HETATM   17  C11 UNL     1       4.052  -1.521   1.135  1.00  0.00     0.009 A 
HETATM   18  C12 UNL     1       3.789  -0.174   1.214  1.00  0.00    -0.028 A 
HETATM   19  C13 UNL     1       4.521   0.682   2.179  1.00  0.00     0.051 C 
HETATM   20  C14 UNL     1       2.838   0.368   0.387  1.00  0.00     0.079 A 
BRANCH  20  21
HETATM   21  O1  UNL     1       2.615   1.726   0.509  1.00  0.00    -0.360 OA
HETATM   22  H13 UNL     1       2.263   2.191   1.319  1.00  0.00     0.217 HD
ENDBRANCH  20  21
ENDBRANCH  13  14
ENDBRANCH   8  13
BRANCH  11  23
HETATM   23  C16 UNL     1      -2.996  -2.180  -0.475  1.00  0.00     0.036 A 
HETATM   24  C17 UNL     1      -2.742  -2.984   0.612  1.00  0.00     0.029 A 
HETATM   25  C18 UNL     1      -3.219  -4.286   0.664  1.00  0.00     0.002 A 
HETATM   26  C19 UNL     1      -3.970  -4.808  -0.390  1.00  0.00     0.000 A 
HETATM   27  C20 UNL     1      -4.213  -3.981  -1.471  1.00  0.00     0.002 A 
HETATM   28  C21 UNL     1      -3.726  -2.680  -1.506  1.00  0.00     0.029 A 
ENDBRANCH  11  23
ENDBRANCH   7   8
ENDBRANCH   5   6
TORSDOF 6
