REMARK  7 active torsions:
REMARK  status: ('A' for Active; 'I' for Inactive)
REMARK    1  A    between atoms: C4_4  and  C5_5 
REMARK    2  A    between atoms: C6_6  and  N1_7 
REMARK       I    between atoms: N1_7  and  C7_8 
REMARK       I    between atoms: C7_8  and  N2_10 
REMARK    3  A    between atoms: N2_10  and  C8_11 
REMARK    4  A    between atoms: N2_10  and  C15_19 
REMARK    5  A    between atoms: C8_11  and  C9_12 
REMARK    6  A    between atoms: C15_19  and  C16_20 
REMARK    7  A    between atoms: C21_26  and  O2_27 
ROOT
HETATM    1  C1  UNL     1       6.408   2.025  -3.042  1.00  0.00     0.017 C 
HETATM    2  C2  UNL     1       6.495   1.216  -2.138  1.00  0.00    -0.089 C 
HETATM    3  C3  UNL     1       6.609   0.266  -1.071  1.00  0.00     0.063 C 
HETATM    4  C4  UNL     1       5.495   0.008  -0.369  1.00  0.00     0.010 C 
ENDROOT
BRANCH   4   5
HETATM    5  C5  UNL     1       4.225   0.656  -0.667  1.00  0.00     0.018 C 
HETATM    6  C6  UNL     1       3.088   0.452  -0.027  1.00  0.00     0.092 C 
BRANCH   6   7
HETATM    7  N1  UNL     1       1.855   1.091  -0.324  1.00  0.00    -0.319 N 
HETATM    8  C7  UNL     1       0.877   0.124  -0.746  1.00  0.00     0.322 C 
HETATM    9  O1  UNL     1       1.439  -1.030  -0.739  1.00  0.00    -0.247 OA
HETATM   10  N2  UNL     1      -0.512  -0.005  -1.176  1.00  0.00    -0.325 N 
HETATM   11  H6  UNL     1       1.291   1.986  -0.373  1.00  0.00     0.170 HD
BRANCH  10  12
HETATM   12  C8  UNL     1      -0.752  -1.393  -1.456  1.00  0.00     0.166 C 
BRANCH  12  13
HETATM   13  C9  UNL     1      -1.329  -2.215  -0.381  1.00  0.00    -0.040 A 
HETATM   14  C10 UNL     1      -2.714  -2.435  -0.392  1.00  0.00     0.012 A 
HETATM   15  C11 UNL     1      -3.499  -3.161   0.495  1.00  0.00     0.043 A 
HETATM   16  C12 UNL     1      -2.795  -3.740   1.526  1.00  0.00     0.116 A 
HETATM   17  F1  UNL     1      -3.512  -4.461   2.426  1.00  0.00    -0.206 F 
HETATM   18  C13 UNL     1      -1.437  -3.583   1.623  1.00  0.00     0.043 A 
HETATM   19  C14 UNL     1      -0.755  -2.847   0.696  1.00  0.00     0.012 A 
ENDBRANCH  12  13
ENDBRANCH  10  12
BRANCH  10  20
HETATM   20  C15 UNL     1      -1.137   1.298  -1.183  1.00  0.00     0.169 C 
BRANCH  20  21
HETATM   21  C16 UNL     1      -1.811   1.739   0.026  1.00  0.00    -0.006 A 
HETATM   22  C17 UNL     1      -1.282   2.576   0.992  1.00  0.00     0.012 A 
HETATM   23  C18 UNL     1      -1.894   2.991   2.150  1.00  0.00     0.002 A 
HETATM   24  C19 UNL     1      -3.172   2.565   2.438  1.00  0.00     0.022 A 
HETATM   25  C20 UNL     1      -3.791   1.723   1.531  1.00  0.00     0.044 A 
HETATM   26 BR1  UNL     1      -5.557   1.130   1.924  1.00  0.00    -0.048 Br
HETATM   27  C21 UNL     1      -3.095   1.363   0.400  1.00  0.00     0.090 A 
BRANCH  27  28
HETATM   28  O2  UNL     1      -3.829   0.521  -0.431  1.00  0.00    -0.359 OA
HETATM   29  H18 UNL     1      -4.017   0.749  -1.390  1.00  0.00     0.217 HD
ENDBRANCH  27  28
ENDBRANCH  20  21
ENDBRANCH  10  20
ENDBRANCH   6   7
ENDBRANCH   4   5
TORSDOF 7
