REMARK  5 active torsions:
REMARK  status: ('A' for Active; 'I' for Inactive)
REMARK       I    between atoms: C1_2  and  N1_3 
REMARK       I    between atoms: C1_2  and  N3_11 
REMARK    1  A    between atoms: N1_3  and  C2_4 
REMARK    2  A    between atoms: N3_11  and  C8_12 
REMARK    3  A    between atoms: N3_11  and  C15_21 
REMARK    4  A    between atoms: C8_12  and  C9_13 
REMARK    5  A    between atoms: C14_19  and  O2_20 
ROOT
HETATM    1  O1  UNL     1       0.508   2.310  -0.961  1.00  0.00    -0.246 OA
HETATM    2  C1  UNL     1       0.100   1.139  -0.728  1.00  0.00     0.327 C 
HETATM    3  N1  UNL     1       1.358   0.494  -0.702  1.00  0.00    -0.318 N 
HETATM    4  N3  UNL     1      -1.104   0.371  -0.514  1.00  0.00    -0.296 N 
HETATM    5  H1  UNL     1       1.491  -0.520  -0.554  1.00  0.00     0.170 HD
ENDROOT
BRANCH   4   6
HETATM    6  C8  UNL     1      -1.042  -1.033  -0.205  1.00  0.00     0.175 C 
BRANCH   6   7
HETATM    7  C9  UNL     1      -0.915  -1.394   1.218  1.00  0.00    -0.005 A 
HETATM    8  C10 UNL     1       0.313  -1.916   1.668  1.00  0.00     0.012 A 
HETATM    9  C11 UNL     1       0.625  -2.330   2.946  1.00  0.00     0.002 A 
HETATM   10  C12 UNL     1      -0.353  -2.239   3.925  1.00  0.00     0.022 A 
HETATM   11  C13 UNL     1      -1.580  -1.736   3.552  1.00  0.00     0.044 A 
HETATM   12 BR1  UNL     1      -2.929  -1.607   4.892  1.00  0.00    -0.048 Br
HETATM   13  C14 UNL     1      -1.783  -1.354   2.254  1.00  0.00     0.090 A 
BRANCH  13  14
HETATM   14  O2  UNL     1      -3.045  -0.877   2.028  1.00  0.00    -0.359 OA
HETATM   15  H13 UNL     1      -3.271   0.037   2.414  1.00  0.00     0.217 HD
ENDBRANCH  13  14
ENDBRANCH   6   7
ENDBRANCH   4   6
BRANCH   4  16
HETATM   16  C15 UNL     1      -2.369   1.013  -0.672  1.00  0.00     0.054 C 
HETATM   17  C16 UNL     1      -2.629   2.287  -0.912  1.00  0.00     0.120 C 
HETATM   18  F1  UNL     1      -1.657   3.219  -1.050  1.00  0.00    -0.208 F 
HETATM   19  C17 UNL     1      -4.020   2.793  -1.054  1.00  0.00     0.099 C 
HETATM   20  C18 UNL     1      -4.728   2.050  -2.135  1.00  0.00    -0.024 C 
HETATM   21  C19 UNL     1      -4.523   0.763  -1.880  1.00  0.00    -0.024 C 
HETATM   22  C20 UNL     1      -3.706   0.422  -0.678  1.00  0.00     0.087 C 
ENDBRANCH   4  16
BRANCH   3  23
HETATM   23  C2  UNL     1       2.639   1.068  -0.886  1.00  0.00     0.101 C 
HETATM   24  C3  UNL     1       3.809   0.458  -0.860  1.00  0.00    -0.023 A 
HETATM   25  C4  UNL     1       3.936  -0.973  -0.623  1.00  0.00     0.011 A 
HETATM   26  C7  UNL     1       5.066   1.188  -1.069  1.00  0.00     0.188 A 
HETATM   27  C5  UNL     1       5.092  -1.636  -0.586  1.00  0.00     0.019 A 
HETATM   28  C6  UNL     1       6.309  -0.882  -0.796  1.00  0.00     0.110 A 
HETATM   29  N2  UNL     1       6.227   0.365  -1.005  1.00  0.00    -0.297 NA
ENDBRANCH   3  23
TORSDOF 5
