REMARK  4 active torsions:
REMARK  status: ('A' for Active; 'I' for Inactive)
REMARK    1  A    between atoms: C2_2  and  C3_3 
REMARK    2  A    between atoms: C3_3  and  C4_4 
REMARK    3  A    between atoms: C5_5  and  N1_6 
REMARK       I    between atoms: N1_6  and  C6_7 
REMARK       I    between atoms: C6_7  and  N2_9 
REMARK    4  A    between atoms: C17_22  and  O2_23 
ROOT
HETATM    1  N1  UNL     1       2.067  -0.743  -1.163  1.00  0.00    -0.319 N 
HETATM    2  C6  UNL     1       1.526   0.022  -0.099  1.00  0.00     0.322 C 
HETATM    3  O1  UNL     1       2.140  -0.013   0.991  1.00  0.00    -0.247 OA
HETATM    4  N2  UNL     1       0.378   0.835  -0.076  1.00  0.00    -0.326 N 
HETATM    5  C7  UNL     1       0.080   1.496   1.172  1.00  0.00     0.155 C 
HETATM    6  C8  UNL     1      -0.608   0.576   2.067  1.00  0.00    -0.004 C 
HETATM    7  C9  UNL     1      -1.605   0.004   2.721  1.00  0.00     0.039 C 
HETATM    8  C10 UNL     1      -3.030   0.058   2.886  1.00  0.00     0.112 C 
HETATM    9  F1  UNL     1      -3.702  -0.701   3.773  1.00  0.00    -0.206 F 
HETATM   10  C11 UNL     1      -3.988   0.742   2.335  1.00  0.00     0.020 C 
HETATM   11  C12 UNL     1      -3.338   1.608   1.314  1.00  0.00     0.069 C 
HETATM   12  C13 UNL     1      -3.004   0.772   0.106  1.00  0.00    -0.044 A 
HETATM   13  C14 UNL     1      -4.131  -0.057  -0.100  1.00  0.00     0.009 A 
HETATM   14  C15 UNL     1      -4.314  -1.042  -1.087  1.00  0.00     0.022 A 
HETATM   15  C16 UNL     1      -3.267  -1.224  -1.962  1.00  0.00     0.044 A 
HETATM   16 BR1  UNL     1      -3.352  -2.518  -3.355  1.00  0.00    -0.048 Br
HETATM   17  C17 UNL     1      -2.167  -0.420  -1.768  1.00  0.00     0.091 A 
HETATM   18  C18 UNL     1      -1.951   0.551  -0.820  1.00  0.00     0.001 A 
HETATM   19  C19 UNL     1      -0.708   1.300  -0.873  1.00  0.00     0.170 C 
HETATM   20  H6  UNL     1       1.530  -0.688  -2.055  1.00  0.00     0.170 HD
ENDROOT
BRANCH   1  21
HETATM   21  C5  UNL     1       3.250  -1.434  -0.782  1.00  0.00     0.093 C 
HETATM   22  C4  UNL     1       4.465  -1.328  -1.294  1.00  0.00     0.025 C 
BRANCH  22  23
HETATM   23  C3  UNL     1       5.843  -1.776  -1.244  1.00  0.00     0.052 C 
BRANCH  23  24
HETATM   24  C2  UNL     1       6.776  -0.981  -0.742  1.00  0.00    -0.155 C 
HETATM   25  C1  UNL     1       7.497  -0.016  -0.202  1.00  0.00     0.096 C 
ENDBRANCH  23  24
ENDBRANCH  22  23
ENDBRANCH   1  21
BRANCH  17  26
HETATM   26  O2  UNL     1      -1.135  -0.640  -2.676  1.00  0.00    -0.359 OA
HETATM   27  H16 UNL     1      -1.143  -0.329  -3.625  1.00  0.00     0.217 HD
ENDBRANCH  17  26
TORSDOF 4
