REMARK  6 active torsions:
REMARK  status: ('A' for Active; 'I' for Inactive)
REMARK    1  A    between atoms: C5_5  and  C6_6 
REMARK    2  A    between atoms: C6_6  and  N1_7 
REMARK    3  A    between atoms: N1_7  and  P1_8 
REMARK       I    between atoms: N1_7  and  C14_17 
REMARK    4  A    between atoms: P1_8  and  C7_9 
REMARK    5  A    between atoms: C7_9  and  C8_10 
REMARK       I    between atoms: C14_17  and  N2_19 
REMARK    6  A    between atoms: N2_19  and  C15_20 
ROOT
HETATM    1  N1  UNL     1       0.177  -0.422   0.308  1.00  0.00    -0.308 N 
HETATM    2  C14 UNL     1       0.400   0.943   0.561  1.00  0.00     0.326 C 
HETATM    3  O1  UNL     1       1.419   1.311   1.159  1.00  0.00    -0.247 OA
HETATM    4  N2  UNL     1      -0.569   1.869   0.112  1.00  0.00    -0.309 N 
HETATM    5  H17 UNL     1      -1.437   1.596  -0.393  1.00  0.00     0.170 HD
ENDROOT
BRANCH   1   6
HETATM    6  C6  UNL     1       1.115  -1.445   0.729  1.00  0.00     0.168 C 
BRANCH   6   7
HETATM    7  C5  UNL     1       2.113  -1.644  -0.416  1.00  0.00     0.162 C 
HETATM    8  C4  UNL     1       3.051  -2.767  -0.081  1.00  0.00     0.003 C 
HETATM    9  C3  UNL     1       4.377  -2.704  -0.159  1.00  0.00    -0.022 C 
HETATM   10  C2  UNL     1       4.893  -1.367  -0.629  1.00  0.00     0.028 C 
HETATM   11  C1  UNL     1       6.325  -1.166  -0.184  1.00  0.00     0.016 C 
HETATM   12  C21 UNL     1       3.962  -0.358   0.010  1.00  0.00     0.176 C 
HETATM   13  O2  UNL     1       2.743  -0.444  -0.631  1.00  0.00    -0.380 OA
ENDBRANCH   6   7
ENDBRANCH   1   6
BRANCH   1  14
HETATM   14  P1  UNL     1      -1.285  -1.017  -0.557  1.00  0.00    -0.018 P 
HETATM   15  H10 UNL     1      -1.752  -0.083  -1.538  1.00  0.00     0.081 HD
BRANCH  14  16
HETATM   16  C7  UNL     1      -2.585  -1.345   0.731  1.00  0.00     0.092 C 
BRANCH  16  17
HETATM   17  C8  UNL     1      -3.808  -1.804   0.044  1.00  0.00    -0.052 A 
HETATM   18  C9  UNL     1      -4.722  -0.837  -0.345  1.00  0.00     0.010 A 
HETATM   19  C10 UNL     1      -5.898  -1.194  -0.997  1.00  0.00     0.043 A 
HETATM   20  C11 UNL     1      -6.142  -2.529  -1.252  1.00  0.00     0.116 A 
HETATM   21  F1  UNL     1      -7.286  -2.864  -1.886  1.00  0.00    -0.206 F 
HETATM   22  C12 UNL     1      -5.226  -3.512  -0.864  1.00  0.00     0.043 A 
HETATM   23  C13 UNL     1      -4.054  -3.135  -0.212  1.00  0.00     0.010 A 
ENDBRANCH  16  17
ENDBRANCH  14  16
ENDBRANCH   1  14
BRANCH   4  24
HETATM   24  C15 UNL     1      -0.528   3.280   0.269  1.00  0.00     0.036 A 
HETATM   25  C16 UNL     1       0.075   4.030  -0.716  1.00  0.00     0.029 A 
HETATM   26  C17 UNL     1       0.120   5.419  -0.571  1.00  0.00     0.002 A 
HETATM   27  C18 UNL     1      -0.425   6.035   0.532  1.00  0.00     0.000 A 
HETATM   28  C19 UNL     1      -1.041   5.298   1.541  1.00  0.00     0.002 A 
HETATM   29  C20 UNL     1      -1.068   3.918   1.365  1.00  0.00     0.029 A 
ENDBRANCH   4  24
TORSDOF 6
