REMARK  8 active torsions:
REMARK  status: ('A' for Active; 'I' for Inactive)
REMARK    1  A    between atoms: O1_2  and  C2_3 
REMARK    2  A    between atoms: C7_8  and  N1_9 
REMARK    3  A    between atoms: N1_9  and  N2_10 
REMARK    4  A    between atoms: N2_10  and  C8_11 
REMARK    5  A    between atoms: N2_10  and  C14_18 
REMARK    6  A    between atoms: C8_11  and  C9_12 
REMARK    7  A    between atoms: C14_18  and  C15_19 
REMARK    8  A    between atoms: C21_25  and  O2_26 
ROOT
HETATM    1  N2  UNL     1       0.500   1.083   0.861  1.00  0.00    -0.223 NA
ENDROOT
BRANCH   1   2
HETATM    2  N1  UNL     1      -0.712   0.661   0.314  1.00  0.00    -0.316 N 
HETATM    3  H8  UNL     1      -1.569   1.296   0.330  1.00  0.00     0.181 HD
BRANCH   2   4
HETATM    4  C7  UNL     1      -1.388  -0.386  -0.329  1.00  0.00     0.076 A 
HETATM    5  C2  UNL     1      -2.194  -1.359   0.225  1.00  0.00     0.095 A 
HETATM    6  C3  UNL     1      -2.766  -2.324  -0.578  1.00  0.00     0.039 A 
HETATM    7  C4  UNL     1      -2.510  -2.286  -1.931  1.00  0.00     0.003 A 
HETATM    8  C5  UNL     1      -1.718  -1.351  -2.563  1.00  0.00     0.002 A 
HETATM    9  C6  UNL     1      -1.159  -0.392  -1.711  1.00  0.00     0.033 A 
BRANCH   5  10
HETATM   10  O1  UNL     1      -2.364  -1.273   1.599  1.00  0.00    -0.354 OA
HETATM   11  C1  UNL     1      -3.163  -2.216   2.244  1.00  0.00     0.210 C 
ENDBRANCH   5  10
ENDBRANCH   2   4
ENDBRANCH   1   2
BRANCH   1  12
HETATM   12  C8  UNL     1       0.209   2.240   1.686  1.00  0.00     0.148 C 
BRANCH  12  13
HETATM   13  C9  UNL     1      -0.345   3.363   0.897  1.00  0.00    -0.059 A 
HETATM   14  C10 UNL     1      -0.583   3.469  -0.389  1.00  0.00     0.007 A 
HETATM   15  C11 UNL     1      -1.136   4.741  -0.787  1.00  0.00     0.038 A 
HETATM   16  C12 UNL     1      -1.248   5.469   0.316  1.00  0.00     0.098 A 
HETATM   17  F1  UNL     1      -1.690   6.717   0.575  1.00  0.00    -0.211 F 
HETATM   18  C13 UNL     1      -0.762   4.670   1.467  1.00  0.00     0.105 A 
ENDBRANCH  12  13
ENDBRANCH   1  12
BRANCH   1  19
HETATM   19  C14 UNL     1       1.118   0.077   1.704  1.00  0.00     0.155 C 
BRANCH  19  20
HETATM   20  C15 UNL     1       1.484  -1.160   1.001  1.00  0.00    -0.010 A 
HETATM   21  C16 UNL     1       0.946  -2.428   0.978  1.00  0.00     0.011 A 
HETATM   22  C17 UNL     1       1.507  -3.427   0.216  1.00  0.00     0.001 A 
HETATM   23  C18 UNL     1       2.628  -3.207  -0.557  1.00  0.00     0.009 A 
HETATM   24  C19 UNL     1       3.188  -1.948  -0.554  1.00  0.00    -0.028 A 
HETATM   25  C20 UNL     1       4.392  -1.782  -1.408  1.00  0.00     0.051 C 
HETATM   26  C21 UNL     1       2.622  -0.928   0.220  1.00  0.00     0.079 A 
BRANCH  26  27
HETATM   27  O2  UNL     1       3.335   0.270   0.088  1.00  0.00    -0.360 OA
HETATM   28  H23 UNL     1       3.820   0.599   0.896  1.00  0.00     0.217 HD
ENDBRANCH  26  27
ENDBRANCH  19  20
ENDBRANCH   1  19
TORSDOF 8
