REMARK  5 active torsions:
REMARK  status: ('A' for Active; 'I' for Inactive)
REMARK    1  A    between atoms: C6_6  and  C7_7 
REMARK    2  A    between atoms: C7_7  and  N1_8 
REMARK    3  A    between atoms: C15_17  and  N2_18 
REMARK    4  A    between atoms: N2_18  and  C16_19 
REMARK    5  A    between atoms: C22_25  and  O1_26 
ROOT
HETATM    1  N1  UNL     1      -0.004  -0.739   0.359  1.00  0.00    -0.380 N 
HETATM    2  C8  UNL     1       0.564  -1.914  -0.177  1.00  0.00     0.159 A 
HETATM    3  C9  UNL     1      -0.579  -2.915  -0.202  1.00  0.00    -0.030 A 
HETATM    4  C10 UNL     1      -0.646  -4.241  -0.572  1.00  0.00     0.012 A 
HETATM    5  C11 UNL     1      -1.841  -4.947  -0.479  1.00  0.00     0.043 A 
HETATM    6  C12 UNL     1      -2.942  -4.244   0.003  1.00  0.00     0.117 A 
HETATM    7  F1  UNL     1      -4.114  -4.952   0.090  1.00  0.00    -0.206 F 
HETATM    8  C13 UNL     1      -2.938  -2.920   0.388  1.00  0.00     0.054 A 
HETATM    9  C14 UNL     1      -1.716  -2.297   0.262  1.00  0.00    -0.006 A 
HETATM   10  C15 UNL     1      -1.394  -0.858   0.577  1.00  0.00     0.215 A 
ENDROOT
BRANCH   1  11
HETATM   11  C7  UNL     1       0.797  -0.127   1.338  1.00  0.00     0.161 C 
BRANCH  11  12
HETATM   12  C6  UNL     1       2.018   0.570   0.874  1.00  0.00    -0.007 A 
HETATM   13  C5  UNL     1       1.857   1.956   0.696  1.00  0.00     0.011 A 
HETATM   14  C4  UNL     1       2.797   2.835   0.250  1.00  0.00     0.001 A 
HETATM   15  C3  UNL     1       4.046   2.360  -0.069  1.00  0.00     0.009 A 
HETATM   16  C2  UNL     1       4.276   1.011   0.083  1.00  0.00    -0.028 A 
HETATM   17  C1  UNL     1       5.592   0.399  -0.234  1.00  0.00     0.051 C 
HETATM   18  C22 UNL     1       3.288   0.181   0.535  1.00  0.00     0.079 A 
BRANCH  18  19
HETATM   19  O1  UNL     1       3.550  -1.167   0.681  1.00  0.00    -0.360 OA
HETATM   20  H21 UNL     1       3.577  -1.767  -0.133  1.00  0.00     0.217 HD
ENDBRANCH  18  19
ENDBRANCH  11  12
ENDBRANCH   1  11
BRANCH  10  21
HETATM   21  N2  UNL     1      -2.254   0.028  -0.132  1.00  0.00    -0.365 N 
HETATM   22  H15 UNL     1      -2.777  -0.557  -0.852  1.00  0.00     0.162 HD
BRANCH  21  23
HETATM   23  C16 UNL     1      -2.616   1.394  -0.183  1.00  0.00     0.029 A 
HETATM   24  C17 UNL     1      -2.119   2.369   0.652  1.00  0.00     0.029 A 
HETATM   25  C18 UNL     1      -2.464   3.707   0.604  1.00  0.00     0.002 A 
HETATM   26  C19 UNL     1      -3.366   4.046  -0.353  1.00  0.00     0.000 A 
HETATM   27  C20 UNL     1      -3.910   3.144  -1.222  1.00  0.00     0.002 A 
HETATM   28  C21 UNL     1      -3.520   1.839  -1.114  1.00  0.00     0.029 A 
ENDBRANCH  21  23
ENDBRANCH  10  21
TORSDOF 5
