REMARK  10 active torsions:
REMARK  status: ('A' for Active; 'I' for Inactive)
REMARK    1  A    between atoms: C2_2  and  C3_3 
REMARK    2  A    between atoms: C3_3  and  C4_4 
REMARK    3  A    between atoms: C4_4  and  C5_5 
REMARK    4  A    between atoms: C5_5  and  C6_6 
REMARK    5  A    between atoms: C6_6  and  N1_7 
REMARK       I    between atoms: N1_7  and  C7_8 
REMARK    6  A    between atoms: C7_8  and  O2_10 
REMARK    7  A    between atoms: O2_10  and  C8_11 
REMARK    8  A    between atoms: C9_12  and  N2_13 
REMARK    9  A    between atoms: N2_13  and  C10_14 
REMARK   10  A    between atoms: C10_14  and  C11_15 
ROOT
HETATM    1  C8  UNL     1      -0.068   2.598   0.506  1.00  0.00     0.103 C 
HETATM    2  C9  UNL     1      -1.358   2.393   0.263  1.00  0.00     0.043 C 
HETATM    3  C17 UNL     1      -2.429   3.327  -0.172  1.00  0.00     0.086 C 
HETATM    4  C18 UNL     1      -1.967   4.311  -1.184  1.00  0.00    -0.021 C 
HETATM    5  C19 UNL     1      -0.852   5.009  -1.332  1.00  0.00    -0.004 C 
HETATM    6  C20 UNL     1       0.291   4.933  -0.398  1.00  0.00     0.003 C 
HETATM    7  C21 UNL     1       0.618   3.896   0.384  1.00  0.00     0.039 C 
ENDROOT
BRANCH   1   8
HETATM    8  O2  UNL     1       0.744   1.545   0.909  1.00  0.00    -0.260 OA
BRANCH   8   9
HETATM    9  C7  UNL     1       0.925   0.421   0.118  1.00  0.00     0.366 C 
HETATM   10  N1  UNL     1       1.780  -0.582   0.649  1.00  0.00    -0.333 N 
HETATM   11  H8  UNL     1       2.247  -0.468   1.596  1.00  0.00     0.165 HD
HETATM   12  O1  UNL     1       0.398   0.233  -1.007  1.00  0.00    -0.238 OA
BRANCH  10  13
HETATM   13  C6  UNL     1       1.978  -1.768  -0.173  1.00  0.00     0.152 C 
BRANCH  13  14
HETATM   14  C5  UNL     1       2.890  -2.724   0.506  1.00  0.00    -0.007 C 
BRANCH  14  15
HETATM   15  C4  UNL     1       4.036  -3.104  -0.036  1.00  0.00     0.005 C 
BRANCH  15  16
HETATM   16  C3  UNL     1       4.471  -2.622  -1.307  1.00  0.00     0.050 C 
BRANCH  16  17
HETATM   17  C2  UNL     1       5.523  -1.843  -1.399  1.00  0.00    -0.155 C 
HETATM   18  C1  UNL     1       6.601  -1.090  -1.236  1.00  0.00     0.096 C 
ENDBRANCH  16  17
ENDBRANCH  15  16
ENDBRANCH  14  15
ENDBRANCH  13  14
ENDBRANCH  10  13
ENDBRANCH   8   9
ENDBRANCH   1   8
BRANCH   2  19
HETATM   19  N2  UNL     1      -1.786   1.027   0.456  1.00  0.00    -0.386 N 
HETATM   20  H9  UNL     1      -1.332   0.500   1.249  1.00  0.00     0.159 HD
BRANCH  19  21
HETATM   21  C10 UNL     1      -2.780   0.316  -0.337  1.00  0.00     0.158 C 
BRANCH  21  22
HETATM   22  C11 UNL     1      -2.990  -1.080   0.126  1.00  0.00    -0.040 A 
HETATM   23  C12 UNL     1      -2.229  -2.132  -0.393  1.00  0.00     0.012 A 
HETATM   24  C13 UNL     1      -2.396  -3.436   0.011  1.00  0.00     0.043 A 
HETATM   25  C14 UNL     1      -3.349  -3.724   0.964  1.00  0.00     0.116 A 
HETATM   26  F1  UNL     1      -3.483  -5.019   1.335  1.00  0.00    -0.206 F 
HETATM   27  C15 UNL     1      -4.121  -2.719   1.502  1.00  0.00     0.043 A 
HETATM   28  C16 UNL     1      -3.946  -1.415   1.091  1.00  0.00     0.012 A 
ENDBRANCH  21  22
ENDBRANCH  19  21
ENDBRANCH   2  19
TORSDOF 10
