REMARK  5 active torsions:
REMARK  status: ('A' for Active; 'I' for Inactive)
REMARK    1  A    between atoms: C3_3  and  C4_4 
REMARK    2  A    between atoms: C7_7  and  C8_8 
REMARK    3  A    between atoms: C13_14  and  O1_15 
REMARK    4  A    between atoms: N1_16  and  C14_17 
REMARK    5  A    between atoms: C14_17  and  C15_18 
ROOT
HETATM    1  C4  UNL     1       3.743  -0.052  -0.454  1.00  0.00     0.025 C 
HETATM    2  C5  UNL     1       2.478  -0.024  -0.058  1.00  0.00     0.016 C 
HETATM    3  C6  UNL     1       1.441   0.785  -0.716  1.00  0.00     0.087 C 
HETATM    4  C7  UNL     1       0.082   0.178  -0.755  1.00  0.00     0.131 C 
HETATM    5  N1  UNL     1      -0.075  -1.044  -0.019  1.00  0.00    -0.320 N 
HETATM    6  C21 UNL     1       0.762  -1.355   1.087  1.00  0.00     0.323 C 
HETATM    7  O2  UNL     1       0.334  -2.058   2.014  1.00  0.00    -0.247 OA
HETATM    8  N2  UNL     1       2.103  -0.817   1.062  1.00  0.00    -0.312 N 
HETATM    9  H20 UNL     1       2.756  -1.017   1.851  1.00  0.00     0.170 HD
ENDROOT
BRANCH   4  10
HETATM   10  C8  UNL     1      -0.874   1.234  -0.275  1.00  0.00    -0.000 A 
HETATM   11  C9  UNL     1      -1.114   1.266   1.087  1.00  0.00     0.012 A 
HETATM   12  C10 UNL     1      -1.964   2.173   1.690  1.00  0.00     0.002 A 
HETATM   13  C11 UNL     1      -2.621   3.111   0.888  1.00  0.00     0.022 A 
HETATM   14  C12 UNL     1      -2.367   3.056  -0.451  1.00  0.00     0.044 A 
HETATM   15 BR1  UNL     1      -3.258   4.335  -1.570  1.00  0.00    -0.048 Br
HETATM   16  C13 UNL     1      -1.531   2.170  -1.066  1.00  0.00     0.091 A 
BRANCH  16  17
HETATM   17  O1  UNL     1      -1.261   2.100  -2.420  1.00  0.00    -0.359 OA
HETATM   18  H13 UNL     1      -1.996   1.994  -3.096  1.00  0.00     0.217 HD
ENDBRANCH  16  17
ENDBRANCH   4  10
BRANCH   5  19
HETATM   19  C14 UNL     1      -1.114  -1.937  -0.446  1.00  0.00     0.167 C 
BRANCH  19  20
HETATM   20  C15 UNL     1      -2.424  -1.721   0.171  1.00  0.00    -0.040 A 
HETATM   21  C16 UNL     1      -3.288  -0.840  -0.459  1.00  0.00     0.012 A 
HETATM   22  C17 UNL     1      -4.562  -0.557   0.034  1.00  0.00     0.043 A 
HETATM   23  C18 UNL     1      -5.003  -1.167   1.199  1.00  0.00     0.116 A 
HETATM   24  F1  UNL     1      -6.233  -0.914   1.704  1.00  0.00    -0.206 F 
HETATM   25  C19 UNL     1      -4.147  -2.029   1.808  1.00  0.00     0.043 A 
HETATM   26  C20 UNL     1      -2.886  -2.314   1.326  1.00  0.00     0.012 A 
ENDBRANCH  19  20
ENDBRANCH   5  19
BRANCH   1  27
HETATM   27  C3  UNL     1       4.852  -0.807   0.113  1.00  0.00    -0.002 C 
HETATM   28  C2  UNL     1       6.085  -0.801  -0.316  1.00  0.00    -0.031 C 
HETATM   29  C1  UNL     1       6.559  -0.006  -1.471  1.00  0.00     0.036 C 
ENDBRANCH   1  27
TORSDOF 5
