REMARK  6 active torsions:
REMARK  status: ('A' for Active; 'I' for Inactive)
REMARK    1  A    between atoms: C6_7  and  O1_8 
REMARK    2  A    between atoms: C7_9  and  C8_10 
REMARK    3  A    between atoms: C8_10  and  C9_11 
REMARK    4  A    between atoms: C9_11  and  C10_12 
REMARK    5  A    between atoms: C9_11  and  C17_21 
REMARK       I    between atoms: C10_12  and  N1_14 
REMARK    6  A    between atoms: N1_14  and  C11_15 
ROOT
HETATM    1  C9  UNL     1       0.567   1.239   0.386  1.00  0.00     0.094 C 
ENDROOT
BRANCH   1   2
HETATM    2  C8  UNL     1       1.650   0.785  -0.554  1.00  0.00     0.057 C 
BRANCH   2   3
HETATM    3  C7  UNL     1       2.357  -0.431  -0.185  1.00  0.00    -0.017 A 
HETATM    4  C2  UNL     1       2.068  -1.756  -0.351  1.00  0.00    -0.053 A 
HETATM    5  C1  UNL     1       0.856  -2.077  -1.108  1.00  0.00     0.049 C 
HETATM    6  C3  UNL     1       2.810  -2.829   0.085  1.00  0.00     0.009 A 
HETATM    7  C4  UNL     1       3.982  -2.588   0.769  1.00  0.00     0.022 A 
HETATM    8  C5  UNL     1       4.360  -1.285   0.988  1.00  0.00     0.044 A 
HETATM    9 BR1  UNL     1       5.972  -0.954   1.925  1.00  0.00    -0.048 Br
HETATM   10  C6  UNL     1       3.565  -0.264   0.521  1.00  0.00     0.089 A 
BRANCH  10  11
HETATM   11  O1  UNL     1       4.033   1.032   0.790  1.00  0.00    -0.359 OA
HETATM   12  H6  UNL     1       3.905   1.339   1.754  1.00  0.00     0.217 HD
ENDBRANCH  10  11
ENDBRANCH   2   3
ENDBRANCH   1   2
BRANCH   1  13
HETATM   13  C10 UNL     1      -0.561   0.320   0.591  1.00  0.00     0.227 C 
HETATM   14  O2  UNL     1      -0.710  -0.229   1.713  1.00  0.00    -0.273 OA
HETATM   15  N1  UNL     1      -1.522  -0.007  -0.388  1.00  0.00    -0.327 N 
HETATM   16  H10 UNL     1      -1.318   0.500  -1.301  1.00  0.00     0.169 HD
BRANCH  15  17
HETATM   17  C11 UNL     1      -2.654  -0.852  -0.364  1.00  0.00     0.034 A 
HETATM   18  C12 UNL     1      -3.433  -0.990  -1.490  1.00  0.00     0.029 A 
HETATM   19  C13 UNL     1      -4.533  -1.785  -1.536  1.00  0.00     0.002 A 
HETATM   20  C14 UNL     1      -4.936  -2.508  -0.441  1.00  0.00     0.000 A 
HETATM   21  C15 UNL     1      -4.197  -2.414   0.719  1.00  0.00     0.002 A 
HETATM   22  C16 UNL     1      -3.095  -1.594   0.705  1.00  0.00     0.029 A 
ENDBRANCH  15  17
ENDBRANCH   1  13
BRANCH   1  23
HETATM   23  C17 UNL     1      -0.036   2.552  -0.080  1.00  0.00     0.047 A 
HETATM   24  C18 UNL     1      -1.101   3.026   0.820  1.00  0.00    -0.014 A 
HETATM   25  C19 UNL     1      -0.795   4.259   1.195  1.00  0.00     0.038 A 
HETATM   26  C20 UNL     1       0.479   4.664   0.568  1.00  0.00     0.113 A 
HETATM   27  F1  UNL     1       1.081   5.871   0.742  1.00  0.00    -0.206 F 
HETATM   28  C21 UNL     1       0.927   3.652  -0.187  1.00  0.00     0.025 A 
ENDBRANCH   1  23
TORSDOF 6
