REMARK  4 active torsions:
REMARK  status: ('A' for Active; 'I' for Inactive)
REMARK    1  A    between atoms: S1_2  and  N1_5 
REMARK    2  A    between atoms: N1_5  and  C2_6 
REMARK    3  A    between atoms: C12_19  and  P1_20 
REMARK    4  A    between atoms: C14_22  and  N5_23 
ROOT
HETATM    1  C2  UNL     1       4.046  -0.644  -0.007  1.00  0.00     0.043 A 
HETATM    2  C3  UNL     1       3.986  -2.036  -0.056  1.00  0.00     0.033 A 
HETATM    3  C4  UNL     1       2.830  -2.758   0.151  1.00  0.00     0.040 A 
HETATM    4  C5  UNL     1       1.681  -2.050   0.420  1.00  0.00     0.086 A 
HETATM    5  C6  UNL     1       1.696  -0.669   0.478  1.00  0.00    -0.004 A 
HETATM    6  C7  UNL     1       2.873   0.020   0.265  1.00  0.00     0.041 A 
HETATM    7  C8  UNL     1       0.584   0.263   0.750  1.00  0.00     0.161 C 
HETATM    8  N2  UNL     1      -0.649  -0.041   0.104  1.00  0.00    -0.380 N 
HETATM    9  C9  UNL     1      -1.290  -1.302   0.000  1.00  0.00     0.112 A 
HETATM   10  C10 UNL     1      -0.756  -2.559   0.229  1.00  0.00     0.200 A 
HETATM   11  N3  UNL     1      -1.497  -3.674   0.088  1.00  0.00    -0.215 NA
HETATM   12  C11 UNL     1      -2.799  -3.596  -0.285  1.00  0.00     0.236 A 
HETATM   13  N4  UNL     1      -3.358  -2.373  -0.519  1.00  0.00    -0.239 NA
HETATM   14  C12 UNL     1      -2.616  -1.235  -0.379  1.00  0.00     0.089 A 
HETATM   15  O3  UNL     1       0.555  -2.852   0.618  1.00  0.00    -0.289 OA
HETATM   16  H10 UNL     1      -1.238   0.686  -0.389  1.00  0.00     0.160 HD
ENDROOT
BRANCH  14  17
HETATM   17  P1  UNL     1      -3.368   0.313  -0.687  1.00  0.00    -0.071 P 
HETATM   18  C13 UNL     1      -3.478   1.107   0.972  1.00  0.00     0.034 C 
HETATM   19  C14 UNL     1      -4.807   1.897   0.754  1.00  0.00     0.022 C 
HETATM   20  C15 UNL     1      -5.644   1.386  -0.099  1.00  0.00     0.007 C 
HETATM   21  C16 UNL     1      -5.207   0.122  -0.740  1.00  0.00     0.066 C 
HETATM   22  H12 UNL     1      -2.899   1.161  -1.481  1.00  0.00     0.064 HD
BRANCH  19  23
HETATM   23  N5  UNL     1      -4.758   3.042   1.595  1.00  0.00    -0.399 N 
HETATM   24  H14 UNL     1      -4.554   3.981   1.144  1.00  0.00     0.156 HD
HETATM   25  H15 UNL     1      -4.932   2.865   2.621  1.00  0.00     0.156 HD
ENDBRANCH  19  23
ENDBRANCH  14  17
BRANCH   1  26
HETATM   26  N1  UNL     1       5.327  -0.080  -0.247  1.00  0.00    -0.285 N 
HETATM   27  H4  UNL     1       6.144  -0.528   0.243  1.00  0.00     0.178 HD
BRANCH  26  28
HETATM   28  S1  UNL     1       5.557   1.278  -1.290  1.00  0.00     0.227 S 
HETATM   29  C1  UNL     1       4.712   2.714  -0.742  1.00  0.00     0.186 C 
HETATM   30  O1  UNL     1       5.039   0.869  -2.653  1.00  0.00    -0.206 OA
HETATM   31  O2  UNL     1       7.029   1.523  -1.439  1.00  0.00    -0.206 OA
ENDBRANCH  26  28
ENDBRANCH   1  26
TORSDOF 4
