REMARK  3 active torsions:
REMARK  status: ('A' for Active; 'I' for Inactive)
REMARK    1  A    between atoms: N2_17  and  C14_18 
REMARK    2  A    between atoms: C14_18  and  C15_19 
REMARK    3  A    between atoms: C20_25  and  O2_26 
ROOT
HETATM    1  O1  UNL     1       1.398   0.577  -1.920  1.00  0.00    -0.121 OA
HETATM    2  C1  UNL     1       1.250  -0.141  -1.035  1.00  0.00     0.452 A 
HETATM    3  N1  UNL     1       0.966   1.294  -1.117  1.00  0.00     0.131 N 
HETATM    4  C2  UNL     1       0.749   2.741  -1.369  1.00  0.00     0.238 C 
HETATM    5  C3  UNL     1      -0.458   3.350  -1.605  1.00  0.00     0.010 C 
HETATM    6  C4  UNL     1      -1.613   2.377  -1.618  1.00  0.00     0.043 C 
HETATM    7  C5  UNL     1      -2.935   2.737  -1.769  1.00  0.00    -0.017 C 
HETATM    8  C6  UNL     1      -3.930   1.622  -1.786  1.00  0.00    -0.007 C 
HETATM    9  C7  UNL     1      -4.292   0.329  -1.774  1.00  0.00    -0.023 C 
HETATM   10  C8  UNL     1      -3.808  -1.066  -1.738  1.00  0.00     0.054 C 
HETATM   11  C9  UNL     1      -4.213  -1.801  -0.556  1.00  0.00    -0.024 C 
HETATM   12  C10 UNL     1      -3.170  -2.317   0.185  1.00  0.00     0.015 C 
HETATM   13  C11 UNL     1      -1.740  -2.620   0.566  1.00  0.00     0.151 A 
HETATM   14  F1  UNL     1      -1.942  -1.927  -0.510  1.00  0.00    -0.379 F 
HETATM   15  C12 UNL     1      -0.820  -2.098  -0.335  1.00  0.00     0.191 A 
HETATM   16  C13 UNL     1       0.718  -2.284  -0.122  1.00  0.00     0.159 C 
HETATM   17  N2  UNL     1       1.025  -0.833   0.116  1.00  0.00    -0.342 N 
HETATM   18  H1  UNL     1       0.474   1.685  -0.218  1.00  0.00     0.331 HD
ENDROOT
BRANCH  17  19
HETATM   19  C14 UNL     1       1.144  -0.149   1.355  1.00  0.00     0.163 C 
BRANCH  19  20
HETATM   20  C15 UNL     1       2.532  -0.167   1.929  1.00  0.00    -0.006 A 
HETATM   21  C16 UNL     1       3.308   0.990   1.779  1.00  0.00     0.012 A 
HETATM   22  C17 UNL     1       4.584   1.230   2.201  1.00  0.00     0.002 A 
HETATM   23  C18 UNL     1       5.196   0.168   2.877  1.00  0.00     0.026 A 
HETATM   24  C19 UNL     1       4.500  -1.039   3.078  1.00  0.00     0.067 A 
HETATM   25 CL1  UNL     1       5.189  -2.405   3.914  1.00  0.00    -0.081 Cl
HETATM   26  C20 UNL     1       3.207  -1.147   2.596  1.00  0.00     0.095 A 
BRANCH  26  27
HETATM   27  O2  UNL     1       2.531  -2.340   2.799  1.00  0.00    -0.358 OA
HETATM   28  H20 UNL     1       2.830  -3.239   2.472  1.00  0.00     0.217 HD
ENDBRANCH  26  27
ENDBRANCH  19  20
ENDBRANCH  17  19
TORSDOF 3
