REMARK  3 active torsions:
REMARK  status: ('A' for Active; 'I' for Inactive)
REMARK    1  A    between atoms: C2_2  and  C3_3 
REMARK    2  A    between atoms: C4_4  and  C5_5 
REMARK       I    between atoms: N1_9  and  C8_10 
REMARK       I    between atoms: C8_10  and  N2_12 
REMARK    3  A    between atoms: N2_12  and  C9_13 
ROOT
HETATM    1  C5  UNL     1      -2.199  -0.214  -0.490  1.00  0.00     0.066 C 
HETATM    2 BR1  UNL     1      -3.464  -0.739  -1.864  1.00  0.00    -0.078 Br
HETATM    3  C6  UNL     1      -1.827   1.243  -0.598  1.00  0.00     0.048 C 
HETATM    4  C7  UNL     1      -0.342   1.344  -0.340  1.00  0.00     0.131 C 
HETATM    5  N1  UNL     1       0.181  -0.001  -0.483  1.00  0.00    -0.319 N 
HETATM    6  C8  UNL     1       1.532  -0.404  -0.327  1.00  0.00     0.323 C 
HETATM    7  O1  UNL     1       2.013  -1.554  -0.445  1.00  0.00    -0.247 OA
HETATM    8  N2  UNL     1       2.507   0.546  -0.001  1.00  0.00    -0.309 N 
HETATM    9  C15 UNL     1      -0.900  -0.901  -0.819  1.00  0.00     0.084 A 
HETATM   10  C16 UNL     1      -0.732  -1.366  -2.215  1.00  0.00     0.044 A 
HETATM   11  C17 UNL     1      -0.628  -2.607  -1.742  1.00  0.00     0.095 A 
HETATM   12  F1  UNL     1      -0.443  -3.890  -2.194  1.00  0.00    -0.211 F 
HETATM   13  C18 UNL     1      -0.783  -2.312  -0.298  1.00  0.00     0.107 A 
HETATM   14  H12 UNL     1       2.328   1.574   0.146  1.00  0.00     0.170 HD
ENDROOT
BRANCH   8  15
HETATM   15  C9  UNL     1       3.910   0.480   0.222  1.00  0.00     0.036 A 
HETATM   16  C10 UNL     1       4.667   0.667  -0.925  1.00  0.00     0.029 A 
HETATM   17  C11 UNL     1       6.063   0.633  -0.878  1.00  0.00     0.002 A 
HETATM   18  C12 UNL     1       6.617   0.405   0.362  1.00  0.00     0.000 A 
HETATM   19  C13 UNL     1       5.915   0.213   1.533  1.00  0.00     0.002 A 
HETATM   20  C14 UNL     1       4.541   0.253   1.451  1.00  0.00     0.029 A 
ENDBRANCH   8  15
BRANCH   1  21
HETATM   21  C4  UNL     1      -2.706  -0.509   0.866  1.00  0.00    -0.007 C 
HETATM   22  C3  UNL     1      -3.816  -0.242   1.521  1.00  0.00    -0.029 C 
BRANCH  22  23
HETATM   23  C2  UNL     1      -5.139   0.391   1.505  1.00  0.00     0.022 C 
HETATM   24  C1  UNL     1      -5.482   1.062   0.210  1.00  0.00     0.009 C 
ENDBRANCH  22  23
ENDBRANCH   1  21
TORSDOF 3
