REMARK  7 active torsions:
REMARK  status: ('A' for Active; 'I' for Inactive)
REMARK    1  A    between atoms: C3_3  and  C4_4 
REMARK    2  A    between atoms: C3_3  and  N1_7 
REMARK    3  A    between atoms: N1_7  and  C7_9 
REMARK    4  A    between atoms: C8_10  and  C9_11 
REMARK    5  A    between atoms: C9_11  and  N2_12 
REMARK    6  A    between atoms: C9_11  and  C10_13 
REMARK    7  A    between atoms: C19_23  and  O1_24 
ROOT
HETATM    1  C1  UNL     1      -2.866   0.322   2.285  1.00  0.00     0.014 C 
HETATM    2  C2  UNL     1      -2.651  -0.334   1.300  1.00  0.00    -0.091 C 
HETATM    3  C3  UNL     1      -2.384  -1.125   0.083  1.00  0.00     0.170 C 
ENDROOT
BRANCH   3   4
HETATM    4  C4  UNL     1      -3.677  -1.346  -0.625  1.00  0.00     0.066 C 
HETATM    5  C5  UNL     1      -4.854  -0.747  -0.668  1.00  0.00     0.421 C 
HETATM    6  F1  UNL     1      -5.765   0.215  -0.328  1.00  0.00    -0.455 F 
ENDBRANCH   3   4
BRANCH   3   7
HETATM    7  N1  UNL     1      -1.385  -0.498  -0.768  1.00  0.00    -0.367 N 
HETATM    8  C6  UNL     1      -1.075  -1.235  -2.001  1.00  0.00     0.151 C 
BRANCH   7   9
HETATM    9  C7  UNL     1      -0.791   0.739  -0.377  1.00  0.00     0.074 A 
HETATM   10  C8  UNL     1       0.375   0.700   0.395  1.00  0.00     0.008 A 
HETATM   11  C16 UNL     1       0.891   1.928   0.735  1.00  0.00     0.013 A 
HETATM   12  C17 UNL     1       0.298   3.109   0.339  1.00  0.00     0.022 A 
HETATM   13  C18 UNL     1      -0.847   3.127  -0.419  1.00  0.00     0.046 A 
HETATM   14 BR1  UNL     1      -1.556   4.828  -0.893  1.00  0.00    -0.048 Br
HETATM   15  C19 UNL     1      -1.379   1.907  -0.769  1.00  0.00     0.110 A 
BRANCH  10  16
HETATM   16  C9  UNL     1       0.927  -0.628   0.762  1.00  0.00     0.286 C 
BRANCH  16  17
HETATM   17  N2  UNL     1       0.694  -0.986   2.141  1.00  0.00     0.091 N 
HETATM   18  H9  UNL     1       1.203  -0.398   2.811  1.00  0.00     0.314 HD
HETATM   19  H10 UNL     1       0.832  -2.008   2.220  1.00  0.00     0.314 HD
ENDBRANCH  16  17
BRANCH  16  20
HETATM   20  C10 UNL     1       2.359  -0.710   0.377  1.00  0.00    -0.021 A 
HETATM   21  C11 UNL     1       2.771  -1.239  -0.827  1.00  0.00     0.009 A 
HETATM   22  C12 UNL     1       4.104  -1.330  -1.202  1.00  0.00     0.001 A 
HETATM   23  C13 UNL     1       5.073  -0.872  -0.336  1.00  0.00     0.000 A 
HETATM   24  C14 UNL     1       4.659  -0.338   0.879  1.00  0.00     0.001 A 
HETATM   25  C15 UNL     1       3.319  -0.248   1.253  1.00  0.00     0.009 A 
ENDBRANCH  16  20
ENDBRANCH  10  16
BRANCH  15  26
HETATM   26  O1  UNL     1      -2.549   1.943  -1.544  1.00  0.00    -0.357 OA
HETATM   27  H18 UNL     1      -2.413   2.328  -2.492  1.00  0.00     0.217 HD
ENDBRANCH  15  26
ENDBRANCH   7   9
ENDBRANCH   3   7
TORSDOF 7
