REMARK  6 active torsions:
REMARK  status: ('A' for Active; 'I' for Inactive)
REMARK       I    between atoms: C1_2  and  N1_3 
REMARK       I    between atoms: C1_2  and  N2_10 
REMARK    1  A    between atoms: N1_3  and  C2_4 
REMARK    2  A    between atoms: N2_10  and  B1_11 
REMARK    3  A    between atoms: N2_10  and  C14_19 
REMARK    4  A    between atoms: B1_11  and  C8_12 
REMARK    5  A    between atoms: C14_19  and  C15_20 
REMARK    6  A    between atoms: C20_26  and  O2_27 
ROOT
HETATM    1  O1  UNL     1       2.025  -1.799   0.665  1.00  0.00    -0.248 OA
HETATM    2  C1  UNL     1       1.277  -0.804   0.965  1.00  0.00     0.308 C 
HETATM    3  N1  UNL     1       2.102   0.323   0.642  1.00  0.00    -0.310 N 
HETATM    4  N2  UNL     1      -0.008  -0.437   1.476  1.00  0.00    -0.379 N 
HETATM    5  H1  UNL     1       1.906   1.368   0.723  1.00  0.00     0.170 HD
ENDROOT
BRANCH   4   6
HETATM    6  B1  UNL     1      -0.486   1.007   1.672  1.00  0.00     0.313 B 
HETATM    7  H7  UNL     1      -0.203   1.518   2.698  1.00  0.00     0.006 HD
BRANCH   6   8
HETATM    8  C8  UNL     1      -1.224   1.831   0.607  1.00  0.00    -0.076 A 
HETATM    9  C9  UNL     1      -0.785   1.901  -0.705  1.00  0.00    -0.000 A 
HETATM   10  C10 UNL     1      -1.498   2.661  -1.605  1.00  0.00     0.042 A 
HETATM   11  C11 UNL     1      -2.648   3.359  -1.226  1.00  0.00     0.116 A 
HETATM   12  F1  UNL     1      -3.300   4.091  -2.176  1.00  0.00    -0.206 F 
HETATM   13  C12 UNL     1      -3.085   3.292   0.074  1.00  0.00     0.042 A 
HETATM   14  C13 UNL     1      -2.362   2.530   0.954  1.00  0.00    -0.000 A 
ENDBRANCH   6   8
ENDBRANCH   4   6
BRANCH   4  15
HETATM   15  C14 UNL     1      -1.073  -1.353   1.888  1.00  0.00     0.151 C 
BRANCH  15  16
HETATM   16  C15 UNL     1      -1.969  -1.670   0.773  1.00  0.00    -0.007 A 
HETATM   17  C16 UNL     1      -3.201  -1.005   0.783  1.00  0.00     0.012 A 
HETATM   18  C17 UNL     1      -4.126  -1.219  -0.218  1.00  0.00     0.002 A 
HETATM   19  C18 UNL     1      -3.869  -2.086  -1.250  1.00  0.00     0.022 A 
HETATM   20  C19 UNL     1      -2.667  -2.760  -1.294  1.00  0.00     0.044 A 
HETATM   21 BR1  UNL     1      -2.188  -3.995  -2.679  1.00  0.00    -0.048 Br
HETATM   22  C20 UNL     1      -1.764  -2.526  -0.283  1.00  0.00     0.090 A 
BRANCH  22  23
HETATM   23  O2  UNL     1      -0.553  -3.183  -0.295  1.00  0.00    -0.359 OA
HETATM   24  H17 UNL     1      -0.022  -3.210  -1.133  1.00  0.00     0.217 HD
ENDBRANCH  22  23
ENDBRANCH  15  16
ENDBRANCH   4  15
BRANCH   3  25
HETATM   25  C2  UNL     1       3.408   0.107   0.123  1.00  0.00     0.036 A 
HETATM   26  C3  UNL     1       4.591  -0.028   0.812  1.00  0.00     0.029 A 
HETATM   27  C4  UNL     1       5.778  -0.235   0.148  1.00  0.00     0.002 A 
HETATM   28  C5  UNL     1       5.792  -0.309  -1.220  1.00  0.00     0.000 A 
HETATM   29  C6  UNL     1       4.640  -0.180  -1.944  1.00  0.00     0.002 A 
HETATM   30  C7  UNL     1       3.435   0.030  -1.266  1.00  0.00     0.029 A 
ENDBRANCH   3  25
TORSDOF 6
