REMARK  8 active torsions:
REMARK  status: ('A' for Active; 'I' for Inactive)
REMARK    1  A    between atoms: C2_2  and  C3_3 
REMARK    2  A    between atoms: C3_3  and  N1_4 
REMARK    3  A    between atoms: N1_4  and  C4_5 
REMARK    4  A    between atoms: N1_4  and  C12_15 
REMARK    5  A    between atoms: C4_5  and  C5_6 
REMARK       I    between atoms: C5_6  and  N2_8 
REMARK    6  A    between atoms: N2_8  and  C6_9 
REMARK    7  A    between atoms: C12_15  and  C13_16 
REMARK    8  A    between atoms: C18_22  and  O2_23 
ROOT
HETATM    1  N1  UNL     1      -1.038   0.638   0.700  1.00  0.00    -0.400 N 
ENDROOT
BRANCH   1   2
HETATM    2  C3  UNL     1      -1.313   1.602  -0.258  1.00  0.00     0.117 C 
BRANCH   2   3
HETATM    3  C2  UNL     1      -1.401   3.024   0.235  1.00  0.00     0.015 C 
HETATM    4  C1  UNL     1      -1.707   3.914  -0.948  1.00  0.00     0.006 C 
ENDBRANCH   2   3
ENDBRANCH   1   2
BRANCH   1   5
HETATM    5  C4  UNL     1       0.180   0.529   1.359  1.00  0.00     0.220 C 
BRANCH   5   6
HETATM    6  C5  UNL     1       1.319   0.095   0.538  1.00  0.00     0.239 C 
HETATM    7  O1  UNL     1       0.974  -0.104  -0.654  1.00  0.00    -0.271 OA
HETATM    8  N2  UNL     1       2.653  -0.105   0.932  1.00  0.00    -0.326 N 
HETATM    9  H10 UNL     1       2.769   0.105   1.947  1.00  0.00     0.169 HD
BRANCH   8  10
HETATM   10  C6  UNL     1       3.748  -0.525   0.144  1.00  0.00     0.034 A 
HETATM   11  C7  UNL     1       3.760  -0.819  -1.180  1.00  0.00     0.029 A 
HETATM   12  C8  UNL     1       4.848  -1.233  -1.907  1.00  0.00     0.002 A 
HETATM   13  C9  UNL     1       6.055  -1.371  -1.258  1.00  0.00     0.000 A 
HETATM   14  C10 UNL     1       6.093  -1.082   0.090  1.00  0.00     0.002 A 
HETATM   15  C11 UNL     1       4.967  -0.671   0.769  1.00  0.00     0.029 A 
ENDBRANCH   8  10
ENDBRANCH   5   6
ENDBRANCH   1   5
BRANCH   1  16
HETATM   16  C12 UNL     1      -2.114   0.050   1.436  1.00  0.00     0.159 C 
BRANCH  16  17
HETATM   17  C13 UNL     1      -3.007  -0.669   0.456  1.00  0.00    -0.006 A 
HETATM   18  C14 UNL     1      -4.239  -0.337  -0.066  1.00  0.00     0.012 A 
HETATM   19  C15 UNL     1      -4.842  -1.175  -0.946  1.00  0.00     0.002 A 
HETATM   20  C16 UNL     1      -4.253  -2.360  -1.336  1.00  0.00     0.022 A 
HETATM   21  C17 UNL     1      -3.004  -2.732  -0.828  1.00  0.00     0.044 A 
HETATM   22 BR1  UNL     1      -2.277  -4.371  -1.419  1.00  0.00    -0.048 Br
HETATM   23  C18 UNL     1      -2.403  -1.858   0.073  1.00  0.00     0.090 A 
BRANCH  23  24
HETATM   24  O2  UNL     1      -1.160  -2.357   0.498  1.00  0.00    -0.359 OA
HETATM   25  H21 UNL     1      -1.077  -2.559   1.486  1.00  0.00     0.217 HD
ENDBRANCH  23  24
ENDBRANCH  16  17
ENDBRANCH   1  16
TORSDOF 8
