REMARK  3 active torsions:
REMARK  status: ('A' for Active; 'I' for Inactive)
REMARK    1  A    between atoms: C2_2  and  N1_3 
REMARK    2  A    between atoms: C2_2  and  N2_8 
REMARK    3  A    between atoms: N1_3  and  C3_4 
ROOT
HETATM    1  N2  UNL     1       0.876   0.539  -0.041  1.00  0.00     0.111 N 
HETATM    2  C7  UNL     1       0.342   0.575   1.295  1.00  0.00     0.276 C 
HETATM    3  C8  UNL     1      -1.047   0.995   1.322  1.00  0.00     0.007 C 
HETATM    4  C9  UNL     1      -2.228   1.523   1.483  1.00  0.00     0.049 C 
HETATM    5  C10 UNL     1      -3.620   2.082   1.620  1.00  0.00     0.073 A 
HETATM    6 CL1  UNL     1      -3.180   3.395   2.826  1.00  0.00    -0.116 Cl
HETATM    7  C11 UNL     1      -4.656   1.540   0.884  1.00  0.00     0.004 A 
HETATM    8  O1  UNL     1      -4.936   2.500   1.798  1.00  0.00     0.000 OA
HETATM    9  C12 UNL     1      -4.138   0.590   0.004  1.00  0.00     0.017 C 
HETATM   10  C13 UNL     1      -4.215  -0.864  -0.031  1.00  0.00     0.028 C 
HETATM   11  C14 UNL     1      -3.320  -1.216  -1.327  1.00  0.00    -0.028 C 
HETATM   12  C15 UNL     1      -2.170  -1.932  -1.099  1.00  0.00     0.006 C 
HETATM   13  C16 UNL     1      -0.863  -2.700  -1.202  1.00  0.00     0.194 C 
HETATM   14  F1  UNL     1      -0.401  -2.759  -2.477  1.00  0.00    -0.245 F 
HETATM   15  C17 UNL     1       0.109  -1.785  -0.366  1.00  0.00     0.071 C 
HETATM   16  C18 UNL     1       0.123  -0.380  -0.878  1.00  0.00     0.278 C 
HETATM   17  H13 UNL     1      -5.872   2.513   2.255  1.00  0.00     0.000 HD
ENDROOT
BRANCH   1  18
HETATM   18  C2  UNL     1       2.264   0.298  -0.067  1.00  0.00     0.318 C 
HETATM   19  C1  UNL     1       2.779  -0.823   0.776  1.00  0.00     0.066 C 
BRANCH  18  20
HETATM   20  N1  UNL     1       3.141   1.435   0.084  1.00  0.00    -0.361 N 
HETATM   21  H5  UNL     1       2.684   2.308   0.346  1.00  0.00     0.161 HD
BRANCH  20  22
HETATM   22  C3  UNL     1       4.512   1.043  -0.181  1.00  0.00     0.029 A 
HETATM   23  C4  UNL     1       5.532   0.724  -0.865  1.00  0.00     0.029 A 
HETATM   24  C5  UNL     1       6.437   0.530   0.223  1.00  0.00     0.004 A 
HETATM   25  C6  UNL     1       5.367   0.874   1.021  1.00  0.00     0.029 A 
ENDBRANCH  20  22
ENDBRANCH  18  20
ENDBRANCH   1  18
TORSDOF 3
