REMARK  8 active torsions:
REMARK  status: ('A' for Active; 'I' for Inactive)
REMARK    1  A    between atoms: C3_3  and  C4_4 
REMARK    2  A    between atoms: C4_4  and  N1_7 
REMARK       I    between atoms: N1_7  and  C7_8 
REMARK       I    between atoms: C7_8  and  N2_10 
REMARK    3  A    between atoms: N2_10  and  C8_11 
REMARK    4  A    between atoms: N2_10  and  C12_15 
REMARK    5  A    between atoms: C8_11  and  C9_12 
REMARK    6  A    between atoms: C9_12  and  C10_13 
REMARK    7  A    between atoms: C12_15  and  C13_16 
REMARK    8  A    between atoms: C18_22  and  O2_23 
ROOT
HETATM    1  N1  UNL     1       1.199  -0.727   0.036  1.00  0.00    -0.312 N 
HETATM    2  C7  UNL     1       0.233   0.200   0.489  1.00  0.00     0.322 C 
HETATM    3  O1  UNL     1       0.704   1.136   1.180  1.00  0.00    -0.247 OA
HETATM    4  N2  UNL     1      -1.153   0.041   0.160  1.00  0.00    -0.330 N 
HETATM    5  H10 UNL     1       0.957  -1.554  -0.550  1.00  0.00     0.170 HD
ENDROOT
BRANCH   4   6
HETATM    6  C8  UNL     1      -1.716  -1.048  -0.647  1.00  0.00     0.128 C 
BRANCH   6   7
HETATM    7  C9  UNL     1      -2.115  -2.216   0.190  1.00  0.00     0.020 C 
BRANCH   7   8
HETATM    8  C10 UNL     1      -2.702  -3.367  -0.589  1.00  0.00    -0.003 C 
HETATM    9  C11 UNL     1      -3.031  -4.431   0.464  1.00  0.00     0.005 C 
ENDBRANCH   7   8
ENDBRANCH   6   7
ENDBRANCH   4   6
BRANCH   4  10
HETATM   10  C12 UNL     1      -2.052   1.051   0.678  1.00  0.00     0.169 C 
BRANCH  10  11
HETATM   11  C13 UNL     1      -2.210   2.186  -0.266  1.00  0.00    -0.006 A 
HETATM   12  C14 UNL     1      -1.510   2.139  -1.471  1.00  0.00     0.012 A 
HETATM   13  C15 UNL     1      -1.603   3.164  -2.413  1.00  0.00     0.002 A 
HETATM   14  C16 UNL     1      -2.425   4.214  -2.074  1.00  0.00     0.022 A 
HETATM   15  C17 UNL     1      -3.128   4.287  -0.890  1.00  0.00     0.044 A 
HETATM   16 BR1  UNL     1      -4.225   5.817  -0.574  1.00  0.00    -0.048 Br
HETATM   17  C18 UNL     1      -3.021   3.266   0.023  1.00  0.00     0.090 A 
BRANCH  17  18
HETATM   18  O2  UNL     1      -3.724   3.327   1.218  1.00  0.00    -0.359 OA
HETATM   19  H25 UNL     1      -4.198   2.449   1.483  1.00  0.00     0.217 HD
ENDBRANCH  17  18
ENDBRANCH  10  11
ENDBRANCH   4  10
BRANCH   1  20
HETATM   20  C4  UNL     1       2.613  -0.602   0.347  1.00  0.00     0.015 C 
HETATM   21  C5  UNL     1       3.011  -1.690   1.030  1.00  0.00    -0.006 C 
HETATM   22  C6  UNL     1       4.411  -1.837   1.481  1.00  0.00     0.038 C 
BRANCH  20  23
HETATM   23  C3  UNL     1       3.862   0.145   0.282  1.00  0.00     0.049 C 
HETATM   24  C2  UNL     1       4.501   1.249  -0.135  1.00  0.00    -0.004 C 
HETATM   25  C1  UNL     1       5.890   0.987   0.375  1.00  0.00     0.011 C 
ENDBRANCH  20  23
ENDBRANCH   1  20
TORSDOF 8
