REMARK  8 active torsions:
REMARK  status: ('A' for Active; 'I' for Inactive)
REMARK    1  A    between atoms: C4_4  and  C5_5 
REMARK    2  A    between atoms: C6_6  and  N1_7 
REMARK       I    between atoms: N1_7  and  C7_8 
REMARK       I    between atoms: C7_8  and  N2_10 
REMARK    3  A    between atoms: N2_10  and  C8_11 
REMARK    4  A    between atoms: N2_10  and  C12_15 
REMARK    5  A    between atoms: C8_11  and  C9_12 
REMARK    6  A    between atoms: C9_12  and  C10_13 
REMARK    7  A    between atoms: C12_15  and  C13_16 
REMARK    8  A    between atoms: C18_22  and  O2_23 
ROOT
HETATM    1  C1  UNL     1       7.348  -0.643  -0.466  1.00  0.00     0.017 C 
HETATM    2  C2  UNL     1       6.717  -0.346  -1.445  1.00  0.00    -0.089 C 
HETATM    3  C3  UNL     1       5.986   0.011  -2.627  1.00  0.00     0.063 C 
HETATM    4  C4  UNL     1       4.667   0.073  -2.682  1.00  0.00     0.010 C 
ENDROOT
BRANCH   4   5
HETATM    5  C5  UNL     1       3.929  -0.243  -1.466  1.00  0.00     0.018 C 
HETATM    6  C6  UNL     1       2.609  -0.187  -1.508  1.00  0.00     0.092 C 
BRANCH   6   7
HETATM    7  N1  UNL     1       1.593  -0.423  -0.546  1.00  0.00    -0.319 N 
HETATM    8  C7  UNL     1       0.657   0.568  -0.164  1.00  0.00     0.322 C 
HETATM    9  O1  UNL     1       0.647   1.739  -0.641  1.00  0.00    -0.247 OA
HETATM   10  N2  UNL     1      -0.402   0.459   0.778  1.00  0.00    -0.330 N 
HETATM   11  H6  UNL     1       1.408  -1.297  -0.024  1.00  0.00     0.170 HD
BRANCH  10  12
HETATM   12  C8  UNL     1      -1.170   1.684   0.907  1.00  0.00     0.128 C 
BRANCH  12  13
HETATM   13  C9  UNL     1      -2.332   1.800  -0.014  1.00  0.00     0.020 C 
BRANCH  13  14
HETATM   14  C10 UNL     1      -3.008   3.152   0.271  1.00  0.00    -0.003 C 
HETATM   15  C11 UNL     1      -2.050   4.279   0.036  1.00  0.00     0.005 C 
ENDBRANCH  13  14
ENDBRANCH  12  13
ENDBRANCH  10  12
BRANCH  10  16
HETATM   16  C12 UNL     1      -0.698  -0.730   1.551  1.00  0.00     0.169 C 
BRANCH  16  17
HETATM   17  C13 UNL     1      -1.630  -1.666   0.896  1.00  0.00    -0.006 A 
HETATM   18  C14 UNL     1      -2.068  -1.649  -0.411  1.00  0.00     0.012 A 
HETATM   19  C15 UNL     1      -2.938  -2.591  -0.917  1.00  0.00     0.002 A 
HETATM   20  C16 UNL     1      -3.386  -3.589  -0.077  1.00  0.00     0.022 A 
HETATM   21  C17 UNL     1      -2.970  -3.637   1.234  1.00  0.00     0.044 A 
HETATM   22 BR1  UNL     1      -3.663  -5.066   2.292  1.00  0.00    -0.048 Br
HETATM   23  C18 UNL     1      -2.104  -2.690   1.714  1.00  0.00     0.090 A 
BRANCH  23  24
HETATM   24  O2  UNL     1      -1.747  -2.831   3.051  1.00  0.00    -0.359 OA
HETATM   25  H21 UNL     1      -0.891  -3.349   3.234  1.00  0.00     0.217 HD
ENDBRANCH  23  24
ENDBRANCH  16  17
ENDBRANCH  10  16
ENDBRANCH   6   7
ENDBRANCH   4   5
TORSDOF 8
