REMARK  9 active torsions:
REMARK  status: ('A' for Active; 'I' for Inactive)
REMARK    1  A    between atoms: C2_2  and  C3_3 
REMARK    2  A    between atoms: C3_3  and  C4_4 
REMARK    3  A    between atoms: C4_4  and  N1_5 
REMARK    4  A    between atoms: N1_5  and  C5_6 
REMARK    5  A    between atoms: N1_5  and  N2_15 
REMARK    6  A    between atoms: C5_6  and  C6_7 
REMARK    7  A    between atoms: C11_13  and  O1_14 
REMARK    8  A    between atoms: N2_15  and  C12_16 
REMARK    9  A    between atoms: C17_21  and  P1_22 
ROOT
HETATM    1  N1  UNL     1      -0.205   0.335  -0.178  1.00  0.00    -0.343 N 
ENDROOT
BRANCH   1   2
HETATM    2  C4  UNL     1      -1.032   1.170   0.646  1.00  0.00     0.137 C 
BRANCH   2   3
HETATM    3  C3  UNL     1      -1.990   2.036  -0.151  1.00  0.00     0.021 C 
BRANCH   3   4
HETATM    4  C2  UNL     1      -2.852   2.909   0.737  1.00  0.00    -0.003 C 
HETATM    5  C1  UNL     1      -2.035   3.841   1.590  1.00  0.00     0.005 C 
ENDBRANCH   3   4
ENDBRANCH   2   3
ENDBRANCH   1   2
BRANCH   1   6
HETATM    6  C5  UNL     1      -0.853  -0.711  -0.837  1.00  0.00     0.178 C 
BRANCH   6   7
HETATM    7  C6  UNL     1      -1.294  -1.857   0.047  1.00  0.00    -0.005 A 
HETATM    8  C7  UNL     1      -0.985  -2.048   1.374  1.00  0.00     0.012 A 
HETATM    9  C8  UNL     1      -1.474  -3.168   2.026  1.00  0.00     0.002 A 
HETATM   10  C9  UNL     1      -2.257  -4.065   1.333  1.00  0.00     0.022 A 
HETATM   11  C10 UNL     1      -2.570  -3.880  -0.002  1.00  0.00     0.044 A 
HETATM   12 BR1  UNL     1      -3.658  -5.198  -0.845  1.00  0.00    -0.048 Br
HETATM   13  C11 UNL     1      -2.087  -2.770  -0.650  1.00  0.00     0.091 A 
BRANCH  13  14
HETATM   14  O1  UNL     1      -2.442  -2.642  -2.004  1.00  0.00    -0.359 OA
HETATM   15  H15 UNL     1      -1.723  -2.505  -2.709  1.00  0.00     0.217 HD
ENDBRANCH  13  14
ENDBRANCH   6   7
ENDBRANCH   1   6
BRANCH   1  16
HETATM   16  N2  UNL     1       0.852   0.962  -0.785  1.00  0.00    -0.239 NA
HETATM   17  H16 UNL     1       1.302   1.700  -0.225  1.00  0.00     0.146 HD
BRANCH  16  18
HETATM   18  C12 UNL     1       1.882  -0.023  -1.175  1.00  0.00     0.133 A 
HETATM   19  C13 UNL     1       3.115   0.823  -1.771  1.00  0.00     0.012 A 
HETATM   20  C14 UNL     1       3.797  -0.072  -0.492  1.00  0.00     0.032 A 
HETATM   21  P1  UNL     1       3.756   0.800  -1.532  1.00  0.00    -0.122 P 
HETATM   22  C15 UNL     1       5.290  -0.096   0.022  1.00  0.00     0.014 A 
HETATM   23  C17 UNL     1       5.122   0.723  -0.994  1.00  0.00    -0.007 A 
HETATM   24  C16 UNL     1       6.308   0.638  -0.513  1.00  0.00     0.010 A 
HETATM   25  H22 UNL     1       1.516   0.975  -2.471  1.00  0.00     0.053 HD
ENDBRANCH  16  18
ENDBRANCH   1  16
TORSDOF 9
