REMARK  7 active torsions:
REMARK  status: ('A' for Active; 'I' for Inactive)
REMARK    1  A    between atoms: C2_2  and  C3_3 
REMARK    2  A    between atoms: C3_3  and  C4_4 
REMARK    3  A    between atoms: C4_4  and  N1_5 
REMARK    4  A    between atoms: N1_5  and  C5_6 
REMARK       I    between atoms: N1_5  and  C12_14 
REMARK    5  A    between atoms: C5_6  and  C6_7 
REMARK    6  A    between atoms: C11_12  and  O1_13 
REMARK       I    between atoms: C12_14  and  N2_16 
REMARK    7  A    between atoms: N2_16  and  C13_17 
ROOT
HETATM    1  N1  UNL     1      -0.782   0.318  -0.309  1.00  0.00    -0.330 N 
HETATM    2  C12 UNL     1       0.642   0.126  -0.459  1.00  0.00     0.323 C 
HETATM    3  O2  UNL     1       1.341   0.974  -1.113  1.00  0.00    -0.247 OA
HETATM    4  N2  UNL     1       1.402  -0.928   0.048  1.00  0.00    -0.309 N 
HETATM    5  H17 UNL     1       0.839  -1.632   0.579  1.00  0.00     0.170 HD
ENDROOT
BRANCH   1   6
HETATM    6  C4  UNL     1      -1.465  -0.697   0.469  1.00  0.00     0.128 C 
BRANCH   6   7
HETATM    7  C3  UNL     1      -1.881  -1.815  -0.461  1.00  0.00     0.020 C 
BRANCH   7   8
HETATM    8  C2  UNL     1      -2.605  -2.923   0.286  1.00  0.00    -0.003 C 
HETATM    9  C1  UNL     1      -2.964  -3.978  -0.736  1.00  0.00     0.005 C 
ENDBRANCH   7   8
ENDBRANCH   6   7
ENDBRANCH   1   6
BRANCH   1  10
HETATM   10  C5  UNL     1      -1.311   1.488  -0.975  1.00  0.00     0.168 C 
BRANCH  10  11
HETATM   11  C6  UNL     1      -1.322   2.722  -0.171  1.00  0.00    -0.007 A 
HETATM   12  C7  UNL     1      -0.301   3.654  -0.402  1.00  0.00     0.011 A 
HETATM   13  C8  UNL     1      -0.165   4.840   0.268  1.00  0.00     0.001 A 
HETATM   14  C9  UNL     1      -1.074   5.183   1.245  1.00  0.00     0.003 A 
HETATM   15  C10 UNL     1      -2.098   4.304   1.513  1.00  0.00     0.037 A 
HETATM   16  C11 UNL     1      -2.179   3.146   0.817  1.00  0.00     0.073 A 
BRANCH  16  17
HETATM   17  O1  UNL     1      -3.232   2.303   1.128  1.00  0.00    -0.360 OA
HETATM   18  H16 UNL     1      -3.875   2.087   0.349  1.00  0.00     0.217 HD
ENDBRANCH  16  17
ENDBRANCH  10  11
ENDBRANCH   1  10
BRANCH   4  19
HETATM   19  C13 UNL     1       2.779  -1.236  -0.020  1.00  0.00     0.036 A 
HETATM   20  C14 UNL     1       3.296  -2.382   0.592  1.00  0.00     0.029 A 
HETATM   21  C15 UNL     1       4.610  -2.734   0.560  1.00  0.00     0.002 A 
HETATM   22  C16 UNL     1       5.502  -1.938  -0.103  1.00  0.00     0.000 A 
HETATM   23  C17 UNL     1       5.081  -0.780  -0.741  1.00  0.00     0.002 A 
HETATM   24  C18 UNL     1       3.737  -0.507  -0.655  1.00  0.00     0.029 A 
ENDBRANCH   4  19
TORSDOF 7
