REMARK  7 active torsions:
REMARK  status: ('A' for Active; 'I' for Inactive)
REMARK    1  A    between atoms: C2_2  and  C3_3 
REMARK    2  A    between atoms: C3_3  and  C4_4 
REMARK    3  A    between atoms: C4_4  and  N1_5 
REMARK    4  A    between atoms: N1_5  and  C5_6 
REMARK    5  A    between atoms: N1_5  and  C12_15 
REMARK    6  A    between atoms: C5_6  and  C6_7 
REMARK    7  A    between atoms: C11_13  and  O1_14 
ROOT
HETATM    1  N1  UNL     1       0.343   0.382   0.919  1.00  0.00    -0.388 N 
ENDROOT
BRANCH   1   2
HETATM    2  C4  UNL     1      -0.703   1.208   0.373  1.00  0.00     0.119 C 
BRANCH   2   3
HETATM    3  C3  UNL     1      -0.262   2.621   0.019  1.00  0.00     0.019 C 
BRANCH   3   4
HETATM    4  C2  UNL     1      -1.546   3.289  -0.507  1.00  0.00    -0.003 C 
HETATM    5  C1  UNL     1      -2.059   2.545  -1.711  1.00  0.00     0.005 C 
ENDBRANCH   3   4
ENDBRANCH   2   3
ENDBRANCH   1   2
BRANCH   1   6
HETATM    6  C5  UNL     1      -0.064  -0.912   1.192  1.00  0.00     0.160 C 
BRANCH   6   7
HETATM    7  C6  UNL     1      -0.825  -1.640   0.111  1.00  0.00    -0.006 A 
HETATM    8  C7  UNL     1      -0.138  -2.513  -0.748  1.00  0.00     0.012 A 
HETATM    9  C8  UNL     1      -0.671  -3.227  -1.784  1.00  0.00     0.002 A 
HETATM   10  C9  UNL     1      -2.022  -3.075  -2.009  1.00  0.00     0.022 A 
HETATM   11  C10 UNL     1      -2.747  -2.240  -1.206  1.00  0.00     0.044 A 
HETATM   12 BR1  UNL     1      -4.620  -2.051  -1.544  1.00  0.00    -0.048 Br
HETATM   13  C11 UNL     1      -2.150  -1.553  -0.183  1.00  0.00     0.090 A 
BRANCH  13  14
HETATM   14  O1  UNL     1      -2.964  -0.748   0.563  1.00  0.00    -0.359 OA
HETATM   15  H15 UNL     1      -3.932  -0.952   0.781  1.00  0.00     0.217 HD
ENDBRANCH  13  14
ENDBRANCH   6   7
ENDBRANCH   1   6
BRANCH   1  16
HETATM   16  C12 UNL     1       1.620   0.852   0.761  1.00  0.00     0.189 C 
HETATM   17  N2  UNL     1       2.369  -0.093  -0.238  1.00  0.00    -0.390 N 
HETATM   18  C13 UNL     1       3.638   0.181   1.012  1.00  0.00     0.050 A 
HETATM   19  H17 UNL     1       1.800  -0.457  -1.130  1.00  0.00     0.156 HD
HETATM   20  C14 UNL     1       3.426   1.184   0.417  1.00  0.00     0.040 A 
HETATM   21  C17 UNL     1       3.773  -1.239   1.681  1.00  0.00     0.068 A 
HETATM   22  C15 UNL     1       2.788   0.237   1.602  1.00  0.00     0.034 A 
HETATM   23  C16 UNL     1       2.595  -0.806   2.551  1.00  0.00    -0.034 A 
ENDBRANCH   1  16
TORSDOF 7
