REMARK  6 active torsions:
REMARK  status: ('A' for Active; 'I' for Inactive)
REMARK    1  A    between atoms: C2_2  and  C3_3 
REMARK    2  A    between atoms: C3_3  and  C4_4 
REMARK    3  A    between atoms: C9_9  and  B1_10 
REMARK    4  A    between atoms: B1_10  and  C10_11 
REMARK    5  A    between atoms: C10_11  and  O2_13 
REMARK    6  A    between atoms: O2_13  and  C11_14 
ROOT
HETATM    1  B1  UNL     1      -0.214   0.873  -0.359  1.00  0.00     0.315 B 
HETATM    2  H12 UNL     1      -0.606   1.736  -1.105  1.00  0.00    -0.009 HD
ENDROOT
BRANCH   1   3
HETATM    3  C9  UNL     1      -1.041  -0.469  -0.264  1.00  0.00    -0.083 A 
HETATM    4  C4  UNL     1      -2.391  -0.486   0.132  1.00  0.00    -0.062 A 
HETATM    5  C5  UNL     1      -3.063  -1.669   0.188  1.00  0.00     0.007 A 
HETATM    6  C6  UNL     1      -2.415  -2.844  -0.146  1.00  0.00     0.001 A 
HETATM    7  C7  UNL     1      -1.077  -2.893  -0.548  1.00  0.00    -0.000 A 
HETATM    8  C8  UNL     1      -0.412  -1.671  -0.596  1.00  0.00    -0.004 A 
BRANCH   4   9
HETATM    9  C3  UNL     1      -2.915   0.837   0.460  1.00  0.00     0.038 C 
BRANCH   9  10
HETATM   10  C2  UNL     1      -4.389   1.004   0.430  1.00  0.00     0.000 C 
HETATM   11  C1  UNL     1      -4.980   0.743  -0.927  1.00  0.00     0.005 C 
ENDBRANCH   9  10
ENDBRANCH   4   9
ENDBRANCH   1   3
BRANCH   1  12
HETATM   12  C10 UNL     1       1.330   0.756  -0.188  1.00  0.00     0.207 C 
HETATM   13  O1  UNL     1       2.247   0.826  -1.042  1.00  0.00    -0.280 OA
BRANCH  12  14
HETATM   14  O2  UNL     1       2.131   0.546   0.937  1.00  0.00    -0.288 OA
BRANCH  14  15
HETATM   15  C11 UNL     1       3.511   0.507   0.632  1.00  0.00     0.095 A 
HETATM   16  C12 UNL     1       4.126  -0.702   0.400  1.00  0.00     0.039 A 
HETATM   17  C13 UNL     1       5.472  -0.697   0.106  1.00  0.00     0.003 A 
HETATM   18  C14 UNL     1       6.120   0.510   0.061  1.00  0.00     0.002 A 
HETATM   19  C15 UNL     1       5.493   1.714   0.296  1.00  0.00     0.022 A 
HETATM   20  C16 UNL     1       4.130   1.762   0.598  1.00  0.00     0.044 A 
HETATM   21 BR1  UNL     1       3.150   3.354   0.945  1.00  0.00    -0.048 Br
ENDBRANCH  14  15
ENDBRANCH  12  14
ENDBRANCH   1  12
TORSDOF 6
