REMARK  7 active torsions:
REMARK  status: ('A' for Active; 'I' for Inactive)
REMARK    1  A    between atoms: C2_2  and  C3_3 
REMARK    2  A    between atoms: C3_3  and  C4_4 
REMARK    3  A    between atoms: C4_4  and  N1_5 
REMARK    4  A    between atoms: N1_5  and  C5_6 
REMARK       I    between atoms: N1_5  and  C12_15 
REMARK    5  A    between atoms: C5_6  and  C6_7 
REMARK    6  A    between atoms: C11_13  and  O1_14 
REMARK       I    between atoms: C12_15  and  N2_17 
REMARK    7  A    between atoms: N2_17  and  C13_18 
ROOT
HETATM    1  N1  UNL     1      -0.047   0.621  -1.387  1.00  0.00    -0.330 N 
HETATM    2  C12 UNL     1       1.164   0.509  -0.594  1.00  0.00     0.323 C 
HETATM    3  O2  UNL     1       1.800   1.463  -0.058  1.00  0.00    -0.247 OA
HETATM    4  N2  UNL     1       1.872  -0.677  -0.263  1.00  0.00    -0.309 N 
HETATM    5  H16 UNL     1       1.508  -1.582  -0.630  1.00  0.00     0.170 HD
ENDROOT
BRANCH   1   6
HETATM    6  C4  UNL     1      -0.454   1.985  -1.498  1.00  0.00     0.128 C 
BRANCH   6   7
HETATM    7  C3  UNL     1      -1.373   2.624  -0.563  1.00  0.00     0.020 C 
BRANCH   7   8
HETATM    8  C2  UNL     1      -1.031   2.710   0.887  1.00  0.00    -0.003 C 
HETATM    9  C1  UNL     1      -0.953   1.370   1.522  1.00  0.00     0.005 C 
ENDBRANCH   7   8
ENDBRANCH   6   7
ENDBRANCH   1   6
BRANCH   1  10
HETATM   10  C5  UNL     1      -0.539  -0.627  -1.918  1.00  0.00     0.169 C 
BRANCH  10  11
HETATM   11  C6  UNL     1      -1.517  -1.369  -1.119  1.00  0.00    -0.006 A 
HETATM   12  C7  UNL     1      -1.346  -2.447  -0.280  1.00  0.00     0.012 A 
HETATM   13  C8  UNL     1      -2.330  -3.067   0.438  1.00  0.00     0.002 A 
HETATM   14  C9  UNL     1      -3.630  -2.615   0.353  1.00  0.00     0.022 A 
HETATM   15  C10 UNL     1      -3.876  -1.536  -0.471  1.00  0.00     0.044 A 
HETATM   16 BR1  UNL     1      -5.691  -0.963  -0.542  1.00  0.00    -0.048 Br
HETATM   17  C11 UNL     1      -2.851  -0.940  -1.179  1.00  0.00     0.090 A 
BRANCH  17  18
HETATM   18  O1  UNL     1      -3.282   0.112  -1.946  1.00  0.00    -0.359 OA
HETATM   19  H15 UNL     1      -3.999   0.767  -1.666  1.00  0.00     0.217 HD
ENDBRANCH  17  18
ENDBRANCH  10  11
ENDBRANCH   1  10
BRANCH   4  20
HETATM   20  C13 UNL     1       3.048  -0.624   0.531  1.00  0.00     0.032 A 
HETATM   21  C14 UNL     1       3.282  -1.196   1.703  1.00  0.00     0.006 A 
HETATM   22  C15 UNL     1       4.655  -0.851   2.138  1.00  0.00     0.056 A 
HETATM   23  C16 UNL     1       5.133  -0.010   1.037  1.00  0.00    -0.021 A 
HETATM   24  C17 UNL     1       4.222   0.145   0.081  1.00  0.00     0.025 A 
ENDBRANCH   4  20
TORSDOF 7
