REMARK  6 active torsions:
REMARK  status: ('A' for Active; 'I' for Inactive)
REMARK    1  A    between atoms: C2_2  and  C3_3 
REMARK    2  A    between atoms: C3_3  and  C4_4 
REMARK    3  A    between atoms: C4_4  and  N1_5 
REMARK       I    between atoms: N1_5  and  C5_6 
REMARK    4  A    between atoms: N1_5  and  C12_15 
REMARK       I    between atoms: C5_6  and  N2_8 
REMARK    5  A    between atoms: N2_8  and  C6_9 
REMARK    6  A    between atoms: C16_20  and  O2_21 
ROOT
HETATM    1  N1  UNL     1      -0.378  -0.334  -0.018  1.00  0.00    -0.297 N 
HETATM    2  C5  UNL     1       1.004  -0.703  -0.050  1.00  0.00     0.327 C 
HETATM    3  O1  UNL     1       1.315  -1.897  -0.292  1.00  0.00    -0.246 OA
HETATM    4  N2  UNL     1       2.047   0.220   0.178  1.00  0.00    -0.309 N 
HETATM    5  H10 UNL     1       1.680   1.179   0.370  1.00  0.00     0.170 HD
ENDROOT
BRANCH   1   6
HETATM    6  C4  UNL     1      -0.810   1.024   0.253  1.00  0.00     0.134 C 
BRANCH   6   7
HETATM    7  C3  UNL     1      -1.031   1.306   1.698  1.00  0.00     0.020 C 
BRANCH   7   8
HETATM    8  C2  UNL     1      -1.478   2.753   1.846  1.00  0.00    -0.003 C 
HETATM    9  C1  UNL     1      -2.765   2.990   1.083  1.00  0.00     0.005 C 
ENDBRANCH   7   8
ENDBRANCH   6   7
ENDBRANCH   1   6
BRANCH   1  10
HETATM   10  C12 UNL     1      -1.366  -1.333  -0.257  1.00  0.00     0.070 A 
HETATM   11  C13 UNL     1      -1.295  -2.323   0.637  1.00  0.00     0.011 A 
HETATM   12  C14 UNL     1      -2.356  -3.340   0.334  1.00  0.00     0.079 A 
HETATM   13  C15 UNL     1      -3.010  -2.760  -0.851  1.00  0.00     0.028 A 
HETATM   14 BR1  UNL     1      -4.470  -3.429  -1.873  1.00  0.00    -0.052 Br
HETATM   15  C16 UNL     1      -2.445  -1.606  -1.195  1.00  0.00     0.108 A 
BRANCH  15  16
HETATM   16  O2  UNL     1      -2.644  -0.664  -2.189  1.00  0.00    -0.353 OA
HETATM   17  C17 UNL     1      -3.937  -0.109  -2.364  1.00  0.00     0.210 C 
ENDBRANCH  15  16
ENDBRANCH   1  10
BRANCH   4  18
HETATM   18  C6  UNL     1       3.447   0.021   0.182  1.00  0.00     0.036 A 
HETATM   19  C7  UNL     1       4.124  -1.145  -0.042  1.00  0.00     0.029 A 
HETATM   20  C8  UNL     1       5.494  -1.287  -0.027  1.00  0.00     0.002 A 
HETATM   21  C9  UNL     1       6.268  -0.190   0.229  1.00  0.00     0.000 A 
HETATM   22  C10 UNL     1       5.633   1.006   0.461  1.00  0.00     0.002 A 
HETATM   23  C11 UNL     1       4.261   1.101   0.436  1.00  0.00     0.029 A 
ENDBRANCH   4  18
TORSDOF 6
