REMARK  3 active torsions:
REMARK  status: ('A' for Active; 'I' for Inactive)
REMARK    1  A    between atoms: C2_2  and  C3_3 
REMARK    2  A    between atoms: C3_3  and  C4_4 
REMARK    3  A    between atoms: C4_4  and  C5_5 
ROOT
HETATM    1  C5  UNL     1       1.139  -0.932   0.461  1.00  0.00    -0.016 C 
HETATM    2  C6  UNL     1       2.288  -1.862   0.488  1.00  0.00     0.020 C 
HETATM    3  C7  UNL     1       0.014  -1.598   1.324  1.00  0.00    -0.007 C 
HETATM    4  C8  UNL     1      -1.190  -1.912   1.904  1.00  0.00     0.047 C 
HETATM    5  C9  UNL     1      -2.590  -1.377   1.805  1.00  0.00     0.007 C 
HETATM    6  C10 UNL     1      -3.660  -0.631   1.454  1.00  0.00     0.245 C 
HETATM    7  N1  UNL     1      -3.878   0.538   0.570  1.00  0.00     0.144 N 
HETATM    8  C11 UNL     1      -4.858   1.484   1.067  1.00  0.00     0.330 C 
HETATM    9  C12 UNL     1      -3.199   0.839  -0.716  1.00  0.00     0.390 A 
HETATM   10  O1  UNL     1      -2.935  -0.048   0.019  1.00  0.00    -0.099 OA
HETATM   11  N2  UNL     1      -2.500   1.018  -1.876  1.00  0.00    -0.312 N 
HETATM   12  C13 UNL     1      -1.359   0.197  -2.271  1.00  0.00     0.035 A 
HETATM   13  C14 UNL     1      -0.934  -0.404  -3.415  1.00  0.00     0.029 A 
HETATM   14  C15 UNL     1       0.206  -1.175  -3.308  1.00  0.00     0.003 A 
HETATM   15  C16 UNL     1       0.901  -1.351  -2.130  1.00  0.00     0.008 A 
HETATM   16  C17 UNL     1       0.582  -0.802  -0.902  1.00  0.00    -0.048 A 
HETATM   17  C18 UNL     1      -0.542  -0.090  -1.204  1.00  0.00     0.037 A 
HETATM   18  H20 UNL     1      -2.682   1.672  -2.556  1.00  0.00     0.169 HD
ENDROOT
BRANCH   1  19
HETATM   19  C4  UNL     1       1.347   0.399   1.072  1.00  0.00     0.014 C 
BRANCH  19  20
HETATM   20  C3  UNL     1       2.335   1.339   0.539  1.00  0.00     0.001 C 
BRANCH  20  21
HETATM   21  C2  UNL     1       3.747   0.893   0.515  1.00  0.00    -0.005 C 
HETATM   22  C1  UNL     1       4.644   2.035  -0.032  1.00  0.00     0.005 C 
ENDBRANCH  20  21
ENDBRANCH  19  20
ENDBRANCH   1  19
TORSDOF 3
