REMARK  5 active torsions:
REMARK  status: ('A' for Active; 'I' for Inactive)
REMARK    1  A    between atoms: C2_2  and  C3_3 
REMARK    2  A    between atoms: C4_4  and  O1_5 
REMARK    3  A    between atoms: C8_9  and  B1_10 
REMARK    4  A    between atoms: B1_10  and  C9_11 
REMARK    5  A    between atoms: C9_11  and  C10_12 
ROOT
HETATM    1  C9  UNL     1      -0.247   0.872   0.114  1.00  0.00     0.008 C 
ENDROOT
BRANCH   1   2
HETATM    2  B1  UNL     1      -0.004  -0.694   0.062  1.00  0.00     0.196 B 
HETATM    3  H12 UNL     1       1.120  -1.100  -0.103  1.00  0.00    -0.021 HD
BRANCH   2   4
HETATM    4  C8  UNL     1      -1.185  -1.582  -0.439  1.00  0.00    -0.117 C 
HETATM    5  C6  UNL     1      -1.031  -2.125  -1.664  1.00  0.00    -0.086 C 
HETATM    6  C5  UNL     1      -2.198  -2.958  -2.067  1.00  0.00     0.097 C 
HETATM    7  C7  UNL     1       0.190  -1.901  -2.501  1.00  0.00     0.043 C 
HETATM    8  C4  UNL     1      -3.488  -2.424  -1.639  1.00  0.00     0.049 C 
HETATM    9  C3  UNL     1      -3.653  -1.856  -0.449  1.00  0.00    -0.048 C 
HETATM   10  C18 UNL     1      -2.411  -1.832   0.362  1.00  0.00     0.058 C 
BRANCH   8  11
HETATM   11  O1  UNL     1      -4.543  -2.542  -2.544  1.00  0.00    -0.364 OA
HETATM   12  H6  UNL     1      -4.560  -2.186  -3.472  1.00  0.00     0.217 HD
ENDBRANCH   8  11
BRANCH   9  13
HETATM   13  C2  UNL     1      -4.850  -1.255   0.192  1.00  0.00     0.032 C 
HETATM   14  C1  UNL     1      -6.102  -1.335  -0.614  1.00  0.00     0.010 C 
ENDBRANCH   9  13
ENDBRANCH   2   4
ENDBRANCH   1   2
BRANCH   1  15
HETATM   15  C10 UNL     1       1.010   1.630  -0.066  1.00  0.00     0.005 C 
HETATM   16  C11 UNL     1       1.468   2.567  -0.984  1.00  0.00     0.024 C 
HETATM   17  C12 UNL     1       2.792   3.226  -1.023  1.00  0.00    -0.002 C 
HETATM   18  C13 UNL     1       3.915   3.265  -0.381  1.00  0.00    -0.021 C 
HETATM   19  C14 UNL     1       5.019   3.098   0.524  1.00  0.00     0.022 C 
HETATM   20  C15 UNL     1       5.500   2.502   1.664  1.00  0.00     0.018 C 
HETATM   21  C16 UNL     1       5.229   1.541   2.887  1.00  0.00     0.130 C 
HETATM   22  N1  UNL     1       3.825   1.351   2.527  1.00  0.00    -0.342 N 
HETATM   23  C17 UNL     1       2.558   1.179   2.204  1.00  0.00     0.320 C 
HETATM   24  H22 UNL     1       3.771   0.825   3.467  1.00  0.00     0.164 HD
HETATM   25  O2  UNL     1       1.669   0.760   2.842  1.00  0.00    -0.247 OA
HETATM   26  N2  UNL     1       1.788   1.404   1.073  1.00  0.00    -0.314 N 
HETATM   27  H23 UNL     1       2.494   1.351   0.326  1.00  0.00     0.170 HD
ENDBRANCH   1  15
TORSDOF 5
