REMARK  8 active torsions:
REMARK  status: ('A' for Active; 'I' for Inactive)
REMARK    1  A    between atoms: C2_2  and  O1_3 
REMARK    2  A    between atoms: O1_3  and  C3_4 
REMARK    3  A    between atoms: C8_9  and  C9_10 
REMARK    4  A    between atoms: C9_10  and  N1_11 
REMARK    5  A    between atoms: N1_11  and  C10_12 
REMARK    6  A    between atoms: N1_11  and  C12_14 
REMARK    7  A    between atoms: C12_14  and  C13_15 
REMARK    8  A    between atoms: C18_21  and  O2_22 
ROOT
HETATM    1  N1  UNL     1      -0.205  -1.398  -0.629  1.00  0.00    -0.408 N 
ENDROOT
BRANCH   1   2
HETATM    2  C9  UNL     1       0.858  -1.853   0.161  1.00  0.00     0.158 C 
BRANCH   2   3
HETATM    3  C8  UNL     1       2.201  -1.310  -0.108  1.00  0.00    -0.007 A 
HETATM    4  C3  UNL     1       2.812  -0.116   0.293  1.00  0.00     0.076 A 
HETATM    5  C4  UNL     1       4.083   0.184  -0.136  1.00  0.00     0.037 A 
HETATM    6  C5  UNL     1       4.824  -0.633  -0.961  1.00  0.00     0.003 A 
HETATM    7  C6  UNL     1       4.277  -1.824  -1.390  1.00  0.00     0.001 A 
HETATM    8  C7  UNL     1       3.002  -2.104  -0.947  1.00  0.00     0.011 A 
BRANCH   4   9
HETATM    9  O1  UNL     1       2.008   0.638   1.119  1.00  0.00    -0.351 OA
BRANCH   9  10
HETATM   10  C2  UNL     1       2.466   1.876   1.611  1.00  0.00     0.171 C 
HETATM   11  C1  UNL     1       2.767   2.893   0.546  1.00  0.00     0.034 C 
ENDBRANCH   9  10
ENDBRANCH   4   9
ENDBRANCH   2   3
ENDBRANCH   1   2
BRANCH   1  12
HETATM   12  C10 UNL     1       0.011  -1.670  -2.011  1.00  0.00     0.112 C 
HETATM   13  C11 UNL     1      -1.106  -1.198  -2.902  1.00  0.00     0.026 C 
ENDBRANCH   1  12
BRANCH   1  14
HETATM   14  C12 UNL     1      -0.948  -0.258  -0.287  1.00  0.00     0.132 C 
BRANCH  14  15
HETATM   15  C13 UNL     1      -1.804  -0.382   0.960  1.00  0.00     0.080 A 
HETATM   16  C14 UNL     1      -2.804  -1.464   0.834  1.00  0.00    -0.029 A 
HETATM   17  C15 UNL     1      -4.130  -1.443   0.868  1.00  0.00    -0.080 A 
HETATM   18  B1  UNL     1      -4.822  -0.035   1.078  1.00  0.00     0.215 B 
HETATM   19  C16 UNL     1      -3.808   1.156   1.217  1.00  0.00    -0.093 A 
HETATM   20  H22 UNL     1      -5.853   0.009   1.695  1.00  0.00    -0.017 HD
HETATM   21  C17 UNL     1      -4.328   2.528   1.414  1.00  0.00     0.033 C 
HETATM   22  C18 UNL     1      -2.510   0.909   1.153  1.00  0.00     0.044 A 
BRANCH  22  23
HETATM   23  O2  UNL     1      -1.674   2.019   1.285  1.00  0.00    -0.365 OA
HETATM   24  H26 UNL     1      -1.612   2.616   0.444  1.00  0.00     0.217 HD
ENDBRANCH  22  23
ENDBRANCH  14  15
ENDBRANCH   1  14
TORSDOF 8
