REMARK  7 active torsions:
REMARK  status: ('A' for Active; 'I' for Inactive)
REMARK    1  A    between atoms: C3_3  and  C4_4 
REMARK    2  A    between atoms: C4_4  and  O1_5 
REMARK    3  A    between atoms: O1_5  and  C5_6 
REMARK    4  A    between atoms: C5_6  and  C6_7 
REMARK    5  A    between atoms: C10_11  and  S1_12 
REMARK    6  A    between atoms: S1_12  and  C11_13 
REMARK       I    between atoms: C11_13  and  N1_15 
REMARK    7  A    between atoms: N1_15  and  C12_16 
ROOT
HETATM    1  C6  UNL     1       1.477  -1.171   0.541  1.00  0.00     0.012 A 
HETATM    2  C7  UNL     1       1.803  -1.647   1.971  1.00  0.00     0.042 A 
HETATM    3  C8  UNL     1       0.687  -1.808   1.349  1.00  0.00    -0.072 A 
HETATM    4  C9  UNL     1       0.333  -1.854   1.145  1.00  0.00     0.015 A 
HETATM    5  C10 UNL     1      -0.843  -2.015   0.434  1.00  0.00     0.072 A 
HETATM    6  C18 UNL     1       0.276  -0.997  -0.655  1.00  0.00     0.033 A 
ENDROOT
BRANCH   5   7
HETATM    7  S1  UNL     1      -2.259  -1.379   0.224  1.00  0.00    -0.063 SA
BRANCH   7   8
HETATM    8  C11 UNL     1      -3.720  -0.718   0.003  1.00  0.00     0.284 C 
HETATM    9  O2  UNL     1      -4.563  -1.386   0.696  1.00  0.00    -0.260 OA
HETATM   10  N1  UNL     1      -3.963   0.423  -0.787  1.00  0.00    -0.318 N 
HETATM   11  H14 UNL     1      -3.223   0.856  -1.390  1.00  0.00     0.169 HD
BRANCH  10  12
HETATM   12  C12 UNL     1      -5.408   0.641  -0.547  1.00  0.00     0.035 A 
HETATM   13  C13 UNL     1      -6.169   0.365  -1.673  1.00  0.00     0.029 A 
HETATM   14  C14 UNL     1      -7.550   0.516  -1.515  1.00  0.00     0.002 A 
HETATM   15  C15 UNL     1      -8.010   0.907  -0.301  1.00  0.00     0.000 A 
HETATM   16  C16 UNL     1      -7.239   1.170   0.799  1.00  0.00     0.002 A 
HETATM   17  C17 UNL     1      -5.858   1.023   0.637  1.00  0.00     0.029 A 
ENDBRANCH  10  12
ENDBRANCH   7   8
ENDBRANCH   5   7
BRANCH   1  18
HETATM   18  C5  UNL     1       2.707  -0.557   0.140  1.00  0.00     0.182 C 
BRANCH  18  19
HETATM   19  O1  UNL     1       3.824  -0.496   1.021  1.00  0.00    -0.390 OA
BRANCH  19  20
HETATM   20  C4  UNL     1       4.994  -0.710   0.409  1.00  0.00     0.167 C 
BRANCH  20  21
HETATM   21  C3  UNL     1       5.669   0.025  -0.670  1.00  0.00     0.026 C 
HETATM   22  C2  UNL     1       6.443   1.213  -0.493  1.00  0.00    -0.002 C 
HETATM   23  C1  UNL     1       5.929   2.503  -0.096  1.00  0.00     0.005 C 
ENDBRANCH  20  21
ENDBRANCH  19  20
ENDBRANCH  18  19
ENDBRANCH   1  18
TORSDOF 7
