REMARK  2 active torsions:
REMARK  status: ('A' for Active; 'I' for Inactive)
REMARK    1  A    between atoms: S1_2  and  N1_5 
REMARK    2  A    between atoms: N1_5  and  C2_6 
ROOT
HETATM    1  C2  UNL     1       2.141  -1.647  -0.481  1.00  0.00     0.043 C 
HETATM    2  C3  UNL     1       1.059  -2.281  -0.940  1.00  0.00     0.035 C 
HETATM    3  C4  UNL     1      -0.185  -1.465  -1.095  1.00  0.00     0.159 C 
HETATM    4  C5  UNL     1       0.228  -0.178  -1.828  1.00  0.00     0.093 C 
HETATM    5  C6  UNL     1       1.174   0.491  -0.924  1.00  0.00     0.014 C 
HETATM    6  C7  UNL     1       2.216  -0.170  -0.466  1.00  0.00     0.055 C 
HETATM    7  N2  UNL     1       1.030   1.839  -0.502  1.00  0.00    -0.355 N 
HETATM    8  C8  UNL     1      -0.096   2.699  -0.600  1.00  0.00     0.096 A 
HETATM    9  C9  UNL     1       0.085   3.836  -1.360  1.00  0.00     0.151 A 
HETATM   10  N3  UNL     1      -0.838   4.789  -1.593  1.00  0.00    -0.252 NA
HETATM   11  C10 UNL     1      -2.052   4.631  -1.041  1.00  0.00     0.235 A 
HETATM   12  N4  UNL     1      -2.259   3.532  -0.294  1.00  0.00    -0.222 NA
HETATM   13  C11 UNL     1      -1.352   2.574  -0.051  1.00  0.00     0.158 A 
HETATM   14  N5  UNL     1      -1.977   1.602   0.778  1.00  0.00    -0.337 N 
HETATM   15  C12 UNL     1      -2.601   0.326   0.712  1.00  0.00     0.069 A 
HETATM   16  C13 UNL     1      -3.961   0.324   0.951  1.00  0.00     0.035 A 
HETATM   17  C14 UNL     1      -4.788  -0.809   0.934  1.00  0.00     0.046 A 
HETATM   18  C15 UNL     1      -4.084  -1.960   0.646  1.00  0.00     0.141 A 
HETATM   19  F1  UNL     1      -4.810  -3.117   0.608  1.00  0.00    -0.204 F 
HETATM   20  C16 UNL     1      -2.728  -2.030   0.398  1.00  0.00     0.108 A 
HETATM   21 CL1  UNL     1      -2.011  -3.570   0.052  1.00  0.00    -0.078 Cl
HETATM   22  C17 UNL     1      -1.982  -0.873   0.432  1.00  0.00     0.121 A 
HETATM   23  O3  UNL     1      -0.630  -1.020   0.175  1.00  0.00    -0.337 OA
HETATM   24  H10 UNL     1       1.802   2.373  -0.046  1.00  0.00     0.166 HD
HETATM   25  H13 UNL     1      -2.040   1.842   1.793  1.00  0.00     0.167 HD
ENDROOT
BRANCH   1  26
HETATM   26  N1  UNL     1       3.188  -2.467  -0.020  1.00  0.00    -0.285 N 
HETATM   27  H4  UNL     1       3.526  -3.134  -0.742  1.00  0.00     0.178 HD
BRANCH  26  28
HETATM   28  S1  UNL     1       3.887  -2.434   1.540  1.00  0.00     0.227 S 
HETATM   29  C1  UNL     1       4.614  -0.854   1.845  1.00  0.00     0.186 C 
HETATM   30  O1  UNL     1       2.849  -2.732   2.596  1.00  0.00    -0.206 OA
HETATM   31  O2  UNL     1       4.931  -3.479   1.668  1.00  0.00    -0.206 OA
ENDBRANCH  26  28
ENDBRANCH   1  26
TORSDOF 2
