REMARK  7 active torsions:
REMARK  status: ('A' for Active; 'I' for Inactive)
REMARK    1  A    between atoms: C2_2  and  C3_3 
REMARK    2  A    between atoms: C3_3  and  C4_4 
REMARK    3  A    between atoms: C4_4  and  N1_5 
REMARK    4  A    between atoms: N1_5  and  C5_6 
REMARK       I    between atoms: N1_5  and  C13_15 
REMARK    5  A    between atoms: C5_6  and  C6_7 
REMARK    6  A    between atoms: C12_13  and  O1_14 
REMARK       I    between atoms: C13_15  and  N2_17 
REMARK    7  A    between atoms: N2_17  and  C14_18 
ROOT
HETATM    1  N1  UNL     1       0.182   0.597   0.538  1.00  0.00    -0.330 N 
HETATM    2  C13 UNL     1      -1.045  -0.149   0.556  1.00  0.00     0.323 C 
HETATM    3  O2  UNL     1      -1.777   0.370  -0.357  1.00  0.00    -0.247 OA
HETATM    4  N2  UNL     1      -1.609  -1.229   1.272  1.00  0.00    -0.309 N 
HETATM    5  H19 UNL     1      -0.900  -1.535   1.978  1.00  0.00     0.170 HD
ENDROOT
BRANCH   1   6
HETATM    6  C4  UNL     1       0.155   1.648  -0.458  1.00  0.00     0.128 C 
BRANCH   6   7
HETATM    7  C3  UNL     1      -0.380   2.946   0.086  1.00  0.00     0.020 C 
BRANCH   7   8
HETATM    8  C2  UNL     1      -0.346   3.952  -1.074  1.00  0.00    -0.003 C 
HETATM    9  C1  UNL     1      -0.866   5.304  -0.641  1.00  0.00     0.005 C 
ENDBRANCH   7   8
ENDBRANCH   6   7
ENDBRANCH   1   6
BRANCH   1  10
HETATM   10  C5  UNL     1       1.426   0.511   1.288  1.00  0.00     0.169 C 
BRANCH  10  11
HETATM   11  C6  UNL     1       2.448  -0.342   0.684  1.00  0.00    -0.006 A 
HETATM   12  C7  UNL     1       3.475   0.329   0.005  1.00  0.00     0.012 A 
HETATM   13  C8  UNL     1       4.510  -0.327  -0.628  1.00  0.00     0.001 A 
HETATM   14  C9  UNL     1       4.563  -1.711  -0.609  1.00  0.00     0.009 A 
HETATM   15  C10 UNL     1       3.578  -2.408   0.044  1.00  0.00    -0.028 A 
HETATM   16  C11 UNL     1       3.604  -3.891   0.090  1.00  0.00     0.051 C 
HETATM   17  C12 UNL     1       2.574  -1.707   0.656  1.00  0.00     0.079 A 
BRANCH  17  18
HETATM   18  O1  UNL     1       1.575  -2.403   1.319  1.00  0.00    -0.360 OA
HETATM   19  H18 UNL     1       1.128  -3.150   0.802  1.00  0.00     0.217 HD
ENDBRANCH  17  18
ENDBRANCH  10  11
ENDBRANCH   1  10
BRANCH   4  20
HETATM   20  C14 UNL     1      -2.903  -1.410   0.705  1.00  0.00     0.036 A 
HETATM   21  C15 UNL     1      -2.910  -2.296  -0.375  1.00  0.00     0.029 A 
HETATM   22  C16 UNL     1      -4.103  -2.558  -1.015  1.00  0.00     0.002 A 
HETATM   23  C17 UNL     1      -5.220  -1.915  -0.534  1.00  0.00     0.000 A 
HETATM   24  C18 UNL     1      -5.248  -1.037   0.527  1.00  0.00     0.002 A 
HETATM   25  C19 UNL     1      -4.049  -0.792   1.148  1.00  0.00     0.029 A 
ENDBRANCH   4  20
TORSDOF 7
