REMARK  6 active torsions:
REMARK  status: ('A' for Active; 'I' for Inactive)
REMARK    1  A    between atoms: C2_2  and  C3_3 
REMARK    2  A    between atoms: C3_3  and  C4_4 
REMARK    3  A    between atoms: C4_4  and  N1_5 
REMARK    4  A    between atoms: N1_5  and  B1_6 
REMARK       I    between atoms: N1_5  and  C13_15 
REMARK    5  A    between atoms: B1_6  and  C5_7 
REMARK       I    between atoms: C13_15  and  N2_17 
REMARK    6  A    between atoms: N2_17  and  C14_18 
ROOT
HETATM    1  N1  UNL     1      -1.173   0.813  -0.054  1.00  0.00    -0.383 N 
HETATM    2  C13 UNL     1      -1.915  -0.396  -0.031  1.00  0.00     0.308 C 
HETATM    3  O1  UNL     1      -2.889  -0.575   0.744  1.00  0.00    -0.248 OA
HETATM    4  N2  UNL     1      -1.611  -1.494  -0.884  1.00  0.00    -0.310 N 
HETATM    5  H22 UNL     1      -0.802  -1.415  -1.565  1.00  0.00     0.170 HD
ENDROOT
BRANCH   1   6
HETATM    6  C4  UNL     1      -1.559   1.856   0.843  1.00  0.00     0.109 C 
BRANCH   6   7
HETATM    7  C3  UNL     1      -2.579   2.821   0.290  1.00  0.00     0.018 C 
BRANCH   7   8
HETATM    8  C2  UNL     1      -2.843   3.834   1.393  1.00  0.00    -0.003 C 
HETATM    9  C1  UNL     1      -1.572   4.571   1.775  1.00  0.00     0.005 C 
ENDBRANCH   7   8
ENDBRANCH   6   7
ENDBRANCH   1   6
BRANCH   1  10
HETATM   10  B1  UNL     1      -0.010   0.912  -1.040  1.00  0.00     0.309 B 
HETATM   11  H10 UNL     1      -0.012   1.863  -1.751  1.00  0.00     0.005 HD
BRANCH  10  12
HETATM   12  C5  UNL     1       1.411   0.449  -0.552  1.00  0.00    -0.098 C 
HETATM   13  C6  UNL     1       1.453  -0.213   0.592  1.00  0.00    -0.008 C 
HETATM   14  C7  UNL     1       2.570  -0.772   1.317  1.00  0.00    -0.004 C 
HETATM   15  C8  UNL     1       3.837  -0.519   1.067  1.00  0.00    -0.023 C 
HETATM   16  C9  UNL     1       4.558   0.318   0.088  1.00  0.00     0.004 C 
HETATM   17  C10 UNL     1       5.362  -0.524  -0.846  1.00  0.00     0.014 C 
HETATM   18  C11 UNL     1       3.688   1.347  -0.581  1.00  0.00     0.011 C 
HETATM   19  C12 UNL     1       2.569   0.786  -1.396  1.00  0.00     0.024 C 
ENDBRANCH  10  12
ENDBRANCH   1  10
BRANCH   4  20
HETATM   20  C14 UNL     1      -2.307  -2.734  -0.919  1.00  0.00     0.036 A 
HETATM   21  C15 UNL     1      -3.378  -3.138  -1.651  1.00  0.00     0.029 A 
HETATM   22  C16 UNL     1      -3.882  -4.409  -1.509  1.00  0.00     0.002 A 
HETATM   23  C17 UNL     1      -3.314  -5.300  -0.623  1.00  0.00     0.000 A 
HETATM   24  C18 UNL     1      -2.223  -4.923   0.137  1.00  0.00     0.002 A 
HETATM   25  C19 UNL     1      -1.722  -3.627  -0.019  1.00  0.00     0.029 A 
ENDBRANCH   4  20
TORSDOF 6
