REMARK  3 active torsions:
REMARK  status: ('A' for Active; 'I' for Inactive)
REMARK    1  A    between atoms: C2_2  and  C3_3 
REMARK       I    between atoms: N1_5  and  C5_6 
REMARK       I    between atoms: C5_6  and  N2_8 
REMARK    2  A    between atoms: N2_8  and  C6_9 
REMARK    3  A    between atoms: C14_17  and  O2_18 
ROOT
HETATM    1  C3  UNL     1      -2.027  -0.779   0.265  1.00  0.00     0.034 C 
HETATM    2  C4  UNL     1      -0.741  -0.016   0.558  1.00  0.00     0.136 C 
HETATM    3  N1  UNL     1       0.098  -0.045  -0.649  1.00  0.00    -0.333 N 
HETATM    4  C5  UNL     1       1.463   0.131  -0.273  1.00  0.00     0.322 C 
HETATM    5  O1  UNL     1       1.543   0.259   0.996  1.00  0.00    -0.247 OA
HETATM    6  N2  UNL     1       2.640   0.177  -1.054  1.00  0.00    -0.309 N 
HETATM    7  C12 UNL     1      -0.365  -0.221  -2.013  1.00  0.00     0.134 C 
HETATM    8  C13 UNL     1      -1.438   0.752  -2.412  1.00  0.00     0.084 C 
HETATM    9  C14 UNL     1      -2.603   0.775  -1.509  1.00  0.00     0.047 C 
HETATM   10  C15 UNL     1      -2.958   0.180  -0.366  1.00  0.00    -0.049 C 
HETATM   11  C16 UNL     1      -4.305   0.585   0.134  1.00  0.00     0.046 C 
HETATM   12  H9  UNL     1       2.429   0.059  -2.071  1.00  0.00     0.170 HD
ENDROOT
BRANCH   1  13
HETATM   13  C2  UNL     1      -2.598  -1.468   1.457  1.00  0.00     0.006 C 
HETATM   14  C1  UNL     1      -3.870  -2.208   1.112  1.00  0.00     0.006 C 
ENDBRANCH   1  13
BRANCH   6  15
HETATM   15  C6  UNL     1       3.818   0.371  -0.283  1.00  0.00     0.036 A 
HETATM   16  C7  UNL     1       4.283   1.641  -0.010  1.00  0.00     0.029 A 
HETATM   17  C8  UNL     1       5.439   1.703   0.750  1.00  0.00     0.002 A 
HETATM   18  C9  UNL     1       6.137   0.620   1.240  1.00  0.00     0.000 A 
HETATM   19  C10 UNL     1       5.624  -0.624   0.936  1.00  0.00     0.002 A 
HETATM   20  C11 UNL     1       4.477  -0.770   0.183  1.00  0.00     0.029 A 
ENDBRANCH   6  15
BRANCH   9  21
HETATM   21  O2  UNL     1      -3.563   1.662  -2.013  1.00  0.00    -0.365 OA
HETATM   22  H19 UNL     1      -3.433   2.660  -1.974  1.00  0.00     0.217 HD
ENDBRANCH   9  21
TORSDOF 3
