REMARK  3 active torsions:
REMARK  status: ('A' for Active; 'I' for Inactive)
REMARK    1  A    between atoms: O1_2  and  C2_3 
REMARK    2  A    between atoms: C7_9  and  N2_10 
REMARK    3  A    between atoms: N2_10  and  C8_11 
ROOT
HETATM    1  C2  UNL     1      -4.674   0.453  -0.221  1.00  0.00     0.349 C 
HETATM    2  C3  UNL     1      -3.444  -0.137   0.178  1.00  0.00    -0.044 C 
HETATM    3  C4  UNL     1      -2.448  -0.594   0.490  1.00  0.00    -0.082 C 
HETATM    4  C5  UNL     1      -1.195  -1.144   0.870  1.00  0.00     0.216 C 
HETATM    5  N1  UNL     1      -0.166  -0.134   0.585  1.00  0.00    -0.363 N 
HETATM    6  C6  UNL     1       0.349   0.388  -0.635  1.00  0.00     0.141 C 
HETATM    7  C7  UNL     1       1.692   0.309  -0.674  1.00  0.00     0.138 C 
HETATM    8  N3  UNL     1       0.176   0.964  -1.916  1.00  0.00    -0.223 NA
HETATM    9  C14 UNL     1      -0.816   1.747  -2.134  1.00  0.00     0.237 C 
HETATM   10  N4  UNL     1      -1.970   2.350  -1.511  1.00  0.00    -0.230 NA
HETATM   11  C15 UNL     1      -3.074   1.658  -1.584  1.00  0.00     0.257 C 
HETATM   12  O2  UNL     1      -4.425   1.217  -1.459  1.00  0.00    -0.303 OA
HETATM   13  H7  UNL     1       0.288   0.322   1.434  1.00  0.00     0.162 HD
ENDROOT
BRANCH   7  14
HETATM   14  N2  UNL     1       2.320  -0.262   0.470  1.00  0.00    -0.362 N 
HETATM   15  H9  UNL     1       1.968  -0.717   1.344  1.00  0.00     0.165 HD
BRANCH  14  16
HETATM   16  C8  UNL     1       3.644  -0.460   0.896  1.00  0.00     0.033 A 
HETATM   17  C9  UNL     1       4.389  -1.597   0.626  1.00  0.00     0.032 A 
HETATM   18  C10 UNL     1       5.710  -1.808   1.036  1.00  0.00     0.046 A 
HETATM   19  C11 UNL     1       6.281  -0.777   1.766  1.00  0.00     0.138 A 
HETATM   20  F1  UNL     1       7.559  -0.938   2.184  1.00  0.00    -0.204 F 
HETATM   21  C12 UNL     1       5.645   0.399   2.098  1.00  0.00     0.074 A 
HETATM   22 CL1  UNL     1       6.367   1.684   3.011  1.00  0.00    -0.081 Cl
HETATM   23  C13 UNL     1       4.327   0.510   1.639  1.00  0.00     0.056 A 
ENDBRANCH  14  16
ENDBRANCH   7  14
BRANCH   1  24
HETATM   24  O1  UNL     1      -5.628  -0.474  -0.535  1.00  0.00    -0.355 OA
HETATM   25  C1  UNL     1      -6.831  -0.173   0.107  1.00  0.00     0.206 C 
ENDBRANCH   1  24
TORSDOF 3
