REMARK  2 active torsions:
REMARK  status: ('A' for Active; 'I' for Inactive)
REMARK       I    between atoms: C1_2  and  N1_3 
REMARK       I    between atoms: C1_2  and  N2_10 
REMARK    1  A    between atoms: N1_3  and  C2_4 
REMARK    2  A    between atoms: C12_15  and  O2_16 
ROOT
HETATM    1  O1  UNL     1       2.339   0.601  -0.701  1.00  0.00    -0.247 OA
HETATM    2  C1  UNL     1       1.574  -0.132  -0.064  1.00  0.00     0.322 C 
HETATM    3  N1  UNL     1       1.757  -0.939   1.086  1.00  0.00    -0.309 N 
HETATM    4  N2  UNL     1       0.296  -0.079  -0.693  1.00  0.00    -0.334 N 
HETATM    5  C8  UNL     1       0.028   0.717  -1.868  1.00  0.00     0.127 C 
HETATM    6  C9  UNL     1      -0.351   2.125  -1.641  1.00  0.00     0.020 C 
HETATM    7  C10 UNL     1      -1.540   2.569  -0.945  1.00  0.00     0.008 C 
HETATM    8  C11 UNL     1      -2.913   2.483  -1.466  1.00  0.00     0.066 C 
HETATM    9  C12 UNL     1      -3.597   1.231  -1.686  1.00  0.00     0.061 C 
HETATM   10  C13 UNL     1      -4.013  -0.050  -1.824  1.00  0.00     0.047 C 
HETATM   11 CL1  UNL     1      -5.678  -0.487  -2.334  1.00  0.00    -0.086 Cl
HETATM   12  C14 UNL     1      -2.964  -1.087  -1.546  1.00  0.00     0.120 C 
HETATM   13  C15 UNL     1      -2.496  -2.342  -1.435  1.00  0.00     0.034 C 
HETATM   14 CL2  UNL     1      -2.789  -4.092  -1.543  1.00  0.00    -0.124 Cl
HETATM   15  C16 UNL     1      -1.090  -2.054  -1.114  1.00  0.00     0.041 C 
HETATM   16  C17 UNL     1      -0.924  -0.738  -0.416  1.00  0.00     0.129 C 
HETATM   17  H1  UNL     1       0.972  -1.497   1.481  1.00  0.00     0.170 HD
ENDROOT
BRANCH   3  18
HETATM   18  C2  UNL     1       3.037  -0.996   1.724  1.00  0.00     0.036 A 
HETATM   19  C3  UNL     1       4.017  -1.906   1.390  1.00  0.00     0.029 A 
HETATM   20  C4  UNL     1       5.192  -1.851   2.078  1.00  0.00     0.002 A 
HETATM   21  C5  UNL     1       5.372  -0.912   3.068  1.00  0.00     0.000 A 
HETATM   22  C6  UNL     1       4.390   0.002   3.406  1.00  0.00     0.002 A 
HETATM   23  C7  UNL     1       3.195  -0.043   2.715  1.00  0.00     0.029 A 
ENDBRANCH   3  18
BRANCH   9  24
HETATM   24  O2  UNL     1      -4.857   1.790  -2.068  1.00  0.00    -0.364 OA
HETATM   25  H15 UNL     1      -5.566   1.980  -1.388  1.00  0.00     0.217 HD
ENDBRANCH   9  24
TORSDOF 2
