REMARK  7 active torsions:
REMARK  status: ('A' for Active; 'I' for Inactive)
REMARK    1  A    between atoms: C2_2  and  C3_3 
REMARK    2  A    between atoms: C3_3  and  C4_4 
REMARK    3  A    between atoms: C4_4  and  N1_5 
REMARK    4  A    between atoms: N1_5  and  C5_6 
REMARK       I    between atoms: N1_5  and  C12_16 
REMARK    5  A    between atoms: C5_6  and  C6_7 
REMARK    6  A    between atoms: C11_14  and  O1_15 
REMARK    7  A    between atoms: C12_16  and  C13_18 
ROOT
HETATM    1  N1  UNL     1       0.090   0.095   0.830  1.00  0.00    -0.344 N 
HETATM    2  C12 UNL     1      -0.452  -1.247   0.857  1.00  0.00     0.254 C 
HETATM    3  O2  UNL     1       0.134  -2.224   1.451  1.00  0.00    -0.267 OA
ENDROOT
BRANCH   1   4
HETATM    4  C4  UNL     1      -0.625   1.169   0.173  1.00  0.00     0.126 C 
BRANCH   4   5
HETATM    5  C3  UNL     1      -1.520   1.916   1.166  1.00  0.00     0.020 C 
BRANCH   5   6
HETATM    6  C2  UNL     1      -2.277   3.037   0.482  1.00  0.00    -0.003 C 
HETATM    7  C1  UNL     1      -1.257   4.011  -0.117  1.00  0.00     0.005 C 
ENDBRANCH   5   6
ENDBRANCH   4   5
ENDBRANCH   1   4
BRANCH   1   8
HETATM    8  C5  UNL     1       1.361   0.199   1.521  1.00  0.00     0.167 C 
BRANCH   8   9
HETATM    9  C6  UNL     1       2.551  -0.043   0.724  1.00  0.00    -0.004 A 
HETATM   10  C7  UNL     1       3.158  -1.300   0.888  1.00  0.00     0.035 A 
HETATM   11  C8  UNL     1       4.297  -1.652   0.184  1.00  0.00     0.036 A 
HETATM   12 CL1  UNL     1       5.110  -3.198   0.335  1.00  0.00    -0.084 Cl
HETATM   13  C9  UNL     1       4.906  -0.805  -0.713  1.00  0.00     0.050 A 
HETATM   14  C10 UNL     1       4.338   0.456  -0.910  1.00  0.00     0.069 A 
HETATM   15 CL2  UNL     1       5.033   1.602  -2.031  1.00  0.00    -0.081 Cl
HETATM   16  C11 UNL     1       3.208   0.749  -0.183  1.00  0.00     0.095 A 
BRANCH  16  17
HETATM   17  O1  UNL     1       2.675   2.009  -0.401  1.00  0.00    -0.358 OA
HETATM   18  H14 UNL     1       2.706   2.451  -1.323  1.00  0.00     0.217 HD
ENDBRANCH  16  17
ENDBRANCH   8   9
ENDBRANCH   1   8
BRANCH   2  19
HETATM   19  C13 UNL     1      -1.638  -1.893   0.321  1.00  0.00     0.032 A 
HETATM   20  C14 UNL     1      -1.433  -2.924  -0.615  1.00  0.00     0.017 A 
HETATM   21  C15 UNL     1      -2.458  -3.645  -1.245  1.00  0.00     0.001 A 
HETATM   22  C16 UNL     1      -3.743  -3.283  -0.888  1.00  0.00     0.000 A 
HETATM   23  C17 UNL     1      -4.042  -2.286   0.020  1.00  0.00     0.001 A 
HETATM   24  C18 UNL     1      -2.963  -1.653   0.568  1.00  0.00     0.017 A 
ENDBRANCH   2  19
TORSDOF 7
