REMARK  7 active torsions:
REMARK  status: ('A' for Active; 'I' for Inactive)
REMARK    1  A    between atoms: C2_2  and  N1_4 
REMARK       I    between atoms: N1_4  and  C3_5 
REMARK       I    between atoms: C3_5  and  N2_7 
REMARK    2  A    between atoms: N2_7  and  C4_8 
REMARK    3  A    between atoms: N2_7  and  C8_12 
REMARK    4  A    between atoms: C4_8  and  C5_9 
REMARK    5  A    between atoms: C5_9  and  C6_10 
REMARK    6  A    between atoms: C8_12  and  C9_13 
REMARK    7  A    between atoms: C13_20  and  O2_21 
ROOT
HETATM    1  N1  UNL     1      -0.401   2.859   0.215  1.00  0.00    -0.286 N 
HETATM    2  C3  UNL     1      -0.462   1.521   0.663  1.00  0.00     0.324 C 
HETATM    3  O1  UNL     1      -0.714   1.271   1.884  1.00  0.00    -0.247 OA
HETATM    4  N2  UNL     1      -0.298   0.261   0.034  1.00  0.00    -0.330 N 
HETATM    5  H3  UNL     1      -0.196   2.889  -0.804  1.00  0.00     0.172 HD
ENDROOT
BRANCH   4   6
HETATM    6  C4  UNL     1      -0.497  -0.860   0.947  1.00  0.00     0.128 C 
BRANCH   6   7
HETATM    7  C5  UNL     1      -1.933  -1.307   0.979  1.00  0.00     0.020 C 
BRANCH   7   8
HETATM    8  C6  UNL     1      -2.036  -2.467   1.948  1.00  0.00    -0.003 C 
HETATM    9  C7  UNL     1      -3.477  -2.968   2.025  1.00  0.00     0.005 C 
ENDBRANCH   7   8
ENDBRANCH   6   7
ENDBRANCH   4   6
BRANCH   4  10
HETATM   10  C8  UNL     1       0.045  -0.176  -1.312  1.00  0.00     0.169 C 
BRANCH  10  11
HETATM   11  C9  UNL     1       1.491  -0.408  -1.516  1.00  0.00    -0.003 C 
HETATM   12  C10 UNL     1       1.907  -1.637  -1.879  1.00  0.00     0.036 C 
HETATM   13  C11 UNL     1       3.270  -2.125  -2.141  1.00  0.00     0.048 C 
HETATM   14 CL1  UNL     1       3.510  -3.555  -3.127  1.00  0.00    -0.083 Cl
HETATM   15  C12 UNL     1       4.332  -1.504  -1.645  1.00  0.00     0.026 C 
HETATM   16  P1  UNL     1       4.101   0.071  -1.656  1.00  0.00     0.078 P 
HETATM   17 CL2  UNL     1       5.720   1.332  -1.489  1.00  0.00    -0.083 Cl
HETATM   18  C13 UNL     1       2.584   0.528  -1.382  1.00  0.00     0.097 C 
BRANCH  18  19
HETATM   19  O2  UNL     1       2.288   1.826  -1.013  1.00  0.00    -0.358 OA
HETATM   20  H16 UNL     1       2.919   2.463  -0.576  1.00  0.00     0.217 HD
ENDBRANCH  18  19
ENDBRANCH  10  11
ENDBRANCH   4  10
BRANCH   1  21
HETATM   21  C2  UNL     1      -0.610   3.953   1.093  1.00  0.00     0.182 C 
HETATM   22  C1  UNL     1      -0.518   5.141   0.513  1.00  0.00     0.077 C 
HETATM   23  F1  UNL     1      -0.875   3.686   2.392  1.00  0.00    -0.187 F 
ENDBRANCH   1  21
TORSDOF 7
