REMARK  10 active torsions:
REMARK  status: ('A' for Active; 'I' for Inactive)
REMARK    1  A    between atoms: C3_3  and  C4_5 
REMARK    2  A    between atoms: C5_6  and  C6_7 
REMARK    3  A    between atoms: C6_7  and  C7_8 
REMARK    4  A    between atoms: C7_8  and  C8_9 
REMARK    5  A    between atoms: C8_9  and  N1_10 
REMARK    6  A    between atoms: N1_10  and  C9_11 
REMARK       I    between atoms: N1_10  and  C12_15 
REMARK    7  A    between atoms: C9_11  and  C10_12 
REMARK    8  A    between atoms: C10_12  and  C11_13 
REMARK    9  A    between atoms: C11_13  and  O1_14 
REMARK       I    between atoms: C12_15  and  N2_17 
REMARK   10  A    between atoms: N2_17  and  C13_18 
ROOT
HETATM    1  N1  UNL     1      -1.577   1.575   0.647  1.00  0.00    -0.334 N 
HETATM    2  C12 UNL     1      -2.197   0.489  -0.050  1.00  0.00     0.322 C 
HETATM    3  O2  UNL     1      -2.779   0.188  -1.124  1.00  0.00    -0.247 OA
HETATM    4  N2  UNL     1      -2.213  -0.765   0.660  1.00  0.00    -0.309 N 
HETATM    5  H20 UNL     1      -1.839  -0.998   1.629  1.00  0.00     0.170 HD
ENDROOT
BRANCH   1   6
HETATM    6  C8  UNL     1      -0.952   1.523   1.953  1.00  0.00     0.128 C 
BRANCH   6   7
HETATM    7  C7  UNL     1       0.503   1.243   1.966  1.00  0.00     0.023 C 
BRANCH   7   8
HETATM    8  C6  UNL     1       0.959  -0.041   1.370  1.00  0.00     0.029 C 
BRANCH   8   9
HETATM    9  C5  UNL     1       2.466  -0.174   1.441  1.00  0.00    -0.025 C 
HETATM   10  C4  UNL     1       3.490  -0.316   0.628  1.00  0.00     0.019 C 
BRANCH  10  11
HETATM   11  C3  UNL     1       4.874  -0.417   1.044  1.00  0.00     0.029 C 
HETATM   12  C2  UNL     1       5.657  -0.551  -0.014  1.00  0.00    -0.007 C 
HETATM   13  C1  UNL     1       5.543  -0.627  -1.492  1.00  0.00     0.038 C 
HETATM   14 CL1  UNL     1       5.176  -0.344   2.757  1.00  0.00    -0.085 Cl
ENDBRANCH  10  11
ENDBRANCH   8   9
ENDBRANCH   7   8
ENDBRANCH   6   7
ENDBRANCH   1   6
BRANCH   1  15
HETATM   15  C9  UNL     1      -1.555   2.882   0.022  1.00  0.00     0.129 C 
BRANCH  15  16
HETATM   16  C10 UNL     1      -0.388   3.197  -0.823  1.00  0.00     0.046 C 
BRANCH  16  17
HETATM   17  C11 UNL     1      -0.263   2.246  -1.982  1.00  0.00     0.165 C 
BRANCH  17  18
HETATM   18  O1  UNL     1      -1.341   2.272  -2.828  1.00  0.00    -0.401 OA
HETATM   19  H19 UNL     1      -1.885   3.084  -2.585  1.00  0.00     0.209 HD
ENDBRANCH  17  18
ENDBRANCH  16  17
ENDBRANCH  15  16
ENDBRANCH   1  15
BRANCH   4  20
HETATM   20  C13 UNL     1      -2.815  -1.880   0.012  1.00  0.00     0.036 A 
HETATM   21  C14 UNL     1      -1.972  -2.649  -0.766  1.00  0.00     0.029 A 
HETATM   22  C15 UNL     1      -2.509  -3.750  -1.422  1.00  0.00     0.002 A 
HETATM   23  C16 UNL     1      -3.852  -4.077  -1.307  1.00  0.00     0.000 A 
HETATM   24  C17 UNL     1      -4.671  -3.290  -0.522  1.00  0.00     0.002 A 
HETATM   25  C18 UNL     1      -4.153  -2.201   0.130  1.00  0.00     0.029 A 
ENDBRANCH   4  20
TORSDOF 10
