REMARK  5 active torsions:
REMARK  status: ('A' for Active; 'I' for Inactive)
REMARK    1  A    between atoms: C7_9  and  N1_10 
REMARK    2  A    between atoms: C7_9  and  C8_11 
REMARK    3  A    between atoms: N2_18  and  C15_19 
REMARK    4  A    between atoms: C15_19  and  C16_20 
REMARK    5  A    between atoms: C16_20  and  C17_21 
ROOT
HETATM    1  C1  UNL     1      -2.673  -1.788   1.097  1.00  0.00     0.015 C 
HETATM    2  C2  UNL     1      -1.707  -2.131   0.157  1.00  0.00     0.008 C 
HETATM    3  C3  UNL     1      -1.418  -3.524   0.436  1.00  0.00     0.179 C 
HETATM    4  O1  UNL     1      -0.078  -3.954   0.703  1.00  0.00    -0.387 OA
HETATM    5  C4  UNL     1       0.338  -3.988  -0.697  1.00  0.00     0.196 C 
HETATM    6  C5  UNL     1       0.643  -2.630  -1.100  1.00  0.00     0.023 C 
HETATM    7  C6  UNL     1       0.655  -1.640  -0.244  1.00  0.00     0.073 C 
HETATM    8 CL1  UNL     1       0.415  -1.479   1.476  1.00  0.00    -0.084 Cl
HETATM    9  C7  UNL     1       0.675  -0.122  -0.379  1.00  0.00     0.292 C 
HETATM   10  N2  UNL     1      -0.637   0.147  -0.186  1.00  0.00    -0.370 N 
HETATM   11  C19 UNL     1      -1.621  -0.828  -0.510  1.00  0.00     0.132 C 
ENDROOT
BRANCH   9  12
HETATM   12  N1  UNL     1       0.908   0.025  -1.844  1.00  0.00     0.117 N 
HETATM   13  H8  UNL     1      -0.013   0.122  -2.288  1.00  0.00     0.317 HD
HETATM   14  H9  UNL     1       1.510   0.850  -2.030  1.00  0.00     0.317 HD
ENDBRANCH   9  12
BRANCH   9  15
HETATM   15  C8  UNL     1       1.808   0.533   0.189  1.00  0.00     0.012 A 
HETATM   16  C9  UNL     1       1.778   1.632   1.026  1.00  0.00     0.012 A 
HETATM   17  C10 UNL     1       2.837   2.298   1.596  1.00  0.00     0.001 A 
HETATM   18  C11 UNL     1       4.106   1.845   1.325  1.00  0.00     0.001 A 
HETATM   19  C12 UNL     1       4.193   0.741   0.487  1.00  0.00     0.007 A 
HETATM   20  C13 UNL     1       3.098   0.101  -0.067  1.00  0.00    -0.051 A 
HETATM   21  C14 UNL     1       3.436  -1.032  -0.920  1.00  0.00     0.049 C 
ENDBRANCH   9  15
BRANCH  10  22
HETATM   22  C15 UNL     1      -1.216   1.407   0.037  1.00  0.00     0.120 C 
BRANCH  22  23
HETATM   23  C16 UNL     1      -2.706   1.552  -0.125  1.00  0.00     0.019 C 
BRANCH  23  24
HETATM   24  C17 UNL     1      -2.949   3.042   0.218  1.00  0.00    -0.003 C 
HETATM   25  C18 UNL     1      -2.183   3.936  -0.729  1.00  0.00     0.005 C 
ENDBRANCH  23  24
ENDBRANCH  22  23
ENDBRANCH  10  22
TORSDOF 5
