REMARK  10 active torsions:
REMARK  status: ('A' for Active; 'I' for Inactive)
REMARK    1  A    between atoms: C2_2  and  C3_3 
REMARK    2  A    between atoms: C3_3  and  C4_4 
REMARK    3  A    between atoms: C4_4  and  N1_5 
REMARK    4  A    between atoms: N1_5  and  C5_6 
REMARK    5  A    between atoms: N1_5  and  C12_16 
REMARK    6  A    between atoms: C5_6  and  C6_7 
REMARK    7  A    between atoms: C10_12  and  N2_13 
REMARK    8  A    between atoms: C11_14  and  O1_15 
REMARK    9  A    between atoms: C12_16  and  C13_17 
REMARK   10  A    between atoms: C13_17  and  O2_18 
ROOT
HETATM    1  N1  UNL     1      -0.303  -0.460   0.549  1.00  0.00    -0.405 N 
ENDROOT
BRANCH   1   2
HETATM    2  C4  UNL     1      -1.481  -1.064   1.021  1.00  0.00     0.117 C 
BRANCH   2   3
HETATM    3  C3  UNL     1      -1.989  -2.186   0.106  1.00  0.00     0.019 C 
BRANCH   3   4
HETATM    4  C2  UNL     1      -3.253  -2.729   0.745  1.00  0.00    -0.003 C 
HETATM    5  C1  UNL     1      -3.801  -3.836  -0.115  1.00  0.00     0.005 C 
ENDBRANCH   3   4
ENDBRANCH   2   3
ENDBRANCH   1   2
BRANCH   1   6
HETATM    6  C5  UNL     1       0.869  -1.264   0.571  1.00  0.00     0.158 C 
BRANCH   6   7
HETATM    7  C6  UNL     1       2.087  -0.641   0.020  1.00  0.00    -0.004 A 
HETATM    8  C7  UNL     1       2.493  -1.027  -1.263  1.00  0.00     0.030 A 
HETATM    9  C8  UNL     1       3.597  -0.540  -1.926  1.00  0.00     0.013 A 
HETATM   10 BR1  UNL     1       3.997  -1.192  -3.694  1.00  0.00    -0.051 Br
HETATM   11  C9  UNL     1       4.382   0.414  -1.283  1.00  0.00     0.051 A 
HETATM   12  C10 UNL     1       3.993   0.804  -0.016  1.00  0.00     0.061 A 
HETATM   13  C11 UNL     1       2.894   0.304   0.617  1.00  0.00     0.099 A 
BRANCH  12  14
HETATM   14  N2  UNL     1       4.822   1.779   0.607  1.00  0.00    -0.397 N 
HETATM   15  H14 UNL     1       5.739   1.434   0.971  1.00  0.00     0.156 HD
HETATM   16  H15 UNL     1       4.578   2.805   0.723  1.00  0.00     0.156 HD
ENDBRANCH  12  14
BRANCH  13  17
HETATM   17  O1  UNL     1       2.518   0.706   1.890  1.00  0.00    -0.358 OA
HETATM   18  H16 UNL     1       2.728   1.636   2.247  1.00  0.00     0.217 HD
ENDBRANCH  13  17
ENDBRANCH   6   7
ENDBRANCH   1   6
BRANCH   1  19
HETATM   19  C12 UNL     1      -0.328   0.630  -0.308  1.00  0.00     0.163 C 
BRANCH  19  20
HETATM   20  C13 UNL     1      -0.819   1.932   0.211  1.00  0.00     0.109 A 
HETATM   21  C14 UNL     1      -0.586   3.008  -0.829  1.00  0.00     0.016 A 
HETATM   22  C15 UNL     1      -1.691   3.654  -1.167  1.00  0.00    -0.001 A 
HETATM   23  C16 UNL     1      -2.778   3.050  -0.363  1.00  0.00    -0.001 A 
HETATM   24  C17 UNL     1      -2.258   2.077   0.410  1.00  0.00     0.016 A 
BRANCH  20  25
HETATM   25  O2  UNL     1      -0.038   2.340   1.302  1.00  0.00    -0.380 OA
HETATM   26  H19 UNL     1      -0.373   3.257   1.542  1.00  0.00     0.211 HD
ENDBRANCH  20  25
ENDBRANCH  19  20
ENDBRANCH   1  19
TORSDOF 10
