REMARK  5 active torsions:
REMARK  status: ('A' for Active; 'I' for Inactive)
REMARK    1  A    between atoms: O1_1  and  O2_2 
REMARK    2  A    between atoms: O2_2  and  C1_3 
REMARK    3  A    between atoms: N1_10  and  C7_11 
REMARK    4  A    between atoms: C7_11  and  N2_12 
REMARK    5  A    between atoms: N2_12  and  C8_13 
ROOT
HETATM    1  C1  UNL     1      -4.298  -0.014  -0.493  1.00  0.00     0.175 C 
HETATM    2  C2  UNL     1      -3.820   0.013   1.009  1.00  0.00     0.104 A 
HETATM    3  C3  UNL     1      -3.074   0.192   2.190  1.00  0.00     0.062 A 
HETATM    4 BR1  UNL     1      -3.016   0.437   0.368  1.00  0.00    -0.142 Br
HETATM    5  C4  UNL     1      -1.663   0.632   1.896  1.00  0.00    -0.006 C 
HETATM    6  C5  UNL     1      -0.451   1.022   1.424  1.00  0.00    -0.010 C 
HETATM    7  C6  UNL     1      -0.394   1.135  -0.031  1.00  0.00     0.145 C 
HETATM    8  N1  UNL     1       0.388   0.168  -0.655  1.00  0.00    -0.394 N 
HETATM    9  C14 UNL     1      -0.199  -1.025  -1.150  1.00  0.00     0.119 C 
HETATM   10  C15 UNL     1      -1.113  -1.001  -2.290  1.00  0.00     0.020 C 
HETATM   11  C16 UNL     1      -2.448  -0.341  -2.181  1.00  0.00     0.004 C 
HETATM   12  C17 UNL     1      -3.462  -0.946  -1.313  1.00  0.00     0.036 C 
ENDROOT
BRANCH   8  13
HETATM   13  C7  UNL     1       1.785   0.166  -0.513  1.00  0.00     0.241 C 
BRANCH  13  14
HETATM   14  N2  UNL     1       2.216  -0.189   0.814  1.00  0.00    -0.374 N 
HETATM   15  H10 UNL     1       1.756  -0.483   1.698  1.00  0.00     0.161 HD
BRANCH  14  16
HETATM   16  C8  UNL     1       3.654  -0.124   0.926  1.00  0.00     0.029 A 
HETATM   17  C9  UNL     1       4.326  -0.427   2.115  1.00  0.00     0.029 A 
HETATM   18  C10 UNL     1       5.688  -0.389   2.304  1.00  0.00     0.002 A 
HETATM   19  C11 UNL     1       6.461  -0.015   1.213  1.00  0.00     0.000 A 
HETATM   20  C12 UNL     1       5.889   0.301   0.004  1.00  0.00     0.002 A 
HETATM   21  C13 UNL     1       4.521   0.234  -0.089  1.00  0.00     0.029 A 
ENDBRANCH  14  16
ENDBRANCH  13  14
ENDBRANCH   8  13
BRANCH   1  22
HETATM   22  O2  UNL     1      -5.561  -0.707  -0.231  1.00  0.00    -0.237 OA
BRANCH  22  23
HETATM   23  O1  UNL     1      -6.458   0.198  -0.586  1.00  0.00    -0.250 OA
HETATM   24  H1  UNL     1      -7.298   0.144  -0.084  1.00  0.00     0.253 HD
ENDBRANCH  22  23
ENDBRANCH   1  22
TORSDOF 5
