REMARK  6 active torsions:
REMARK  status: ('A' for Active; 'I' for Inactive)
REMARK    1  A    between atoms: C2_2  and  C3_3 
REMARK    2  A    between atoms: C3_3  and  C4_4 
REMARK    3  A    between atoms: C4_4  and  N1_5 
REMARK       I    between atoms: N1_5  and  C5_6 
REMARK    4  A    between atoms: N1_5  and  C12_15 
REMARK       I    between atoms: C5_6  and  N2_8 
REMARK    5  A    between atoms: N2_8  and  C6_9 
REMARK    6  A    between atoms: C17_22  and  O2_23 
ROOT
HETATM    1  N1  UNL     1      -0.235  -0.111   0.662  1.00  0.00    -0.302 N 
HETATM    2  C5  UNL     1       0.802  -0.524  -0.192  1.00  0.00     0.327 C 
HETATM    3  O1  UNL     1       0.656  -1.709  -0.577  1.00  0.00    -0.246 OA
HETATM    4  N2  UNL     1       1.960   0.041  -0.716  1.00  0.00    -0.309 N 
HETATM    5  H10 UNL     1       2.163   0.998  -0.391  1.00  0.00     0.170 HD
ENDROOT
BRANCH   1   6
HETATM    6  C4  UNL     1      -0.840  -1.414   0.811  1.00  0.00     0.134 C 
BRANCH   6   7
HETATM    7  C3  UNL     1      -1.881  -1.680  -0.258  1.00  0.00     0.020 C 
BRANCH   7   8
HETATM    8  C2  UNL     1      -2.501  -3.049  -0.095  1.00  0.00    -0.003 C 
HETATM    9  C1  UNL     1      -3.178  -3.175   1.250  1.00  0.00     0.005 C 
ENDBRANCH   7   8
ENDBRANCH   6   7
ENDBRANCH   1   6
BRANCH   1  10
HETATM   10  C12 UNL     1      -0.508   1.241   1.030  1.00  0.00     0.030 C 
HETATM   11  P1  UNL     1      -1.531   1.662   2.224  1.00  0.00    -0.038 P 
HETATM   12  C13 UNL     1      -2.316   0.271   3.075  1.00  0.00     0.055 C 
HETATM   13  C14 UNL     1      -1.467   3.076   3.033  1.00  0.00    -0.013 C 
HETATM   14  C15 UNL     1      -1.721   4.095   2.232  1.00  0.00     0.035 C 
HETATM   15  C16 UNL     1      -1.530   4.334   0.819  1.00  0.00     0.041 C 
HETATM   16 BR1  UNL     1      -2.452   5.848   0.122  1.00  0.00    -0.048 Br
HETATM   17  C17 UNL     1      -0.768   3.548   0.119  1.00  0.00     0.066 C 
HETATM   18  C18 UNL     1       0.101   2.337   0.223  1.00  0.00     0.124 C 
BRANCH  17  19
HETATM   19  O2  UNL     1      -0.843   4.106  -1.181  1.00  0.00    -0.363 OA
HETATM   20  H20 UNL     1      -0.181   4.860  -1.328  1.00  0.00     0.217 HD
ENDBRANCH  17  19
ENDBRANCH   1  10
BRANCH   4  21
HETATM   21  C6  UNL     1       2.907  -0.504  -1.573  1.00  0.00     0.036 A 
HETATM   22  C7  UNL     1       2.947  -1.751  -2.143  1.00  0.00     0.029 A 
HETATM   23  C8  UNL     1       3.907  -2.262  -2.983  1.00  0.00     0.002 A 
HETATM   24  C9  UNL     1       4.950  -1.417  -3.285  1.00  0.00     0.000 A 
HETATM   25  C10 UNL     1       5.020  -0.150  -2.777  1.00  0.00     0.002 A 
HETATM   26  C11 UNL     1       4.010   0.265  -1.947  1.00  0.00     0.029 A 
ENDBRANCH   4  21
TORSDOF 6
