REMARK  7 active torsions:
REMARK  status: ('A' for Active; 'I' for Inactive)
REMARK    1  A    between atoms: C2_3  and  C3_4 
REMARK    2  A    between atoms: C3_4  and  C4_5 
REMARK    3  A    between atoms: C4_5  and  N1_6 
REMARK    4  A    between atoms: N1_6  and  C5_7 
REMARK       I    between atoms: N1_6  and  C14_17 
REMARK    5  A    between atoms: C5_7  and  C6_8 
REMARK    6  A    between atoms: C13_15  and  O1_16 
REMARK       I    between atoms: C14_17  and  N2_19 
REMARK    7  A    between atoms: N2_19  and  C15_20 
ROOT
HETATM    1  C1  UNL     1      -1.380   6.491  -1.191  1.00  0.00     0.104 C 
HETATM    2  S1  UNL     1      -1.038   5.006  -0.975  1.00  0.00    -0.096 SA
HETATM    3  C2  UNL     1      -0.732   3.777  -0.791  1.00  0.00    -0.111 C 
ENDROOT
BRANCH   3   4
HETATM    4  C3  UNL     1      -0.363   2.401  -0.583  1.00  0.00     0.112 C 
BRANCH   4   5
HETATM    5  C4  UNL     1      -0.449   2.136   0.898  1.00  0.00     0.140 C 
BRANCH   5   6
HETATM    6  N1  UNL     1      -0.108   0.787   1.290  1.00  0.00    -0.329 N 
HETATM    7  C14 UNL     1      -1.270  -0.070   1.217  1.00  0.00     0.323 C 
HETATM    8  O2  UNL     1      -2.233   0.655   0.787  1.00  0.00    -0.247 OA
HETATM    9  N2  UNL     1      -1.512  -1.429   1.506  1.00  0.00    -0.309 N 
HETATM   10  H19 UNL     1      -0.651  -1.875   1.851  1.00  0.00     0.170 HD
BRANCH   6  11
HETATM   11  C5  UNL     1       1.105   0.124   1.734  1.00  0.00     0.169 C 
BRANCH  11  12
HETATM   12  C6  UNL     1       1.950  -0.439   0.693  1.00  0.00    -0.006 A 
HETATM   13  C7  UNL     1       1.971  -1.773   0.301  1.00  0.00     0.018 A 
HETATM   14  C8  UNL     1       2.757  -2.310  -0.701  1.00  0.00    -0.061 A 
HETATM   15  C9  UNL     1       2.704  -3.751  -1.045  1.00  0.00     0.048 C 
HETATM   16  C10 UNL     1       3.593  -1.448  -1.368  1.00  0.00     0.016 A 
HETATM   17  C11 UNL     1       3.657  -0.106  -1.064  1.00  0.00    -0.028 A 
HETATM   18  C12 UNL     1       4.567   0.787  -1.801  1.00  0.00     0.051 C 
HETATM   19  C13 UNL     1       2.838   0.354  -0.048  1.00  0.00     0.079 A 
BRANCH  19  20
HETATM   20  O1  UNL     1       2.947   1.709   0.217  1.00  0.00    -0.360 OA
HETATM   21  H18 UNL     1       2.944   2.397  -0.525  1.00  0.00     0.217 HD
ENDBRANCH  19  20
ENDBRANCH  11  12
ENDBRANCH   6  11
BRANCH   9  22
HETATM   22  C15 UNL     1      -2.798  -1.997   1.322  1.00  0.00     0.036 A 
HETATM   23  C16 UNL     1      -2.929  -2.511   0.029  1.00  0.00     0.029 A 
HETATM   24  C17 UNL     1      -4.108  -3.127  -0.398  1.00  0.00     0.002 A 
HETATM   25  C18 UNL     1      -5.155  -3.216   0.507  1.00  0.00     0.000 A 
HETATM   26  C19 UNL     1      -5.001  -2.707   1.759  1.00  0.00     0.002 A 
HETATM   27  C20 UNL     1      -3.864  -2.105   2.193  1.00  0.00     0.029 A 
ENDBRANCH   9  22
ENDBRANCH   5   6
ENDBRANCH   4   5
ENDBRANCH   3   4
TORSDOF 7
