REMARK  4 active torsions:
REMARK  status: ('A' for Active; 'I' for Inactive)
REMARK    1  A    between atoms: C2_2  and  C3_3 
REMARK    2  A    between atoms: C3_3  and  C4_4 
REMARK    3  A    between atoms: C4_4  and  N1_5 
REMARK    4  A    between atoms: C13_14  and  O1_15 
ROOT
HETATM    1  N1  UNL     1       1.861  -0.827  -0.479  1.00  0.00    -0.334 N 
HETATM    2  C5  UNL     1       1.461  -2.062  -1.130  1.00  0.00     0.133 C 
HETATM    3  C6  UNL     1       0.121  -2.556  -0.606  1.00  0.00     0.015 C 
HETATM    4  C7  UNL     1      -1.101  -2.598  -0.120  1.00  0.00     0.001 C 
HETATM    5  C8  UNL     1      -2.424  -2.181   0.404  1.00  0.00    -0.040 C 
HETATM    6  C9  UNL     1      -3.032  -3.542   0.767  1.00  0.00     0.011 C 
HETATM    7  C10 UNL     1      -2.502  -0.825   0.331  1.00  0.00     0.063 C 
HETATM    8  C11 UNL     1      -3.607   0.116   0.734  1.00  0.00    -0.044 C 
HETATM    9  C12 UNL     1      -5.000   0.097   1.390  1.00  0.00     0.047 C 
HETATM   10  C13 UNL     1      -3.394   1.440   0.471  1.00  0.00     0.078 C 
HETATM   11  C14 UNL     1      -2.279   2.072  -0.163  1.00  0.00    -0.001 A 
HETATM   12  C15 UNL     1      -2.510   3.085  -1.112  1.00  0.00     0.014 A 
HETATM   13  C16 UNL     1      -1.599   3.778  -1.881  1.00  0.00     0.003 A 
HETATM   14  C17 UNL     1      -0.257   3.499  -1.766  1.00  0.00     0.029 A 
HETATM   15  C18 UNL     1       0.092   2.548  -0.891  1.00  0.00     0.037 A 
HETATM   16  C19 UNL     1      -0.929   1.905  -0.153  1.00  0.00     0.043 A 
HETATM   17  N2  UNL     1       1.248   1.878  -0.410  1.00  0.00    -0.309 N 
HETATM   18  C20 UNL     1       1.554   0.528  -0.444  1.00  0.00     0.322 C 
HETATM   19  O2  UNL     1       0.483   0.468  -1.071  1.00  0.00    -0.247 OA
HETATM   20  H26 UNL     1       1.765   2.672  -0.066  1.00  0.00     0.170 HD
ENDROOT
BRANCH   1  21
HETATM   21  C4  UNL     1       3.045  -0.847   0.399  1.00  0.00     0.127 C 
BRANCH  21  22
HETATM   22  C3  UNL     1       4.307  -0.619  -0.352  1.00  0.00     0.020 C 
BRANCH  22  23
HETATM   23  C2  UNL     1       5.471  -0.649   0.613  1.00  0.00    -0.003 C 
HETATM   24  C1  UNL     1       5.349   0.405   1.663  1.00  0.00     0.005 C 
ENDBRANCH  22  23
ENDBRANCH  21  22
ENDBRANCH   1  21
BRANCH  10  25
HETATM   25  O1  UNL     1      -4.311   2.408   0.799  1.00  0.00    -0.360 OA
HETATM   26  H21 UNL     1      -4.893   2.758   0.049  1.00  0.00     0.217 HD
ENDBRANCH  10  25
TORSDOF 4
