REMARK  9 active torsions:
REMARK  status: ('A' for Active; 'I' for Inactive)
REMARK    1  A    between atoms: C2_2  and  C3_3 
REMARK    2  A    between atoms: C3_3  and  C4_4 
REMARK    3  A    between atoms: C4_4  and  N1_5 
REMARK    4  A    between atoms: N1_5  and  C5_6 
REMARK    5  A    between atoms: N1_5  and  C12_14 
REMARK    6  A    between atoms: C5_6  and  C6_7 
REMARK    7  A    between atoms: C11_12  and  O1_13 
REMARK    8  A    between atoms: C12_14  and  C13_15 
REMARK    9  A    between atoms: C18_22  and  O2_23 
ROOT
HETATM    1  N1  UNL     1       0.051   0.165  -1.113  1.00  0.00     0.097 N 
ENDROOT
BRANCH   1   2
HETATM    2  C4  UNL     1      -0.758  -0.507  -0.163  1.00  0.00     0.273 C 
BRANCH   2   3
HETATM    3  C3  UNL     1      -1.333  -1.811  -0.543  1.00  0.00     0.030 C 
BRANCH   3   4
HETATM    4  C2  UNL     1      -2.142  -2.316   0.660  1.00  0.00    -0.003 C 
HETATM    5  C1  UNL     1      -2.772  -3.652   0.369  1.00  0.00     0.005 C 
ENDBRANCH   3   4
ENDBRANCH   2   3
ENDBRANCH   1   2
BRANCH   1   6
HETATM    6  C5  UNL     1       0.397   1.457  -0.517  1.00  0.00     0.314 C 
BRANCH   6   7
HETATM    7  C6  UNL     1      -0.818   2.241  -0.192  1.00  0.00     0.003 A 
HETATM    8  C7  UNL     1      -1.247   2.353   1.138  1.00  0.00     0.012 A 
HETATM    9  C8  UNL     1      -2.387   3.095   1.456  1.00  0.00     0.001 A 
HETATM   10  C9  UNL     1      -3.096   3.720   0.467  1.00  0.00     0.003 A 
HETATM   11  C10 UNL     1      -2.659   3.602  -0.857  1.00  0.00     0.037 A 
HETATM   12  C11 UNL     1      -1.541   2.874  -1.174  1.00  0.00     0.073 A 
BRANCH  12  13
HETATM   13  O1  UNL     1      -1.098   2.749  -2.480  1.00  0.00    -0.360 OA
HETATM   14  H16 UNL     1      -1.274   1.933  -3.020  1.00  0.00     0.217 HD
ENDBRANCH  12  13
ENDBRANCH   6   7
ENDBRANCH   1   6
BRANCH   1  15
HETATM   15  C12 UNL     1       1.215  -0.501  -1.610  1.00  0.00     0.314 C 
BRANCH  15  16
HETATM   16  C13 UNL     1       2.343  -0.642  -0.673  1.00  0.00     0.006 A 
HETATM   17  C14 UNL     1       3.383   0.298  -0.812  1.00  0.00     0.030 A 
HETATM   18  C15 UNL     1       4.522   0.390  -0.055  1.00  0.00     0.013 A 
HETATM   19 BR1  UNL     1       5.836   1.732  -0.378  1.00  0.00    -0.051 Br
HETATM   20  C16 UNL     1       4.681  -0.531   0.958  1.00  0.00     0.041 A 
HETATM   21  C17 UNL     1       3.722  -1.474   1.158  1.00  0.00     0.045 A 
HETATM   22 BR2  UNL     1       3.883  -2.776   2.542  1.00  0.00    -0.048 Br
HETATM   23  C18 UNL     1       2.605  -1.507   0.359  1.00  0.00     0.091 A 
BRANCH  23  24
HETATM   24  O2  UNL     1       1.647  -2.480   0.586  1.00  0.00    -0.359 OA
HETATM   25  H21 UNL     1       1.934  -3.461   0.705  1.00  0.00     0.217 HD
ENDBRANCH  23  24
ENDBRANCH  15  16
ENDBRANCH   1  15
TORSDOF 9
