REMARK  6 active torsions:
REMARK  status: ('A' for Active; 'I' for Inactive)
REMARK    1  A    between atoms: C2_2  and  C3_3 
REMARK    2  A    between atoms: C3_3  and  C4_4 
REMARK    3  A    between atoms: C4_4  and  C5_5 
REMARK    4  A    between atoms: C6_6  and  O1_7 
REMARK    5  A    between atoms: N1_8  and  C7_9 
REMARK    6  A    between atoms: N2_13  and  C10_14 
ROOT
HETATM    1  C5  UNL     1      -2.302  -0.229   0.316  1.00  0.00    -0.007 C 
HETATM    2  C6  UNL     1      -1.808   0.997   0.271  1.00  0.00     0.152 C 
HETATM    3  N1  UNL     1      -0.490   1.498   0.297  1.00  0.00    -0.280 N 
HETATM    4  C9  UNL     1       0.779   0.954  -0.002  1.00  0.00     0.331 C 
HETATM    5  O2  UNL     1       1.600   1.871  -0.306  1.00  0.00    -0.246 OA
HETATM    6  N2  UNL     1       1.237  -0.382  -0.010  1.00  0.00    -0.299 N 
HETATM    7  C17 UNL     1       0.893  -1.735   0.256  1.00  0.00     0.167 C 
HETATM    8  C18 UNL     1      -0.525  -2.056   0.379  1.00  0.00    -0.065 C 
HETATM    9  C19 UNL     1      -0.526  -3.556   0.527  1.00  0.00     0.045 C 
HETATM   10  C20 UNL     1      -1.759  -1.578   0.413  1.00  0.00     0.015 C 
ENDROOT
BRANCH   6  11
HETATM   11  C10 UNL     1       2.615  -0.379  -0.478  1.00  0.00     0.020 C 
HETATM   12  C11 UNL     1       2.481   0.154  -1.711  1.00  0.00     0.032 C 
HETATM   13  C12 UNL     1       3.693   0.339  -2.559  1.00  0.00     0.038 C 
HETATM   14  S1  UNL     1       5.284   0.417  -2.054  1.00  0.00    -0.178 SA
HETATM   15  C13 UNL     1       5.718   0.269  -0.272  1.00  0.00    -0.037 C 
HETATM   16  H18 UNL     1       6.222   1.054  -2.876  1.00  0.00     0.100 HD
HETATM   17  C14 UNL     1       7.036   0.808   0.159  1.00  0.00     0.055 C 
HETATM   18  C15 UNL     1       4.891  -0.309   0.645  1.00  0.00    -0.008 C 
HETATM   19  C16 UNL     1       3.546  -0.924   0.493  1.00  0.00     0.085 C 
ENDBRANCH   6  11
BRANCH   3  20
HETATM   20  C7  UNL     1      -0.459   2.891   0.734  1.00  0.00     0.131 C 
HETATM   21  C8  UNL     1      -0.317   3.054   2.209  1.00  0.00     0.027 C 
ENDBRANCH   3  20
BRANCH   2  22
HETATM   22  O1  UNL     1      -2.789   1.953   0.181  1.00  0.00    -0.345 OA
HETATM   23  H10 UNL     1      -3.094   2.453  -0.622  1.00  0.00     0.219 HD
ENDBRANCH   2  22
BRANCH   1  24
HETATM   24  C4  UNL     1      -3.779  -0.236   0.258  1.00  0.00     0.043 C 
BRANCH  24  25
HETATM   25  C3  UNL     1      -4.225  -0.996  -0.953  1.00  0.00     0.004 C 
BRANCH  25  26
HETATM   26  C2  UNL     1      -5.729  -1.056  -1.094  1.00  0.00    -0.004 C 
HETATM   27  C1  UNL     1      -6.374   0.287  -1.210  1.00  0.00     0.005 C 
ENDBRANCH  25  26
ENDBRANCH  24  25
ENDBRANCH   1  24
TORSDOF 6
