REMARK  8 active torsions:
REMARK  status: ('A' for Active; 'I' for Inactive)
REMARK    1  A    between atoms: C2_2  and  C3_3 
REMARK    2  A    between atoms: C3_3  and  C4_4 
REMARK    3  A    between atoms: C4_4  and  N1_5 
REMARK    4  A    between atoms: N1_5  and  C5_6 
REMARK       I    between atoms: N1_5  and  C15_17 
REMARK    5  A    between atoms: C5_6  and  C6_7 
REMARK    6  A    between atoms: C7_8  and  C8_9 
REMARK    7  A    between atoms: C14_15  and  O1_16 
REMARK       I    between atoms: C15_17  and  N2_19 
REMARK    8  A    between atoms: N2_19  and  C16_20 
ROOT
HETATM    1  N1  UNL     1      -0.767   0.854   0.948  1.00  0.00    -0.330 N 
HETATM    2  C15 UNL     1      -1.832   1.356   0.154  1.00  0.00     0.324 C 
HETATM    3  O2  UNL     1      -2.750   0.468   0.275  1.00  0.00    -0.247 OA
HETATM    4  N2  UNL     1      -2.139   2.461  -0.658  1.00  0.00    -0.289 N 
HETATM    5  H25 UNL     1      -1.286   3.091  -0.635  1.00  0.00     0.172 HD
ENDROOT
BRANCH   1   6
HETATM    6  C4  UNL     1      -1.085  -0.403   1.633  1.00  0.00     0.128 C 
BRANCH   6   7
HETATM    7  C3  UNL     1      -0.757  -1.602   0.803  1.00  0.00     0.020 C 
BRANCH   7   8
HETATM    8  C2  UNL     1      -1.100  -2.864   1.550  1.00  0.00    -0.003 C 
HETATM    9  C1  UNL     1      -2.542  -2.967   1.912  1.00  0.00     0.005 C 
ENDBRANCH   7   8
ENDBRANCH   6   7
ENDBRANCH   1   6
BRANCH   1  10
HETATM   10  C5  UNL     1       0.599   1.335   1.189  1.00  0.00     0.169 C 
BRANCH  10  11
HETATM   11  C6  UNL     1       1.607   0.762   0.309  1.00  0.00    -0.004 A 
HETATM   12  C7  UNL     1       2.673   0.036   0.709  1.00  0.00    -0.069 A 
HETATM   13  C10 UNL     1       3.768  -0.597  -0.080  1.00  0.00     0.039 A 
HETATM   14  C11 UNL     1       3.643  -0.402  -1.549  1.00  0.00     0.041 A 
HETATM   15  C12 UNL     1       2.472   0.395  -1.979  1.00  0.00    -0.050 A 
HETATM   16  C13 UNL     1       2.471   0.522  -3.448  1.00  0.00     0.046 C 
HETATM   17  C14 UNL     1       1.605   0.886  -1.136  1.00  0.00     0.075 A 
BRANCH  12  18
HETATM   18  C8  UNL     1       2.995  -0.301   2.119  1.00  0.00     0.030 C 
HETATM   19  C9  UNL     1       3.030  -1.829   2.266  1.00  0.00     0.010 C 
ENDBRANCH  12  18
BRANCH  17  20
HETATM   20  O1  UNL     1       0.619   1.585  -1.808  1.00  0.00    -0.360 OA
HETATM   21  H24 UNL     1      -0.125   1.104  -2.336  1.00  0.00     0.217 HD
ENDBRANCH  17  20
ENDBRANCH  10  11
ENDBRANCH   1  10
BRANCH   4  22
HETATM   22  C16 UNL     1      -3.426   2.482  -1.265  1.00  0.00     0.150 A 
HETATM   23  C17 UNL     1      -3.982   2.046  -2.432  1.00  0.00     0.058 A 
HETATM   24  C18 UNL     1      -5.314   2.399  -2.385  1.00  0.00     0.029 A 
HETATM   25  C19 UNL     1      -5.504   3.045  -1.167  1.00  0.00     0.144 A 
HETATM   26  O3  UNL     1      -4.368   3.074  -0.535  1.00  0.00    -0.306 OA
ENDBRANCH   4  22
TORSDOF 8
