REMARK  6 active torsions:
REMARK  status: ('A' for Active; 'I' for Inactive)
REMARK    1  A    between atoms: C2_2  and  C3_3 
REMARK    2  A    between atoms: N2_8  and  C7_9 
REMARK    3  A    between atoms: C7_9  and  C8_10 
REMARK    4  A    between atoms: C8_10  and  C9_11 
REMARK    5  A    between atoms: C12_15  and  C13_16 
REMARK    6  A    between atoms: C13_16  and  O2_17 
ROOT
HETATM    1  C3  UNL     1       3.364  -1.439   1.420  1.00  0.00     0.010 C 
HETATM    2  C4  UNL     1       2.244  -1.454   0.677  1.00  0.00     0.067 C 
HETATM    3  N1  UNL     1       1.960  -0.205  -0.006  1.00  0.00    -0.364 N 
HETATM    4  C5  UNL     1       1.439   1.074  -0.259  1.00  0.00     0.180 C 
HETATM    5  C6  UNL     1       2.084   1.646  -1.550  1.00  0.00     0.055 C 
HETATM    6  N2  UNL     1       0.030   1.289  -0.464  1.00  0.00    -0.363 N 
HETATM    7  C10 UNL     1      -1.040   0.389  -0.727  1.00  0.00     0.010 C 
HETATM    8  C11 UNL     1      -2.221   0.602  -1.257  1.00  0.00     0.010 C 
HETATM    9  C12 UNL     1      -3.315  -0.337  -0.987  1.00  0.00     0.062 C 
HETATM   10  C14 UNL     1      -2.930  -1.737  -0.834  1.00  0.00    -0.067 C 
HETATM   11  C15 UNL     1      -3.776  -2.929  -0.941  1.00  0.00     0.044 C 
HETATM   12  C16 UNL     1      -1.678  -2.042  -0.564  1.00  0.00    -0.049 C 
HETATM   13  C17 UNL     1      -1.101  -3.385  -0.452  1.00  0.00     0.015 C 
HETATM   14  C18 UNL     1       0.090  -3.532   0.102  1.00  0.00     0.052 C 
HETATM   15  S1  UNL     1       1.559  -3.070   0.865  1.00  0.00    -0.085 SA
HETATM   16  C19 UNL     1      -0.703  -0.951  -0.340  1.00  0.00     0.095 C 
HETATM   17  H7  UNL     1       2.555  -0.645  -0.779  1.00  0.00     0.162 HD
ENDROOT
BRANCH   6  18
HETATM   18  C7  UNL     1      -0.403   2.668  -0.426  1.00  0.00     0.132 C 
BRANCH  18  19
HETATM   19  C8  UNL     1      -0.300   3.200   1.010  1.00  0.00     0.089 C 
BRANCH  19  20
HETATM   20  C9  UNL     1      -0.764   4.635   1.046  1.00  0.00     0.232 C 
HETATM   21  O1  UNL     1      -1.117   5.088  -0.030  1.00  0.00    -0.307 OA
ENDBRANCH  19  20
ENDBRANCH  18  19
ENDBRANCH   6  18
BRANCH   9  22
HETATM   22  C13 UNL     1      -4.106   0.205   0.203  1.00  0.00     0.177 C 
BRANCH  22  23
HETATM   23  O2  UNL     1      -5.164  -0.676   0.487  1.00  0.00    -0.400 OA
HETATM   24  H21 UNL     1      -5.158  -0.815   1.460  1.00  0.00     0.209 HD
ENDBRANCH  22  23
ENDBRANCH   9  22
BRANCH   1  25
HETATM   25  C2  UNL     1       4.188  -0.247   1.500  1.00  0.00     0.025 C 
HETATM   26  C1  UNL     1       5.618  -0.473   1.038  1.00  0.00     0.009 C 
ENDBRANCH   1  25
TORSDOF 6
