REMARK  1 active torsions:
REMARK  status: ('A' for Active; 'I' for Inactive)
REMARK    1  A    between atoms: C5_5  and  O1_6 
ROOT
HETATM    1  C1  UNL     1       4.266   0.294  -0.881  1.00  0.00     0.048 C 
HETATM    2  C2  UNL     1       2.942   0.615  -0.248  1.00  0.00    -0.062 C 
HETATM    3  C3  UNL     1       2.421   1.795  -0.063  1.00  0.00     0.009 C 
HETATM    4  C4  UNL     1       1.736   3.042   0.198  1.00  0.00     0.032 C 
HETATM    5  C5  UNL     1       0.561   3.209   0.718  1.00  0.00     0.044 C 
HETATM    6  C6  UNL     1      -0.127   1.907   1.066  1.00  0.00     0.084 C 
HETATM    7  C7  UNL     1      -1.157   1.749   0.010  1.00  0.00     0.133 C 
HETATM    8  N1  UNL     1      -1.930   0.541  -0.003  1.00  0.00    -0.336 N 
HETATM    9  C8  UNL     1      -3.260   0.299   0.600  1.00  0.00     0.397 C 
HETATM   10  N2  UNL     1      -4.200  -0.045  -0.458  1.00  0.00     0.104 N 
HETATM   11  C9  UNL     1      -3.492  -0.089  -1.743  1.00  0.00     0.303 C 
HETATM   12  C10 UNL     1      -2.335  -1.047  -1.638  1.00  0.00     0.058 C 
HETATM   13  C11 UNL     1      -1.492  -0.673  -0.669  1.00  0.00     0.139 C 
HETATM   14  O2  UNL     1      -0.366  -1.440  -0.423  1.00  0.00    -0.336 OA
HETATM   15  C12 UNL     1      -0.391  -2.858  -0.525  1.00  0.00     0.177 C 
HETATM   16  C13 UNL     1       0.011  -3.342   0.860  1.00  0.00     0.030 C 
HETATM   17  C14 UNL     1       1.396  -2.932   1.235  1.00  0.00     0.029 C 
HETATM   18  C15 UNL     1       1.653  -1.490   0.902  1.00  0.00    -0.026 C 
HETATM   19  C16 UNL     1       2.434  -0.643   0.254  1.00  0.00     0.003 C 
HETATM   20  H13 UNL     1      -4.880   0.736  -0.529  1.00  0.00     0.318 HD
ENDROOT
BRANCH   5  21
HETATM   21  O1  UNL     1      -0.134   4.341   0.990  1.00  0.00    -0.365 OA
HETATM   22  H6  UNL     1       0.162   5.231   0.587  1.00  0.00     0.217 HD
ENDBRANCH   5  21
TORSDOF 1
