REMARK  8 active torsions:
REMARK  status: ('A' for Active; 'I' for Inactive)
REMARK    1  A    between atoms: C2_2  and  C3_3 
REMARK    2  A    between atoms: C3_3  and  C4_4 
REMARK    3  A    between atoms: C4_4  and  N1_5 
REMARK    4  A    between atoms: N1_5  and  C5_6 
REMARK       I    between atoms: N1_5  and  C14_16 
REMARK    5  A    between atoms: C5_6  and  C6_7 
REMARK    6  A    between atoms: C13_14  and  O1_15 
REMARK       I    between atoms: C14_16  and  N2_18 
REMARK    7  A    between atoms: N2_18  and  C15_19 
REMARK    8  A    between atoms: C16_20  and  C17_21 
ROOT
HETATM    1  N1  UNL     1       0.699   0.166   0.492  1.00  0.00    -0.330 N 
HETATM    2  C14 UNL     1       1.721  -0.355  -0.341  1.00  0.00     0.322 C 
HETATM    3  O2  UNL     1       2.131   0.606  -1.067  1.00  0.00    -0.247 OA
HETATM    4  N2  UNL     1       2.299  -1.636  -0.478  1.00  0.00    -0.319 N 
HETATM    5  H21 UNL     1       1.879  -2.316   0.182  1.00  0.00     0.169 HD
ENDROOT
BRANCH   1   6
HETATM    6  C4  UNL     1       0.460   1.592   0.295  1.00  0.00     0.128 C 
BRANCH   6   7
HETATM    7  C3  UNL     1       1.307   2.462   1.183  1.00  0.00     0.020 C 
BRANCH   7   8
HETATM    8  C2  UNL     1       0.933   3.909   0.850  1.00  0.00    -0.003 C 
HETATM    9  C1  UNL     1       1.755   4.859   1.716  1.00  0.00     0.005 C 
ENDBRANCH   7   8
ENDBRANCH   6   7
ENDBRANCH   1   6
BRANCH   1  10
HETATM   10  C5  UNL     1      -0.200  -0.414   1.503  1.00  0.00     0.169 C 
BRANCH  10  11
HETATM   11  C6  UNL     1      -1.478  -0.878   0.943  1.00  0.00    -0.006 A 
HETATM   12  C7  UNL     1      -2.562  -0.018   1.171  1.00  0.00     0.018 A 
HETATM   13  C8  UNL     1      -3.832  -0.305   0.705  1.00  0.00    -0.061 A 
HETATM   14  C9  UNL     1      -4.973   0.627   0.959  1.00  0.00     0.048 C 
HETATM   15  C10 UNL     1      -4.072  -1.465  -0.010  1.00  0.00     0.016 A 
HETATM   16  C11 UNL     1      -3.033  -2.345  -0.260  1.00  0.00    -0.028 A 
HETATM   17  C12 UNL     1      -3.200  -3.605  -1.016  1.00  0.00     0.051 C 
HETATM   18  C13 UNL     1      -1.806  -1.999   0.230  1.00  0.00     0.079 A 
BRANCH  18  19
HETATM   19  O1  UNL     1      -0.750  -2.864  -0.006  1.00  0.00    -0.360 OA
HETATM   20  H20 UNL     1      -0.380  -2.893  -0.951  1.00  0.00     0.217 HD
ENDBRANCH  18  19
ENDBRANCH  10  11
ENDBRANCH   1  10
BRANCH   4  21
HETATM   21  C15 UNL     1       3.329  -1.969  -1.388  1.00  0.00     0.089 C 
HETATM   22  C16 UNL     1       3.920  -1.181  -2.238  1.00  0.00     0.001 C 
BRANCH  22  23
HETATM   23  C17 UNL     1       5.013  -1.633  -3.169  1.00  0.00     0.113 C 
HETATM   24 BR1  UNL     1       5.254  -3.531  -2.763  1.00  0.00    -0.092 Br
ENDBRANCH  22  23
ENDBRANCH   4  21
TORSDOF 8
