REMARK  8 active torsions:
REMARK  status: ('A' for Active; 'I' for Inactive)
REMARK    1  A    between atoms: C6_6  and  O1_7 
REMARK    2  A    between atoms: C7_8  and  C8_9 
REMARK    3  A    between atoms: C8_9  and  C9_10 
REMARK    4  A    between atoms: C9_10  and  C10_11 
REMARK    5  A    between atoms: C10_11  and  C11_12 
REMARK    6  A    between atoms: C11_12  and  C12_13 
REMARK    7  A    between atoms: C12_13  and  B1_14 
REMARK    8  A    between atoms: B1_14  and  N1_15 
REMARK       I    between atoms: N1_15  and  C13_16 
REMARK       I    between atoms: C13_16  and  N2_18 
ROOT
HETATM    1  C10 UNL     1      -0.596  -0.678   1.205  1.00  0.00    -0.000 C 
ENDROOT
BRANCH   1   2
HETATM    2  C9  UNL     1      -2.083  -0.785   0.849  1.00  0.00     0.005 C 
BRANCH   2   3
HETATM    3  C8  UNL     1      -2.549   0.564   0.340  1.00  0.00     0.041 C 
BRANCH   3   4
HETATM    4  C7  UNL     1      -3.971   0.592  -0.038  1.00  0.00    -0.024 A 
HETATM    5  C6  UNL     1      -4.686   1.660  -0.531  1.00  0.00     0.077 A 
HETATM    6  C4  UNL     1      -6.021   1.541  -0.844  1.00  0.00    -0.028 A 
HETATM    7  C3  UNL     1      -6.695   0.349  -0.677  1.00  0.00     0.016 A 
HETATM    8  C5  UNL     1      -6.767   2.725  -1.379  1.00  0.00     0.051 C 
HETATM    9  C2  UNL     1      -6.026  -0.754  -0.185  1.00  0.00    -0.061 A 
HETATM   10  C1  UNL     1      -6.709  -2.056   0.012  1.00  0.00     0.048 C 
HETATM   11  C20 UNL     1      -4.690  -0.597   0.117  1.00  0.00     0.016 A 
BRANCH   5  12
HETATM   12  O1  UNL     1      -3.977   2.839  -0.686  1.00  0.00    -0.360 OA
HETATM   13  H8  UNL     1      -3.985   3.275  -1.606  1.00  0.00     0.217 HD
ENDBRANCH   5  12
ENDBRANCH   3   4
ENDBRANCH   2   3
ENDBRANCH   1   2
BRANCH   1  14
HETATM   14  C11 UNL     1      -0.161  -2.041   1.710  1.00  0.00    -0.008 C 
BRANCH  14  15
HETATM   15  C12 UNL     1       1.326  -1.890   2.053  1.00  0.00    -0.029 C 
BRANCH  15  16
HETATM   16  B1  UNL     1       2.252  -1.428   0.656  1.00  0.00     0.312 B 
BRANCH  16  17
HETATM   17  N1  UNL     1       2.984  -1.030  -0.868  1.00  0.00    -0.314 NA
HETATM   18  C13 UNL     1       4.315  -0.533  -0.797  1.00  0.00     0.323 C 
HETATM   19  O2  UNL     1       4.617  -1.750  -1.038  1.00  0.00    -0.247 OA
HETATM   20  N2  UNL     1       5.585   0.106  -0.697  1.00  0.00    -0.327 N 
HETATM   21  C14 UNL     1       6.480  -1.012  -0.930  1.00  0.00     0.155 C 
HETATM   22  C19 UNL     1       5.478   1.527  -0.420  1.00  0.00     0.155 C 
HETATM   23  C15 UNL     1       7.903  -0.575  -0.947  1.00  0.00    -0.007 C 
HETATM   24  C16 UNL     1       8.554   0.500  -0.496  1.00  0.00    -0.003 C 
HETATM   25  C17 UNL     1       7.898   1.610   0.201  1.00  0.00    -0.003 C 
HETATM   26  C18 UNL     1       6.656   2.066   0.264  1.00  0.00    -0.007 C 
ENDBRANCH  16  17
ENDBRANCH  15  16
ENDBRANCH  14  15
ENDBRANCH   1  14
TORSDOF 8
