REMARK  2 active torsions:
REMARK  status: ('A' for Active; 'I' for Inactive)
REMARK    1  A    between atoms: O1_2  and  C2_3 
REMARK    2  A    between atoms: C13_19  and  C14_20 
ROOT
HETATM    1  C2  UNL     1       2.045  -0.071   0.591  1.00  0.00     0.066 C 
HETATM    2  C3  UNL     1       0.872  -0.594   0.844  1.00  0.00     0.012 C 
HETATM    3  C4  UNL     1       0.278  -1.925   0.674  1.00  0.00     0.059 C 
HETATM    4  C5  UNL     1      -0.940  -1.803  -0.246  1.00  0.00     0.117 C 
HETATM    5  N1  UNL     1      -0.543  -1.038  -1.374  1.00  0.00    -0.387 N 
HETATM    6  C6  UNL     1      -1.004   0.222  -1.903  1.00  0.00     0.134 C 
HETATM    7  C7  UNL     1      -1.623   1.173  -1.218  1.00  0.00     0.143 C 
HETATM    8  N2  UNL     1      -1.595   2.543  -1.592  1.00  0.00    -0.223 NA
HETATM    9  C8  UNL     1      -0.723   3.375  -1.148  1.00  0.00     0.237 C 
HETATM   10  N3  UNL     1       0.191   2.768  -0.256  1.00  0.00    -0.230 NA
HETATM   11  C9  UNL     1       0.394   3.301   0.921  1.00  0.00     0.258 C 
HETATM   12  O2  UNL     1       1.327   2.489   1.552  1.00  0.00    -0.316 OA
HETATM   13  C10 UNL     1       2.576   2.226   1.053  1.00  0.00     0.146 C 
HETATM   14  C11 UNL     1       2.911   1.048   0.609  1.00  0.00     0.061 C 
HETATM   15  N4  UNL     1      -2.410   1.027  -0.019  1.00  0.00    -0.349 N 
HETATM   16  C12 UNL     1      -2.627  -0.186   0.719  1.00  0.00     0.097 C 
HETATM   17  C13 UNL     1      -2.138  -1.394   0.468  1.00  0.00    -0.014 C 
HETATM   18  H8  UNL     1       0.237  -1.520  -1.891  1.00  0.00     0.159 HD
HETATM   19  H14 UNL     1      -2.859   1.895   0.334  1.00  0.00     0.167 HD
ENDROOT
BRANCH   1  20
HETATM   20  O1  UNL     1       2.345  -1.329   0.137  1.00  0.00    -0.356 OA
HETATM   21  C1  UNL     1       3.141  -1.525  -1.016  1.00  0.00     0.210 C 
ENDBRANCH   1  20
BRANCH  17  22
HETATM   22  C14 UNL     1      -2.986  -2.507   1.027  1.00  0.00     0.260 C 
HETATM   23  F1  UNL     1      -2.235  -3.254   1.929  1.00  0.00    -0.251 F 
ENDBRANCH  17  22
TORSDOF 2
