REMARK  8 active torsions:
REMARK  status: ('A' for Active; 'I' for Inactive)
REMARK    1  A    between atoms: C2_2  and  C3_3 
REMARK    2  A    between atoms: C3_3  and  C4_4 
REMARK    3  A    between atoms: C4_4  and  C5_5 
REMARK    4  A    between atoms: C5_5  and  N1_6 
REMARK    5  A    between atoms: N1_6  and  C6_7 
REMARK       I    between atoms: N1_6  and  C14_17 
REMARK    6  A    between atoms: C6_7  and  C7_8 
REMARK    7  A    between atoms: C13_15  and  O2_16 
REMARK    8  A    between atoms: C14_17  and  C15_19 
ROOT
HETATM    1  N1  UNL     1      -0.259   0.689  -0.573  1.00  0.00    -0.345 N 
HETATM    2  C14 UNL     1      -0.583   1.985  -1.071  1.00  0.00     0.250 C 
HETATM    3  O3  UNL     1       0.127   2.460  -2.038  1.00  0.00    -0.268 OA
ENDROOT
BRANCH   1   4
HETATM    4  C5  UNL     1      -0.846  -0.077   0.519  1.00  0.00     0.126 C 
BRANCH   4   5
HETATM    5  C4  UNL     1      -2.037  -0.888   0.034  1.00  0.00     0.020 C 
BRANCH   5   6
HETATM    6  C3  UNL     1      -2.580  -1.650   1.237  1.00  0.00     0.001 C 
BRANCH   6   7
HETATM    7  C2  UNL     1      -3.784  -2.486   0.805  1.00  0.00    -0.004 C 
HETATM    8  C1  UNL     1      -3.301  -3.436  -0.253  1.00  0.00     0.005 C 
ENDBRANCH   6   7
ENDBRANCH   5   6
ENDBRANCH   4   5
ENDBRANCH   1   4
BRANCH   1   9
HETATM    9  C6  UNL     1       0.809   0.037  -1.302  1.00  0.00     0.165 C 
BRANCH   9  10
HETATM   10  C7  UNL     1       2.194   0.353  -0.866  1.00  0.00     0.203 A 
HETATM   11  O1  UNL     1       3.044  -0.448  -1.709  1.00  0.00    -0.342 OA
HETATM   12  C8  UNL     1       3.991  -1.318  -1.256  1.00  0.00     0.044 A 
HETATM   13  C9  UNL     1       4.761  -2.087  -2.270  1.00  0.00     0.076 C 
HETATM   14  C10 UNL     1       4.216  -1.473   0.037  1.00  0.00     0.041 A 
HETATM   15  C11 UNL     1       3.413  -0.681   0.977  1.00  0.00    -0.028 A 
HETATM   16  C12 UNL     1       3.794  -0.968   2.405  1.00  0.00     0.051 C 
HETATM   17  C13 UNL     1       2.477   0.168   0.557  1.00  0.00     0.080 A 
BRANCH  17  18
HETATM   18  O2  UNL     1       1.894   0.778   1.643  1.00  0.00    -0.362 OA
HETATM   19  H22 UNL     1       1.699   1.779   1.663  1.00  0.00     0.217 HD
ENDBRANCH  17  18
ENDBRANCH   9  10
ENDBRANCH   1   9
BRANCH   2  20
HETATM   20  C15 UNL     1      -1.626   2.964  -0.697  1.00  0.00     0.013 A 
HETATM   21  C16 UNL     1      -2.539   2.807   0.244  1.00  0.00     0.013 A 
HETATM   22  C17 UNL     1      -3.427   3.954   0.375  1.00  0.00    -0.003 A 
HETATM   23  C18 UNL     1      -3.007   4.815  -0.532  1.00  0.00    -0.022 A 
HETATM   24  C19 UNL     1      -1.858   4.294  -1.283  1.00  0.00     0.071 A 
ENDBRANCH   2  20
TORSDOF 8
