REMARK  7 active torsions:
REMARK  status: ('A' for Active; 'I' for Inactive)
REMARK    1  A    between atoms: C2_2  and  C3_3 
REMARK    2  A    between atoms: C3_3  and  C4_4 
REMARK    3  A    between atoms: C4_4  and  N1_5 
REMARK    4  A    between atoms: N1_5  and  C5_6 
REMARK       I    between atoms: N1_5  and  C14_16 
REMARK    5  A    between atoms: C5_6  and  C6_7 
REMARK    6  A    between atoms: C13_14  and  O1_15 
REMARK       I    between atoms: C14_16  and  N2_18 
REMARK    7  A    between atoms: N2_18  and  C15_19 
ROOT
HETATM    1  N1  UNL     1      -0.600   0.572   1.156  1.00  0.00    -0.330 N 
HETATM    2  C14 UNL     1      -1.495  -0.308   0.420  1.00  0.00     0.323 C 
HETATM    3  O2  UNL     1      -2.212   0.487  -0.280  1.00  0.00    -0.247 OA
HETATM    4  N2  UNL     1      -1.711  -1.711   0.332  1.00  0.00    -0.309 N 
HETATM    5  H21 UNL     1      -1.030  -2.160   0.980  1.00  0.00     0.170 HD
ENDROOT
BRANCH   1   6
HETATM    6  C4  UNL     1      -0.883   1.941   0.827  1.00  0.00     0.128 C 
BRANCH   6   7
HETATM    7  C3  UNL     1      -0.220   2.543  -0.331  1.00  0.00     0.020 C 
BRANCH   7   8
HETATM    8  C2  UNL     1      -0.677   4.004  -0.477  1.00  0.00    -0.003 C 
HETATM    9  C1  UNL     1      -2.186   4.043  -0.674  1.00  0.00     0.005 C 
ENDBRANCH   7   8
ENDBRANCH   6   7
ENDBRANCH   1   6
BRANCH   1  10
HETATM   10  C5  UNL     1       0.339  -0.083   2.030  1.00  0.00     0.169 C 
BRANCH  10  11
HETATM   11  C6  UNL     1       1.638  -0.410   1.404  1.00  0.00    -0.006 A 
HETATM   12  C7  UNL     1       2.013  -1.646   0.925  1.00  0.00     0.018 A 
HETATM   13  C8  UNL     1       3.209  -1.960   0.331  1.00  0.00    -0.061 A 
HETATM   14  C9  UNL     1       3.535  -3.313  -0.158  1.00  0.00     0.048 C 
HETATM   15  C10 UNL     1       4.144  -0.959   0.189  1.00  0.00     0.016 A 
HETATM   16  C11 UNL     1       3.865   0.313   0.637  1.00  0.00    -0.028 A 
HETATM   17  C12 UNL     1       4.882   1.383   0.478  1.00  0.00     0.051 C 
HETATM   18  C13 UNL     1       2.639   0.554   1.224  1.00  0.00     0.079 A 
BRANCH  18  19
HETATM   19  O1  UNL     1       2.441   1.850   1.648  1.00  0.00    -0.360 OA
HETATM   20  H20 UNL     1       2.908   2.179   2.482  1.00  0.00     0.217 HD
ENDBRANCH  18  19
ENDBRANCH  10  11
ENDBRANCH   1  10
BRANCH   4  21
HETATM   21  C15 UNL     1      -2.745  -2.090  -0.568  1.00  0.00     0.036 A 
HETATM   22  C16 UNL     1      -4.063  -2.208  -0.118  1.00  0.00     0.029 A 
HETATM   23  C17 UNL     1      -5.063  -2.578  -0.993  1.00  0.00     0.002 A 
HETATM   24  C18 UNL     1      -4.745  -2.828  -2.314  1.00  0.00     0.000 A 
HETATM   25  C19 UNL     1      -3.446  -2.712  -2.761  1.00  0.00     0.002 A 
HETATM   26  C20 UNL     1      -2.426  -2.344  -1.907  1.00  0.00     0.029 A 
ENDBRANCH   4  21
TORSDOF 7
