REMARK  8 active torsions:
REMARK  status: ('A' for Active; 'I' for Inactive)
REMARK    1  A    between atoms: C8_8  and  C9_9 
REMARK    2  A    between atoms: C9_9  and  N1_10 
REMARK    3  A    between atoms: N1_10  and  C10_11 
REMARK    4  A    between atoms: N1_10  and  C13_15 
REMARK    5  A    between atoms: C10_11  and  C11_12 
REMARK    6  A    between atoms: C11_12  and  C12_13 
REMARK    7  A    between atoms: C13_15  and  N2_17 
REMARK    8  A    between atoms: N2_17  and  C15_18 
ROOT
HETATM    1  N1  UNL     1      -1.023  -0.656   0.192  1.00  0.00    -0.388 N 
ENDROOT
BRANCH   1   2
HETATM    2  C9  UNL     1      -0.035   0.309   0.387  1.00  0.00     0.158 C 
BRANCH   2   3
HETATM    3  C8  UNL     1       1.326   0.115  -0.122  1.00  0.00    -0.034 A 
HETATM    4  C6  UNL     1       2.420   0.483   0.693  1.00  0.00    -0.048 A 
HETATM    5  C4  UNL     1       3.760   0.323   0.332  1.00  0.00    -0.055 A 
HETATM    6  C7  UNL     1       2.189   1.107   2.046  1.00  0.00     0.049 C 
HETATM    7  C3  UNL     1       4.049  -0.233  -0.901  1.00  0.00     0.014 A 
HETATM    8  C5  UNL     1       4.855   0.756   1.230  1.00  0.00     0.049 C 
HETATM    9  C2  UNL     1       3.005  -0.602  -1.708  1.00  0.00    -0.061 A 
HETATM   10  C1  UNL     1       3.286  -1.222  -3.041  1.00  0.00     0.048 C 
HETATM   11  C19 UNL     1       1.663  -0.443  -1.355  1.00  0.00     0.016 A 
ENDBRANCH   2   3
ENDBRANCH   1   2
BRANCH   1  12
HETATM   12  C10 UNL     1      -0.884  -2.018   0.257  1.00  0.00     0.126 C 
BRANCH  12  13
HETATM   13  C11 UNL     1      -2.189  -2.812   0.210  1.00  0.00     0.089 C 
BRANCH  13  14
HETATM   14  C12 UNL     1      -1.830  -4.245   0.237  1.00  0.00     0.232 C 
HETATM   15  O1  UNL     1      -1.883  -4.935  -0.791  1.00  0.00    -0.307 OA
ENDBRANCH  13  14
ENDBRANCH  12  13
ENDBRANCH   1  12
BRANCH   1  16
HETATM   16  C13 UNL     1      -2.320  -0.039   0.302  1.00  0.00     0.175 C 
HETATM   17  C14 UNL     1      -2.360   0.791   1.610  1.00  0.00     0.055 C 
BRANCH  16  18
HETATM   18  N2  UNL     1      -2.481   0.869  -0.815  1.00  0.00    -0.369 N 
HETATM   19  H22 UNL     1      -1.849   0.899  -1.672  1.00  0.00     0.161 HD
BRANCH  18  20
HETATM   20  C15 UNL     1      -3.570   1.819  -0.817  1.00  0.00     0.029 A 
HETATM   21  C16 UNL     1      -4.806   2.311  -0.973  1.00  0.00     0.029 A 
HETATM   22  C17 UNL     1      -4.393   3.652  -0.528  1.00  0.00     0.004 A 
HETATM   23  C18 UNL     1      -3.178   3.169  -0.376  1.00  0.00     0.029 A 
ENDBRANCH  18  20
ENDBRANCH  16  18
ENDBRANCH   1  16
TORSDOF 8
