REMARK  7 active torsions:
REMARK  status: ('A' for Active; 'I' for Inactive)
REMARK    1  A    between atoms: C2_2  and  C3_3 
REMARK    2  A    between atoms: C3_3  and  C4_4 
REMARK    3  A    between atoms: N1_5  and  C5_6 
REMARK    4  A    between atoms: N1_5  and  N2_16 
REMARK    5  A    between atoms: C5_6  and  C6_7 
REMARK    6  A    between atoms: C13_14  and  O1_15 
REMARK    7  A    between atoms: C18_21  and  O2_22 
ROOT
HETATM    1  C4  UNL     1      -1.702  -0.044   0.928  1.00  0.00     0.142 C 
HETATM    2  N1  UNL     1      -1.007  -0.638  -0.075  1.00  0.00    -0.323 N 
ENDROOT
BRANCH   2   3
HETATM    3  C5  UNL     1      -0.159  -0.118  -1.035  1.00  0.00     0.183 C 
BRANCH   3   4
HETATM    4  C6  UNL     1       1.056   0.616  -0.732  1.00  0.00    -0.005 A 
HETATM    5  C7  UNL     1       1.188   1.994  -0.961  1.00  0.00     0.018 A 
HETATM    6  C8  UNL     1       2.294   2.789  -0.747  1.00  0.00    -0.061 A 
HETATM    7  C9  UNL     1       2.229   4.235  -1.055  1.00  0.00     0.048 C 
HETATM    8  C10 UNL     1       3.390   2.145  -0.253  1.00  0.00     0.016 A 
HETATM    9  C11 UNL     1       3.383   0.789   0.013  1.00  0.00    -0.028 A 
HETATM   10  C12 UNL     1       4.582   0.088   0.554  1.00  0.00     0.051 C 
HETATM   11  C13 UNL     1       2.220   0.067  -0.234  1.00  0.00     0.079 A 
BRANCH  11  12
HETATM   12  O1  UNL     1       2.249  -1.291   0.045  1.00  0.00    -0.360 OA
HETATM   13  H20 UNL     1       2.555  -1.596   0.954  1.00  0.00     0.217 HD
ENDBRANCH  11  12
ENDBRANCH   3   4
ENDBRANCH   2   3
BRANCH   2  14
HETATM   14  N2  UNL     1      -1.681  -1.698  -0.657  1.00  0.00    -0.297 N 
HETATM   15  C14 UNL     1      -0.888  -2.742  -1.165  1.00  0.00     0.172 C 
HETATM   16  C15 UNL     1      -1.563  -4.101  -1.120  1.00  0.00    -0.009 C 
HETATM   17  C16 UNL     1      -2.888  -4.261  -1.261  1.00  0.00    -0.025 C 
HETATM   18  C17 UNL     1      -3.522  -2.922  -1.457  1.00  0.00     0.082 C 
HETATM   19  C18 UNL     1      -2.968  -2.055  -0.289  1.00  0.00     0.239 C 
BRANCH  19  20
HETATM   20  O2  UNL     1      -3.053  -2.927   0.819  1.00  0.00    -0.375 OA
HETATM   21  H28 UNL     1      -2.144  -3.208   1.103  1.00  0.00     0.212 HD
ENDBRANCH  19  20
ENDBRANCH   2  14
BRANCH   1  22
HETATM   22  C3  UNL     1      -1.215   0.546   2.174  1.00  0.00     0.021 C 
BRANCH  22  23
HETATM   23  C2  UNL     1      -0.295   1.717   2.171  1.00  0.00    -0.003 C 
HETATM   24  C1  UNL     1      -0.913   2.924   1.457  1.00  0.00     0.005 C 
ENDBRANCH  22  23
ENDBRANCH   1  22
TORSDOF 7
