REMARK  6 active torsions:
REMARK  status: ('A' for Active; 'I' for Inactive)
REMARK    1  A    between atoms: C1_2  and  C3_5 
REMARK    2  A    between atoms: C3_5  and  N1_6 
REMARK    3  A    between atoms: N1_6  and  C4_7 
REMARK    4  A    between atoms: N1_6  and  C11_15 
REMARK    5  A    between atoms: C4_7  and  C5_8 
REMARK    6  A    between atoms: C11_15  and  C12_17 
ROOT
HETATM    1  N1  UNL     1       0.085   0.615   0.585  1.00  0.00    -0.363 N 
ENDROOT
BRANCH   1   2
HETATM    2  C3  UNL     1       1.330   1.220   0.978  1.00  0.00     0.164 C 
BRANCH   2   3
HETATM    3  C1  UNL     1       1.593   2.494   0.241  1.00  0.00    -0.021 A 
HETATM    4  O1  UNL     1       0.618   3.499   0.426  1.00  0.00     0.000 OA
HETATM    5  H1  UNL     1       0.290   3.616   1.372  1.00  0.00     0.000 HD
HETATM    6 CL1  UNL     1       0.868   4.840  -0.333  1.00  0.00    -0.096 Cl
HETATM    7  C2  UNL     1       2.011   3.517  -0.486  1.00  0.00     0.093 A 
ENDBRANCH   2   3
ENDBRANCH   1   2
BRANCH   1   8
HETATM    8  C4  UNL     1      -1.200   1.140   0.851  1.00  0.00     0.162 C 
BRANCH   8   9
HETATM    9  C5  UNL     1      -2.346   0.358   0.349  1.00  0.00    -0.040 A 
HETATM   10  C6  UNL     1      -2.945   0.509  -0.896  1.00  0.00     0.012 A 
HETATM   11  C7  UNL     1      -4.025  -0.289  -1.262  1.00  0.00     0.043 A 
HETATM   12  C8  UNL     1      -4.531  -1.241  -0.417  1.00  0.00     0.116 A 
HETATM   13  F1  UNL     1      -5.572  -2.035  -0.729  1.00  0.00    -0.206 F 
HETATM   14  C9  UNL     1      -3.949  -1.407   0.828  1.00  0.00     0.043 A 
HETATM   15  C10 UNL     1      -2.875  -0.609   1.182  1.00  0.00     0.012 A 
ENDBRANCH   8   9
ENDBRANCH   1   8
BRANCH   1  16
HETATM   16  C11 UNL     1       0.124  -0.609  -0.134  1.00  0.00     0.109 C 
HETATM   17  S1  UNL     1      -0.867  -1.711  -0.811  1.00  0.00    -0.060 SA
BRANCH  16  18
HETATM   18  C12 UNL     1       1.445  -1.178  -0.429  1.00  0.00     0.002 A 
HETATM   19  C13 UNL     1       1.894  -1.978   0.625  1.00  0.00     0.014 A 
HETATM   20  C14 UNL     1       3.125  -2.604   0.527  1.00  0.00     0.001 A 
HETATM   21  C15 UNL     1       3.872  -2.425  -0.601  1.00  0.00     0.000 A 
HETATM   22  C16 UNL     1       3.432  -1.644  -1.627  1.00  0.00     0.001 A 
HETATM   23  C17 UNL     1       2.204  -0.998  -1.571  1.00  0.00     0.014 A 
ENDBRANCH  16  18
ENDBRANCH   1  16
TORSDOF 6
