REMARK  6 active torsions:
REMARK  status: ('A' for Active; 'I' for Inactive)
REMARK    1  A    between atoms: C2_2  and  C3_3 
REMARK    2  A    between atoms: C3_3  and  C4_4 
REMARK    3  A    between atoms: C4_4  and  C5_5 
REMARK    4  A    between atoms: C5_5  and  C6_6 
REMARK    5  A    between atoms: C7_7  and  O1_8 
REMARK       I    between atoms: N1_10  and  C9_11 
REMARK       I    between atoms: C9_11  and  N2_13 
REMARK    6  A    between atoms: N2_13  and  C10_14 
ROOT
HETATM    1  C6  UNL     1       1.687  -0.382   0.228  1.00  0.00    -0.027 C 
HETATM    2  C7  UNL     1       0.587   0.388   0.187  1.00  0.00     0.068 C 
HETATM    3  C8  UNL     1      -0.862   0.374   0.249  1.00  0.00     0.198 C 
HETATM    4  N1  UNL     1      -1.548  -0.817  -0.090  1.00  0.00    -0.304 N 
HETATM    5  C9  UNL     1      -2.966  -0.551   0.001  1.00  0.00     0.327 C 
HETATM    6  O2  UNL     1      -3.833  -1.456  -0.254  1.00  0.00    -0.246 OA
HETATM    7  N2  UNL     1      -3.543   0.676   0.364  1.00  0.00    -0.309 N 
HETATM    8  C16 UNL     1      -1.349  -2.170  -0.486  1.00  0.00     0.096 C 
HETATM    9  C17 UNL     1      -0.306  -2.978  -0.388  1.00  0.00     0.017 C 
HETATM   10  C18 UNL     1       1.043  -2.848   0.146  1.00  0.00     0.002 C 
HETATM   11  C19 UNL     1       1.819  -1.825   0.385  1.00  0.00     0.010 C 
HETATM   12  H15 UNL     1      -2.908   1.473   0.590  1.00  0.00     0.170 HD
ENDROOT
BRANCH   2  13
HETATM   13  O1  UNL     1       1.063   1.707   0.020  1.00  0.00    -0.363 OA
HETATM   14  H12 UNL     1       1.081   2.365   0.800  1.00  0.00     0.217 HD
ENDBRANCH   2  13
BRANCH   7  15
HETATM   15  C10 UNL     1      -4.955   0.734   0.395  1.00  0.00     0.036 A 
HETATM   16  C11 UNL     1      -5.578   1.105  -0.779  1.00  0.00     0.029 A 
HETATM   17  C12 UNL     1      -6.969   1.186  -0.828  1.00  0.00     0.002 A 
HETATM   18  C13 UNL     1      -7.723   0.896   0.291  1.00  0.00     0.000 A 
HETATM   19  C14 UNL     1      -7.114   0.519   1.488  1.00  0.00     0.002 A 
HETATM   20  C15 UNL     1      -5.724   0.441   1.527  1.00  0.00     0.029 A 
ENDBRANCH   7  15
BRANCH   1  21
HETATM   21  C5  UNL     1       2.987   0.346   0.093  1.00  0.00     0.041 C 
BRANCH  21  22
HETATM   22  C4  UNL     1       3.713  -0.169  -1.120  1.00  0.00     0.005 C 
BRANCH  22  23
HETATM   23  C3  UNL     1       5.052   0.510  -1.348  1.00  0.00    -0.000 C 
BRANCH  23  24
HETATM   24  C2  UNL     1       5.955   0.298  -0.179  1.00  0.00    -0.005 C 
HETATM   25  C1  UNL     1       7.267   0.999  -0.477  1.00  0.00     0.005 C 
ENDBRANCH  23  24
ENDBRANCH  22  23
ENDBRANCH  21  22
ENDBRANCH   1  21
TORSDOF 6
