REMARK  8 active torsions:
REMARK  status: ('A' for Active; 'I' for Inactive)
REMARK    1  A    between atoms: O1_1  and  C1_2 
REMARK    2  A    between atoms: C6_8  and  C7_9 
REMARK    3  A    between atoms: C7_9  and  N1_10 
REMARK    4  A    between atoms: N1_10  and  C8_11 
REMARK    5  A    between atoms: N1_10  and  C15_19 
REMARK    6  A    between atoms: C8_11  and  C9_12 
REMARK    7  A    between atoms: C15_19  and  N2_21 
REMARK    8  A    between atoms: N2_21  and  C16_22 
ROOT
HETATM    1  N1  UNL     1      -0.073   0.297  -0.433  1.00  0.00    -0.349 N 
ENDROOT
BRANCH   1   2
HETATM    2  C7  UNL     1      -0.943  -0.343   0.493  1.00  0.00     0.167 C 
BRANCH   2   3
HETATM    3  C6  UNL     1      -2.013  -1.161  -0.070  1.00  0.00    -0.005 A 
HETATM    4  C1  UNL     1      -3.089  -1.497   0.722  1.00  0.00     0.095 A 
HETATM    5  C2  UNL     1      -4.188  -2.245   0.410  1.00  0.00     0.067 A 
HETATM    6 CL1  UNL     1      -5.477  -2.588   1.537  1.00  0.00    -0.081 Cl
HETATM    7  C3  UNL     1      -4.195  -2.721  -0.906  1.00  0.00     0.026 A 
HETATM    8  C4  UNL     1      -3.161  -2.448  -1.809  1.00  0.00     0.002 A 
HETATM    9  C5  UNL     1      -2.101  -1.670  -1.347  1.00  0.00     0.012 A 
BRANCH   4  10
HETATM   10  O1  UNL     1      -3.089  -1.022   2.052  1.00  0.00    -0.358 OA
HETATM   11  H1  UNL     1      -3.778  -0.282   2.214  1.00  0.00     0.217 HD
ENDBRANCH   4  10
ENDBRANCH   2   3
ENDBRANCH   1   2
BRANCH   1  12
HETATM   12  C8  UNL     1      -0.493   1.325  -1.333  1.00  0.00     0.164 C 
BRANCH  12  13
HETATM   13  C9  UNL     1      -0.976   2.561  -0.632  1.00  0.00    -0.040 A 
HETATM   14  C10 UNL     1      -2.260   2.820  -0.202  1.00  0.00     0.012 A 
HETATM   15  C11 UNL     1      -2.541   4.016   0.424  1.00  0.00     0.043 A 
HETATM   16  C12 UNL     1      -1.589   4.998   0.654  1.00  0.00     0.116 A 
HETATM   17  F1  UNL     1      -1.950   6.151   1.279  1.00  0.00    -0.206 F 
HETATM   18  C13 UNL     1      -0.312   4.765   0.238  1.00  0.00     0.043 A 
HETATM   19  C14 UNL     1      -0.020   3.553  -0.398  1.00  0.00     0.012 A 
ENDBRANCH  12  13
ENDBRANCH   1  12
BRANCH   1  20
HETATM   20  C15 UNL     1       1.293  -0.089  -0.488  1.00  0.00     0.174 C 
HETATM   21  S1  UNL     1       2.390   0.583  -1.509  1.00  0.00    -0.041 SA
BRANCH  20  22
HETATM   22  N2  UNL     1       1.935  -1.085   0.292  1.00  0.00    -0.333 N 
HETATM   23  H13 UNL     1       1.458  -1.678   1.037  1.00  0.00     0.168 HD
BRANCH  22  24
HETATM   24  C16 UNL     1       3.259  -1.598   0.374  1.00  0.00     0.034 A 
HETATM   25  C17 UNL     1       3.630  -2.945   0.237  1.00  0.00     0.029 A 
HETATM   26  C18 UNL     1       4.961  -3.285   0.345  1.00  0.00     0.002 A 
HETATM   27  C19 UNL     1       5.871  -2.282   0.583  1.00  0.00     0.000 A 
HETATM   28  C20 UNL     1       5.528  -0.962   0.719  1.00  0.00     0.002 A 
HETATM   29  C21 UNL     1       4.203  -0.597   0.616  1.00  0.00     0.029 A 
ENDBRANCH  22  24
ENDBRANCH  20  22
ENDBRANCH   1  20
TORSDOF 8
