REMARK  7 active torsions:
REMARK  status: ('A' for Active; 'I' for Inactive)
REMARK    1  A    between atoms: C6_6  and  C7_7 
REMARK    2  A    between atoms: C7_7  and  N1_8 
REMARK    3  A    between atoms: N1_8  and  C8_9 
REMARK    4  A    between atoms: N1_8  and  C15_17 
REMARK    5  A    between atoms: C8_9  and  C9_10 
REMARK    6  A    between atoms: C15_17  and  N2_19 
REMARK    7  A    between atoms: C21_25  and  O1_26 
ROOT
HETATM    1  N1  UNL     1       0.114   0.193  -0.651  1.00  0.00    -0.349 N 
ENDROOT
BRANCH   1   2
HETATM    2  C7  UNL     1       0.023  -1.210  -0.782  1.00  0.00     0.167 C 
BRANCH   2   3
HETATM    3  C6  UNL     1      -0.785  -1.943   0.252  1.00  0.00    -0.007 A 
HETATM    4  C5  UNL     1      -0.156  -2.660   1.281  1.00  0.00     0.011 A 
HETATM    5  C4  UNL     1      -0.893  -3.351   2.218  1.00  0.00     0.001 A 
HETATM    6  C3  UNL     1      -2.274  -3.335   2.140  1.00  0.00     0.009 A 
HETATM    7  C2  UNL     1      -2.918  -2.632   1.130  1.00  0.00    -0.028 A 
HETATM    8  C1  UNL     1      -4.388  -2.537   0.936  1.00  0.00     0.051 C 
HETATM    9  C21 UNL     1      -2.187  -1.927   0.173  1.00  0.00     0.079 A 
BRANCH   9  10
HETATM   10  O1  UNL     1      -2.757  -1.200  -0.867  1.00  0.00    -0.360 OA
HETATM   11  H21 UNL     1      -3.290  -0.371  -0.703  1.00  0.00     0.217 HD
ENDBRANCH   9  10
ENDBRANCH   2   3
ENDBRANCH   1   2
BRANCH   1  12
HETATM   12  C8  UNL     1       0.774   0.541  -1.924  1.00  0.00     0.164 C 
BRANCH  12  13
HETATM   13  C9  UNL     1       2.071  -0.163  -2.102  1.00  0.00    -0.040 A 
HETATM   14  C10 UNL     1       2.358  -1.347  -2.760  1.00  0.00     0.012 A 
HETATM   15  C11 UNL     1       3.624  -1.859  -2.822  1.00  0.00     0.043 A 
HETATM   16  C12 UNL     1       4.696  -1.227  -2.234  1.00  0.00     0.116 A 
HETATM   17  F1  UNL     1       5.913  -1.808  -2.347  1.00  0.00    -0.206 F 
HETATM   18  C13 UNL     1       4.465  -0.050  -1.570  1.00  0.00     0.043 A 
HETATM   19  C14 UNL     1       3.198   0.438  -1.522  1.00  0.00     0.012 A 
ENDBRANCH  12  13
ENDBRANCH   1  12
BRANCH   1  20
HETATM   20  C15 UNL     1      -0.252   1.110   0.369  1.00  0.00     0.176 C 
HETATM   21  S1  UNL     1      -0.832   0.142   1.590  1.00  0.00    -0.040 SA
BRANCH  20  22
HETATM   22  N2  UNL     1      -0.292   2.466   0.744  1.00  0.00    -0.331 N 
HETATM   23  C16 UNL     1       0.130   3.599   0.015  1.00  0.00     0.093 A 
HETATM   24  C17 UNL     1       0.110   4.871   0.344  1.00  0.00     0.017 A 
HETATM   25  C18 UNL     1      -0.426   5.191   1.655  1.00  0.00    -0.001 A 
HETATM   26  C19 UNL     1      -0.837   4.173   2.377  1.00  0.00    -0.007 A 
HETATM   27  C20 UNL     1      -0.834   2.769   2.053  1.00  0.00     0.158 A 
ENDBRANCH  20  22
ENDBRANCH   1  20
TORSDOF 7
