REMARK  3 active torsions:
REMARK  status: ('A' for Active; 'I' for Inactive)
REMARK    1  A    between atoms: C3_3  and  S1_4 
REMARK    2  A    between atoms: C5_6  and  N1_7 
REMARK    3  A    between atoms: C16_19  and  O1_20 
ROOT
HETATM    1  N1  UNL     1      -0.270  -0.088   0.037  1.00  0.00    -0.362 N 
HETATM    2  C6  UNL     1      -0.999   0.949   0.503  1.00  0.00     0.151 C 
HETATM    3  C7  UNL     1      -1.767   2.049   1.018  1.00  0.00    -0.010 C 
HETATM    4  C8  UNL     1      -3.106   1.754   0.737  1.00  0.00    -0.012 C 
HETATM    5  C9  UNL     1      -3.678   0.511   0.046  1.00  0.00     0.031 A 
HETATM    6  C10 UNL     1      -4.755   0.353   0.814  1.00  0.00    -0.010 A 
HETATM    7  C11 UNL     1      -5.182  -1.020   0.678  1.00  0.00    -0.004 A 
HETATM    8  C12 UNL     1      -4.404  -1.889  -0.198  1.00  0.00     0.005 A 
HETATM    9  C13 UNL     1      -3.414  -0.970  -0.641  1.00  0.00     0.065 A 
HETATM   10  C14 UNL     1      -2.712   0.198  -0.800  1.00  0.00     0.046 A 
HETATM   11  N2  UNL     1      -2.084  -1.708  -0.632  1.00  0.00    -0.392 N 
HETATM   12  C15 UNL     1      -0.659  -1.418  -0.549  1.00  0.00     0.242 C 
HETATM   13  H15 UNL     1      -2.078  -2.788  -0.740  1.00  0.00     0.156 HD
ENDROOT
BRANCH   1  14
HETATM   14  C5  UNL     1       1.133   0.218   0.030  1.00  0.00     0.044 C 
HETATM   15  C4  UNL     1       2.012   0.043  -1.173  1.00  0.00     0.105 C 
HETATM   16  C3  UNL     1       3.435  -0.063  -0.754  1.00  0.00    -0.015 C 
HETATM   17  C2  UNL     1       4.008   0.472   0.312  1.00  0.00    -0.046 C 
HETATM   18  C1  UNL     1       5.455   0.110   0.297  1.00  0.00     0.046 C 
HETATM   19  C17 UNL     1       3.128   1.257   1.244  1.00  0.00     0.170 C 
HETATM   20  C16 UNL     1       1.751   0.759   1.043  1.00  0.00     0.088 C 
HETATM   21 CL1  UNL     1       3.658   1.102   2.922  1.00  0.00    -0.113 Cl
BRANCH  16  22
HETATM   22  S1  UNL     1       4.607  -1.000  -1.742  1.00  0.00    -0.147 SA
HETATM   23  H4  UNL     1       4.958  -2.215  -1.092  1.00  0.00     0.107 HD
ENDBRANCH  16  22
BRANCH  20  24
HETATM   24  O1  UNL     1       0.933   0.917   2.197  1.00  0.00    -0.361 OA
HETATM   25  H18 UNL     1       0.891   0.158   2.863  1.00  0.00     0.217 HD
ENDBRANCH  20  24
ENDBRANCH   1  14
TORSDOF 3
