REMARK  7 active torsions:
REMARK  status: ('A' for Active; 'I' for Inactive)
REMARK    1  A    between atoms: O1_1  and  C1_2 
REMARK    2  A    between atoms: C6_9  and  C7_10 
REMARK    3  A    between atoms: C7_10  and  N1_11 
REMARK    4  A    between atoms: N1_11  and  C8_12 
REMARK    5  A    between atoms: N1_11  and  C15_20 
REMARK    6  A    between atoms: C8_12  and  C9_13 
REMARK    7  A    between atoms: C15_20  and  N2_21 
ROOT
HETATM    1  N1  UNL     1       0.307   0.088  -0.320  1.00  0.00    -0.389 N 
ENDROOT
BRANCH   1   2
HETATM    2  C7  UNL     1      -0.862   0.582  -0.917  1.00  0.00     0.160 C 
BRANCH   2   3
HETATM    3  C6  UNL     1      -1.475   1.781  -0.336  1.00  0.00    -0.004 A 
HETATM    4  C1  UNL     1      -2.120   2.688  -1.196  1.00  0.00     0.095 A 
HETATM    5  C2  UNL     1      -2.716   3.855  -0.779  1.00  0.00     0.069 A 
HETATM    6 CL1  UNL     1      -3.505   4.906  -1.958  1.00  0.00    -0.081 Cl
HETATM    7  C3  UNL     1      -2.694   4.179   0.544  1.00  0.00     0.050 A 
HETATM    8  C4  UNL     1      -2.072   3.328   1.462  1.00  0.00     0.036 A 
HETATM    9 CL2  UNL     1      -2.018   3.715   3.179  1.00  0.00    -0.084 Cl
HETATM   10  C5  UNL     1      -1.486   2.167   1.008  1.00  0.00     0.035 A 
BRANCH   4  11
HETATM   11  O1  UNL     1      -2.173   2.405  -2.556  1.00  0.00    -0.358 OA
HETATM   12  H1  UNL     1      -1.418   2.296  -3.182  1.00  0.00     0.217 HD
ENDBRANCH   4  11
ENDBRANCH   2   3
ENDBRANCH   1   2
BRANCH   1  13
HETATM   13  C8  UNL     1       1.444   0.903  -0.173  1.00  0.00     0.157 C 
BRANCH  13  14
HETATM   14  C9  UNL     1       2.688   0.114   0.113  1.00  0.00    -0.041 A 
HETATM   15  C10 UNL     1       3.359  -0.286   1.246  1.00  0.00     0.012 A 
HETATM   16  C11 UNL     1       4.479  -1.052   1.202  1.00  0.00     0.043 A 
HETATM   17  C12 UNL     1       5.023  -1.485   0.006  1.00  0.00     0.116 A 
HETATM   18  F1  UNL     1       6.155  -2.258   0.046  1.00  0.00    -0.206 F 
HETATM   19  C13 UNL     1       4.397  -1.119  -1.190  1.00  0.00     0.043 A 
HETATM   20  C14 UNL     1       3.262  -0.340  -1.086  1.00  0.00     0.012 A 
ENDBRANCH  13  14
ENDBRANCH   1  13
BRANCH   1  21
HETATM   21  C15 UNL     1       0.501  -1.306  -0.228  1.00  0.00     0.243 C 
BRANCH  21  22
HETATM   22  N2  UNL     1      -0.666  -2.000   0.340  1.00  0.00    -0.373 N 
HETATM   23  C16 UNL     1      -1.012  -1.578   1.648  1.00  0.00     0.094 C 
HETATM   24  C17 UNL     1      -2.186  -1.818   2.160  1.00  0.00     0.062 C 
HETATM   25  S1  UNL     1      -3.444  -2.698   1.250  1.00  0.00    -0.139 SA
HETATM   26  C18 UNL     1      -2.857  -2.878  -0.445  1.00  0.00     0.098 C 
HETATM   27  C19 UNL     1      -1.358  -2.997  -0.405  1.00  0.00     0.134 C 
ENDBRANCH  21  22
ENDBRANCH   1  21
TORSDOF 7
