REMARK  8 active torsions:
REMARK  status: ('A' for Active; 'I' for Inactive)
REMARK    1  A    between atoms: C2_2  and  N1_3 
REMARK    2  A    between atoms: C2_2  and  N2_9 
REMARK    3  A    between atoms: N1_3  and  C3_4 
REMARK    4  A    between atoms: N2_9  and  C8_10 
REMARK    5  A    between atoms: N2_9  and  C16_19 
REMARK    6  A    between atoms: C8_10  and  C9_11 
REMARK    7  A    between atoms: C15_17  and  O1_18 
REMARK    8  A    between atoms: C17_20  and  S1_21 
ROOT
HETATM    1  N2  UNL     1       0.214   0.929  -0.589  1.00  0.00    -0.332 N 
ENDROOT
BRANCH   1   2
HETATM    2  C2  UNL     1      -0.523  -0.277  -0.827  1.00  0.00     0.094 C 
HETATM    3  C1  UNL     1      -0.466  -0.917   0.342  1.00  0.00     0.063 C 
BRANCH   2   4
HETATM    4  N1  UNL     1      -1.288  -1.205  -1.586  1.00  0.00    -0.366 N 
HETATM    5  H3  UNL     1      -0.769  -1.964  -2.085  1.00  0.00     0.162 HD
BRANCH   4   6
HETATM    6  C3  UNL     1      -2.700  -0.823  -1.459  1.00  0.00     0.129 A 
HETATM    7  C4  UNL     1      -3.554  -1.769  -2.240  1.00  0.00     0.002 A 
HETATM    8  C5  UNL     1      -4.372  -2.402  -1.449  1.00  0.00    -0.002 A 
HETATM    9  C6  UNL     1      -4.165  -1.962  -0.076  1.00  0.00    -0.002 A 
HETATM   10  C7  UNL     1      -3.194  -1.044  -0.074  1.00  0.00     0.002 A 
ENDBRANCH   4   6
ENDBRANCH   2   4
ENDBRANCH   1   2
BRANCH   1  11
HETATM   11  C8  UNL     1       1.474   0.698  -1.261  1.00  0.00     0.172 C 
BRANCH  11  12
HETATM   12  C9  UNL     1       2.214  -0.464  -0.765  1.00  0.00    -0.006 A 
HETATM   13  C10 UNL     1       2.235  -1.633  -1.497  1.00  0.00     0.012 A 
HETATM   14  C11 UNL     1       2.889  -2.819  -1.161  1.00  0.00     0.001 A 
HETATM   15  C12 UNL     1       3.582  -2.783   0.041  1.00  0.00     0.009 A 
HETATM   16  C13 UNL     1       3.593  -1.641   0.810  1.00  0.00    -0.028 A 
HETATM   17  C14 UNL     1       4.370  -1.726   2.077  1.00  0.00     0.051 C 
HETATM   18  C15 UNL     1       2.924  -0.504   0.417  1.00  0.00     0.079 A 
BRANCH  18  19
HETATM   19  O1  UNL     1       2.953   0.626   1.209  1.00  0.00    -0.360 OA
HETATM   20  H17 UNL     1       2.812   0.507   2.204  1.00  0.00     0.217 HD
ENDBRANCH  18  19
ENDBRANCH  11  12
ENDBRANCH   1  11
BRANCH   1  21
HETATM   21  C16 UNL     1      -0.370   1.998   0.173  1.00  0.00     0.030 A 
HETATM   22  C17 UNL     1      -0.685   3.038  -0.584  1.00  0.00     0.023 A 
HETATM   23  C18 UNL     1      -1.287   4.201   0.060  1.00  0.00     0.058 A 
HETATM   24  C19 UNL     1      -1.463   4.097   1.368  1.00  0.00     0.095 A 
HETATM   25  F1  UNL     1      -2.022   5.158   2.012  1.00  0.00    -0.211 F 
HETATM   26  C20 UNL     1      -1.144   2.982   2.295  1.00  0.00     0.076 A 
HETATM   27  C21 UNL     1      -0.528   1.793   1.636  1.00  0.00     0.065 A 
BRANCH  22  28
HETATM   28  S1  UNL     1      -0.404   3.067  -2.324  1.00  0.00    -0.141 SA
HETATM   29  H18 UNL     1      -1.232   4.033  -2.925  1.00  0.00     0.107 HD
ENDBRANCH  22  28
ENDBRANCH   1  21
TORSDOF 8
