REMARK  8 active torsions:
REMARK  status: ('A' for Active; 'I' for Inactive)
REMARK    1  A    between atoms: C6_6  and  C7_7 
REMARK    2  A    between atoms: C7_7  and  N1_8 
REMARK    3  A    between atoms: N1_8  and  C8_9 
REMARK    4  A    between atoms: N1_8  and  C14_16 
REMARK    5  A    between atoms: C8_9  and  C9_10 
REMARK    6  A    between atoms: C14_16  and  N2_18 
REMARK    7  A    between atoms: N2_18  and  C15_19 
REMARK    8  A    between atoms: C21_25  and  O1_26 
ROOT
HETATM    1  N1  UNL     1      -0.035   0.589   0.911  1.00  0.00    -0.349 N 
ENDROOT
BRANCH   1   2
HETATM    2  C7  UNL     1       0.664  -0.407   1.745  1.00  0.00     0.167 C 
BRANCH   2   3
HETATM    3  C6  UNL     1       2.051  -0.612   1.254  1.00  0.00    -0.007 A 
HETATM    4  C5  UNL     1       3.144  -0.063   1.917  1.00  0.00     0.011 A 
HETATM    5  C4  UNL     1       4.462  -0.205   1.529  1.00  0.00     0.001 A 
HETATM    6  C3  UNL     1       4.700  -0.956   0.389  1.00  0.00     0.009 A 
HETATM    7  C2  UNL     1       3.638  -1.522  -0.302  1.00  0.00    -0.028 A 
HETATM    8  C1  UNL     1       4.022  -2.301  -1.503  1.00  0.00     0.051 C 
HETATM    9  C21 UNL     1       2.352  -1.357   0.115  1.00  0.00     0.079 A 
BRANCH   9  10
HETATM   10  O1  UNL     1       1.313  -1.938  -0.603  1.00  0.00    -0.360 OA
HETATM   11  H19 UNL     1       1.460  -2.886  -0.918  1.00  0.00     0.217 HD
ENDBRANCH   9  10
ENDBRANCH   2   3
ENDBRANCH   1   2
BRANCH   1  12
HETATM   12  C8  UNL     1       0.754   1.754   1.015  1.00  0.00     0.165 C 
BRANCH  12  13
HETATM   13  C9  UNL     1       0.253   2.988   0.365  1.00  0.00    -0.026 C 
HETATM   14  C10 UNL     1       0.657   3.521  -0.778  1.00  0.00     0.024 C 
HETATM   15  C11 UNL     1       0.290   4.755  -0.977  1.00  0.00     0.128 C 
HETATM   16  F1  UNL     1       0.803   5.624  -1.885  1.00  0.00    -0.205 F 
HETATM   17  C12 UNL     1      -0.783   5.012  -0.024  1.00  0.00     0.044 C 
HETATM   18  C13 UNL     1      -0.798   3.954   0.771  1.00  0.00     0.013 C 
ENDBRANCH  12  13
ENDBRANCH   1  12
BRANCH   1  19
HETATM   19  C14 UNL     1      -1.228   0.383   0.168  1.00  0.00     0.174 C 
HETATM   20  S1  UNL     1      -1.697   1.691  -0.683  1.00  0.00    -0.041 SA
BRANCH  19  21
HETATM   21  N2  UNL     1      -1.952  -0.824   0.121  1.00  0.00    -0.333 N 
HETATM   22  H13 UNL     1      -1.498  -1.559   0.705  1.00  0.00     0.168 HD
BRANCH  21  23
HETATM   23  C15 UNL     1      -3.117  -1.216  -0.532  1.00  0.00     0.034 A 
HETATM   24  C16 UNL     1      -3.586  -2.526  -0.372  1.00  0.00     0.029 A 
HETATM   25  C17 UNL     1      -4.717  -3.002  -0.970  1.00  0.00     0.002 A 
HETATM   26  C18 UNL     1      -5.444  -2.162  -1.775  1.00  0.00     0.000 A 
HETATM   27  C19 UNL     1      -5.055  -0.856  -1.988  1.00  0.00     0.002 A 
HETATM   28  C20 UNL     1      -3.901  -0.463  -1.343  1.00  0.00     0.029 A 
ENDBRANCH  21  23
ENDBRANCH  19  21
ENDBRANCH   1  19
TORSDOF 8
