REMARK  3 active torsions:
REMARK  status: ('A' for Active; 'I' for Inactive)
REMARK    1  A    between atoms: C2_2  and  C4_4 
REMARK    2  A    between atoms: C7_7  and  S1_8 
REMARK    3  A    between atoms: N1_9  and  C8_10 
ROOT
HETATM    1  C4  UNL     1       3.966  -0.269   0.352  1.00  0.00     0.013 C 
HETATM    2  C5  UNL     1       2.612  -0.091   0.193  1.00  0.00     0.080 C 
HETATM    3  C6  UNL     1       1.646  -1.095   0.734  1.00  0.00     0.113 C 
HETATM    4  C7  UNL     1       0.353  -1.066   0.078  1.00  0.00    -0.006 C 
HETATM    5  C14 UNL     1      -0.237  -0.571  -0.996  1.00  0.00     0.036 C 
HETATM    6  C15 UNL     1       0.413   0.239  -1.997  1.00  0.00     0.147 C 
HETATM    7  N2  UNL     1       1.471   0.975  -1.741  1.00  0.00    -0.141 NA
HETATM    8  O1  UNL     1       2.047   1.034  -0.489  1.00  0.00    -0.218 OA
ENDROOT
BRANCH   4   9
HETATM    9  S1  UNL     1      -0.875  -1.999   1.067  1.00  0.00    -0.089 SA
HETATM   10  N1  UNL     1      -2.407  -1.198   0.746  1.00  0.00    -0.327 N 
HETATM   11  H9  UNL     1      -2.000  -1.496   1.669  1.00  0.00     0.261 HD
BRANCH  10  12
HETATM   12  C8  UNL     1      -3.631  -0.557   0.495  1.00  0.00     0.040 A 
HETATM   13  C9  UNL     1      -4.188  -0.116   1.675  1.00  0.00     0.033 A 
HETATM   14  C10 UNL     1      -5.376   0.606   1.620  1.00  0.00     0.046 A 
HETATM   15  C11 UNL     1      -5.854   0.791   0.347  1.00  0.00     0.138 A 
HETATM   16  F1  UNL     1      -7.005   1.490   0.171  1.00  0.00    -0.204 F 
HETATM   17  C12 UNL     1      -5.271   0.330  -0.839  1.00  0.00     0.074 A 
HETATM   18 CL1  UNL     1      -5.982   0.656  -2.408  1.00  0.00    -0.081 Cl
HETATM   19  C13 UNL     1      -4.103  -0.379  -0.760  1.00  0.00     0.057 A 
ENDBRANCH  10  12
ENDBRANCH   4   9
BRANCH   1  20
HETATM   20  C2  UNL     1       5.171   0.539  -0.058  1.00  0.00    -0.034 C 
HETATM   21  C1  UNL     1       5.988  -0.283   0.428  1.00  0.00     0.048 C 
HETATM   22  C3  UNL     1       4.515   1.670  -0.724  1.00  0.00     0.015 C 
ENDBRANCH   1  20
TORSDOF 3
