REMARK  6 active torsions:
REMARK  status: ('A' for Active; 'I' for Inactive)
REMARK    1  A    between atoms: C6_6  and  O1_7 
REMARK    2  A    between atoms: C7_8  and  N1_9 
REMARK    3  A    between atoms: N1_9  and  C8_10 
REMARK    4  A    between atoms: N1_9  and  C15_18 
REMARK    5  A    between atoms: C8_10  and  C9_11 
REMARK    6  A    between atoms: C15_18  and  N2_20 
ROOT
HETATM    1  N1  UNL     1       0.261  -0.117  -0.619  1.00  0.00    -0.317 N 
ENDROOT
BRANCH   1   2
HETATM    2  C7  UNL     1      -0.554   1.040  -0.270  1.00  0.00     0.071 A 
HETATM    3  C6  UNL     1      -0.962   2.090  -1.068  1.00  0.00     0.098 A 
HETATM    4  C4  UNL     1      -1.748   3.060  -0.483  1.00  0.00    -0.026 A 
HETATM    5  C3  UNL     1      -2.121   3.006   0.835  1.00  0.00     0.016 A 
HETATM    6  C5  UNL     1      -2.163   4.170  -1.382  1.00  0.00     0.051 C 
HETATM    7  C2  UNL     1      -1.711   1.959   1.622  1.00  0.00    -0.059 A 
HETATM    8  C1  UNL     1      -2.143   1.944   3.056  1.00  0.00     0.048 C 
HETATM    9  C22 UNL     1      -0.925   0.971   1.076  1.00  0.00     0.039 A 
BRANCH   3  10
HETATM   10  O1  UNL     1      -0.517   2.030  -2.381  1.00  0.00    -0.358 OA
HETATM   11  H8  UNL     1       0.455   1.854  -2.627  1.00  0.00     0.217 HD
ENDBRANCH   3  10
ENDBRANCH   1   2
BRANCH   1  12
HETATM   12  C8  UNL     1      -0.672  -0.838  -1.462  1.00  0.00     0.170 C 
BRANCH  12  13
HETATM   13  C9  UNL     1      -1.920  -1.231  -0.717  1.00  0.00    -0.040 A 
HETATM   14  C10 UNL     1      -1.796  -2.457  -0.046  1.00  0.00     0.012 A 
HETATM   15  C11 UNL     1      -2.784  -3.031   0.690  1.00  0.00     0.043 A 
HETATM   16  C12 UNL     1      -4.000  -2.395   0.806  1.00  0.00     0.116 A 
HETATM   17  F1  UNL     1      -5.069  -2.848   1.503  1.00  0.00    -0.206 F 
HETATM   18  C13 UNL     1      -4.132  -1.194   0.152  1.00  0.00     0.043 A 
HETATM   19  C14 UNL     1      -3.137  -0.609  -0.593  1.00  0.00     0.012 A 
ENDBRANCH  12  13
ENDBRANCH   1  12
BRANCH   1  20
HETATM   20  C15 UNL     1       1.610  -0.206  -0.092  1.00  0.00     0.181 C 
HETATM   21  S1  UNL     1       1.952   1.122   0.857  1.00  0.00    -0.040 SA
BRANCH  20  22
HETATM   22  N2  UNL     1       2.697  -1.138  -0.186  1.00  0.00    -0.326 N 
HETATM   23  C16 UNL     1       2.680  -2.350  -0.921  1.00  0.00     0.094 A 
HETATM   24  C17 UNL     1       3.613  -3.244  -1.060  1.00  0.00     0.017 A 
HETATM   25  C18 UNL     1       4.871  -3.013  -0.383  1.00  0.00    -0.001 A 
HETATM   26  C19 UNL     1       4.889  -1.886   0.302  1.00  0.00    -0.002 A 
HETATM   27  C20 UNL     1       3.898  -0.817   0.521  1.00  0.00     0.110 A 
HETATM   28  C21 UNL     1       4.529   0.478   0.006  1.00  0.00     0.037 C 
ENDBRANCH  20  22
ENDBRANCH   1  20
TORSDOF 6
