REMARK  9 active torsions:
REMARK  status: ('A' for Active; 'I' for Inactive)
REMARK    1  A    between atoms: C4_4  and  O1_5 
REMARK    2  A    between atoms: O1_5  and  C5_6 
REMARK    3  A    between atoms: C5_6  and  C6_7 
REMARK    4  A    between atoms: C6_7  and  N1_8 
REMARK    5  A    between atoms: N1_8  and  C7_9 
REMARK    6  A    between atoms: C7_9  and  C8_10 
REMARK    7  A    between atoms: C14_17  and  C15_18 
REMARK    8  A    between atoms: C15_18  and  N2_20 
REMARK    9  A    between atoms: N2_20  and  C16_21 
ROOT
HETATM    1  C1  UNL     1      -3.046  -3.500  -1.809  1.00  0.00     0.048 C 
HETATM    2  C2  UNL     1      -2.413  -2.301  -1.218  1.00  0.00    -0.062 A 
HETATM    3  C3  UNL     1      -1.102  -2.243  -1.243  1.00  0.00     0.016 A 
HETATM    4  C4  UNL     1      -0.563  -0.957  -0.602  1.00  0.00     0.181 A 
HETATM    5  C14 UNL     1      -1.808  -0.301  -0.216  1.00  0.00     0.013 A 
HETATM    6  C22 UNL     1      -2.839  -1.077  -0.571  1.00  0.00     0.019 A 
ENDROOT
BRANCH   4   7
HETATM    7  O1  UNL     1       0.289  -1.303   0.413  1.00  0.00    -0.376 OA
BRANCH   7   8
HETATM    8  C5  UNL     1       1.609  -0.999   0.248  1.00  0.00     0.199 C 
BRANCH   8   9
HETATM    9  C6  UNL     1       1.849   0.458   0.123  1.00  0.00     0.296 C 
BRANCH   9  10
HETATM   10  N1  UNL     1       3.260   0.785  -0.069  1.00  0.00     0.089 N 
HETATM   11  H10 UNL     1       3.273   1.829  -0.232  1.00  0.00     0.316 HD
BRANCH  10  12
HETATM   12  C7  UNL     1       4.076   0.522   1.071  1.00  0.00     0.308 C 
BRANCH  12  13
HETATM   13  C8  UNL     1       5.503   0.877   0.855  1.00  0.00    -0.030 A 
HETATM   14  C9  UNL     1       6.067   2.121   1.138  1.00  0.00     0.012 A 
HETATM   15  C10 UNL     1       7.408   2.343   0.894  1.00  0.00     0.043 A 
HETATM   16  C11 UNL     1       8.209   1.350   0.371  1.00  0.00     0.116 A 
HETATM   17  F1  UNL     1       9.529   1.566   0.127  1.00  0.00    -0.206 F 
HETATM   18  C12 UNL     1       7.680   0.111   0.081  1.00  0.00     0.043 A 
HETATM   19  C13 UNL     1       6.339  -0.099   0.330  1.00  0.00     0.012 A 
ENDBRANCH  12  13
ENDBRANCH  10  12
ENDBRANCH   9  10
ENDBRANCH   8   9
ENDBRANCH   7   8
ENDBRANCH   4   7
BRANCH   5  20
HETATM   20  C15 UNL     1      -2.212   0.938   0.427  1.00  0.00     0.110 C 
HETATM   21  S1  UNL     1      -1.138   2.029   0.938  1.00  0.00    -0.060 SA
BRANCH  20  22
HETATM   22  N2  UNL     1      -3.536   1.369   0.689  1.00  0.00    -0.347 N 
HETATM   23  H17 UNL     1      -3.826   2.251   1.149  1.00  0.00     0.167 HD
BRANCH  22  24
HETATM   24  C16 UNL     1      -4.914   0.967   0.527  1.00  0.00     0.033 A 
HETATM   25  C17 UNL     1      -5.585   1.333  -0.643  1.00  0.00     0.029 A 
HETATM   26  C18 UNL     1      -6.905   1.008  -0.923  1.00  0.00     0.002 A 
HETATM   27  C19 UNL     1      -7.497   0.279   0.075  1.00  0.00     0.000 A 
HETATM   28  C20 UNL     1      -6.940  -0.129   1.247  1.00  0.00     0.002 A 
HETATM   29  C21 UNL     1      -5.621   0.225   1.473  1.00  0.00     0.029 A 
ENDBRANCH  22  24
ENDBRANCH  20  22
ENDBRANCH   5  20
TORSDOF 9
