REMARK  3 active torsions:
REMARK  status: ('A' for Active; 'I' for Inactive)
REMARK    1  A    between atoms: O1_1  and  C1_2 
REMARK    2  A    between atoms: C6_9  and  C7_10 
REMARK    3  A    between atoms: C7_10  and  N1_11 
ROOT
HETATM    1  N1  UNL     1       0.577  -0.735   0.322  1.00  0.00     0.120 N 
HETATM    2  C8  UNL     1      -0.454  -1.462   1.115  1.00  0.00     0.278 C 
HETATM    3  C9  UNL     1      -1.590  -1.831   0.287  1.00  0.00     0.057 C 
HETATM    4  C10 UNL     1      -2.664  -2.573   0.946  1.00  0.00    -0.025 C 
HETATM    5  C11 UNL     1      -3.794  -1.838   0.873  1.00  0.00    -0.004 C 
HETATM    6  C12 UNL     1      -4.390  -0.591   0.427  1.00  0.00    -0.004 C 
HETATM    7  C13 UNL     1      -3.954   0.553  -0.123  1.00  0.00    -0.025 C 
HETATM    8  C14 UNL     1      -3.322   1.744  -0.715  1.00  0.00     0.057 C 
HETATM    9  C15 UNL     1      -1.862   1.766  -0.438  1.00  0.00     0.275 C 
HETATM   10  N2  UNL     1      -1.163   0.585  -0.750  1.00  0.00     0.112 N 
HETATM   11  C16 UNL     1       0.082   0.607   0.028  1.00  0.00     0.540 C 
HETATM   12  H18 UNL     1      -0.937   0.603  -1.784  1.00  0.00     0.318 HD
ENDROOT
BRANCH   1  13
HETATM   13  C7  UNL     1       1.675  -0.530   1.255  1.00  0.00     0.316 C 
BRANCH  13  14
HETATM   14  C6  UNL     1       2.832   0.163   0.689  1.00  0.00     0.006 A 
HETATM   15  C1  UNL     1       3.640  -0.614  -0.113  1.00  0.00     0.091 A 
HETATM   16  C2  UNL     1       4.774  -0.088  -0.712  1.00  0.00     0.045 A 
HETATM   17 BR1  UNL     1       5.942  -1.104  -1.834  1.00  0.00    -0.048 Br
HETATM   18  C3  UNL     1       5.127   1.239  -0.522  1.00  0.00     0.041 A 
HETATM   19  C4  UNL     1       4.312   2.025   0.287  1.00  0.00     0.013 A 
HETATM   20 BR2  UNL     1       4.718   3.866   0.607  1.00  0.00    -0.051 Br
HETATM   21  C5  UNL     1       3.184   1.503   0.884  1.00  0.00     0.030 A 
BRANCH  15  22
HETATM   22  O1  UNL     1       3.437  -1.965  -0.412  1.00  0.00    -0.359 OA
HETATM   23  H1  UNL     1       2.790  -2.164  -1.179  1.00  0.00     0.217 HD
ENDBRANCH  15  22
ENDBRANCH  13  14
ENDBRANCH   1  13
TORSDOF 3
