REMARK  8 active torsions:
REMARK  status: ('A' for Active; 'I' for Inactive)
REMARK    1  A    between atoms: C2_2  and  C3_3 
REMARK    2  A    between atoms: C3_3  and  N1_4 
REMARK    3  A    between atoms: N1_4  and  C4_5 
REMARK    4  A    between atoms: C4_5  and  N2_7 
REMARK    5  A    between atoms: N2_7  and  C6_8 
REMARK    6  A    between atoms: N2_7  and  C13_16 
REMARK    7  A    between atoms: C6_8  and  C7_9 
REMARK    8  A    between atoms: C18_22  and  O1_23 
ROOT
HETATM    1  N2  UNL     1      -0.188   0.220  -0.443  1.00  0.00    -0.345 N 
ENDROOT
BRANCH   1   2
HETATM    2  C4  UNL     1      -1.625   0.168  -0.249  1.00  0.00     0.318 C 
HETATM    3  C5  UNL     1      -2.332  -0.278  -1.526  1.00  0.00     0.066 C 
BRANCH   2   4
HETATM    4  N1  UNL     1      -2.009  -0.763   0.798  1.00  0.00     0.109 N 
HETATM    5  H6  UNL     1      -1.834  -1.765   0.519  1.00  0.00     0.318 HD
BRANCH   4   6
HETATM    6  C3  UNL     1      -3.472  -0.655   0.908  1.00  0.00     0.298 C 
BRANCH   6   7
HETATM    7  C2  UNL     1      -3.856  -1.622   1.996  1.00  0.00    -0.007 C 
HETATM    8  C1  UNL     1      -4.682  -2.641   1.761  1.00  0.00     0.008 C 
ENDBRANCH   6   7
ENDBRANCH   4   6
ENDBRANCH   2   4
ENDBRANCH   1   2
BRANCH   1   9
HETATM    9  C6  UNL     1       0.360  -1.070  -0.816  1.00  0.00     0.163 C 
BRANCH   9  10
HETATM   10  C7  UNL     1       1.811  -1.075  -1.026  1.00  0.00    -0.040 A 
HETATM   11  C8  UNL     1       2.539  -0.847  -2.186  1.00  0.00     0.012 A 
HETATM   12  C9  UNL     1       3.909  -0.893  -2.192  1.00  0.00     0.043 A 
HETATM   13  C10 UNL     1       4.648  -1.163  -1.068  1.00  0.00     0.116 A 
HETATM   14  F1  UNL     1       5.983  -1.202  -1.103  1.00  0.00    -0.206 F 
HETATM   15  C11 UNL     1       3.969  -1.392   0.089  1.00  0.00     0.043 A 
HETATM   16  C12 UNL     1       2.595  -1.348   0.103  1.00  0.00     0.012 A 
ENDBRANCH   9  10
ENDBRANCH   1   9
BRANCH   1  17
HETATM   17  C13 UNL     1       0.481   1.476  -0.252  1.00  0.00     0.067 A 
HETATM   18  C14 UNL     1       1.211   2.211  -1.162  1.00  0.00     0.032 A 
HETATM   19  C15 UNL     1       1.777   3.406  -0.772  1.00  0.00     0.004 A 
HETATM   20  C16 UNL     1       1.638   3.899   0.513  1.00  0.00     0.022 A 
HETATM   21  C17 UNL     1       0.897   3.141   1.415  1.00  0.00     0.046 A 
HETATM   22 BR1  UNL     1       0.737   3.874   3.181  1.00  0.00    -0.048 Br
HETATM   23  C18 UNL     1       0.321   1.941   1.043  1.00  0.00     0.109 A 
BRANCH  23  24
HETATM   24  O1  UNL     1      -0.385   1.303   2.053  1.00  0.00    -0.357 OA
HETATM   25  H20 UNL     1      -0.034   0.572   2.623  1.00  0.00     0.217 HD
ENDBRANCH  23  24
ENDBRANCH   1  17
TORSDOF 8
