REMARK  3 active torsions:
REMARK  status: ('A' for Active; 'I' for Inactive)
REMARK    1  A    between atoms: C14_16  and  C15_17 
REMARK    2  A    between atoms: C15_17  and  N2_19 
REMARK    3  A    between atoms: N2_19  and  C16_20 
ROOT
HETATM    1  C1  UNL     1       0.298   3.612  -3.069  1.00  0.00    -0.011 C 
HETATM    2  C2  UNL     1       0.287   2.510  -2.220  1.00  0.00     0.027 A 
HETATM    3  C3  UNL     1       1.520   2.072  -1.414  1.00  0.00    -0.018 A 
HETATM    4  C4  UNL     1       2.397   3.166  -1.896  1.00  0.00     0.018 C 
HETATM    5  C5  UNL     1       0.495   1.221  -1.161  1.00  0.00     0.003 A 
HETATM    6  C6  UNL     1      -0.835   0.790  -1.347  1.00  0.00     0.035 C 
HETATM    7  C7  UNL     1      -1.986   1.187  -2.128  1.00  0.00     0.122 C 
HETATM    8  N1  UNL     1      -3.055   0.217  -1.768  1.00  0.00    -0.397 N 
HETATM    9  C8  UNL     1      -4.204   0.588  -2.644  1.00  0.00     0.148 C 
HETATM   10  C9  UNL     1      -3.676  -0.884  -1.026  1.00  0.00     0.066 C 
HETATM   11  C10 UNL     1      -2.813  -1.419  -0.242  1.00  0.00     0.071 A 
HETATM   12  C11 UNL     1      -2.015  -2.236   0.767  1.00  0.00     0.046 A 
HETATM   13  C12 UNL     1      -1.188  -1.299   0.293  1.00  0.00     0.111 A 
HETATM   14  F1  UNL     1      -0.223  -1.766   1.066  1.00  0.00    -0.383 F 
HETATM   15  C13 UNL     1       0.233  -0.640   0.409  1.00  0.00     0.199 A 
HETATM   16  C14 UNL     1       1.103   0.377  -0.093  1.00  0.00     0.001 C 
ENDROOT
BRANCH  16  17
HETATM   17  C15 UNL     1       2.308   0.269   0.716  1.00  0.00     0.107 C 
HETATM   18  S1  UNL     1       3.410   1.224   0.082  1.00  0.00    -0.060 SA
BRANCH  17  19
HETATM   19  N2  UNL     1       2.725  -0.431   1.900  1.00  0.00    -0.347 N 
HETATM   20  H18 UNL     1       3.706  -0.182   2.181  1.00  0.00     0.167 HD
BRANCH  19  21
HETATM   21  C16 UNL     1       2.251  -1.346   2.853  1.00  0.00     0.033 A 
HETATM   22  C17 UNL     1       1.405  -1.263   3.968  1.00  0.00     0.029 A 
HETATM   23  C18 UNL     1       1.017  -2.302   4.842  1.00  0.00     0.002 A 
HETATM   24  C19 UNL     1       1.647  -3.426   4.367  1.00  0.00     0.000 A 
HETATM   25  C20 UNL     1       2.466  -3.794   3.381  1.00  0.00     0.002 A 
HETATM   26  C21 UNL     1       2.761  -2.649   2.606  1.00  0.00     0.029 A 
ENDBRANCH  19  21
ENDBRANCH  17  19
ENDBRANCH  16  17
TORSDOF 3
