REMARK  5 active torsions:
REMARK  status: ('A' for Active; 'I' for Inactive)
REMARK    1  A    between atoms: C2_2  and  C3_4 
REMARK    2  A    between atoms: C4_6  and  C5_7 
REMARK    3  A    between atoms: C6_8  and  N1_9 
REMARK    4  A    between atoms: N1_9  and  C7_10 
REMARK    5  A    between atoms: C15_21  and  O1_22 
ROOT
HETATM    1  C7  UNL     1       1.292   0.726  -0.738  1.00  0.00     0.159 A 
HETATM    2  N2  UNL     1       1.754   0.712  -1.988  1.00  0.00    -0.222 NA
HETATM    3  C8  UNL     1       0.986   0.245  -3.016  1.00  0.00     0.238 A 
HETATM    4  N3  UNL     1      -0.249  -0.199  -2.725  1.00  0.00    -0.215 NA
HETATM    5  C9  UNL     1      -0.721  -0.188  -1.468  1.00  0.00     0.202 A 
HETATM    6  C10 UNL     1       0.043   0.277  -0.442  1.00  0.00     0.129 A 
HETATM    7  N4  UNL     1      -0.231   0.383   0.926  1.00  0.00    -0.379 N 
HETATM    8  C11 UNL     1      -1.452   0.366   1.656  1.00  0.00     0.161 C 
HETATM    9  C12 UNL     1      -2.654   0.096   0.875  1.00  0.00    -0.006 A 
HETATM   10  C13 UNL     1      -3.709   0.392   1.712  1.00  0.00     0.014 A 
HETATM   11  C14 UNL     1      -5.044   0.262   1.331  1.00  0.00     0.037 A 
HETATM   12  C15 UNL     1      -5.335  -0.182   0.059  1.00  0.00     0.070 A 
HETATM   13  C17 UNL     1      -4.303  -0.491  -0.817  1.00  0.00     0.074 A 
HETATM   14  C18 UNL     1      -2.986  -0.345  -0.389  1.00  0.00     0.088 A 
HETATM   15  O2  UNL     1      -2.018  -0.684  -1.352  1.00  0.00    -0.289 OA
HETATM   16  H8  UNL     1       0.624   0.494   1.512  1.00  0.00     0.160 HD
ENDROOT
BRANCH   1  17
HETATM   17  N1  UNL     1       2.206   1.237   0.202  1.00  0.00    -0.349 N 
HETATM   18  H6  UNL     1       2.369   1.461   1.201  1.00  0.00     0.167 HD
BRANCH  17  19
HETATM   19  C6  UNL     1       3.499   1.688  -0.174  1.00  0.00     0.090 C 
HETATM   20  C5  UNL     1       4.531   0.860  -0.138  1.00  0.00     0.020 C 
BRANCH  20  21
HETATM   21  C4  UNL     1       4.330  -0.518   0.288  1.00  0.00     0.045 C 
HETATM   22  C3  UNL     1       5.323  -1.368   0.337  1.00  0.00     0.135 C 
HETATM   23  F1  UNL     1       5.181  -2.638   0.721  1.00  0.00    -0.204 F 
BRANCH  22  24
HETATM   24  C2  UNL     1       6.692  -1.017  -0.025  1.00  0.00     0.038 C 
HETATM   25  C1  UNL     1       7.757  -1.827  -0.001  1.00  0.00     0.206 C 
HETATM   26 CL1  UNL     1       8.128  -0.192  -0.533  1.00  0.00    -0.221 Cl
ENDBRANCH  22  24
ENDBRANCH  20  21
ENDBRANCH  17  19
ENDBRANCH   1  17
BRANCH  12  27
HETATM   27  O1  UNL     1      -6.601  -0.367  -0.479  1.00  0.00    -0.356 OA
HETATM   28  C16 UNL     1      -7.792  -0.114   0.235  1.00  0.00     0.210 C 
ENDBRANCH  12  27
TORSDOF 5
