REMARK  4 active torsions:
REMARK  status: ('A' for Active; 'I' for Inactive)
REMARK    1  A    between atoms: C4_5  and  C5_6 
REMARK    2  A    between atoms: C5_6  and  N2_8 
REMARK    3  A    between atoms: N2_8  and  C6_9 
REMARK    4  A    between atoms: C18_21  and  O1_22 
ROOT
HETATM    1  C1  UNL     1      -1.833  -1.761  -2.781  1.00  0.00     0.143 C 
HETATM    2  N1  UNL     1      -2.185  -0.866  -1.810  1.00  0.00    -0.415 N 
HETATM    3  C2  UNL     1      -1.805  -0.990  -0.502  1.00  0.00     0.122 C 
HETATM    4  C3  UNL     1      -0.462  -0.760   0.019  1.00  0.00     0.025 C 
HETATM    5  C4  UNL     1      -0.018   0.263   0.919  1.00  0.00     0.029 C 
HETATM    6  C12 UNL     1      -0.929   1.462   1.314  1.00  0.00     0.030 C 
HETATM    7  C13 UNL     1      -1.590   2.531   1.743  1.00  0.00     0.006 C 
HETATM    8  C14 UNL     1      -2.606   1.972   0.811  1.00  0.00    -0.028 A 
HETATM    9  C15 UNL     1      -2.113   1.967  -0.505  1.00  0.00     0.043 A 
HETATM   10  C16 UNL     1      -2.245   1.591  -1.787  1.00  0.00     0.019 A 
HETATM   11  C17 UNL     1      -3.320   1.094  -1.096  1.00  0.00     0.038 A 
HETATM   12  C18 UNL     1      -4.142   0.848  -0.036  1.00  0.00     0.077 A 
HETATM   13  C19 UNL     1      -3.769   1.373   1.217  1.00  0.00     0.070 A 
HETATM   14 CL1  UNL     1      -4.353   1.408   2.832  1.00  0.00    -0.081 Cl
HETATM   15  C20 UNL     1      -3.330  -0.023  -2.131  1.00  0.00     0.134 C 
ENDROOT
BRANCH   5  16
HETATM   16  C5  UNL     1       1.449   0.358   1.397  1.00  0.00     0.087 C 
HETATM   17  S1  UNL     1       1.656   1.641   2.419  1.00  0.00    -0.065 SA
BRANCH  16  18
HETATM   18  N2  UNL     1       2.447  -0.530   1.029  1.00  0.00    -0.350 N 
HETATM   19  H7  UNL     1       2.095  -1.269   0.399  1.00  0.00     0.166 HD
BRANCH  18  20
HETATM   20  C6  UNL     1       3.810  -0.610   1.340  1.00  0.00     0.032 A 
HETATM   21  C7  UNL     1       4.469   0.383   2.047  1.00  0.00     0.029 A 
HETATM   22  C8  UNL     1       5.799   0.293   2.371  1.00  0.00     0.002 A 
HETATM   23  C9  UNL     1       6.505  -0.818   1.985  1.00  0.00     0.000 A 
HETATM   24  C10 UNL     1       5.841  -1.786   1.289  1.00  0.00     0.002 A 
HETATM   25  C11 UNL     1       4.516  -1.751   0.937  1.00  0.00     0.029 A 
ENDBRANCH  18  20
ENDBRANCH  16  18
ENDBRANCH   5  16
BRANCH  12  26
HETATM   26  O1  UNL     1      -5.297   0.105  -0.215  1.00  0.00    -0.362 OA
HETATM   27  H17 UNL     1      -6.097   0.460  -0.748  1.00  0.00     0.217 HD
ENDBRANCH  12  26
TORSDOF 4
