REMARK  9 active torsions:
REMARK  status: ('A' for Active; 'I' for Inactive)
REMARK    1  A    between atoms: C3_3  and  O1_4 
REMARK    2  A    between atoms: C4_5  and  C5_6 
REMARK    3  A    between atoms: C5_6  and  N1_7 
REMARK    4  A    between atoms: N1_7  and  C6_8 
REMARK    5  A    between atoms: N1_7  and  C13_16 
REMARK    6  A    between atoms: C6_8  and  C7_9 
REMARK    7  A    between atoms: C10_12  and  O2_13 
REMARK    8  A    between atoms: C13_16  and  N2_18 
REMARK    9  A    between atoms: N2_18  and  C14_19 
ROOT
HETATM    1  N1  UNL     1      -0.171   0.440  -0.748  1.00  0.00    -0.349 N 
ENDROOT
BRANCH   1   2
HETATM    2  C5  UNL     1      -1.587   0.376  -0.655  1.00  0.00     0.168 C 
BRANCH   2   3
HETATM    3  C4  UNL     1      -2.190  -0.841  -0.087  1.00  0.00     0.011 A 
HETATM    4  C3  UNL     1      -2.191  -2.214  -0.652  1.00  0.00     0.077 A 
HETATM    5  C2  UNL     1      -2.873  -3.057   0.090  1.00  0.00    -0.045 A 
HETATM    6  C1  UNL     1      -3.128  -4.507  -0.102  1.00  0.00     0.046 C 
HETATM    7  C21 UNL     1      -3.410  -2.339   1.245  1.00  0.00     0.088 A 
HETATM    8  C20 UNL     1      -2.922  -0.952   1.035  1.00  0.00     0.026 A 
HETATM    9 CL1  UNL     1      -3.223   0.437   2.089  1.00  0.00    -0.088 Cl
BRANCH   4  10
HETATM   10  O1  UNL     1      -1.550  -2.614  -1.843  1.00  0.00    -0.360 OA
HETATM   11  H4  UNL     1      -0.979  -3.437  -1.787  1.00  0.00     0.217 HD
ENDBRANCH   4  10
ENDBRANCH   2   3
ENDBRANCH   1   2
BRANCH   1  12
HETATM   12  C6  UNL     1       0.117   1.660  -1.530  1.00  0.00     0.164 C 
BRANCH  12  13
HETATM   13  C7  UNL     1      -0.383   2.882  -0.902  1.00  0.00    -0.040 A 
HETATM   14  C8  UNL     1       0.420   3.594  -0.005  1.00  0.00     0.011 A 
HETATM   15  C9  UNL     1      -0.048   4.748   0.584  1.00  0.00     0.037 A 
HETATM   16  C10 UNL     1      -1.304   5.257   0.332  1.00  0.00     0.065 A 
HETATM   17  C11 UNL     1      -2.124   4.579  -0.549  1.00  0.00     0.037 A 
HETATM   18  C12 UNL     1      -1.648   3.430  -1.132  1.00  0.00     0.011 A 
BRANCH  16  19
HETATM   19  O2  UNL     1      -1.800   6.415   0.911  1.00  0.00    -0.361 OA
HETATM   20  H11 UNL     1      -1.733   7.260   0.347  1.00  0.00     0.217 HD
ENDBRANCH  16  19
ENDBRANCH  12  13
ENDBRANCH   1  12
BRANCH   1  21
HETATM   21  C13 UNL     1       0.831  -0.394  -0.184  1.00  0.00     0.174 C 
HETATM   22  S1  UNL     1       0.187  -1.545   0.775  1.00  0.00    -0.041 SA
BRANCH  21  23
HETATM   23  N2  UNL     1       2.240  -0.368  -0.274  1.00  0.00    -0.333 N 
HETATM   24  H14 UNL     1       2.436   0.450  -0.884  1.00  0.00     0.168 HD
BRANCH  23  25
HETATM   25  C14 UNL     1       3.274  -1.130   0.234  1.00  0.00     0.034 A 
HETATM   26  C15 UNL     1       3.235  -2.236   1.036  1.00  0.00     0.029 A 
HETATM   27  C16 UNL     1       4.314  -2.950   1.508  1.00  0.00     0.002 A 
HETATM   28  C17 UNL     1       5.525  -2.444   1.095  1.00  0.00     0.000 A 
HETATM   29  C18 UNL     1       5.676  -1.353   0.299  1.00  0.00     0.002 A 
HETATM   30  C19 UNL     1       4.561  -0.705  -0.125  1.00  0.00     0.029 A 
ENDBRANCH  23  25
ENDBRANCH  21  23
ENDBRANCH   1  21
TORSDOF 9
