REMARK  7 active torsions:
REMARK  status: ('A' for Active; 'I' for Inactive)
REMARK    1  A    between atoms: C4_4  and  C5_5 
REMARK    2  A    between atoms: C5_5  and  N1_6 
REMARK    3  A    between atoms: N1_6  and  C6_7 
REMARK    4  A    between atoms: N1_6  and  C13_15 
REMARK    5  A    between atoms: C6_7  and  C7_8 
REMARK    6  A    between atoms: C13_15  and  N2_17 
REMARK    7  A    between atoms: N2_17  and  C14_18 
ROOT
HETATM    1  N1  UNL     1      -0.043   0.171  -0.445  1.00  0.00    -0.350 N 
ENDROOT
BRANCH   1   2
HETATM    2  C5  UNL     1       1.147   0.583  -1.161  1.00  0.00     0.164 C 
BRANCH   2   3
HETATM    3  C4  UNL     1       2.392   0.116  -0.451  1.00  0.00    -0.044 A 
HETATM    4  C3  UNL     1       2.662  -1.315  -0.273  1.00  0.00     0.011 A 
HETATM    5  C2  UNL     1       3.770  -1.669   0.332  1.00  0.00    -0.083 A 
HETATM    6  C1  UNL     1       3.919  -3.162   0.447  1.00  0.00     0.043 C 
HETATM    7  C22 UNL     1       4.868  -0.874   0.881  1.00  0.00     0.037 A 
HETATM    8  C21 UNL     1       4.591   0.580   0.734  1.00  0.00     0.032 A 
HETATM    9  C20 UNL     1       3.326   0.911   0.038  1.00  0.00    -0.018 A 
ENDBRANCH   2   3
ENDBRANCH   1   2
BRANCH   1  10
HETATM   10  C6  UNL     1      -0.328   0.791   0.826  1.00  0.00     0.163 C 
BRANCH  10  11
HETATM   11  C7  UNL     1      -0.753   2.204   0.688  1.00  0.00    -0.025 A 
HETATM   12  C8  UNL     1      -1.969   2.543   1.157  1.00  0.00     0.008 A 
HETATM   13  C9  UNL     1      -2.331   3.941   0.997  1.00  0.00     0.006 A 
HETATM   14  C10 UNL     1      -1.313   4.498   0.410  1.00  0.00    -0.046 A 
HETATM   15  C11 UNL     1      -1.117   5.909  -0.003  1.00  0.00     0.046 C 
HETATM   16  C12 UNL     1      -0.243   3.464   0.153  1.00  0.00     0.229 A 
HETATM   17  F1  UNL     1       0.894   3.931   0.750  1.00  0.00    -0.240 F 
ENDBRANCH  10  11
ENDBRANCH   1  10
BRANCH   1  18
HETATM   18  C13 UNL     1      -0.937  -0.824  -0.933  1.00  0.00     0.174 C 
HETATM   19  S1  UNL     1      -0.781  -1.646  -2.326  1.00  0.00    -0.041 SA
BRANCH  18  20
HETATM   20  N2  UNL     1      -2.092  -1.195  -0.201  1.00  0.00    -0.333 N 
HETATM   21  H15 UNL     1      -2.557  -0.915   0.701  1.00  0.00     0.168 HD
BRANCH  20  22
HETATM   22  C14 UNL     1      -3.073  -2.166  -0.537  1.00  0.00     0.034 A 
HETATM   23  C15 UNL     1      -4.286  -2.074  -1.156  1.00  0.00     0.029 A 
HETATM   24  C16 UNL     1      -5.032  -3.199  -1.352  1.00  0.00     0.002 A 
HETATM   25  C17 UNL     1      -4.629  -4.476  -0.952  1.00  0.00     0.000 A 
HETATM   26  C18 UNL     1      -3.397  -4.572  -0.323  1.00  0.00     0.002 A 
HETATM   27  C19 UNL     1      -2.638  -3.432  -0.123  1.00  0.00     0.029 A 
ENDBRANCH  20  22
ENDBRANCH  18  20
ENDBRANCH   1  18
TORSDOF 7
