REMARK  5 active torsions:
REMARK  status: ('A' for Active; 'I' for Inactive)
REMARK    1  A    between atoms: O1_1  and  C1_2 
REMARK    2  A    between atoms: C7_8  and  S1_9 
REMARK    3  A    between atoms: N1_17  and  C14_18 
REMARK    4  A    between atoms: C14_18  and  N2_19 
REMARK    5  A    between atoms: N2_19  and  C15_20 
ROOT
HETATM    1  C1  UNL     1      -4.253   1.582  -0.530  1.00  0.00     0.077 A 
HETATM    2  C2  UNL     1      -3.628   2.486  -1.368  1.00  0.00     0.038 A 
HETATM    3  C3  UNL     1      -2.270   2.551  -1.159  1.00  0.00     0.012 A 
HETATM    4  C4  UNL     1      -1.624   1.771  -0.191  1.00  0.00    -0.029 A 
HETATM    5  C5  UNL     1      -2.339   0.892   0.608  1.00  0.00     0.024 A 
HETATM    6  C6  UNL     1      -3.695   0.797   0.425  1.00  0.00     0.016 A 
HETATM    7  C7  UNL     1      -4.429  -0.178   1.205  1.00  0.00     0.032 C 
HETATM    8  C8  UNL     1      -4.136  -1.441   1.574  1.00  0.00     0.051 C 
HETATM    9 CL1  UNL     1      -5.534  -2.024   2.528  1.00  0.00    -0.083 Cl
HETATM   10  C9  UNL     1      -3.002  -2.342   1.409  1.00  0.00     0.025 C 
HETATM   11  C10 UNL     1      -1.849  -2.843   1.077  1.00  0.00     0.002 C 
HETATM   12  C11 UNL     1      -0.611  -2.544   0.384  1.00  0.00    -0.002 C 
HETATM   13  C12 UNL     1       0.205  -1.763  -0.322  1.00  0.00     0.003 C 
HETATM   14  C13 UNL     1      -0.204  -0.413  -0.731  1.00  0.00     0.302 C 
HETATM   15  N1  UNL     1       0.475   0.595  -0.004  1.00  0.00     0.113 N 
HETATM   16  C21 UNL     1      -0.143   1.910  -0.199  1.00  0.00     0.313 C 
ENDROOT
BRANCH  15  17
HETATM   17  C14 UNL     1       1.856   0.652  -0.297  1.00  0.00     0.396 C 
BRANCH  17  18
HETATM   18  N2  UNL     1       2.643  -0.392   0.329  1.00  0.00    -0.365 N 
HETATM   19  H14 UNL     1       2.460  -1.175   1.028  1.00  0.00     0.161 HD
BRANCH  18  20
HETATM   20  C15 UNL     1       4.034  -0.376  -0.057  1.00  0.00     0.029 A 
HETATM   21  C16 UNL     1       4.977  -1.275   0.398  1.00  0.00     0.029 A 
HETATM   22  C17 UNL     1       6.310  -1.300   0.064  1.00  0.00     0.002 A 
HETATM   23  C18 UNL     1       6.738  -0.330  -0.810  1.00  0.00     0.000 A 
HETATM   24  C19 UNL     1       5.891   0.606  -1.320  1.00  0.00     0.002 A 
HETATM   25  C20 UNL     1       4.588   0.550  -0.930  1.00  0.00     0.029 A 
ENDBRANCH  18  20
ENDBRANCH  17  18
ENDBRANCH  15  17
BRANCH   1  26
HETATM   26  O1  UNL     1      -5.646   1.454  -0.682  1.00  0.00    -0.360 OA
HETATM   27  H1  UNL     1      -6.234   2.296  -0.741  1.00  0.00     0.217 HD
ENDBRANCH   1  26
BRANCH   7  28
HETATM   28  S1  UNL     1      -5.930   0.606   1.686  1.00  0.00    -0.140 SA
HETATM   29  H5  UNL     1      -6.092   0.705   3.078  1.00  0.00     0.107 HD
ENDBRANCH   7  28
TORSDOF 5
