REMARK  11 active torsions:
REMARK  status: ('A' for Active; 'I' for Inactive)
REMARK    1  A    between atoms: N1_1  and  C1_2 
REMARK    2  A    between atoms: C1_2  and  C2_3 
REMARK    3  A    between atoms: C1_2  and  N2_7 
REMARK    4  A    between atoms: C2_3  and  C3_4 
REMARK    5  A    between atoms: C3_4  and  C4_5 
REMARK    6  A    between atoms: N2_7  and  C5_8 
REMARK    7  A    between atoms: N2_7  and  C11_16 
REMARK    8  A    between atoms: C5_8  and  C6_9 
REMARK    9  A    between atoms: C10_14  and  O1_15 
REMARK   10  A    between atoms: C11_16  and  C12_17 
REMARK   11  A    between atoms: C15_20  and  O2_21 
ROOT
HETATM    1  N2  UNL     1      -0.145   0.900   0.259  1.00  0.00     0.119 N 
ENDROOT
BRANCH   1   2
HETATM    2  C1  UNL     1      -0.523   2.243  -0.210  1.00  0.00     0.319 C 
BRANCH   2   3
HETATM    3  N1  UNL     1      -1.100   2.276  -1.501  1.00  0.00    -0.402 N 
HETATM    4  H1  UNL     1      -0.471   2.399  -2.299  1.00  0.00     0.152 HD
HETATM    5  H2  UNL     1      -2.036   2.726  -1.591  1.00  0.00     0.152 HD
ENDBRANCH   2   3
BRANCH   2   6
HETATM    6  C2  UNL     1       0.556   3.257  -0.086  1.00  0.00     0.086 C 
BRANCH   6   7
HETATM    7  C3  UNL     1      -0.011   4.598  -0.319  1.00  0.00     0.006 C 
BRANCH   7   8
HETATM    8  C4  UNL     1      -0.366   5.841  -0.100  1.00  0.00     0.184 C 
HETATM    9  F1  UNL     1      -0.095   6.433   1.118  1.00  0.00    -0.220 F 
ENDBRANCH   7   8
ENDBRANCH   6   7
ENDBRANCH   2   6
ENDBRANCH   1   2
BRANCH   1  10
HETATM   10  C5  UNL     1      -1.331   0.112   0.050  1.00  0.00     0.317 C 
BRANCH  10  11
HETATM   11  C6  UNL     1      -1.344  -1.182   0.736  1.00  0.00     0.016 C 
HETATM   12  C7  UNL     1      -0.749  -1.959   1.628  1.00  0.00    -0.013 C 
HETATM   13  C8  UNL     1      -1.469  -2.915   2.127  1.00  0.00     0.039 C 
HETATM   14  C9  UNL     1      -2.560  -3.074   1.175  1.00  0.00     0.068 C 
HETATM   15 CL1  UNL     1      -3.659  -4.441   1.273  1.00  0.00    -0.081 Cl
HETATM   16  C10 UNL     1      -2.483  -2.043   0.349  1.00  0.00     0.096 C 
BRANCH  16  17
HETATM   17  O1  UNL     1      -3.464  -2.015  -0.660  1.00  0.00    -0.358 OA
HETATM   18  H11 UNL     1      -3.748  -1.096  -1.010  1.00  0.00     0.217 HD
ENDBRANCH  16  17
ENDBRANCH  10  11
ENDBRANCH   1  10
BRANCH   1  19
HETATM   19  C11 UNL     1       1.007   0.452  -0.481  1.00  0.00     0.314 C 
BRANCH  19  20
HETATM   20  C12 UNL     1       1.471  -0.917  -0.287  1.00  0.00    -0.030 A 
HETATM   21  C13 UNL     1       1.038  -1.957  -1.123  1.00  0.00     0.011 A 
HETATM   22  C14 UNL     1       1.559  -3.230  -0.867  1.00  0.00     0.037 A 
HETATM   23  C15 UNL     1       2.458  -3.449   0.162  1.00  0.00     0.065 A 
HETATM   24  C16 UNL     1       2.865  -2.390   0.974  1.00  0.00     0.037 A 
HETATM   25  C17 UNL     1       2.378  -1.120   0.759  1.00  0.00     0.011 A 
BRANCH  23  26
HETATM   26  O2  UNL     1       2.953  -4.740   0.380  1.00  0.00    -0.361 OA
HETATM   27  H16 UNL     1       3.860  -4.876   0.764  1.00  0.00     0.217 HD
ENDBRANCH  23  26
ENDBRANCH  19  20
ENDBRANCH   1  19
TORSDOF 11
