REMARK  8 active torsions:
REMARK  status: ('A' for Active; 'I' for Inactive)
REMARK    1  A    between atoms: C2_2  and  N1_3 
REMARK    2  A    between atoms: C2_2  and  N2_19 
REMARK    3  A    between atoms: N1_3  and  C3_4 
REMARK    4  A    between atoms: N1_3  and  C9_11 
REMARK    5  A    between atoms: C3_4  and  C4_5 
REMARK    6  A    between atoms: C7_8  and  O1_9 
REMARK    7  A    between atoms: C14_17  and  O2_18 
REMARK    8  A    between atoms: C19_24  and  S1_25 
ROOT
HETATM    1  N1  UNL     1       0.156  -0.249   0.282  1.00  0.00    -0.356 N 
ENDROOT
BRANCH   1   2
HETATM    2  C2  UNL     1      -0.952  -1.165   0.498  1.00  0.00     0.183 C 
HETATM    3  C1  UNL     1      -0.536  -2.569   0.002  1.00  0.00     0.056 C 
BRANCH   2   4
HETATM    4  N2  UNL     1      -2.188  -0.764  -0.123  1.00  0.00    -0.353 N 
HETATM    5  C15 UNL     1      -2.198  -0.421  -1.525  1.00  0.00     0.089 A 
HETATM    6  C16 UNL     1      -3.325  -0.054  -2.155  1.00  0.00     0.017 A 
HETATM    7  C17 UNL     1      -4.550  -0.016  -1.380  1.00  0.00     0.000 A 
HETATM    8  C18 UNL     1      -4.603  -0.326  -0.101  1.00  0.00     0.009 A 
HETATM    9  C19 UNL     1      -3.427  -0.745   0.671  1.00  0.00     0.168 A 
BRANCH   9  10
HETATM   10  S1  UNL     1      -3.258   0.069   2.249  1.00  0.00    -0.153 SA
HETATM   11  H21 UNL     1      -4.301  -0.299   3.117  1.00  0.00     0.104 HD
ENDBRANCH   9  10
ENDBRANCH   2   4
ENDBRANCH   1   2
BRANCH   1  12
HETATM   12  C3  UNL     1       1.256  -0.642   1.106  1.00  0.00     0.138 C 
BRANCH  12  13
HETATM   13  C4  UNL     1       2.560   0.032   0.868  1.00  0.00     0.051 A 
HETATM   14  C5  UNL     1       3.520  -0.497   1.913  1.00  0.00    -0.014 A 
HETATM   15  C6  UNL     1       4.548  -1.231   1.455  1.00  0.00     0.033 A 
HETATM   16  C7  UNL     1       4.349  -1.249   0.012  1.00  0.00     0.062 A 
HETATM   17  C8  UNL     1       3.256  -0.558  -0.344  1.00  0.00     0.020 A 
BRANCH  16  18
HETATM   18  O1  UNL     1       5.412  -2.012  -0.528  1.00  0.00    -0.361 OA
HETATM   19  H10 UNL     1       5.394  -2.324  -1.504  1.00  0.00     0.217 HD
ENDBRANCH  16  18
ENDBRANCH  12  13
ENDBRANCH   1  12
BRANCH   1  20
HETATM   20  C9  UNL     1       0.430   0.944  -0.447  1.00  0.00     0.066 A 
HETATM   21  C10 UNL     1       0.989   1.239  -1.669  1.00  0.00     0.032 A 
HETATM   22  C11 UNL     1       1.103   2.541  -2.097  1.00  0.00     0.004 A 
HETATM   23  C12 UNL     1       0.659   3.603  -1.311  1.00  0.00     0.022 A 
HETATM   24  C13 UNL     1       0.098   3.321  -0.095  1.00  0.00     0.046 A 
HETATM   25 BR1  UNL     1      -0.479   4.860   0.883  1.00  0.00    -0.048 Br
HETATM   26  C14 UNL     1      -0.026   2.001   0.359  1.00  0.00     0.109 A 
BRANCH  26  27
HETATM   27  O2  UNL     1      -0.616   1.964   1.607  1.00  0.00    -0.357 OA
HETATM   28  H15 UNL     1      -1.504   2.416   1.728  1.00  0.00     0.217 HD
ENDBRANCH  26  27
ENDBRANCH   1  20
TORSDOF 8
