REMARK  1 active torsions:
REMARK  status: ('A' for Active; 'I' for Inactive)
REMARK    1  A    between atoms: C15_19  and  O2_20 
ROOT
HETATM    1  C1  UNL     1       3.879   0.006  -0.741  1.00  0.00     0.022 C 
HETATM    2  C2  UNL     1       2.917   0.067   0.200  1.00  0.00    -0.031 C 
HETATM    3  C3  UNL     1       2.107   1.303   0.347  1.00  0.00     0.060 C 
HETATM    4  C4  UNL     1       0.790   1.157  -0.324  1.00  0.00     0.132 C 
HETATM    5  N1  UNL     1      -0.150   0.353   0.427  1.00  0.00    -0.362 N 
HETATM    6  C5  UNL     1      -1.222   0.561  -0.342  1.00  0.00     0.001 C 
HETATM    7  C6  UNL     1      -2.392   0.927  -0.973  1.00  0.00     0.035 A 
HETATM    8  C7  UNL     1      -3.493   0.429  -1.907  1.00  0.00     0.019 A 
HETATM    9  C8  UNL     1      -2.578  -0.337  -1.529  1.00  0.00    -0.004 A 
HETATM   10  C9  UNL     1      -3.035  -1.293  -0.387  1.00  0.00     0.116 C 
HETATM   11  S1  UNL     1      -3.696  -0.254   0.953  1.00  0.00    -0.011 SA
HETATM   12  O1  UNL     1      -3.115   1.265   1.203  1.00  0.00    -0.319 OA
HETATM   13  C10 UNL     1      -2.656   2.019   0.068  1.00  0.00     0.202 C 
HETATM   14  C11 UNL     1      -1.120  -0.362  -1.705  1.00  0.00     0.065 C 
HETATM   15  C12 UNL     1      -0.219  -0.451   1.550  1.00  0.00     0.092 C 
HETATM   16  C13 UNL     1       0.638  -1.342   2.082  1.00  0.00     0.044 C 
HETATM   17  C14 UNL     1       1.989  -1.839   1.715  1.00  0.00     0.069 C 
HETATM   18 CL1  UNL     1       2.421  -3.388   2.383  1.00  0.00    -0.081 Cl
HETATM   19  C15 UNL     1       2.890  -1.218   0.935  1.00  0.00     0.092 C 
ENDROOT
BRANCH  19  20
HETATM   20  O2  UNL     1       4.025  -2.018   0.840  1.00  0.00    -0.358 OA
HETATM   21  H16 UNL     1       4.778  -1.666   0.255  1.00  0.00     0.217 HD
ENDBRANCH  19  20
TORSDOF 1
