REMARK  10 active torsions:
REMARK  status: ('A' for Active; 'I' for Inactive)
REMARK    1  A    between atoms: O1_1  and  C1_2 
REMARK    2  A    between atoms: C1_2  and  C2_3 
REMARK    3  A    between atoms: C3_4  and  C4_5 
REMARK    4  A    between atoms: C4_5  and  C5_6 
REMARK    5  A    between atoms: C5_6  and  N1_7 
REMARK    6  A    between atoms: N1_7  and  C6_8 
REMARK    7  A    between atoms: N1_7  and  C13_16 
REMARK    8  A    between atoms: C6_8  and  C7_9 
REMARK    9  A    between atoms: C13_16  and  N2_18 
REMARK   10  A    between atoms: N2_18  and  C14_19 
ROOT
HETATM    1  N1  UNL     1      -0.375  -0.778  -0.584  1.00  0.00    -0.354 N 
ENDROOT
BRANCH   1   2
HETATM    2  C5  UNL     1      -1.705  -0.569  -0.132  1.00  0.00     0.129 C 
BRANCH   2   3
HETATM    3  C4  UNL     1      -1.945   0.641   0.717  1.00  0.00     0.047 C 
BRANCH   3   4
HETATM    4  C3  UNL     1      -1.645   1.928   0.043  1.00  0.00    -0.027 C 
HETATM    5  C2  UNL     1      -2.545   2.911  -0.164  1.00  0.00    -0.005 C 
BRANCH   5   6
HETATM    6  C1  UNL     1      -2.657   4.271  -0.760  1.00  0.00     0.191 C 
BRANCH   6   7
HETATM    7  O1  UNL     1      -1.374   4.580  -1.251  1.00  0.00    -0.397 OA
HETATM    8  H1  UNL     1      -1.432   4.495  -2.230  1.00  0.00     0.209 HD
ENDBRANCH   6   7
ENDBRANCH   5   6
ENDBRANCH   3   4
ENDBRANCH   2   3
ENDBRANCH   1   2
BRANCH   1   9
HETATM    9  C6  UNL     1      -0.430  -1.946  -1.449  1.00  0.00     0.164 C 
BRANCH   9  10
HETATM   10  C7  UNL     1      -0.930  -3.160  -0.761  1.00  0.00    -0.039 A 
HETATM   11  C8  UNL     1      -0.074  -4.036  -0.088  1.00  0.00     0.009 A 
HETATM   12  C9  UNL     1      -0.580  -5.174   0.545  1.00  0.00     0.002 A 
HETATM   13  C10 UNL     1      -1.924  -5.478   0.533  1.00  0.00     0.019 A 
HETATM   14  C11 UNL     1      -2.800  -4.636  -0.122  1.00  0.00     0.011 A 
HETATM   15 BR1  UNL     1      -4.676  -4.982  -0.189  1.00  0.00    -0.051 Br
HETATM   16  C12 UNL     1      -2.272  -3.521  -0.737  1.00  0.00     0.027 A 
ENDBRANCH   9  10
ENDBRANCH   1   9
BRANCH   1  17
HETATM   17  C13 UNL     1       0.892  -0.166  -0.376  1.00  0.00     0.174 C 
HETATM   18  S1  UNL     1       2.194  -0.805  -1.174  1.00  0.00    -0.041 SA
BRANCH  17  19
HETATM   19  N2  UNL     1       1.404   0.922   0.377  1.00  0.00    -0.333 N 
HETATM   20  H16 UNL     1       1.007   1.639   1.044  1.00  0.00     0.168 HD
BRANCH  19  21
HETATM   21  C14 UNL     1       2.723   1.477   0.523  1.00  0.00     0.034 A 
HETATM   22  C15 UNL     1       3.147   2.490  -0.339  1.00  0.00     0.029 A 
HETATM   23  C16 UNL     1       4.420   3.064  -0.253  1.00  0.00     0.002 A 
HETATM   24  C17 UNL     1       5.178   2.522   0.755  1.00  0.00     0.000 A 
HETATM   25  C18 UNL     1       4.877   1.531   1.662  1.00  0.00     0.002 A 
HETATM   26  C19 UNL     1       3.594   1.009   1.514  1.00  0.00     0.029 A 
ENDBRANCH  19  21
ENDBRANCH  17  19
ENDBRANCH   1  17
TORSDOF 10
