REMARK  5 active torsions:
REMARK  status: ('A' for Active; 'I' for Inactive)
REMARK    1  A    between atoms: C2_2  and  C3_3 
REMARK    2  A    between atoms: C3_3  and  C4_4 
REMARK    3  A    between atoms: C10_13  and  C11_14 
REMARK    4  A    between atoms: C11_14  and  C12_15 
REMARK    5  A    between atoms: C13_16  and  O2_17 
ROOT
HETATM    1  C3  UNL     1      -2.877   0.778  -0.035  1.00  0.00     0.104 C 
HETATM    2  N1  UNL     1      -1.728   0.089   0.120  1.00  0.00    -0.384 N 
HETATM    3  C6  UNL     1      -0.772   0.619   1.046  1.00  0.00     0.126 C 
HETATM    4  C7  UNL     1      -0.078   1.880   0.721  1.00  0.00     0.024 A 
HETATM    5  C8  UNL     1       1.213   2.215   0.342  1.00  0.00     0.008 A 
HETATM    6  O1  UNL     1       0.827   0.904   0.572  1.00  0.00     0.000 OA
HETATM    7  C9  UNL     1       2.547   1.611  -0.036  1.00  0.00    -0.011 C 
HETATM    8  C10 UNL     1       3.180   0.415  -0.287  1.00  0.00    -0.079 C 
HETATM    9  C14 UNL     1       2.224  -0.618  -0.513  1.00  0.00     0.040 C 
HETATM   10  C15 UNL     1       2.179  -1.799   0.364  1.00  0.00     0.061 C 
HETATM   11  C16 UNL     1       0.836  -2.452  -0.012  1.00  0.00     0.006 C 
HETATM   12  C17 UNL     1       0.491  -3.697   0.220  1.00  0.00     0.024 C 
HETATM   13  C18 UNL     1      -0.828  -4.304   0.340  1.00  0.00    -0.002 C 
HETATM   14  C19 UNL     1      -1.955  -3.675  -0.046  1.00  0.00    -0.023 C 
HETATM   15  C20 UNL     1      -2.449  -2.290  -0.403  1.00  0.00     0.073 C 
HETATM   16  C21 UNL     1      -1.475  -1.278   0.017  1.00  0.00     0.182 C 
HETATM   17  N2  UNL     1      -0.205  -1.628  -0.670  1.00  0.00    -0.372 N 
HETATM   18  H12 UNL     1       1.296   0.475   1.477  1.00  0.00     0.000 HD
HETATM   19  H29 UNL     1      -0.496  -1.102  -1.550  1.00  0.00     0.161 HD
ENDROOT
BRANCH   1  20
HETATM   20  C2  UNL     1      -3.857   0.925   1.110  1.00  0.00     0.024 C 
HETATM   21  C1  UNL     1      -4.828   2.080   0.802  1.00  0.00     0.007 C 
ENDBRANCH   1  20
BRANCH   1  22
HETATM   22  C4  UNL     1      -3.681   0.483  -1.273  1.00  0.00     0.005 C 
HETATM   23  C5  UNL     1      -3.590   1.162  -2.424  1.00  0.00     0.054 C 
HETATM   24 BR1  UNL     1      -2.289   2.575  -2.292  1.00  0.00    -0.064 Br
ENDBRANCH   1  22
BRANCH   8  25
HETATM   25  C11 UNL     1       4.583   0.260  -0.609  1.00  0.00     0.062 C 
BRANCH  25  26
HETATM   26  C12 UNL     1       5.359   1.532  -0.659  1.00  0.00     0.001 C 
HETATM   27  C13 UNL     1       6.102   2.487  -1.152  1.00  0.00     0.127 C 
BRANCH  27  28
HETATM   28  O2  UNL     1       6.698   3.690  -0.810  1.00  0.00    -0.373 OA
HETATM   29  H18 UNL     1       6.247   4.246  -0.086  1.00  0.00     0.216 HD
ENDBRANCH  27  28
ENDBRANCH  25  26
ENDBRANCH   8  25
TORSDOF 5
