REMARK  8 active torsions:
REMARK  status: ('A' for Active; 'I' for Inactive)
REMARK    1  A    between atoms: O1_1  and  C1_2 
REMARK    2  A    between atoms: C4_5  and  C5_6 
REMARK    3  A    between atoms: C5_6  and  N1_7 
REMARK    4  A    between atoms: N1_7  and  C6_8 
REMARK    5  A    between atoms: N1_7  and  C13_17 
REMARK    6  A    between atoms: C6_8  and  C7_9 
REMARK    7  A    between atoms: C12_15  and  O2_16 
REMARK    8  A    between atoms: C13_17  and  C14_19 
ROOT
HETATM    1  N1  UNL     1       0.398  -0.608  -0.246  1.00  0.00    -0.363 N 
ENDROOT
BRANCH   1   2
HETATM    2  C5  UNL     1      -0.567  -0.477  -1.320  1.00  0.00     0.162 C 
BRANCH   2   3
HETATM    3  C4  UNL     1      -0.820   0.953  -1.677  1.00  0.00    -0.040 A 
HETATM    4  C3  UNL     1      -1.797   1.732  -1.094  1.00  0.00     0.011 A 
HETATM    5  C2  UNL     1      -1.943   3.040  -1.503  1.00  0.00     0.037 A 
HETATM    6  C1  UNL     1      -1.143   3.573  -2.470  1.00  0.00     0.065 A 
HETATM    7  C21 UNL     1      -0.153   2.808  -3.071  1.00  0.00     0.037 A 
HETATM    8  C20 UNL     1      -0.003   1.486  -2.659  1.00  0.00     0.011 A 
BRANCH   6   9
HETATM    9  O1  UNL     1      -1.344   4.904  -2.837  1.00  0.00    -0.361 OA
HETATM   10  H1  UNL     1      -2.306   5.219  -2.930  1.00  0.00     0.217 HD
ENDBRANCH   6   9
ENDBRANCH   2   3
ENDBRANCH   1   2
BRANCH   1  11
HETATM   11  C6  UNL     1       1.681  -0.050  -0.535  1.00  0.00     0.165 C 
BRANCH  11  12
HETATM   12  C7  UNL     1       2.661  -0.171   0.563  1.00  0.00    -0.006 A 
HETATM   13  C8  UNL     1       3.632  -1.167   0.413  1.00  0.00     0.012 A 
HETATM   14  C9  UNL     1       4.568  -1.318   1.420  1.00  0.00     0.002 A 
HETATM   15  C10 UNL     1       4.501  -0.482   2.523  1.00  0.00     0.022 A 
HETATM   16  C11 UNL     1       3.544   0.493   2.661  1.00  0.00     0.044 A 
HETATM   17 BR1  UNL     1       3.583   1.566   4.239  1.00  0.00    -0.048 Br
HETATM   18  C12 UNL     1       2.588   0.665   1.657  1.00  0.00     0.090 A 
BRANCH  18  19
HETATM   19  O2  UNL     1       1.642   1.637   1.805  1.00  0.00    -0.359 OA
HETATM   20  H11 UNL     1       0.667   1.376   1.862  1.00  0.00     0.217 HD
ENDBRANCH  18  19
ENDBRANCH  11  12
ENDBRANCH   1  11
BRANCH   1  21
HETATM   21  C13 UNL     1      -0.061  -1.267   0.927  1.00  0.00     0.109 C 
HETATM   22  S1  UNL     1       0.751  -1.584   2.305  1.00  0.00    -0.060 SA
BRANCH  21  23
HETATM   23  C14 UNL     1      -1.441  -1.733   0.921  1.00  0.00     0.002 A 
HETATM   24  C15 UNL     1      -1.694  -2.939   0.308  1.00  0.00     0.014 A 
HETATM   25  C16 UNL     1      -2.991  -3.410   0.284  1.00  0.00     0.001 A 
HETATM   26  C17 UNL     1      -4.029  -2.731   0.842  1.00  0.00     0.000 A 
HETATM   27  C18 UNL     1      -3.759  -1.522   1.453  1.00  0.00     0.001 A 
HETATM   28  C19 UNL     1      -2.460  -1.007   1.500  1.00  0.00     0.014 A 
ENDBRANCH  21  23
ENDBRANCH   1  21
TORSDOF 8
