REMARK  8 active torsions:
REMARK  status: ('A' for Active; 'I' for Inactive)
REMARK    1  A    between atoms: O1_1  and  C1_2 
REMARK    2  A    between atoms: C4_5  and  C5_6 
REMARK    3  A    between atoms: C5_6  and  N1_7 
REMARK    4  A    between atoms: N1_7  and  C6_8 
REMARK    5  A    between atoms: N1_7  and  C12_15 
REMARK    6  A    between atoms: C6_8  and  O2_9 
REMARK    7  A    between atoms: O2_9  and  C7_10 
REMARK    8  A    between atoms: C13_16  and  S1_17 
ROOT
HETATM    1  N1  UNL     1       0.194   0.428   0.778  1.00  0.00    -0.341 N 
ENDROOT
BRANCH   1   2
HETATM    2  C5  UNL     1       1.407   0.098   1.500  1.00  0.00     0.165 C 
BRANCH   2   3
HETATM    3  C4  UNL     1       2.170  -0.975   0.777  1.00  0.00    -0.040 A 
HETATM    4  C3  UNL     1       1.887  -2.305   1.099  1.00  0.00     0.011 A 
HETATM    5  C2  UNL     1       2.502  -3.400   0.524  1.00  0.00     0.037 A 
HETATM    6  C1  UNL     1       3.463  -3.146  -0.437  1.00  0.00     0.065 A 
HETATM    7  C18 UNL     1       3.769  -1.829  -0.781  1.00  0.00     0.037 A 
HETATM    8  C17 UNL     1       3.131  -0.757  -0.181  1.00  0.00     0.011 A 
BRANCH   6   9
HETATM    9  O1  UNL     1       4.094  -4.236  -1.028  1.00  0.00    -0.361 OA
HETATM   10  H1  UNL     1       4.811  -4.784  -0.594  1.00  0.00     0.217 HD
ENDBRANCH   6   9
ENDBRANCH   2   3
ENDBRANCH   1   2
BRANCH   1  11
HETATM   11  C6  UNL     1      -0.836  -0.564   0.561  1.00  0.00     0.302 C 
BRANCH  11  12
HETATM   12  O2  UNL     1      -1.939  -0.020  -0.151  1.00  0.00    -0.336 OA
BRANCH  12  13
HETATM   13  C7  UNL     1      -3.050  -0.788  -0.473  1.00  0.00     0.052 A 
HETATM   14  C8  UNL     1      -3.610  -1.328   0.621  1.00  0.00     0.032 A 
HETATM   15  C9  UNL     1      -4.756  -2.112   0.216  1.00  0.00    -0.001 A 
HETATM   16  C10 UNL     1      -4.882  -2.042  -1.104  1.00  0.00    -0.020 A 
HETATM   17  C11 UNL     1      -3.810  -1.196  -1.656  1.00  0.00     0.091 A 
ENDBRANCH  12  13
ENDBRANCH  11  12
ENDBRANCH   1  11
BRANCH   1  18
HETATM   18  C12 UNL     1       0.084   1.753   0.292  1.00  0.00     0.115 C 
HETATM   19  C13 UNL     1      -0.432   2.820   0.873  1.00  0.00     0.033 C 
HETATM   20  C14 UNL     1      -0.383   4.065   0.066  1.00  0.00     0.052 C 
HETATM   21  C15 UNL     1       1.011   4.222  -0.507  1.00  0.00     0.025 C 
HETATM   22  C16 UNL     1       1.322   3.098  -1.478  1.00  0.00     0.121 C 
HETATM   23  N2  UNL     1       0.641   1.863  -1.036  1.00  0.00    -0.376 N 
HETATM   24  H19 UNL     1       0.587   1.098  -1.715  1.00  0.00     0.161 HD
BRANCH  19  25
HETATM   25  S1  UNL     1      -1.183   3.036   2.462  1.00  0.00    -0.048 SA
HETATM   26 BR1  UNL     1      -1.304   1.181   3.689  1.00  0.00    -0.006 Br
ENDBRANCH  19  25
ENDBRANCH   1  18
TORSDOF 8
