REMARK  8 active torsions:
REMARK  status: ('A' for Active; 'I' for Inactive)
REMARK    1  A    between atoms: C6_6  and  C7_7 
REMARK    2  A    between atoms: C7_7  and  N1_8 
REMARK    3  A    between atoms: N1_8  and  C8_9 
REMARK    4  A    between atoms: N1_8  and  C14_17 
REMARK    5  A    between atoms: C8_9  and  C9_11 
REMARK    6  A    between atoms: C13_15  and  N2_16 
REMARK    7  A    between atoms: C17_20  and  O1_21 
REMARK    8  A    between atoms: C20_24  and  O2_25 
ROOT
HETATM    1  N1  UNL     1      -0.265   0.273   0.486  1.00  0.00    -0.336 N 
ENDROOT
BRANCH   1   2
HETATM    2  C7  UNL     1       1.021  -0.314   0.753  1.00  0.00     0.171 C 
BRANCH   2   3
HETATM    3  C6  UNL     1       1.702  -0.778  -0.498  1.00  0.00    -0.006 A 
HETATM    4  C5  UNL     1       1.269  -0.643  -1.800  1.00  0.00     0.012 A 
HETATM    5  C4  UNL     1       2.015  -1.119  -2.836  1.00  0.00     0.001 A 
HETATM    6  C3  UNL     1       3.216  -1.741  -2.566  1.00  0.00     0.009 A 
HETATM    7  C2  UNL     1       3.680  -1.894  -1.287  1.00  0.00    -0.028 A 
HETATM    8  C1  UNL     1       4.997  -2.579  -1.050  1.00  0.00     0.051 C 
HETATM    9  C20 UNL     1       2.923  -1.411  -0.240  1.00  0.00     0.079 A 
BRANCH   9  10
HETATM   10  O2  UNL     1       3.451  -1.600   1.019  1.00  0.00    -0.360 OA
HETATM   11  H20 UNL     1       3.676  -0.889   1.689  1.00  0.00     0.217 HD
ENDBRANCH   9  10
ENDBRANCH   2   3
ENDBRANCH   1   2
BRANCH   1  12
HETATM   12  C8  UNL     1      -1.191  -0.736   0.026  1.00  0.00     0.093 C 
HETATM   13  S1  UNL     1      -0.616  -2.291  -0.078  1.00  0.00    -0.064 SA
BRANCH  12  14
HETATM   14  C9  UNL     1      -2.593  -0.743  -0.382  1.00  0.00     0.114 A 
HETATM   15  C10 UNL     1      -3.035  -2.055  -0.983  1.00  0.00    -0.009 A 
HETATM   16  C11 UNL     1      -4.035  -2.635  -0.319  1.00  0.00    -0.001 A 
HETATM   17  C12 UNL     1      -4.354  -1.743   0.806  1.00  0.00     0.020 A 
HETATM   18  C13 UNL     1      -3.549  -0.688   0.771  1.00  0.00    -0.003 A 
BRANCH  18  19
HETATM   19  N2  UNL     1      -3.867   0.180   1.880  1.00  0.00    -0.305 NA
HETATM   20  H13 UNL     1      -3.501   0.347   2.842  1.00  0.00     0.124 HD
HETATM   21  H14 UNL     1      -3.337   0.164   2.780  1.00  0.00     0.124 HD
ENDBRANCH  18  19
ENDBRANCH  12  14
ENDBRANCH   1  12
BRANCH   1  22
HETATM   22  C14 UNL     1      -0.488   1.654   0.654  1.00  0.00     0.035 A 
HETATM   23  C15 UNL     1       0.561   2.436   1.066  1.00  0.00     0.032 A 
HETATM   24  C16 UNL     1       0.467   3.792   1.268  1.00  0.00     0.039 A 
HETATM   25  C17 UNL     1      -0.720   4.449   1.060  1.00  0.00     0.065 A 
HETATM   26  C18 UNL     1      -1.813   3.727   0.646  1.00  0.00     0.039 A 
HETATM   27  C19 UNL     1      -1.637   2.376   0.467  1.00  0.00     0.032 A 
BRANCH  25  28
HETATM   28  O1  UNL     1      -0.859   5.815   1.252  1.00  0.00    -0.361 OA
HETATM   29  H17 UNL     1      -0.204   6.457   0.826  1.00  0.00     0.217 HD
ENDBRANCH  25  28
ENDBRANCH   1  22
TORSDOF 8
