REMARK  3 active torsions:
REMARK  status: ('A' for Active; 'I' for Inactive)
REMARK    1  A    between atoms: O1_1  and  C1_2 
REMARK    2  A    between atoms: C6_8  and  C7_9 
REMARK    3  A    between atoms: C7_9  and  N1_10 
ROOT
HETATM    1  N1  UNL     1       1.448  -0.392   1.160  1.00  0.00    -0.345 N 
HETATM    2  C8  UNL     1       1.162  -1.064   2.459  1.00  0.00     0.152 C 
HETATM    3  C9  UNL     1      -0.283  -1.337   2.416  1.00  0.00    -0.007 C 
HETATM    4  C10 UNL     1      -1.533  -1.694   2.404  1.00  0.00    -0.003 C 
HETATM    5  C11 UNL     1      -2.956  -1.959   2.358  1.00  0.00    -0.004 C 
HETATM    6  C12 UNL     1      -3.657  -0.895   2.002  1.00  0.00    -0.022 C 
HETATM    7  C13 UNL     1      -3.279   0.475   1.649  1.00  0.00     0.068 C 
HETATM    8  C14 UNL     1      -3.224   0.626   0.150  1.00  0.00    -0.018 A 
HETATM    9  C15 UNL     1      -4.391   0.674  -0.535  1.00  0.00     0.010 A 
HETATM   10  C16 UNL     1      -4.376   0.750  -1.897  1.00  0.00     0.001 A 
HETATM   11  C17 UNL     1      -3.287   0.787  -2.732  1.00  0.00     0.002 A 
HETATM   12  C18 UNL     1      -2.119   0.734  -1.951  1.00  0.00     0.039 A 
HETATM   13  C19 UNL     1      -2.018   0.656  -0.558  1.00  0.00     0.162 A 
HETATM   14  N2  UNL     1      -0.574   0.666  -0.479  1.00  0.00     0.071 N 
HETATM   15  C20 UNL     1       0.477   0.162   0.304  1.00  0.00     0.290 A 
HETATM   16  S1  UNL     1       1.087   1.086  -0.941  1.00  0.00     0.151 SA
HETATM   17  H19 UNL     1      -0.967   0.057   0.221  1.00  0.00     0.312 HD
ENDROOT
BRANCH   1  18
HETATM   18  C7  UNL     1       2.866  -0.309   1.045  1.00  0.00     0.166 C 
BRANCH  18  19
HETATM   19  C6  UNL     1       3.403   0.222  -0.201  1.00  0.00    -0.006 A 
HETATM   20  C1  UNL     1       3.486  -0.485  -1.404  1.00  0.00     0.090 A 
HETATM   21  C2  UNL     1       4.020   0.073  -2.546  1.00  0.00     0.044 A 
HETATM   22 BR1  UNL     1       4.059  -1.028  -4.111  1.00  0.00    -0.048 Br
HETATM   23  C3  UNL     1       4.493   1.368  -2.523  1.00  0.00     0.022 A 
HETATM   24  C4  UNL     1       4.440   2.116  -1.370  1.00  0.00     0.002 A 
HETATM   25  C5  UNL     1       3.894   1.533  -0.218  1.00  0.00     0.012 A 
BRANCH  20  26
HETATM   26  O1  UNL     1       2.983  -1.799  -1.352  1.00  0.00    -0.359 OA
HETATM   27  H1  UNL     1       3.153  -2.393  -2.172  1.00  0.00     0.217 HD
ENDBRANCH  20  26
ENDBRANCH  18  19
ENDBRANCH   1  18
TORSDOF 3
