REMARK  9 active torsions:
REMARK  status: ('A' for Active; 'I' for Inactive)
REMARK    1  A    between atoms: C2_2  and  C3_4 
REMARK    2  A    between atoms: C3_4  and  N1_5 
REMARK    3  A    between atoms: C4_6  and  C5_7 
REMARK    4  A    between atoms: C5_7  and  C6_8 
REMARK    5  A    between atoms: C6_8  and  N2_9 
REMARK    6  A    between atoms: N2_9  and  C7_10 
REMARK    7  A    between atoms: C7_10  and  C8_11 
REMARK    8  A    between atoms: C8_11  and  N3_12 
REMARK    9  A    between atoms: C15_20  and  O2_21 
ROOT
HETATM    1  C7  UNL     1       0.138  -1.445  -0.509  1.00  0.00     0.045 C 
HETATM    2  C9  UNL     1      -0.996  -1.215   0.083  1.00  0.00    -0.003 C 
HETATM    3  C10 UNL     1      -1.968  -1.718   1.161  1.00  0.00     0.210 C 
HETATM    4  O1  UNL     1      -3.238  -1.201   1.104  1.00  0.00    -0.372 OA
HETATM    5  C11 UNL     1      -3.629  -0.016   1.529  1.00  0.00     0.184 A 
HETATM    6  C12 UNL     1      -2.649   1.090   1.526  1.00  0.00     0.005 A 
HETATM    7  C13 UNL     1      -2.686   0.673   0.221  1.00  0.00     0.056 A 
HETATM    8  C14 UNL     1      -4.052   0.482  -0.416  1.00  0.00     0.030 C 
HETATM    9  C15 UNL     1      -4.673   0.784   0.712  1.00  0.00     0.074 C 
HETATM   10  C17 UNL     1      -1.554   0.053  -0.621  1.00  0.00    -0.038 C 
HETATM   11  C18 UNL     1      -1.320   0.669  -1.735  1.00  0.00     0.021 C 
ENDROOT
BRANCH   1  12
HETATM   12  N2  UNL     1       0.884  -0.815  -1.536  1.00  0.00    -0.370 N 
HETATM   13  H8  UNL     1       0.637  -0.766  -2.532  1.00  0.00     0.164 HD
BRANCH  12  14
HETATM   14  C6  UNL     1       2.133  -0.184  -1.168  1.00  0.00     0.070 C 
BRANCH  14  15
HETATM   15  C5  UNL     1       3.397   0.138  -0.990  1.00  0.00     0.061 C 
BRANCH  15  16
HETATM   16  C4  UNL     1       4.784  -0.207  -1.224  1.00  0.00     0.014 C 
HETATM   17  C3  UNL     1       5.248   0.870  -0.569  1.00  0.00     0.040 C 
BRANCH  17  18
HETATM   18  C2  UNL     1       4.519   1.958   0.113  1.00  0.00     0.035 A 
HETATM   19  C1  UNL     1       4.882   3.064   0.788  1.00  0.00     0.155 A 
HETATM   20 CL1  UNL     1       3.169   2.894   0.715  1.00  0.00    -0.179 Cl
ENDBRANCH  17  18
BRANCH  17  21
HETATM   21  N1  UNL     1       6.636   1.214  -0.381  1.00  0.00    -0.398 N 
HETATM   22  H3  UNL     1       6.916   1.275  -1.401  1.00  0.00     0.156 HD
HETATM   23  H4  UNL     1       7.098   1.334   0.547  1.00  0.00     0.156 HD
ENDBRANCH  17  21
ENDBRANCH  15  16
ENDBRANCH  14  15
ENDBRANCH  12  14
ENDBRANCH   1  12
BRANCH   1  24
HETATM   24  C8  UNL     1       0.892  -2.612  -0.084  1.00  0.00     0.324 C 
BRANCH  24  25
HETATM   25  N3  UNL     1       0.271  -3.383   0.956  1.00  0.00     0.083 N 
HETATM   26  H11 UNL     1      -0.017  -4.311   0.644  1.00  0.00     0.313 HD
HETATM   27  H12 UNL     1       0.881  -3.338   1.801  1.00  0.00     0.313 HD
ENDBRANCH  24  25
ENDBRANCH   1  24
BRANCH   9  28
HETATM   28  O2  UNL     1      -5.812   1.548   0.804  1.00  0.00    -0.358 OA
HETATM   29  C16 UNL     1      -7.005   0.980   1.304  1.00  0.00     0.209 C 
ENDBRANCH   9  28
TORSDOF 9
