REMARK  8 active torsions:
REMARK  status: ('A' for Active; 'I' for Inactive)
REMARK    1  A    between atoms: C5_5  and  N1_6 
REMARK    2  A    between atoms: N1_6  and  C6_7 
REMARK    3  A    between atoms: N1_6  and  C12_14 
REMARK    4  A    between atoms: C6_7  and  C7_8 
REMARK    5  A    between atoms: C10_11  and  O1_12 
REMARK    6  A    between atoms: C12_14  and  N2_16 
REMARK    7  A    between atoms: N2_16  and  C13_17 
REMARK    8  A    between atoms: C19_23  and  O2_24 
ROOT
HETATM    1  N1  UNL     1      -0.595  -0.050  -0.017  1.00  0.00    -0.343 N 
ENDROOT
BRANCH   1   2
HETATM    2  C5  UNL     1      -1.928   0.163  -0.535  1.00  0.00     0.166 C 
HETATM    3  C4  UNL     1      -2.104  -0.617  -1.825  1.00  0.00     0.001 C 
HETATM    4  C3  UNL     1      -2.777  -1.737  -1.989  1.00  0.00    -0.020 C 
HETATM    5  C2  UNL     1      -3.495  -2.427  -0.868  1.00  0.00     0.029 C 
HETATM    6  C1  UNL     1      -2.658  -3.558  -0.343  1.00  0.00     0.018 C 
HETATM    7  C20 UNL     1      -3.678  -1.435   0.220  1.00  0.00     0.016 C 
HETATM    8  C19 UNL     1      -3.014  -0.283   0.408  1.00  0.00     0.066 C 
BRANCH   8   9
HETATM    9  O2  UNL     1      -3.349   0.524   1.509  1.00  0.00    -0.363 OA
HETATM   10  H21 UNL     1      -4.054   0.225   2.135  1.00  0.00     0.217 HD
ENDBRANCH   8   9
ENDBRANCH   1   2
BRANCH   1  11
HETATM   11  C6  UNL     1       0.428   0.340  -0.957  1.00  0.00     0.139 C 
BRANCH  11  12
HETATM   12  C7  UNL     1       0.595   1.775  -1.252  1.00  0.00     0.051 A 
HETATM   13  C8  UNL     1      -0.519   2.510  -1.825  1.00  0.00    -0.014 A 
HETATM   14  C9  UNL     1      -0.765   3.644  -1.144  1.00  0.00     0.033 A 
HETATM   15  C10 UNL     1       0.224   3.697  -0.046  1.00  0.00     0.062 A 
HETATM   16  C11 UNL     1       1.006   2.623  -0.106  1.00  0.00     0.020 A 
BRANCH  15  17
HETATM   17  O1  UNL     1       0.061   4.853   0.743  1.00  0.00    -0.361 OA
HETATM   18  H13 UNL     1       0.390   5.737   0.328  1.00  0.00     0.217 HD
ENDBRANCH  15  17
ENDBRANCH  11  12
ENDBRANCH   1  11
BRANCH   1  19
HETATM   19  C12 UNL     1      -0.143  -0.588   1.253  1.00  0.00     0.175 C 
HETATM   20  S1  UNL     1      -1.278  -1.067   2.358  1.00  0.00    -0.041 SA
BRANCH  19  21
HETATM   21  N2  UNL     1       1.198  -0.774   1.698  1.00  0.00    -0.333 N 
HETATM   22  H15 UNL     1       1.361  -1.177   2.641  1.00  0.00     0.168 HD
BRANCH  21  23
HETATM   23  C13 UNL     1       2.592  -0.664   1.453  1.00  0.00     0.034 A 
HETATM   24  C14 UNL     1       3.273  -1.699   0.830  1.00  0.00     0.029 A 
HETATM   25  C15 UNL     1       4.644  -1.599   0.569  1.00  0.00     0.002 A 
HETATM   26  C16 UNL     1       5.212  -0.415   0.983  1.00  0.00     0.000 A 
HETATM   27  C17 UNL     1       4.628   0.664   1.606  1.00  0.00     0.002 A 
HETATM   28  C18 UNL     1       3.259   0.484   1.830  1.00  0.00     0.029 A 
ENDBRANCH  21  23
ENDBRANCH  19  21
ENDBRANCH   1  19
TORSDOF 8
