REMARK  9 active torsions:
REMARK  status: ('A' for Active; 'I' for Inactive)
REMARK    1  A    between atoms: C4_5  and  C5_6 
REMARK    2  A    between atoms: C5_6  and  C6_7 
REMARK    3  A    between atoms: C6_7  and  N1_8 
REMARK    4  A    between atoms: N1_8  and  C7_9 
REMARK    5  A    between atoms: N1_8  and  C14_17 
REMARK    6  A    between atoms: C7_9  and  C8_10 
REMARK    7  A    between atoms: C11_13  and  O2_14 
REMARK    8  A    between atoms: C14_17  and  N2_19 
REMARK    9  A    between atoms: N2_19  and  C15_20 
ROOT
HETATM    1  N1  UNL     1      -0.418   0.261  -1.098  1.00  0.00    -0.353 N 
ENDROOT
BRANCH   1   2
HETATM    2  C6  UNL     1       1.018   0.286  -0.901  1.00  0.00     0.132 C 
BRANCH   2   3
HETATM    3  C5  UNL     1       1.383  -0.893  -0.058  1.00  0.00     0.085 C 
BRANCH   3   4
HETATM    4  C4  UNL     1       2.850  -0.975   0.187  1.00  0.00     0.054 A 
HETATM    5  O1  UNL     1       3.742  -0.152  -0.244  1.00  0.00    -0.327 OA
HETATM    6  C3  UNL     1       4.961  -0.455   0.114  1.00  0.00     0.148 A 
HETATM    7  C2  UNL     1       4.901  -1.628   0.883  1.00  0.00    -0.037 A 
HETATM    8  C1  UNL     1       5.995  -2.425   1.548  1.00  0.00     0.050 C 
HETATM    9  C21 UNL     1       3.553  -1.918   0.902  1.00  0.00     0.041 A 
ENDBRANCH   3   4
ENDBRANCH   2   3
ENDBRANCH   1   2
BRANCH   1  10
HETATM   10  C7  UNL     1      -0.666   1.387  -1.979  1.00  0.00     0.163 C 
BRANCH  10  11
HETATM   11  C8  UNL     1      -0.320   2.694  -1.434  1.00  0.00    -0.040 A 
HETATM   12  C9  UNL     1       0.822   3.428  -1.490  1.00  0.00     0.011 A 
HETATM   13  C10 UNL     1       1.009   4.664  -0.920  1.00  0.00     0.037 A 
HETATM   14  C11 UNL     1      -0.054   5.240  -0.212  1.00  0.00     0.065 A 
HETATM   15  C12 UNL     1      -1.247   4.557  -0.110  1.00  0.00     0.037 A 
HETATM   16  C13 UNL     1      -1.339   3.326  -0.715  1.00  0.00     0.011 A 
BRANCH  14  17
HETATM   17  O2  UNL     1       0.140   6.482   0.360  1.00  0.00    -0.361 OA
HETATM   18  H13 UNL     1      -0.651   6.985   0.785  1.00  0.00     0.217 HD
ENDBRANCH  14  17
ENDBRANCH  10  11
ENDBRANCH   1  10
BRANCH   1  19
HETATM   19  C14 UNL     1      -1.567  -0.507  -0.683  1.00  0.00     0.174 C 
HETATM   20  S1  UNL     1      -3.011   0.018  -1.255  1.00  0.00    -0.041 SA
BRANCH  19  21
HETATM   21  N2  UNL     1      -1.816  -1.642   0.149  1.00  0.00    -0.333 N 
HETATM   22  H16 UNL     1      -1.000  -2.091   0.609  1.00  0.00     0.168 HD
BRANCH  21  23
HETATM   23  C15 UNL     1      -3.050  -2.309   0.468  1.00  0.00     0.034 A 
HETATM   24  C16 UNL     1      -3.235  -2.693   1.771  1.00  0.00     0.029 A 
HETATM   25  C17 UNL     1      -4.397  -3.335   2.126  1.00  0.00     0.002 A 
HETATM   26  C18 UNL     1      -5.328  -3.560   1.124  1.00  0.00     0.000 A 
HETATM   27  C19 UNL     1      -5.174  -3.189  -0.195  1.00  0.00     0.002 A 
HETATM   28  C20 UNL     1      -3.984  -2.542  -0.508  1.00  0.00     0.029 A 
ENDBRANCH  21  23
ENDBRANCH  19  21
ENDBRANCH   1  19
TORSDOF 9
