REMARK  3 active torsions:
REMARK  status: ('A' for Active; 'I' for Inactive)
REMARK    1  A    between atoms: N1_7  and  C7_8 
REMARK    2  A    between atoms: C7_8  and  C8_9 
REMARK    3  A    between atoms: C9_10  and  O1_11 
ROOT
HETATM    1  C1  UNL     1      -5.164  -1.052  -0.582  1.00  0.00     0.049 C 
HETATM    2  C2  UNL     1      -3.753  -0.741  -0.115  1.00  0.00    -0.050 C 
HETATM    3  C3  UNL     1      -2.934  -1.705   0.242  1.00  0.00     0.007 C 
HETATM    4  C4  UNL     1      -1.823  -2.521   0.690  1.00  0.00    -0.002 C 
HETATM    5  C5  UNL     1      -0.592  -2.231   1.116  1.00  0.00    -0.007 C 
HETATM    6  C6  UNL     1       0.125  -0.916   1.318  1.00  0.00     0.153 C 
HETATM    7  N1  UNL     1       1.033  -0.815   0.227  1.00  0.00    -0.351 N 
HETATM    8  C14 UNL     1       0.255   0.070  -0.652  1.00  0.00     0.174 C 
HETATM    9  S1  UNL     1       0.335   0.773  -2.107  1.00  0.00    -0.041 SA
HETATM   10  N2  UNL     1      -0.982   0.688  -0.521  1.00  0.00    -0.332 N 
HETATM   11  C15 UNL     1      -2.243   1.321  -0.392  1.00  0.00     0.045 A 
HETATM   12  C16 UNL     1      -2.106   2.688  -0.454  1.00  0.00     0.030 A 
HETATM   13  C17 UNL     1      -3.148   3.589  -0.327  1.00  0.00     0.002 A 
HETATM   14  C18 UNL     1      -4.342   2.955  -0.129  1.00  0.00     0.001 A 
HETATM   15  C19 UNL     1      -4.515   1.595  -0.062  1.00  0.00     0.014 A 
HETATM   16  C20 UNL     1      -3.488   0.711  -0.189  1.00  0.00    -0.004 A 
HETATM   17  H18 UNL     1      -1.241   0.479   0.414  1.00  0.00     0.168 HD
ENDROOT
BRANCH   7  18
HETATM   18  C7  UNL     1       2.211  -1.129  -0.489  1.00  0.00     0.163 C 
BRANCH  18  19
HETATM   19  C8  UNL     1       3.454  -0.588   0.157  1.00  0.00    -0.022 A 
HETATM   20  C9  UNL     1       3.580   0.130   1.268  1.00  0.00     0.070 A 
HETATM   21  C10 UNL     1       4.987   0.424   1.494  1.00  0.00     0.033 A 
HETATM   22  C11 UNL     1       5.695  -0.124   0.509  1.00  0.00    -0.015 A 
HETATM   23  C12 UNL     1       4.800  -0.815  -0.428  1.00  0.00     0.037 A 
HETATM   24  C13 UNL     1       4.796  -0.057  -1.763  1.00  0.00     0.019 C 
BRANCH  20  25
HETATM   25  O1  UNL     1       2.776   0.687   2.279  1.00  0.00    -0.360 OA
HETATM   26  H11 UNL     1       2.601   1.687   2.202  1.00  0.00     0.217 HD
ENDBRANCH  20  25
ENDBRANCH  18  19
ENDBRANCH   7  18
TORSDOF 3
