REMARK  4 active torsions:
REMARK  status: ('A' for Active; 'I' for Inactive)
REMARK    1  A    between atoms: C2_2  and  C3_3 
REMARK    2  A    between atoms: N2_15  and  C12_16 
REMARK    3  A    between atoms: C12_16  and  C13_17 
REMARK    4  A    between atoms: C14_18  and  O2_19 
ROOT
HETATM    1  C3  UNL     1       4.071  -0.883  -0.475  1.00  0.00     0.029 C 
HETATM    2  C4  UNL     1       2.872  -0.343  -0.390  1.00  0.00     0.038 C 
HETATM    3  N1  UNL     1       2.996   0.965   0.128  1.00  0.00    -0.327 N 
HETATM    4  C5  UNL     1       2.090   1.632   0.999  1.00  0.00     0.220 C 
HETATM    5  S1  UNL     1       2.439   3.165   1.508  1.00  0.00    -0.033 SA
HETATM    6  O1  UNL     1       0.862   1.293   1.597  1.00  0.00    -0.286 OA
HETATM    7  C6  UNL     1      -0.246   1.862   0.909  1.00  0.00     0.082 C 
HETATM    8  C7  UNL     1      -0.955   1.291  -0.055  1.00  0.00     0.042 C 
HETATM    9  C8  UNL     1      -1.980   2.266  -0.451  1.00  0.00     0.086 C 
HETATM   10  C9  UNL     1      -1.384   3.620  -0.793  1.00  0.00    -0.024 C 
HETATM   11  C10 UNL     1      -0.633   4.173   0.179  1.00  0.00    -0.024 C 
HETATM   12  C11 UNL     1      -0.625   3.232   1.336  1.00  0.00     0.094 C 
HETATM   13  N2  UNL     1      -0.798  -0.003  -0.623  1.00  0.00    -0.367 N 
HETATM   14  C18 UNL     1       0.628  -0.280  -0.588  1.00  0.00     0.143 C 
HETATM   15  C19 UNL     1       1.679  -1.109  -0.800  1.00  0.00    -0.032 C 
HETATM   16  C20 UNL     1       2.055  -2.502  -1.292  1.00  0.00     0.048 C 
HETATM   17  H5  UNL     1       3.798   1.579  -0.117  1.00  0.00     0.169 HD
ENDROOT
BRANCH  13  18
HETATM   18  C12 UNL     1      -2.010  -0.690  -1.051  1.00  0.00     0.161 C 
BRANCH  18  19
HETATM   19  C13 UNL     1      -2.882  -1.163   0.027  1.00  0.00    -0.019 A 
HETATM   20  C14 UNL     1      -3.056  -2.497   0.017  1.00  0.00     0.070 A 
HETATM   21  C15 UNL     1      -3.839  -3.317   0.915  1.00  0.00     0.043 A 
HETATM   22  C16 UNL     1      -4.498  -2.748   1.900  1.00  0.00     0.048 A 
HETATM   23  S2  UNL     1      -4.513  -1.013   2.238  1.00  0.00    -0.137 SA
HETATM   24  C17 UNL     1      -3.480  -0.207   0.986  1.00  0.00     0.117 A 
BRANCH  20  25
HETATM   25  O2  UNL     1      -2.437  -3.310  -0.958  1.00  0.00    -0.360 OA
HETATM   26  H14 UNL     1      -2.926  -3.280  -1.866  1.00  0.00     0.217 HD
ENDBRANCH  20  25
ENDBRANCH  18  19
ENDBRANCH  13  18
BRANCH   1  27
HETATM   27  C2  UNL     1       5.253  -0.178  -0.079  1.00  0.00    -0.008 C 
HETATM   28  C1  UNL     1       6.431  -0.759  -0.182  1.00  0.00     0.011 C 
ENDBRANCH   1  27
TORSDOF 4
