REMARK  8 active torsions:
REMARK  status: ('A' for Active; 'I' for Inactive)
REMARK    1  A    between atoms: C2_2  and  N1_3 
REMARK    2  A    between atoms: C2_2  and  N2_9 
REMARK    3  A    between atoms: N1_3  and  C3_4 
REMARK    4  A    between atoms: N2_9  and  C8_10 
REMARK    5  A    between atoms: N2_9  and  C15_18 
REMARK    6  A    between atoms: C8_10  and  C9_11 
REMARK    7  A    between atoms: C12_14  and  O1_15 
REMARK    8  A    between atoms: C20_25  and  O2_26 
ROOT
HETATM    1  N2  UNL     1       0.435   0.596   0.476  1.00  0.00    -0.327 N 
ENDROOT
BRANCH   1   2
HETATM    2  C2  UNL     1      -0.530  -0.372   0.106  1.00  0.00     0.095 C 
HETATM    3  C1  UNL     1      -0.354  -1.054  -1.014  1.00  0.00     0.063 C 
BRANCH   2   4
HETATM    4  N1  UNL     1      -1.678  -0.628   0.906  1.00  0.00    -0.366 N 
HETATM    5  H3  UNL     1      -1.917  -0.006   1.712  1.00  0.00     0.162 HD
BRANCH   4   6
HETATM    6  C3  UNL     1      -2.534  -1.754   0.619  1.00  0.00     0.129 A 
HETATM    7  C4  UNL     1      -3.663  -1.815   1.585  1.00  0.00     0.002 A 
HETATM    8  C5  UNL     1      -4.804  -1.738   0.915  1.00  0.00    -0.002 A 
HETATM    9  C6  UNL     1      -4.563  -1.621  -0.522  1.00  0.00    -0.002 A 
HETATM   10  C7  UNL     1      -3.241  -1.632  -0.676  1.00  0.00     0.002 A 
ENDBRANCH   4   6
ENDBRANCH   2   4
ENDBRANCH   1   2
BRANCH   1  11
HETATM   11  C8  UNL     1       1.717   0.325   1.047  1.00  0.00     0.169 C 
BRANCH  11  12
HETATM   12  C9  UNL     1       2.594  -0.512   0.184  1.00  0.00    -0.040 A 
HETATM   13  C10 UNL     1       2.541  -1.883   0.321  1.00  0.00     0.011 A 
HETATM   14  C11 UNL     1       3.355  -2.681  -0.479  1.00  0.00     0.037 A 
HETATM   15  C12 UNL     1       4.199  -2.061  -1.393  1.00  0.00     0.065 A 
HETATM   16  C13 UNL     1       4.245  -0.676  -1.522  1.00  0.00     0.037 A 
HETATM   17  C14 UNL     1       3.434   0.114  -0.725  1.00  0.00     0.011 A 
BRANCH  15  18
HETATM   18  O1  UNL     1       4.970  -2.958  -2.141  1.00  0.00    -0.361 OA
HETATM   19  H13 UNL     1       5.467  -3.732  -1.684  1.00  0.00     0.217 HD
ENDBRANCH  15  18
ENDBRANCH  11  12
ENDBRANCH   1  11
BRANCH   1  20
HETATM   20  C15 UNL     1      -0.132   1.859   0.165  1.00  0.00     0.072 A 
HETATM   21  C16 UNL     1      -0.545   2.317  -1.075  1.00  0.00     0.051 A 
HETATM   22  C17 UNL     1      -1.081   3.591  -1.194  1.00  0.00     0.014 A 
HETATM   23 BR1  UNL     1      -1.630   4.156  -2.941  1.00  0.00    -0.051 Br
HETATM   24  C18 UNL     1      -1.220   4.427  -0.107  1.00  0.00     0.041 A 
HETATM   25  C19 UNL     1      -0.806   3.957   1.118  1.00  0.00     0.047 A 
HETATM   26 BR2  UNL     1      -1.012   5.145   2.609  1.00  0.00    -0.048 Br
HETATM   27  C20 UNL     1      -0.264   2.682   1.264  1.00  0.00     0.110 A 
BRANCH  27  28
HETATM   28  O2  UNL     1       0.112   2.337   2.551  1.00  0.00    -0.357 OA
HETATM   29  H18 UNL     1       0.983   2.665   2.974  1.00  0.00     0.217 HD
ENDBRANCH  27  28
ENDBRANCH   1  20
TORSDOF 8
