REMARK  5 active torsions:
REMARK  status: ('A' for Active; 'I' for Inactive)
REMARK    1  A    between atoms: C2_2  and  C3_3 
REMARK    2  A    between atoms: N1_7  and  C7_8 
REMARK    3  A    between atoms: C7_8  and  C8_9 
REMARK    4  A    between atoms: C8_9  and  C9_10 
REMARK    5  A    between atoms: C14_15  and  O1_16 
ROOT
HETATM    1  C3  UNL     1       3.777   1.923   0.567  1.00  0.00     0.029 C 
HETATM    2  C4  UNL     1       2.699   1.200   0.354  1.00  0.00     0.035 C 
HETATM    3  C5  UNL     1       2.094   1.146  -0.958  1.00  0.00     0.046 C 
HETATM    4  C6  UNL     1       1.024   0.465  -1.304  1.00  0.00     0.093 C 
HETATM    5  N1  UNL     1      -0.045  -0.408  -0.996  1.00  0.00    -0.357 N 
HETATM    6  C15 UNL     1       0.433  -1.748  -0.911  1.00  0.00     0.045 C 
HETATM    7  C16 UNL     1       1.553  -2.133  -0.324  1.00  0.00     0.082 C 
HETATM    8  C17 UNL     1       2.145  -3.480  -0.175  1.00  0.00     0.094 C 
HETATM    9  C18 UNL     1       1.393  -4.417  -1.088  1.00  0.00    -0.024 C 
HETATM   10  C19 UNL     1       0.239  -4.039  -1.680  1.00  0.00    -0.024 C 
HETATM   11  C20 UNL     1      -0.468  -2.734  -1.563  1.00  0.00     0.086 C 
HETATM   12  O2  UNL     1       2.327  -1.111   0.261  1.00  0.00    -0.286 OA
HETATM   13  C21 UNL     1       1.981  -0.856   1.600  1.00  0.00     0.220 C 
HETATM   14  S1  UNL     1       1.460  -1.536   2.985  1.00  0.00    -0.033 SA
HETATM   15  N2  UNL     1       2.244   0.528   1.515  1.00  0.00    -0.327 N 
HETATM   16  H22 UNL     1       2.074   1.072   2.413  1.00  0.00     0.169 HD
ENDROOT
BRANCH   5  17
HETATM   17  C7  UNL     1      -1.426  -0.025  -0.791  1.00  0.00     0.133 C 
BRANCH  17  18
HETATM   18  C8  UNL     1      -1.584   0.767   0.458  1.00  0.00     0.061 C 
BRANCH  18  19
HETATM   19  C9  UNL     1      -2.981   1.179   0.704  1.00  0.00    -0.024 A 
HETATM   20  C10 UNL     1      -3.426   2.480   0.482  1.00  0.00     0.010 A 
HETATM   21  C11 UNL     1      -4.736   2.888   0.706  1.00  0.00     0.001 A 
HETATM   22  C12 UNL     1      -5.633   1.947   1.173  1.00  0.00     0.003 A 
HETATM   23  C13 UNL     1      -5.258   0.646   1.412  1.00  0.00     0.037 A 
HETATM   24  C14 UNL     1      -3.937   0.292   1.171  1.00  0.00     0.072 A 
BRANCH  24  25
HETATM   25  O1  UNL     1      -3.607  -1.024   1.426  1.00  0.00    -0.360 OA
HETATM   26  H15 UNL     1      -4.292  -1.769   1.448  1.00  0.00     0.217 HD
ENDBRANCH  24  25
ENDBRANCH  18  19
ENDBRANCH  17  18
ENDBRANCH   5  17
BRANCH   1  27
HETATM   27  C2  UNL     1       4.305   2.644  -0.572  1.00  0.00    -0.008 C 
HETATM   28  C1  UNL     1       5.375   3.412  -0.534  1.00  0.00     0.011 C 
ENDBRANCH   1  27
TORSDOF 5
