REMARK  8 active torsions:
REMARK  status: ('A' for Active; 'I' for Inactive)
REMARK    1  A    between atoms: O1_1  and  C1_2 
REMARK    2  A    between atoms: C4_5  and  C5_6 
REMARK    3  A    between atoms: C5_6  and  N1_7 
REMARK    4  A    between atoms: N1_7  and  C6_8 
REMARK    5  A    between atoms: N1_7  and  C13_18 
REMARK    6  A    between atoms: C6_8  and  C7_9 
REMARK    7  A    between atoms: C12_16  and  O2_17 
REMARK    8  A    between atoms: C13_18  and  N2_19 
ROOT
HETATM    1  N1  UNL     1      -0.218   0.270   0.801  1.00  0.00     0.115 N 
ENDROOT
BRANCH   1   2
HETATM    2  C5  UNL     1       0.370  -0.361  -0.356  1.00  0.00     0.313 C 
BRANCH   2   3
HETATM    3  C4  UNL     1       1.813  -0.668  -0.158  1.00  0.00    -0.030 A 
HETATM    4  C3  UNL     1       2.972   0.022  -0.428  1.00  0.00     0.011 A 
HETATM    5  C2  UNL     1       4.230  -0.415  -0.168  1.00  0.00     0.037 A 
HETATM    6  C1  UNL     1       4.445  -1.653   0.420  1.00  0.00     0.065 A 
HETATM    7  C19 UNL     1       3.343  -2.402   0.721  1.00  0.00     0.037 A 
HETATM    8  C18 UNL     1       2.092  -1.912   0.436  1.00  0.00     0.011 A 
BRANCH   6   9
HETATM    9  O1  UNL     1       5.757  -1.983   0.634  1.00  0.00    -0.361 OA
HETATM   10  H1  UNL     1       6.092  -2.896   0.941  1.00  0.00     0.217 HD
ENDBRANCH   6   9
ENDBRANCH   2   3
ENDBRANCH   1   2
BRANCH   1  11
HETATM   11  C6  UNL     1       0.220   1.593   1.030  1.00  0.00     0.316 C 
BRANCH  11  12
HETATM   12  C7  UNL     1      -0.338   2.558   0.089  1.00  0.00     0.006 A 
HETATM   13  C8  UNL     1       0.234   2.957  -1.100  1.00  0.00     0.035 A 
HETATM   14  C9  UNL     1      -0.266   3.824  -2.029  1.00  0.00     0.036 A 
HETATM   15 CL1  UNL     1       0.581   4.241  -3.511  1.00  0.00    -0.084 Cl
HETATM   16  C10 UNL     1      -1.495   4.404  -1.801  1.00  0.00     0.050 A 
HETATM   17  C11 UNL     1      -2.151   4.073  -0.638  1.00  0.00     0.069 A 
HETATM   18 CL2  UNL     1      -3.706   4.837  -0.395  1.00  0.00    -0.081 Cl
HETATM   19  C12 UNL     1      -1.578   3.192   0.246  1.00  0.00     0.095 A 
BRANCH  19  20
HETATM   20  O2  UNL     1      -2.381   2.987   1.361  1.00  0.00    -0.358 OA
HETATM   21  H10 UNL     1      -1.960   2.760   2.274  1.00  0.00     0.217 HD
ENDBRANCH  19  20
ENDBRANCH  11  12
ENDBRANCH   1  11
BRANCH   1  22
HETATM   22  C13 UNL     1      -1.642   0.163   0.710  1.00  0.00     0.409 C 
BRANCH  22  23
HETATM   23  N2  UNL     1      -2.012  -1.208   0.434  1.00  0.00    -0.301 N 
HETATM   24  C14 UNL     1      -1.521  -2.247   1.267  1.00  0.00     0.101 A 
HETATM   25  C15 UNL     1      -1.768  -3.535   1.169  1.00  0.00     0.018 A 
HETATM   26  C16 UNL     1      -2.618  -4.035   0.137  1.00  0.00     0.010 A 
HETATM   27  C17 UNL     1      -3.241  -3.380  -0.795  1.00  0.00     0.068 A 
HETATM   28  S1  UNL     1      -3.076  -1.625  -0.879  1.00  0.00    -0.025 SA
HETATM   29  S2  UNL     1      -2.380  -1.210  -2.391  1.00  0.00     0.002 SA
ENDBRANCH  22  23
ENDBRANCH   1  22
TORSDOF 8
