REMARK  2 active torsions:
REMARK  status: ('A' for Active; 'I' for Inactive)
REMARK    1  A    between atoms: O1_1  and  C1_2 
REMARK    2  A    between atoms: C7_8  and  O2_9 
ROOT
HETATM    1  C1  UNL     1       4.599   2.327  -1.087  1.00  0.00     0.066 A 
HETATM    2  C2  UNL     1       3.724   3.330  -0.665  1.00  0.00     0.037 A 
HETATM    3  C3  UNL     1       2.504   2.881  -0.218  1.00  0.00     0.011 A 
HETATM    4  C4  UNL     1       2.054   1.556  -0.142  1.00  0.00    -0.039 A 
HETATM    5  C5  UNL     1       2.928   0.608  -0.559  1.00  0.00    -0.014 A 
HETATM    6  C6  UNL     1       4.168   0.996  -1.018  1.00  0.00     0.047 A 
HETATM    7  C7  UNL     1       2.914  -0.871  -0.671  1.00  0.00     0.201 C 
HETATM    8  C8  UNL     1       1.737  -1.495  -0.034  1.00  0.00     0.009 C 
HETATM    9  C9  UNL     1       1.141  -2.205   0.870  1.00  0.00    -0.002 C 
HETATM   10  C10 UNL     1       0.067  -2.879   1.604  1.00  0.00     0.194 C 
HETATM   11  O3  UNL     1      -1.194  -2.751   1.093  1.00  0.00    -0.387 OA
HETATM   12  C11 UNL     1      -1.299  -3.345  -0.144  1.00  0.00     0.169 C 
HETATM   13  C12 UNL     1      -2.673  -3.171  -0.758  1.00  0.00     0.046 C 
HETATM   14  C13 UNL     1      -2.927  -1.691  -0.955  1.00  0.00     0.122 C 
HETATM   15  N1  UNL     1      -2.889  -0.928   0.273  1.00  0.00    -0.389 N 
HETATM   16  C14 UNL     1      -3.114   0.476   0.301  1.00  0.00     0.044 A 
HETATM   17  C15 UNL     1      -4.326   0.924   0.805  1.00  0.00     0.030 A 
HETATM   18  C16 UNL     1      -4.782   2.238   0.932  1.00  0.00     0.002 A 
HETATM   19  C17 UNL     1      -3.864   3.189   0.480  1.00  0.00     0.002 A 
HETATM   20  C18 UNL     1      -2.636   2.764  -0.031  1.00  0.00     0.021 A 
HETATM   21  C19 UNL     1      -2.243   1.450  -0.131  1.00  0.00     0.027 A 
HETATM   22  S1  UNL     1      -0.604   1.385  -0.837  1.00  0.00    -0.123 SA
HETATM   23  C20 UNL     1       0.681   1.483   0.404  1.00  0.00     0.118 C 
HETATM   24  H16 UNL     1      -2.740  -1.053   1.297  1.00  0.00     0.159 HD
ENDROOT
BRANCH   1  25
HETATM   25  O1  UNL     1       5.850   2.764  -1.546  1.00  0.00    -0.361 OA
HETATM   26  H1  UNL     1       6.576   2.906  -0.861  1.00  0.00     0.217 HD
ENDBRANCH   1  25
BRANCH   7  27
HETATM   27  O2  UNL     1       4.035  -1.432  -0.047  1.00  0.00    -0.270 OA
HETATM   28 CL1  UNL     1       4.992  -2.339  -1.118  1.00  0.00     0.062 Cl
ENDBRANCH   7  27
TORSDOF 2
