REMARK  8 active torsions:
REMARK  status: ('A' for Active; 'I' for Inactive)
REMARK    1  A    between atoms: C2_3  and  C3_4 
REMARK    2  A    between atoms: C6_8  and  N3_9 
REMARK    3  A    between atoms: N3_9  and  C7_10 
REMARK    4  A    between atoms: C14_19  and  O1_20 
REMARK    5  A    between atoms: O1_20  and  C15_21 
REMARK    6  A    between atoms: C15_21  and  C16_22 
REMARK    7  A    between atoms: C16_22  and  C17_23 
REMARK    8  A    between atoms: C20_28  and  O3_29 
ROOT
HETATM    1  C3  UNL     1      -0.805   1.892   0.070  1.00  0.00     0.134 A 
HETATM    2  C4  UNL     1      -2.196   1.810   0.573  1.00  0.00     0.043 A 
HETATM    3  N2  UNL     1      -2.783   2.956   0.592  1.00  0.00    -0.304 NA
HETATM    4  C5  UNL     1      -2.871   0.585   1.010  1.00  0.00     0.057 A 
HETATM    5  C6  UNL     1      -2.180  -0.546   0.952  1.00  0.00     0.036 A 
HETATM    6  C13 UNL     1      -0.809  -0.587   0.476  1.00  0.00     0.062 A 
HETATM    7  C14 UNL     1      -0.189   0.517   0.078  1.00  0.00     0.063 A 
HETATM    8  H6  UNL     1      -3.759   3.049   0.920  1.00  0.00     0.186 HD
ENDROOT
BRANCH   7   9
HETATM    9  O1  UNL     1       1.108   0.490  -0.374  1.00  0.00    -0.354 OA
BRANCH   9  10
HETATM   10  C15 UNL     1       1.805  -0.740  -0.466  1.00  0.00     0.177 C 
BRANCH  10  11
HETATM   11  C16 UNL     1       3.211  -0.531  -0.986  1.00  0.00     0.058 C 
BRANCH  11  12
HETATM   12  C17 UNL     1       4.018   0.368  -0.102  1.00  0.00     0.139 C 
HETATM   13  N4  UNL     1       4.155  -0.142   1.226  1.00  0.00    -0.391 N 
HETATM   14  C18 UNL     1       5.211  -1.107   1.387  1.00  0.00     0.292 C 
HETATM   15  H18 UNL     1       3.285  -0.344   1.726  1.00  0.00     0.156 HD
HETATM   16  O2  UNL     1       6.426  -0.378   1.149  1.00  0.00    -0.342 OA
HETATM   17  C19 UNL     1       6.543   0.140  -0.156  1.00  0.00     0.170 C 
HETATM   18  C20 UNL     1       5.369   0.481  -0.711  1.00  0.00     0.087 C 
BRANCH  18  19
HETATM   19  O3  UNL     1       5.391   1.009  -2.018  1.00  0.00    -0.361 OA
HETATM   20  H22 UNL     1       4.965   1.905  -2.206  1.00  0.00     0.217 HD
ENDBRANCH  18  19
ENDBRANCH  11  12
ENDBRANCH  10  11
ENDBRANCH   9  10
ENDBRANCH   7   9
BRANCH   1  21
HETATM   21  C2  UNL     1      -0.077   2.830   0.943  1.00  0.00     0.263 C 
HETATM   22  N1  UNL     1       0.202   4.064   0.755  1.00  0.00    -0.427 NA
HETATM   23  C1  UNL     1      -0.154   4.818  -0.396  1.00  0.00     0.131 C 
ENDBRANCH   1  21
BRANCH   5  24
HETATM   24  N3  UNL     1      -2.820  -1.747   1.373  1.00  0.00    -0.356 N 
HETATM   25  H8  UNL     1      -2.541  -2.247   2.247  1.00  0.00     0.166 HD
BRANCH  24  26
HETATM   26  C7  UNL     1      -3.860  -2.273   0.586  1.00  0.00     0.034 A 
HETATM   27  C8  UNL     1      -4.275  -1.666  -0.572  1.00  0.00     0.032 A 
HETATM   28  C9  UNL     1      -5.296  -2.171  -1.356  1.00  0.00     0.046 A 
HETATM   29  C10 UNL     1      -5.952  -3.346  -0.982  1.00  0.00     0.138 A 
HETATM   30  F1  UNL     1      -6.949  -3.820  -1.767  1.00  0.00    -0.204 F 
HETATM   31  C11 UNL     1      -5.538  -3.971   0.193  1.00  0.00     0.074 A 
HETATM   32 CL1  UNL     1      -6.358  -5.440   0.662  1.00  0.00    -0.081 Cl
HETATM   33  C12 UNL     1      -4.520  -3.436   0.944  1.00  0.00     0.056 A 
ENDBRANCH  24  26
ENDBRANCH   5  24
TORSDOF 8
