REMARK  7 active torsions:
REMARK  status: ('A' for Active; 'I' for Inactive)
REMARK    1  A    between atoms: O1_2  and  C2_3 
REMARK    2  A    between atoms: C6_9  and  N3_10 
REMARK    3  A    between atoms: C10_14  and  O2_15 
REMARK    4  A    between atoms: C14_21  and  C15_22 
REMARK    5  A    between atoms: C15_22  and  C16_23 
REMARK    6  A    between atoms: C16_23  and  C17_24 
REMARK    7  A    between atoms: C17_24  and  N4_25 
ROOT
HETATM    1  C2  UNL     1      -0.386  -2.672  -1.036  1.00  0.00     0.076 A 
HETATM    2  C3  UNL     1      -1.573  -3.378  -0.805  1.00  0.00     0.070 A 
HETATM    3  C4  UNL     1      -2.728  -2.676  -0.493  1.00  0.00     0.074 A 
HETATM    4  N1  UNL     1      -3.895  -3.292  -0.256  1.00  0.00    -0.241 NA
HETATM    5  C5  UNL     1      -4.981  -2.549   0.048  1.00  0.00     0.236 A 
HETATM    6  N2  UNL     1      -4.905  -1.188   0.116  1.00  0.00    -0.223 NA
HETATM    7  C6  UNL     1      -3.743  -0.586  -0.122  1.00  0.00     0.147 A 
HETATM    8  C12 UNL     1      -2.606  -1.304  -0.436  1.00  0.00     0.040 A 
HETATM    9  C13 UNL     1      -1.476  -0.562  -0.652  1.00  0.00     0.027 A 
HETATM   10  C14 UNL     1      -0.337  -1.297  -0.962  1.00  0.00    -0.024 A 
ENDROOT
BRANCH   7  11
HETATM   11  N3  UNL     1      -3.859   0.847   0.008  1.00  0.00    -0.285 N 
HETATM   12  C7  UNL     1      -3.395   1.266   1.303  1.00  0.00     0.098 A 
HETATM   13  C8  UNL     1      -3.428   2.565   1.576  1.00  0.00     0.020 A 
HETATM   14  C9  UNL     1      -3.910   3.562   0.630  1.00  0.00     0.040 A 
HETATM   15  C10 UNL     1      -4.324   3.108  -0.543  1.00  0.00     0.120 A 
HETATM   16  C11 UNL     1      -4.364   1.717  -1.025  1.00  0.00     0.311 A 
HETATM   17  F1  UNL     1      -5.668   1.384  -1.372  1.00  0.00    -0.192 F 
HETATM   18 CL1  UNL     1      -3.392   1.649  -2.524  1.00  0.00    -0.052 Cl
BRANCH  15  19
HETATM   19  O2  UNL     1      -4.760   4.139  -1.366  1.00  0.00    -0.359 OA
HETATM   20  H9  UNL     1      -5.715   4.455  -1.250  1.00  0.00     0.217 HD
ENDBRANCH  15  19
ENDBRANCH   7  11
BRANCH  10  21
HETATM   21  C15 UNL     1       0.924  -0.537  -1.203  1.00  0.00     0.043 C 
BRANCH  21  22
HETATM   22  C16 UNL     1       1.853  -0.610  -0.006  1.00  0.00     0.035 C 
BRANCH  22  23
HETATM   23  C17 UNL     1       3.071   0.178  -0.365  1.00  0.00     0.273 C 
BRANCH  23  24
HETATM   24  N4  UNL     1       4.084   0.230   0.660  1.00  0.00     0.092 N 
HETATM   25  C18 UNL     1       5.182   1.012   0.074  1.00  0.00     0.298 C 
HETATM   26  C19 UNL     1       6.154   1.431   1.157  1.00  0.00     0.198 C 
HETATM   27  O3  UNL     1       5.563   2.318   2.056  1.00  0.00    -0.388 OA
HETATM   28  C20 UNL     1       4.179   2.298   1.967  1.00  0.00     0.198 C 
HETATM   29  C21 UNL     1       3.625   0.878   1.877  1.00  0.00     0.298 C 
ENDBRANCH  23  24
ENDBRANCH  22  23
ENDBRANCH  21  22
ENDBRANCH  10  21
BRANCH   1  30
HETATM   30  O1  UNL     1       0.754  -3.404  -1.346  1.00  0.00    -0.355 OA
HETATM   31  C1  UNL     1       0.751  -4.829  -1.434  1.00  0.00     0.210 C 
ENDBRANCH   1  30
TORSDOF 7
