REMARK  6 active torsions:
REMARK  status: ('A' for Active; 'I' for Inactive)
REMARK    1  A    between atoms: C3_3  and  C4_5 
REMARK    2  A    between atoms: C4_5  and  C5_7 
REMARK    3  A    between atoms: C5_7  and  C6_8 
REMARK    4  A    between atoms: C6_8  and  N1_9 
REMARK    5  A    between atoms: N1_9  and  C7_10 
REMARK    6  A    between atoms: C15_21  and  N5_22 
ROOT
HETATM    1  C1  UNL     1       8.376   0.366   0.220  1.00  0.00     0.100 C 
HETATM    2  C2  UNL     1       7.157   0.859   0.085  1.00  0.00    -0.112 C 
HETATM    3  C3  UNL     1       5.936   1.233  -0.176  1.00  0.00     0.179 C 
HETATM    4  F1  UNL     1       5.555   2.205   0.667  1.00  0.00    -0.195 F 
ENDROOT
BRANCH   3   5
HETATM    5  C4  UNL     1       5.237   0.582  -1.260  1.00  0.00     0.078 C 
HETATM    6 CL1  UNL     1       5.791   0.974  -2.872  1.00  0.00    -0.081 Cl
BRANCH   5   7
HETATM    7  C5  UNL     1       4.231  -0.264  -1.022  1.00  0.00     0.020 C 
BRANCH   7   8
HETATM    8  C6  UNL     1       3.844  -0.524   0.382  1.00  0.00     0.150 C 
BRANCH   8   9
HETATM    9  N1  UNL     1       2.462  -0.142   0.607  1.00  0.00    -0.369 N 
HETATM   10  H6  UNL     1       2.422   0.609   1.321  1.00  0.00     0.161 HD
BRANCH   9  11
HETATM   11  C7  UNL     1       1.470  -0.821  -0.156  1.00  0.00     0.156 A 
HETATM   12  N2  UNL     1       1.828  -1.749  -1.041  1.00  0.00    -0.222 NA
HETATM   13  C8  UNL     1       0.933  -2.403  -1.786  1.00  0.00     0.238 A 
HETATM   14  N3  UNL     1      -0.410  -2.177  -1.704  1.00  0.00    -0.215 NA
HETATM   15  C9  UNL     1      -0.835  -1.249  -0.826  1.00  0.00     0.202 A 
HETATM   16  C10 UNL     1       0.112  -0.572  -0.052  1.00  0.00     0.128 A 
HETATM   17  O1  UNL     1      -2.235  -1.102  -0.829  1.00  0.00    -0.289 OA
HETATM   18  N4  UNL     1      -0.147   0.429   0.932  1.00  0.00    -0.379 N 
HETATM   19  C11 UNL     1      -1.202   1.432   0.918  1.00  0.00     0.161 C 
HETATM   20  H8  UNL     1       0.568   0.339   1.717  1.00  0.00     0.160 HD
HETATM   21  C12 UNL     1      -2.531   0.897   0.614  1.00  0.00    -0.006 A 
HETATM   22  C13 UNL     1      -3.447   1.723   1.257  1.00  0.00     0.014 A 
HETATM   23  C18 UNL     1      -2.990  -0.175  -0.123  1.00  0.00     0.088 A 
HETATM   24  C14 UNL     1      -4.806   1.428   1.126  1.00  0.00     0.030 A 
HETATM   25  C15 UNL     1      -5.285   0.344   0.381  1.00  0.00     0.030 A 
HETATM   26  C17 UNL     1      -4.350  -0.459  -0.246  1.00  0.00     0.067 A 
BRANCH  25  27
HETATM   27  N5  UNL     1      -6.681   0.094   0.285  1.00  0.00    -0.394 N 
HETATM   28  C16 UNL     1      -7.192  -1.009  -0.473  1.00  0.00     0.146 C 
HETATM   29  H13 UNL     1      -7.335   0.722   0.770  1.00  0.00     0.159 HD
ENDBRANCH  25  27
ENDBRANCH   9  11
ENDBRANCH   8   9
ENDBRANCH   7   8
ENDBRANCH   5   7
ENDBRANCH   3   5
TORSDOF 6
