REMARK  5 active torsions:
REMARK  status: ('A' for Active; 'I' for Inactive)
REMARK    1  A    between atoms: C4_4  and  P1_5 
REMARK    2  A    between atoms: C6_7  and  C7_8 
REMARK    3  A    between atoms: C7_8  and  N1_9 
REMARK    4  A    between atoms: C12_14  and  O1_15 
REMARK    5  A    between atoms: C16_19  and  O2_20 
ROOT
HETATM    1  C1  UNL     1       4.758  -1.590  -0.146  1.00  0.00     0.051 C 
HETATM    2  C2  UNL     1       3.751  -0.505  -0.008  1.00  0.00    -0.027 A 
HETATM    3  C3  UNL     1       4.120   0.765  -0.461  1.00  0.00     0.021 A 
HETATM    4  C4  UNL     1       3.191   1.768  -0.336  1.00  0.00    -0.035 A 
HETATM    5  C5  UNL     1       1.936   1.584   0.208  1.00  0.00     0.023 A 
HETATM    6  C6  UNL     1       1.564   0.333   0.658  1.00  0.00     0.004 A 
HETATM    7  C16 UNL     1       2.486  -0.706   0.544  1.00  0.00     0.079 A 
ENDROOT
BRANCH   6   8
HETATM    8  C7  UNL     1       0.281  -0.096   1.274  1.00  0.00     0.314 C 
BRANCH   8   9
HETATM    9  N1  UNL     1      -0.569  -0.844   0.387  1.00  0.00     0.101 N 
HETATM   10  C8  UNL     1      -0.937  -0.086  -0.783  1.00  0.00     0.312 A 
HETATM   11  C9  UNL     1      -2.403  -0.062  -0.751  1.00  0.00    -0.022 A 
HETATM   12  C10 UNL     1      -3.371   0.467  -1.595  1.00  0.00     0.012 A 
HETATM   13  C14 UNL     1      -2.912  -0.698   0.355  1.00  0.00    -0.019 A 
HETATM   14  C11 UNL     1      -4.737   0.366  -1.354  1.00  0.00     0.037 A 
HETATM   15  C12 UNL     1      -5.177  -0.290  -0.218  1.00  0.00     0.066 A 
HETATM   16  C13 UNL     1      -4.239  -0.837   0.659  1.00  0.00     0.045 A 
HETATM   17  C15 UNL     1      -1.763  -1.182   1.116  1.00  0.00     0.312 A 
BRANCH  15  18
HETATM   18  O1  UNL     1      -6.524  -0.423   0.075  1.00  0.00    -0.361 OA
HETATM   19  H14 UNL     1      -6.899  -0.540   0.990  1.00  0.00     0.217 HD
ENDBRANCH  15  18
ENDBRANCH   8   9
ENDBRANCH   6   8
BRANCH   7  20
HETATM   20  O2  UNL     1       2.259  -2.027   0.954  1.00  0.00    -0.360 OA
HETATM   21  H18 UNL     1       1.743  -2.621   0.321  1.00  0.00     0.217 HD
ENDBRANCH   7  20
BRANCH   4  22
HETATM   22  P1  UNL     1       3.621   3.451  -0.914  1.00  0.00    -0.106 P 
HETATM   23  H5  UNL     1       3.145   4.388   0.097  1.00  0.00     0.059 HD
HETATM   24  H6  UNL     1       2.975   3.773  -2.157  1.00  0.00     0.059 HD
ENDBRANCH   4  22
TORSDOF 5
