REMARK  8 active torsions:
REMARK  status: ('A' for Active; 'I' for Inactive)
REMARK    1  A    between atoms: C6_6  and  O1_7 
REMARK    2  A    between atoms: C7_8  and  C8_9 
REMARK    3  A    between atoms: C8_9  and  N1_10 
REMARK    4  A    between atoms: N1_10  and  C9_11 
REMARK    5  A    between atoms: N1_10  and  C16_19 
REMARK    6  A    between atoms: C9_11  and  C10_12 
REMARK    7  A    between atoms: C13_15  and  O2_16 
REMARK    8  A    between atoms: N2_21  and  C17_22 
ROOT
HETATM    1  N1  UNL     1      -0.271   0.125  -0.999  1.00  0.00    -0.349 N 
ENDROOT
BRANCH   1   2
HETATM    2  C8  UNL     1      -0.021  -0.974  -0.112  1.00  0.00     0.167 C 
BRANCH   2   3
HETATM    3  C7  UNL     1       1.431  -1.190   0.224  1.00  0.00    -0.006 A 
HETATM    4  C6  UNL     1       2.341  -1.750  -0.660  1.00  0.00     0.079 A 
HETATM    5  C4  UNL     1       3.592  -1.905  -0.164  1.00  0.00    -0.028 A 
HETATM    6  C3  UNL     1       4.013  -1.557   1.112  1.00  0.00     0.016 A 
HETATM    7  C5  UNL     1       4.573  -2.534  -1.124  1.00  0.00     0.051 C 
HETATM    8  C2  UNL     1       3.083  -1.005   1.959  1.00  0.00    -0.061 A 
HETATM    9  C1  UNL     1       3.401  -0.614   3.335  1.00  0.00     0.048 C 
HETATM   10  C23 UNL     1       1.794  -0.822   1.511  1.00  0.00     0.018 A 
BRANCH   4  11
HETATM   11  O1  UNL     1       1.930  -2.105  -1.942  1.00  0.00    -0.360 OA
HETATM   12  H8  UNL     1       2.477  -1.834  -2.740  1.00  0.00     0.217 HD
ENDBRANCH   4  11
ENDBRANCH   2   3
ENDBRANCH   1   2
BRANCH   1  13
HETATM   13  C9  UNL     1       0.600   1.042  -1.630  1.00  0.00     0.164 C 
BRANCH  13  14
HETATM   14  C10 UNL     1       0.668   2.328  -0.932  1.00  0.00    -0.040 A 
HETATM   15  C11 UNL     1      -0.107   3.389  -1.437  1.00  0.00     0.011 A 
HETATM   16  C12 UNL     1      -0.136   4.647  -0.889  1.00  0.00     0.037 A 
HETATM   17  C13 UNL     1       0.639   4.914   0.231  1.00  0.00     0.065 A 
HETATM   18  C14 UNL     1       1.423   3.927   0.781  1.00  0.00     0.037 A 
HETATM   19  C15 UNL     1       1.378   2.717   0.163  1.00  0.00     0.011 A 
BRANCH  17  20
HETATM   20  O2  UNL     1       0.589   6.193   0.754  1.00  0.00    -0.361 OA
HETATM   21  H15 UNL     1       0.553   6.359   1.753  1.00  0.00     0.217 HD
ENDBRANCH  17  20
ENDBRANCH  13  14
ENDBRANCH   1  13
BRANCH   1  22
HETATM   22  C16 UNL     1      -1.681   0.130  -1.131  1.00  0.00     0.174 C 
HETATM   23  S1  UNL     1      -2.696   1.099  -1.950  1.00  0.00    -0.041 SA
HETATM   24  N2  UNL     1      -2.806  -0.533  -0.733  1.00  0.00    -0.333 N 
HETATM   25  H18 UNL     1      -2.141  -1.131  -0.267  1.00  0.00     0.168 HD
BRANCH  24  26
HETATM   26  C17 UNL     1      -3.962  -1.207  -0.330  1.00  0.00     0.034 A 
HETATM   27  C18 UNL     1      -5.116  -0.502  -0.652  1.00  0.00     0.029 A 
HETATM   28  C19 UNL     1      -6.322  -1.082  -0.382  1.00  0.00     0.002 A 
HETATM   29  C20 UNL     1      -6.316  -2.300   0.180  1.00  0.00     0.000 A 
HETATM   30  C21 UNL     1      -5.253  -3.094   0.540  1.00  0.00     0.002 A 
HETATM   31  C22 UNL     1      -4.038  -2.489   0.260  1.00  0.00     0.029 A 
ENDBRANCH  24  26
ENDBRANCH   1  22
TORSDOF 8
