REMARK  7 active torsions:
REMARK  status: ('A' for Active; 'I' for Inactive)
REMARK    1  A    between atoms: N1_5  and  C4_6 
REMARK    2  A    between atoms: C9_13  and  C10_14 
REMARK    3  A    between atoms: C10_14  and  O1_15 
REMARK    4  A    between atoms: O1_15  and  C11_16 
REMARK    5  A    between atoms: C11_16  and  C12_17 
REMARK    6  A    between atoms: C12_17  and  C13_18 
REMARK    7  A    between atoms: C13_18  and  N4_19 
ROOT
HETATM    1  C4  UNL     1      -4.227  -1.079   0.092  1.00  0.00     0.141 A 
HETATM    2  N2  UNL     1      -4.739  -2.313  -0.039  1.00  0.00    -0.224 NA
HETATM    3  C5  UNL     1      -3.917  -3.377  -0.286  1.00  0.00     0.236 A 
HETATM    4  N3  UNL     1      -2.591  -3.175  -0.398  1.00  0.00    -0.240 NA
HETATM    5  C6  UNL     1      -2.048  -1.947  -0.270  1.00  0.00     0.084 A 
HETATM    6  C7  UNL     1      -2.882  -0.799  -0.008  1.00  0.00     0.052 A 
HETATM    7  C8  UNL     1      -1.447  -0.618  -0.134  1.00  0.00     0.008 A 
HETATM    8  C9  UNL     1      -0.294   0.069  -0.161  1.00  0.00     0.014 C 
ENDROOT
BRANCH   8   9
HETATM    9  C10 UNL     1       0.993  -0.616  -0.420  1.00  0.00     0.196 C 
BRANCH   9  10
HETATM   10  O1  UNL     1       1.885  -0.476   0.630  1.00  0.00    -0.387 OA
BRANCH  10  11
HETATM   11  C11 UNL     1       2.193   0.821   0.965  1.00  0.00     0.169 C 
BRANCH  11  12
HETATM   12  C12 UNL     1       2.758   1.551  -0.197  1.00  0.00     0.056 C 
BRANCH  12  13
HETATM   13  C13 UNL     1       3.999   0.993  -0.774  1.00  0.00     0.274 C 
BRANCH  13  14
HETATM   14  N4  UNL     1       5.112   0.981   0.104  1.00  0.00     0.092 N 
HETATM   15  C14 UNL     1       6.306   0.921  -0.819  1.00  0.00     0.298 C 
HETATM   16  C15 UNL     1       6.145  -0.221  -1.770  1.00  0.00     0.198 C 
HETATM   17  O2  UNL     1       5.758  -1.393  -1.072  1.00  0.00    -0.388 OA
HETATM   18  C16 UNL     1       6.149  -1.258   0.261  1.00  0.00     0.198 C 
HETATM   19  C17 UNL     1       5.265  -0.207   0.925  1.00  0.00     0.298 C 
ENDBRANCH  13  14
ENDBRANCH  12  13
ENDBRANCH  11  12
ENDBRANCH  10  11
ENDBRANCH   9  10
ENDBRANCH   8   9
BRANCH   1  20
HETATM   20  N1  UNL     1      -5.050   0.084   0.334  1.00  0.00    -0.361 N 
HETATM   21  C3  UNL     1      -5.010   1.064  -0.761  1.00  0.00     0.154 C 
HETATM   22  C2  UNL     1      -6.278   0.807  -1.545  1.00  0.00     0.030 C 
HETATM   23  C1  UNL     1      -7.296   0.630  -0.676  1.00  0.00     0.093 C 
HETATM   24  F1  UNL     1      -8.537   0.383  -1.199  1.00  0.00    -0.211 F 
HETATM   25  C19 UNL     1      -7.335   0.652   0.819  1.00  0.00     0.089 C 
HETATM   26  C18 UNL     1      -5.932   0.551   1.397  1.00  0.00     0.131 C 
ENDBRANCH   1  20
TORSDOF 7
