REMARK  4 active torsions:
REMARK  status: ('A' for Active; 'I' for Inactive)
REMARK    1  A    between atoms: O1_2  and  C2_3 
REMARK    2  A    between atoms: C6_7  and  N1_8 
REMARK    3  A    between atoms: N1_8  and  C7_9 
REMARK    4  A    between atoms: C7_9  and  N2_10 
ROOT
HETATM    1  C2  UNL     1       1.360   1.602   0.974  1.00  0.00     0.051 C 
HETATM    2  C3  UNL     1       1.148   2.685   0.165  1.00  0.00     0.010 C 
HETATM    3  C4  UNL     1       1.248   2.153  -1.250  1.00  0.00     0.068 C 
HETATM    4  C5  UNL     1       0.782   0.762  -1.092  1.00  0.00    -0.019 C 
HETATM    5  C6  UNL     1      -0.096   0.080  -1.780  1.00  0.00     0.138 C 
HETATM    6  N3  UNL     1      -0.538  -1.254  -1.588  1.00  0.00    -0.372 N 
HETATM    7  C8  UNL     1      -0.728  -2.649  -1.860  1.00  0.00     0.146 C 
HETATM    8  C9  UNL     1      -1.369  -3.324  -0.667  1.00  0.00     0.136 A 
HETATM    9  C10 UNL     1      -1.252  -2.536   0.495  1.00  0.00     0.054 A 
HETATM   10 CL1  UNL     1      -2.176  -3.935   1.161  1.00  0.00    -0.171 Cl
HETATM   11  C11 UNL     1      -1.008  -1.720   1.553  1.00  0.00     0.130 C 
HETATM   12  F1  UNL     1      -1.855  -1.564   2.592  1.00  0.00    -0.205 F 
HETATM   13  C12 UNL     1       0.122  -0.993   1.595  1.00  0.00     0.018 C 
HETATM   14  C13 UNL     1       1.256  -0.872   0.693  1.00  0.00     0.046 C 
HETATM   15  C14 UNL     1       1.586   0.431   0.085  1.00  0.00     0.079 C 
HETATM   16  H8  UNL     1      -1.069  -0.904  -0.767  1.00  0.00     0.161 HD
ENDROOT
BRANCH   5  17
HETATM   17  N1  UNL     1      -0.701   0.817  -2.867  1.00  0.00    -0.170 NA
BRANCH  17  18
HETATM   18  C7  UNL     1      -1.913   1.166  -2.809  1.00  0.00     0.095 C 
BRANCH  18  19
HETATM   19  N2  UNL     1      -3.143   1.249  -2.428  1.00  0.00    -0.241 NA
HETATM   20  H7  UNL     1      -3.801   0.485  -2.756  1.00  0.00     0.199 HD
ENDBRANCH  18  19
ENDBRANCH  17  18
ENDBRANCH   5  17
BRANCH   1  21
HETATM   21  O1  UNL     1       1.368   1.576   2.326  1.00  0.00    -0.360 OA
HETATM   22  C1  UNL     1       0.873   2.554   3.174  1.00  0.00     0.209 C 
ENDBRANCH   1  21
TORSDOF 4
