REMARK  1 active torsions:
REMARK  status: ('A' for Active; 'I' for Inactive)
REMARK    1  A    between atoms: O1_2  and  C2_3 
ROOT
HETATM    1  C2  UNL     1       2.897  -0.505  -2.104  1.00  0.00     0.103 A 
HETATM    2  C3  UNL     1       3.809   0.525  -1.904  1.00  0.00     0.072 A 
HETATM    3  C4  UNL     1       3.655   1.486  -0.932  1.00  0.00     0.073 A 
HETATM    4  N1  UNL     1       4.508   2.499  -0.699  1.00  0.00    -0.241 NA
HETATM    5  C5  UNL     1       4.287   3.406   0.276  1.00  0.00     0.234 A 
HETATM    6  N2  UNL     1       3.162   3.274   1.037  1.00  0.00    -0.241 NA
HETATM    7  C6  UNL     1       2.293   2.280   0.834  1.00  0.00     0.075 A 
HETATM    8  C7  UNL     1       2.524   1.364  -0.158  1.00  0.00     0.025 A 
HETATM    9  C8  UNL     1       1.635   0.343  -0.368  1.00  0.00     0.055 A 
HETATM   10  C9  UNL     1       1.741  -0.638  -1.320  1.00  0.00     0.103 A 
HETATM   11  O2  UNL     1       0.961  -1.698  -1.651  1.00  0.00    -0.348 OA
HETATM   12  C10 UNL     1       0.320  -2.676  -0.947  1.00  0.00     0.177 C 
HETATM   13  C11 UNL     1      -0.735  -2.253   0.047  1.00  0.00     0.046 C 
HETATM   14  C12 UNL     1      -1.781  -1.500  -0.691  1.00  0.00     0.119 C 
HETATM   15  N3  UNL     1      -2.890  -1.018   0.000  1.00  0.00    -0.402 N 
HETATM   16  C13 UNL     1      -4.188  -1.372  -0.413  1.00  0.00     0.143 C 
HETATM   17  C14 UNL     1      -5.111  -0.270   0.127  1.00  0.00     0.187 C 
HETATM   18  O3  UNL     1      -5.143  -0.528   1.497  1.00  0.00    -0.387 OA
HETATM   19  C15 UNL     1      -3.938  -0.295   2.116  1.00  0.00     0.194 C 
HETATM   20  C16 UNL     1      -2.707  -0.628   1.373  1.00  0.00     0.125 C 
HETATM   21  C17 UNL     1      -1.867   0.588   1.322  1.00  0.00     0.136 A 
HETATM   22  C18 UNL     1      -1.122   1.319   2.113  1.00  0.00     0.006 A 
HETATM   23 CL1  UNL     1      -1.660   0.094   3.230  1.00  0.00    -0.177 Cl
HETATM   24  C19 UNL     1      -0.276   2.522   2.068  1.00  0.00     0.081 A 
HETATM   25  C20 UNL     1       0.489   2.776   3.316  1.00  0.00    -0.022 A 
HETATM   26  C21 UNL     1       1.009   1.679   2.903  1.00  0.00     0.032 A 
HETATM   27  C22 UNL     1       1.127   2.235   1.707  1.00  0.00    -0.023 A 
ENDROOT
BRANCH   1  28
HETATM   28  O1  UNL     1       3.181  -1.412  -3.130  1.00  0.00    -0.353 OA
HETATM   29  C1  UNL     1       4.340  -1.241  -3.882  1.00  0.00     0.210 C 
ENDBRANCH   1  28
TORSDOF 1
