REMARK  4 active torsions:
REMARK  status: ('A' for Active; 'I' for Inactive)
REMARK    1  A    between atoms: S1_6  and  C17_26 
REMARK    2  A    between atoms: C7_10  and  N2_11 
REMARK    3  A    between atoms: N2_11  and  C8_12 
REMARK    4  A    between atoms: C16_25  and  C17_26 
ROOT
HETATM    1  C1  UNL     1      -3.051   1.985   3.751  1.00  0.00     0.000 C 
HETATM    2  O1  UNL     1      -2.728   1.987   2.332  1.00  0.00     0.000 OA
HETATM    3  C2  UNL     1      -2.081   0.861   1.888  1.00  0.00     0.004 A 
HETATM    4  C3  UNL     1      -3.372   1.195   1.138  1.00  0.00     0.022 A 
HETATM    5  C4  UNL     1      -2.835   0.167   0.691  1.00  0.00     0.011 A 
HETATM    6  S1  UNL     1      -2.225  -0.948   0.216  1.00  0.00    -0.242 SA
HETATM    7  C5  UNL     1      -0.912  -3.269  -0.719  1.00  0.00     0.196 C 
HETATM    8  N1  UNL     1      -0.118  -2.775   0.341  1.00  0.00    -0.276 NA
HETATM    9  C6  UNL     1       0.973  -2.172   0.339  1.00  0.00     0.130 C 
HETATM   10  C7  UNL     1       0.976  -1.131  -0.384  1.00  0.00     0.160 C 
HETATM   11  N3  UNL     1       0.438  -0.928  -1.522  1.00  0.00    -0.222 NA
HETATM   12  C14 UNL     1      -0.430  -0.722  -2.319  1.00  0.00     0.235 C 
HETATM   13  N4  UNL     1      -1.706  -0.486  -2.948  1.00  0.00    -0.253 NA
HETATM   14  C15 UNL     1      -2.745  -0.771  -2.142  1.00  0.00     0.137 C 
HETATM   15  O2  UNL     1      -3.199  -1.228  -0.839  1.00  0.00     0.000 OA
HETATM   16  C16 UNL     1      -2.160  -1.068   0.168  1.00  0.00     0.013 A 
HETATM   17  C17 UNL     1      -1.489  -0.409   1.291  1.00  0.00     0.055 A 
HETATM   18  H5  UNL     1      -1.598  -2.139  -0.304  1.00  0.00     0.104 HD
ENDROOT
BRANCH  10  19
HETATM   19  N2  UNL     1       1.355   0.244  -0.553  1.00  0.00    -0.339 N 
HETATM   20  H8  UNL     1       1.052   1.247  -0.649  1.00  0.00     0.167 HD
BRANCH  19  21
HETATM   21  C8  UNL     1       2.758   0.631  -0.678  1.00  0.00     0.035 A 
HETATM   22  C9  UNL     1       3.335   0.811   0.608  1.00  0.00     0.032 A 
HETATM   23  C10 UNL     1       4.690   1.205   0.370  1.00  0.00     0.046 A 
HETATM   24  C11 UNL     1       5.438   1.406  -0.725  1.00  0.00     0.138 A 
HETATM   25  F1  UNL     1       6.722   1.776  -0.739  1.00  0.00    -0.204 F 
HETATM   26  C12 UNL     1       4.667   1.170  -1.815  1.00  0.00     0.074 A 
HETATM   27 CL1  UNL     1       5.423   1.402  -3.403  1.00  0.00    -0.081 Cl
HETATM   28  C13 UNL     1       3.358   0.789  -1.945  1.00  0.00     0.056 A 
ENDBRANCH  19  21
ENDBRANCH  10  19
TORSDOF 4
