REMARK  4 active torsions:
REMARK  status: ('A' for Active; 'I' for Inactive)
REMARK    1  A    between atoms: C2_2  and  C4_4 
REMARK    2  A    between atoms: C6_6  and  N1_7 
REMARK    3  A    between atoms: C15_18  and  O2_19 
REMARK    4  A    between atoms: O2_19  and  C16_20 
ROOT
HETATM    1  C4  UNL     1      -1.843  -2.414  -0.263  1.00  0.00     0.108 C 
HETATM    2  C5  UNL     1      -2.487  -1.090  -0.247  1.00  0.00     0.054 C 
HETATM    3  C6  UNL     1      -2.128  -0.037   0.732  1.00  0.00     0.083 C 
HETATM    4  C10 UNL     1      -0.731   0.403   0.795  1.00  0.00     0.051 C 
HETATM    5  C11 UNL     1      -0.459   1.533   1.791  1.00  0.00     0.176 C 
HETATM    6  O1  UNL     1       0.930   1.849   1.742  1.00  0.00    -0.363 OA
HETATM    7  C12 UNL     1       1.586   2.774   2.481  1.00  0.00     0.131 C 
HETATM    8  C13 UNL     1       2.600   2.767   1.600  1.00  0.00     0.005 C 
HETATM    9  C14 UNL     1       2.764   1.993   0.369  1.00  0.00     0.115 C 
HETATM   10  C15 UNL     1       3.986   1.115   0.366  1.00  0.00     0.142 C 
HETATM   11  N2  UNL     1       4.071  -0.177   0.283  1.00  0.00    -0.239 NA
HETATM   12  P2  UNL     1       2.706  -1.291   0.148  1.00  0.00     0.042 P 
HETATM   13  C18 UNL     1       2.829  -2.425  -1.282  1.00  0.00     0.139 C 
HETATM   14  N3  UNL     1       1.629  -2.849  -1.585  1.00  0.00    -0.280 NA
HETATM   15  C19 UNL     1       0.607  -2.288  -0.699  1.00  0.00     0.265 C 
HETATM   16  N4  UNL     1      -0.688  -2.612  -1.058  1.00  0.00    -0.397 N 
HETATM   17  H30 UNL     1       2.711  -2.134   1.356  1.00  0.00     0.088 HD
HETATM   18  H34 UNL     1      -0.858  -2.720  -2.093  1.00  0.00     0.155 HD
ENDROOT
BRANCH   3  19
HETATM   19  N1  UNL     1      -2.962   1.091   0.494  1.00  0.00    -0.404 N 
HETATM   20  C7  UNL     1      -2.943   1.774  -0.700  1.00  0.00     0.122 C 
HETATM   21  C8  UNL     1      -4.278   1.622  -1.437  1.00  0.00     0.052 C 
HETATM   22  P1  UNL     1      -5.419   1.500   0.034  1.00  0.00    -0.109 P 
HETATM   23  C9  UNL     1      -4.066   1.302   1.302  1.00  0.00     0.148 C 
HETATM   24  H14 UNL     1      -6.004   2.839   0.213  1.00  0.00     0.059 HD
ENDBRANCH   3  19
BRANCH   1  25
HETATM   25  C2  UNL     1      -2.889  -3.222  -1.151  1.00  0.00    -0.071 C 
HETATM   26  C1  UNL     1      -3.474  -4.276  -0.605  1.00  0.00     0.016 C 
HETATM   27  C3  UNL     1      -3.231  -2.847  -2.547  1.00  0.00     0.044 C 
ENDBRANCH   1  25
BRANCH  10  28
HETATM   28  O2  UNL     1       5.164   1.829   0.468  1.00  0.00    -0.338 OA
BRANCH  28  29
HETATM   29  C16 UNL     1       6.384   1.167   0.221  1.00  0.00     0.172 C 
HETATM   30  C17 UNL     1       7.539   2.121   0.375  1.00  0.00     0.034 C 
ENDBRANCH  28  29
ENDBRANCH  10  28
TORSDOF 4
