REMARK  2 active torsions:
REMARK  status: ('A' for Active; 'I' for Inactive)
REMARK    1  A    between atoms: C4_5  and  N1_6 
REMARK    2  A    between atoms: N1_6  and  C5_7 
ROOT
HETATM    1  C5  UNL     1       0.083   1.212  -0.444  1.00  0.00     0.107 C 
HETATM    2  C6  UNL     1       0.110   0.943  -1.822  1.00  0.00     0.168 C 
HETATM    3  C7  UNL     1      -0.845  -0.080  -2.392  1.00  0.00     0.007 C 
HETATM    4  C8  UNL     1      -1.858  -1.005  -2.193  1.00  0.00     0.131 C 
HETATM    5  O1  UNL     1      -2.170  -1.030  -0.805  1.00  0.00    -0.363 OA
HETATM    6  C9  UNL     1      -3.353  -0.511  -0.324  1.00  0.00     0.176 C 
HETATM    7  C10 UNL     1      -3.676  -0.821   1.083  1.00  0.00     0.046 C 
HETATM    8  C11 UNL     1      -2.770  -0.303   2.155  1.00  0.00     0.122 C 
HETATM    9  N2  UNL     1      -1.457  -0.835   2.056  1.00  0.00    -0.377 N 
HETATM   10  C12 UNL     1      -0.188  -1.549   2.121  1.00  0.00     0.179 A 
HETATM   11  C13 UNL     1      -0.406  -0.371   1.261  1.00  0.00     0.184 A 
HETATM   12  N3  UNL     1      -0.773   0.655   0.632  1.00  0.00    -0.266 NA
ENDROOT
BRANCH   1  13
HETATM   13  N1  UNL     1       1.076   2.215  -0.130  1.00  0.00    -0.366 N 
HETATM   14  H3  UNL     1       0.869   3.223   0.048  1.00  0.00     0.161 HD
BRANCH  13  15
HETATM   15  C4  UNL     1       2.282   1.422  -0.148  1.00  0.00     0.031 A 
HETATM   16  C3  UNL     1       2.706   0.793   1.026  1.00  0.00     0.032 A 
HETATM   17  C2  UNL     1       3.858   0.032   1.015  1.00  0.00     0.046 A 
HETATM   18  C1  UNL     1       4.592  -0.112  -0.143  1.00  0.00     0.138 A 
HETATM   19  F1  UNL     1       5.727  -0.863  -0.146  1.00  0.00    -0.204 F 
HETATM   20  C15 UNL     1       4.155   0.520  -1.300  1.00  0.00     0.074 A 
HETATM   21  C14 UNL     1       3.020   1.280  -1.325  1.00  0.00     0.056 A 
HETATM   22 CL1  UNL     1       5.076   0.348  -2.794  1.00  0.00    -0.081 Cl
ENDBRANCH  13  15
ENDBRANCH   1  13
TORSDOF 2
