REMARK  9 active torsions:
REMARK  status: ('A' for Active; 'I' for Inactive)
REMARK    1  A    between atoms: O1_2  and  C2_3 
REMARK    2  A    between atoms: C6_9  and  N3_10 
REMARK    3  A    between atoms: N3_10  and  C7_11 
REMARK    4  A    between atoms: C7_11  and  C10_15 
REMARK    5  A    between atoms: C8_12  and  C9_13 
REMARK    6  A    between atoms: C13_19  and  O2_20 
REMARK    7  A    between atoms: O2_20  and  C14_21 
REMARK    8  A    between atoms: C14_21  and  C15_22 
REMARK    9  A    between atoms: C15_22  and  C16_23 
ROOT
HETATM    1  C2  UNL     1      -0.011  -3.215  -1.651  1.00  0.00     0.103 A 
HETATM    2  C3  UNL     1      -1.335  -3.568  -1.954  1.00  0.00     0.072 A 
HETATM    3  C4  UNL     1      -2.380  -2.868  -1.421  1.00  0.00     0.075 A 
HETATM    4  N1  UNL     1      -3.685  -3.169  -1.694  1.00  0.00    -0.241 NA
HETATM    5  C5  UNL     1      -4.684  -2.448  -1.151  1.00  0.00     0.236 A 
HETATM    6  N2  UNL     1      -4.376  -1.428  -0.337  1.00  0.00    -0.224 NA
HETATM    7  C6  UNL     1      -3.135  -1.049  -0.004  1.00  0.00     0.141 A 
HETATM    8  C11 UNL     1      -2.141  -1.805  -0.575  1.00  0.00     0.042 A 
HETATM    9  C12 UNL     1      -0.836  -1.487  -0.297  1.00  0.00     0.057 A 
HETATM   10  C13 UNL     1       0.268  -2.137  -0.792  1.00  0.00     0.103 A 
ENDROOT
BRANCH  10  11
HETATM   11  O2  UNL     1       1.611  -2.023  -0.681  1.00  0.00    -0.348 OA
BRANCH  11  12
HETATM   12  C14 UNL     1       2.346  -1.099   0.031  1.00  0.00     0.176 C 
BRANCH  12  13
HETATM   13  C15 UNL     1       2.206   0.335  -0.349  1.00  0.00     0.032 C 
BRANCH  13  14
HETATM   14  C16 UNL     1       3.097   1.187   0.527  1.00  0.00    -0.005 C 
HETATM   15  C17 UNL     1       4.547   0.874   0.445  1.00  0.00     0.031 C 
HETATM   16  C18 UNL     1       5.414   2.063   0.132  1.00  0.00     0.168 C 
HETATM   17  O3  UNL     1       5.139   3.208   0.830  1.00  0.00    -0.391 OA
HETATM   18  C19 UNL     1       3.849   3.354   1.291  1.00  0.00     0.172 C 
HETATM   19  C20 UNL     1       2.816   2.653   0.434  1.00  0.00     0.009 C 
HETATM   20  C21 UNL     1       2.843   3.238  -0.931  1.00  0.00     0.012 C 
ENDBRANCH  13  14
ENDBRANCH  12  13
ENDBRANCH  11  12
ENDBRANCH  10  11
BRANCH   1  21
HETATM   21  O1  UNL     1       0.956  -4.025  -2.278  1.00  0.00    -0.353 OA
HETATM   22  C1  UNL     1       0.551  -5.074  -3.134  1.00  0.00     0.210 C 
ENDBRANCH   1  21
BRANCH   7  23
HETATM   23  N3  UNL     1      -2.915   0.043   0.870  1.00  0.00    -0.343 N 
HETATM   24  H6  UNL     1      -2.036   0.385   1.264  1.00  0.00     0.167 HD
BRANCH  23  25
HETATM   25  C7  UNL     1      -3.985   0.830   1.375  1.00  0.00     0.023 C 
HETATM   26  C8  UNL     1      -4.128   1.076   2.669  1.00  0.00     0.030 C 
BRANCH  26  27
HETATM   27  C9  UNL     1      -5.112   1.839   3.481  1.00  0.00     0.251 C 
HETATM   28  F1  UNL     1      -4.530   2.874   4.189  1.00  0.00    -0.251 F 
ENDBRANCH  26  27
BRANCH  25  29
HETATM   29  C10 UNL     1      -4.961   1.412   0.416  1.00  0.00     0.171 C 
HETATM   30 CL1  UNL     1      -3.985   2.441  -0.690  1.00  0.00    -0.124 Cl
ENDBRANCH  25  29
ENDBRANCH  23  25
ENDBRANCH   7  23
TORSDOF 9
