REMARK  7 active torsions:
REMARK  status: ('A' for Active; 'I' for Inactive)
REMARK    1  A    between atoms: C4_5  and  N1_6 
REMARK    2  A    between atoms: N1_6  and  C5_7 
REMARK    3  A    between atoms: C6_8  and  C7_9 
REMARK    4  A    between atoms: C7_9  and  O1_10 
REMARK    5  A    between atoms: O1_10  and  C8_11 
REMARK    6  A    between atoms: C8_11  and  C9_12 
REMARK    7  A    between atoms: C9_12  and  B1_13 
ROOT
HETATM    1  C5  UNL     1       2.195   0.479   0.050  1.00  0.00     0.137 A 
HETATM    2  C6  UNL     1       0.814  -0.023  -0.177  1.00  0.00     0.077 A 
HETATM    3  C13 UNL     1       0.003   1.003  -0.921  1.00  0.00     0.038 C 
HETATM    4 CL1  UNL     1      -1.234   2.299  -0.962  1.00  0.00    -0.087 Cl
HETATM    5  C14 UNL     1       0.706   0.636  -2.016  1.00  0.00     0.012 C 
HETATM    6  C15 UNL     1       1.068   0.692  -3.449  1.00  0.00     0.129 C 
HETATM    7  N3  UNL     1       2.014   0.017  -3.959  1.00  0.00    -0.254 NA
HETATM    8  C16 UNL     1       2.853  -0.848  -3.214  1.00  0.00     0.227 C 
HETATM    9  N4  UNL     1       2.628  -0.890  -1.956  1.00  0.00    -0.264 NA
HETATM   10  C17 UNL     1       1.700  -0.191  -1.243  1.00  0.00     0.123 A 
ENDROOT
BRANCH   2  11
HETATM   11  C7  UNL     1       0.255  -1.014   0.750  1.00  0.00     0.188 C 
BRANCH  11  12
HETATM   12  O1  UNL     1      -0.947  -1.569   0.638  1.00  0.00    -0.391 OA
BRANCH  12  13
HETATM   13  C8  UNL     1      -2.064  -0.836   0.626  1.00  0.00     0.159 C 
BRANCH  13  14
HETATM   14  C9  UNL     1      -3.341  -1.720   0.602  1.00  0.00    -0.004 C 
BRANCH  14  15
HETATM   15  B1  UNL     1      -4.561  -0.708   0.590  1.00  0.00     0.264 B 
HETATM   16  C10 UNL     1      -6.054  -1.189   0.881  1.00  0.00    -0.004 C 
HETATM   17  C11 UNL     1      -6.865   0.112   0.943  1.00  0.00     0.161 C 
HETATM   18  O2  UNL     1      -6.689   0.726  -0.315  1.00  0.00    -0.379 OA
HETATM   19  C12 UNL     1      -5.471   1.346  -0.452  1.00  0.00     0.243 C 
HETATM   20  N2  UNL     1      -4.394   0.773   0.291  1.00  0.00    -0.349 NA
HETATM   21  H17 UNL     1      -4.116   1.288   1.154  1.00  0.00     0.105 HD
ENDBRANCH  14  15
ENDBRANCH  13  14
ENDBRANCH  12  13
ENDBRANCH  11  12
ENDBRANCH   2  11
BRANCH   1  22
HETATM   22  N1  UNL     1       3.052  -0.340   0.866  1.00  0.00    -0.381 N 
HETATM   23  H3  UNL     1       2.884  -1.233   1.365  1.00  0.00     0.160 HD
BRANCH  22  24
HETATM   24  C4  UNL     1       4.411   0.043   1.111  1.00  0.00     0.028 A 
HETATM   25  C3  UNL     1       5.353  -0.643   1.883  1.00  0.00     0.032 A 
HETATM   26  C2  UNL     1       6.642  -0.239   2.085  1.00  0.00     0.044 A 
HETATM   27  C1  UNL     1       7.078   0.921   1.501  1.00  0.00     0.116 A 
HETATM   28  F1  UNL     1       8.365   1.260   1.743  1.00  0.00    -0.206 F 
HETATM   29  C19 UNL     1       6.212   1.646   0.731  1.00  0.00     0.044 A 
HETATM   30  C18 UNL     1       4.926   1.208   0.551  1.00  0.00     0.032 A 
ENDBRANCH  22  24
ENDBRANCH   1  22
TORSDOF 7
