REMARK  1 active torsions:
REMARK  status: ('A' for Active; 'I' for Inactive)
REMARK    1  A    between atoms: C3_3  and  O1_4 
ROOT
HETATM    1  C1  UNL     1       3.706  -2.551  -1.137  1.00  0.00     0.094 C 
HETATM    2  C2  UNL     1       3.330  -1.343  -0.744  1.00  0.00    -0.138 C 
HETATM    3  C3  UNL     1       2.790  -0.206  -0.408  1.00  0.00     0.182 C 
HETATM    4  C5  UNL     1       1.386  -0.025  -0.459  1.00  0.00     0.181 C 
HETATM    5  C6  UNL     1       0.476  -1.082  -0.884  1.00  0.00     0.056 C 
HETATM    6  C7  UNL     1       0.200  -2.284  -0.143  1.00  0.00     0.122 C 
HETATM    7  N1  UNL     1      -0.945  -2.880  -0.809  1.00  0.00    -0.386 N 
HETATM    8  C8  UNL     1      -2.073  -2.016  -0.567  1.00  0.00     0.092 A 
HETATM    9  C9  UNL     1      -3.245  -2.446  -1.164  1.00  0.00     0.151 A 
HETATM   10  N2  UNL     1      -4.500  -1.931  -1.168  1.00  0.00    -0.252 NA
HETATM   11  C10 UNL     1      -4.584  -0.774  -0.436  1.00  0.00     0.235 A 
HETATM   12  N3  UNL     1      -3.467  -0.277   0.190  1.00  0.00    -0.222 NA
HETATM   13  C11 UNL     1      -2.256  -0.850   0.143  1.00  0.00     0.157 A 
HETATM   14  N4  UNL     1      -1.514   0.107   0.954  1.00  0.00    -0.337 N 
HETATM   15  C12 UNL     1      -0.970   1.383   0.586  1.00  0.00     0.069 A 
HETATM   16  C13 UNL     1      -1.732   2.293   1.341  1.00  0.00     0.059 A 
HETATM   17  C14 UNL     1      -1.573   3.687   1.319  1.00  0.00     0.074 A 
HETATM   18 CL1  UNL     1      -2.485   4.858   2.230  1.00  0.00    -0.081 Cl
HETATM   19  C15 UNL     1      -0.597   4.210   0.495  1.00  0.00     0.140 A 
HETATM   20  F1  UNL     1      -0.313   5.525   0.355  1.00  0.00    -0.204 F 
HETATM   21  C16 UNL     1       0.141   3.304  -0.238  1.00  0.00     0.083 A 
HETATM   22  C17 UNL     1      -0.016   1.941  -0.215  1.00  0.00     0.099 A 
HETATM   23  O2  UNL     1       0.839   1.150  -1.041  1.00  0.00    -0.339 OA
HETATM   24  H11 UNL     1      -1.020  -3.749  -1.366  1.00  0.00     0.159 HD
HETATM   25  H14 UNL     1      -1.381  -0.196   1.940  1.00  0.00     0.167 HD
ENDROOT
BRANCH   3  26
HETATM   26  O1  UNL     1       3.767   0.686  -0.033  1.00  0.00    -0.366 OA
HETATM   27  C4  UNL     1       3.999   1.042   1.317  1.00  0.00     0.204 C 
ENDBRANCH   3  26
TORSDOF 1
