REMARK  2 active torsions:
REMARK  status: ('A' for Active; 'I' for Inactive)
REMARK    1  A    between atoms: C2_2  and  C3_3 
REMARK       I    between atoms: C3_3  and  N1_5 
REMARK    2  A    between atoms: C7_9  and  N2_10 
ROOT
HETATM    1  C3  UNL     1       3.522   0.415   1.000  1.00  0.00     0.219 C 
HETATM    2  O1  UNL     1       4.432  -0.420   1.319  1.00  0.00    -0.273 OA
HETATM    3  N1  UNL     1       2.406   0.142   0.185  1.00  0.00    -0.346 N 
HETATM    4  C4  UNL     1       1.340   1.090  -0.200  1.00  0.00     0.153 C 
HETATM    5  C5  UNL     1       0.022   0.352  -0.162  1.00  0.00     0.006 C 
HETATM    6  C6  UNL     1      -0.156  -0.839  -0.757  1.00  0.00     0.012 A 
HETATM    7  C7  UNL     1      -1.423  -1.547  -0.718  1.00  0.00     0.140 A 
HETATM    8  N3  UNL     1      -1.376  -2.711  -1.293  1.00  0.00    -0.224 NA
HETATM    9  C14 UNL     1      -0.158  -3.145  -1.879  1.00  0.00     0.229 A 
HETATM   10  N4  UNL     1       1.004  -2.546  -1.959  1.00  0.00    -0.271 NA
HETATM   11  C15 UNL     1       1.147  -1.234  -1.394  1.00  0.00     0.164 A 
HETATM   12  C16 UNL     1       2.229  -1.218  -0.373  1.00  0.00     0.158 C 
ENDROOT
BRANCH   7  13
HETATM   13  N2  UNL     1      -2.502  -0.882  -0.072  1.00  0.00    -0.332 N 
HETATM   14  C8  UNL     1      -2.450  -0.780   1.349  1.00  0.00     0.112 A 
HETATM   15  C9  UNL     1      -3.457  -0.157   1.945  1.00  0.00     0.026 A 
HETATM   16 BR1  UNL     1      -3.403  -0.014   3.826  1.00  0.00    -0.050 Br
HETATM   17  C10 UNL     1      -4.588   0.414   1.223  1.00  0.00     0.018 A 
HETATM   18  C11 UNL     1      -4.561   0.277  -0.092  1.00  0.00    -0.000 A 
HETATM   19  C12 UNL     1      -3.541  -0.378  -0.951  1.00  0.00     0.109 A 
HETATM   20  C13 UNL     1      -2.951   0.708  -1.828  1.00  0.00     0.037 C 
ENDBRANCH   7  13
BRANCH   1  21
HETATM   21  C2  UNL     1       3.655   1.800   1.537  1.00  0.00     0.098 C 
HETATM   22  C1  UNL     1       4.897   1.932   2.387  1.00  0.00     0.014 C 
ENDBRANCH   1  21
TORSDOF 2
