REMARK  8 active torsions:
REMARK  status: ('A' for Active; 'I' for Inactive)
REMARK    1  A    between atoms: C2_2  and  C3_3 
REMARK       I    between atoms: C3_3  and  N1_5 
REMARK    2  A    between atoms: N1_5  and  C4_6 
REMARK    3  A    between atoms: C4_6  and  C5_7 
REMARK    4  A    between atoms: C4_6  and  C14_18 
REMARK    5  A    between atoms: C6_8  and  C7_9 
REMARK    6  A    between atoms: C7_9  and  N2_10 
REMARK    7  A    between atoms: N2_10  and  C8_11 
REMARK    8  A    between atoms: C14_18  and  C15_19 
ROOT
HETATM    1  C5  UNL     1      -0.135  -1.180   0.322  1.00  0.00     0.027 C 
HETATM    2  C6  UNL     1       0.156   0.062   0.569  1.00  0.00    -0.005 C 
ENDROOT
BRANCH   1   3
HETATM    3  C4  UNL     1      -1.373  -1.550   0.991  1.00  0.00     0.031 C 
BRANCH   3   4
HETATM    4  N1  UNL     1      -2.258  -0.759   1.828  1.00  0.00    -0.327 N 
HETATM    5  C3  UNL     1      -2.796   0.371   1.139  1.00  0.00     0.221 C 
HETATM    6  O1  UNL     1      -2.937   1.113   0.143  1.00  0.00    -0.273 OA
HETATM    7  H6  UNL     1      -2.562  -0.852   2.816  1.00  0.00     0.169 HD
BRANCH   5   8
HETATM    8  C2  UNL     1      -3.728   1.272   1.887  1.00  0.00     0.098 C 
HETATM    9  C1  UNL     1      -4.186   2.440   1.081  1.00  0.00     0.014 C 
ENDBRANCH   5   8
ENDBRANCH   3   4
BRANCH   3  10
HETATM   10  C14 UNL     1      -2.132  -2.664   1.092  1.00  0.00     0.013 C 
BRANCH  10  11
HETATM   11  C15 UNL     1      -2.890  -3.872   1.161  1.00  0.00     0.114 C 
HETATM   12 BR2  UNL     1      -4.673  -3.505   0.418  1.00  0.00    -0.092 Br
ENDBRANCH  10  11
ENDBRANCH   3  10
ENDBRANCH   1   3
BRANCH   2  13
HETATM   13  C7  UNL     1       1.365   0.707   0.012  1.00  0.00     0.147 C 
BRANCH  13  14
HETATM   14  N2  UNL     1       2.110  -0.207  -0.794  1.00  0.00    -0.386 N 
HETATM   15  H11 UNL     1       1.887  -1.222  -0.868  1.00  0.00     0.160 HD
BRANCH  14  16
HETATM   16  C8  UNL     1       3.215   0.332  -1.526  1.00  0.00     0.029 A 
HETATM   17  C9  UNL     1       3.513   1.668  -1.406  1.00  0.00     0.029 A 
HETATM   18  C10 UNL     1       4.578   2.179  -2.163  1.00  0.00     0.004 A 
HETATM   19  C11 UNL     1       5.333   1.385  -3.020  1.00  0.00     0.019 A 
HETATM   20  C12 UNL     1       4.953   0.069  -3.064  1.00  0.00     0.013 A 
HETATM   21 BR1  UNL     1       5.937  -1.097  -4.218  1.00  0.00    -0.051 Br
HETATM   22  C13 UNL     1       3.920  -0.524  -2.358  1.00  0.00     0.048 A 
ENDBRANCH  14  16
ENDBRANCH  13  14
ENDBRANCH   2  13
TORSDOF 8
