REMARK  3 active torsions:
REMARK  status: ('A' for Active; 'I' for Inactive)
REMARK    1  A    between atoms: C2_2  and  C3_3 
REMARK       I    between atoms: C3_3  and  N1_5 
REMARK    2  A    between atoms: N1_5  and  C4_6 
REMARK    3  A    between atoms: C9_13  and  N4_14 
ROOT
HETATM    1  C4  UNL     1       1.377  -1.104  -0.708  1.00  0.00     0.035 A 
HETATM    2  C5  UNL     1       1.795  -2.391  -0.362  1.00  0.00     0.032 A 
HETATM    3  C6  UNL     1       0.941  -3.275   0.273  1.00  0.00     0.035 A 
HETATM    4  C7  UNL     1      -0.373  -2.929   0.600  1.00  0.00     0.072 A 
HETATM    5  N2  UNL     1      -1.244  -3.725   1.213  1.00  0.00    -0.241 NA
HETATM    6  C8  UNL     1      -2.482  -3.273   1.478  1.00  0.00     0.236 A 
HETATM    7  N3  UNL     1      -2.857  -2.008   1.125  1.00  0.00    -0.223 NA
HETATM    8  C9  UNL     1      -1.990  -1.165   0.495  1.00  0.00     0.144 A 
HETATM    9  C15 UNL     1      -0.730  -1.650   0.235  1.00  0.00     0.041 A 
HETATM   10  C16 UNL     1       0.085  -0.746  -0.394  1.00  0.00     0.047 A 
ENDROOT
BRANCH   8  11
HETATM   11  N4  UNL     1      -2.593   0.085   0.201  1.00  0.00    -0.336 N 
HETATM   12  C10 UNL     1      -2.826   0.777   1.447  1.00  0.00     0.112 A 
HETATM   13  C11 UNL     1      -3.371   1.999   1.541  1.00  0.00     0.026 A 
HETATM   14 BR1  UNL     1      -3.699   2.957   3.169  1.00  0.00    -0.050 Br
HETATM   15  C12 UNL     1      -3.776   2.708   0.309  1.00  0.00     0.018 A 
HETATM   16  C13 UNL     1      -3.558   2.053  -0.803  1.00  0.00    -0.005 A 
HETATM   17  C14 UNL     1      -2.973   0.720  -1.036  1.00  0.00     0.157 A 
ENDBRANCH   8  11
BRANCH   1  18
HETATM   18  N1  UNL     1       2.333  -0.291  -1.352  1.00  0.00    -0.327 N 
HETATM   19  C3  UNL     1       3.186   0.528  -0.558  1.00  0.00     0.221 C 
HETATM   20  O1  UNL     1       3.131   0.566   0.709  1.00  0.00    -0.273 OA
HETATM   21  H6  UNL     1       2.452  -0.257  -2.396  1.00  0.00     0.169 HD
BRANCH  19  22
HETATM   22  C2  UNL     1       4.213   1.405  -1.194  1.00  0.00     0.098 C 
HETATM   23  C1  UNL     1       4.931   2.127  -0.053  1.00  0.00     0.014 C 
ENDBRANCH  19  22
ENDBRANCH   1  18
TORSDOF 3
