REMARK  9 active torsions:
REMARK  status: ('A' for Active; 'I' for Inactive)
REMARK    1  A    between atoms: C2_2  and  C3_3 
REMARK    2  A    between atoms: C3_3  and  C4_4 
REMARK    3  A    between atoms: C4_4  and  C5_5 
REMARK    4  A    between atoms: C5_5  and  C6_6 
REMARK    5  A    between atoms: C6_6  and  O1_7 
REMARK    6  A    between atoms: O1_7  and  C7_8 
REMARK    7  A    between atoms: C9_10  and  N1_11 
REMARK    8  A    between atoms: N1_11  and  C10_12 
REMARK    9  A    between atoms: C20_26  and  O2_27 
ROOT
HETATM    1  C7  UNL     1      -0.652   0.023  -1.842  1.00  0.00     0.102 A 
HETATM    2  C8  UNL     1      -1.533  -0.604  -1.041  1.00  0.00     0.074 A 
HETATM    3  C9  UNL     1      -2.982  -0.470  -1.190  1.00  0.00     0.193 A 
HETATM    4  N2  UNL     1      -3.703  -1.730  -1.347  1.00  0.00    -0.244 NA
HETATM    5  C16 UNL     1      -4.969  -1.641  -1.645  1.00  0.00     0.102 C 
HETATM    6  C17 UNL     1      -5.467  -0.399  -1.739  1.00  0.00     0.150 C 
HETATM    7  N3  UNL     1      -4.566   0.352  -2.589  1.00  0.00    -0.258 NA
HETATM    8  C18 UNL     1      -3.278   0.366  -2.374  1.00  0.00     0.091 A 
HETATM    9  C19 UNL     1      -2.360   1.084  -3.251  1.00  0.00     0.071 A 
HETATM   10  C20 UNL     1      -1.061   0.889  -2.964  1.00  0.00     0.103 A 
ENDROOT
BRANCH   3  11
HETATM   11  N1  UNL     1      -3.452   0.208   0.035  1.00  0.00    -0.354 N 
HETATM   12  H15 UNL     1      -3.851   1.174  -0.097  1.00  0.00     0.163 HD
BRANCH  11  13
HETATM   13  C10 UNL     1      -3.407  -0.327   1.328  1.00  0.00     0.032 A 
HETATM   14  C11 UNL     1      -2.953  -1.573   1.670  1.00  0.00     0.032 A 
HETATM   15  C12 UNL     1      -2.903  -2.088   2.946  1.00  0.00     0.046 A 
HETATM   16  C13 UNL     1      -3.346  -1.294   3.979  1.00  0.00     0.138 A 
HETATM   17  F1  UNL     1      -3.309  -1.773   5.248  1.00  0.00    -0.204 F 
HETATM   18  C14 UNL     1      -3.812  -0.037   3.696  1.00  0.00     0.074 A 
HETATM   19 CL1  UNL     1      -4.380   0.991   4.992  1.00  0.00    -0.081 Cl
HETATM   20  C15 UNL     1      -3.838   0.426   2.399  1.00  0.00     0.056 A 
ENDBRANCH  11  13
ENDBRANCH   3  11
BRANCH   1  21
HETATM   21  O1  UNL     1       0.756  -0.034  -1.776  1.00  0.00    -0.348 OA
BRANCH  21  22
HETATM   22  C6  UNL     1       1.428   0.160  -0.537  1.00  0.00     0.176 C 
BRANCH  22  23
HETATM   23  C5  UNL     1       2.908  -0.026  -0.801  1.00  0.00     0.027 C 
BRANCH  23  24
HETATM   24  C4  UNL     1       3.728   0.157   0.458  1.00  0.00     0.002 C 
BRANCH  24  25
HETATM   25  C3  UNL     1       5.201  -0.048   0.120  1.00  0.00    -0.000 C 
BRANCH  25  26
HETATM   26  C2  UNL     1       6.012   0.135   1.374  1.00  0.00    -0.005 C 
HETATM   27  C1  UNL     1       5.605  -0.856   2.425  1.00  0.00     0.005 C 
ENDBRANCH  25  26
ENDBRANCH  24  25
ENDBRANCH  23  24
ENDBRANCH  22  23
ENDBRANCH  21  22
ENDBRANCH   1  21
BRANCH  10  28
HETATM   28  O2  UNL     1      -0.231   1.572  -3.816  1.00  0.00    -0.353 OA
HETATM   29  C21 UNL     1       0.805   2.443  -3.468  1.00  0.00     0.210 C 
ENDBRANCH  10  28
TORSDOF 9
