REMARK  4 active torsions:
REMARK  status: ('A' for Active; 'I' for Inactive)
REMARK    1  A    between atoms: C2_2  and  C3_3 
REMARK       I    between atoms: C3_3  and  N1_5 
REMARK    2  A    between atoms: N1_5  and  C4_6 
REMARK    3  A    between atoms: C9_13  and  S1_14 
REMARK    4  A    between atoms: S1_14  and  C10_15 
ROOT
HETATM    1  C4  UNL     1       2.278  -0.758  -0.720  1.00  0.00     0.035 A 
HETATM    2  C5  UNL     1       2.807  -2.029  -0.660  1.00  0.00     0.032 A 
HETATM    3  C6  UNL     1       1.975  -3.101  -0.410  1.00  0.00     0.035 A 
HETATM    4  C7  UNL     1       0.632  -2.841  -0.228  1.00  0.00     0.071 A 
HETATM    5  N2  UNL     1      -0.141  -3.906   0.013  1.00  0.00    -0.241 NA
HETATM    6  C8  UNL     1      -1.475  -3.733   0.203  1.00  0.00     0.234 A 
HETATM    7  N3  UNL     1      -2.039  -2.513   0.155  1.00  0.00    -0.234 NA
HETATM    8  C9  UNL     1      -1.317  -1.419  -0.081  1.00  0.00     0.112 A 
HETATM    9  C16 UNL     1       0.054  -1.585  -0.277  1.00  0.00     0.031 A 
HETATM   10  C17 UNL     1       0.944  -0.554  -0.533  1.00  0.00     0.046 A 
ENDROOT
BRANCH   8  11
HETATM   11  S1  UNL     1      -1.836   0.274  -0.188  1.00  0.00    -0.070 SA
BRANCH  11  12
HETATM   12  C10 UNL     1      -3.566   0.503   0.058  1.00  0.00     0.008 A 
HETATM   13  C11 UNL     1      -4.519  -0.450   0.314  1.00  0.00     0.019 A 
HETATM   14  C12 UNL     1      -5.850  -0.075   0.481  1.00  0.00     0.003 A 
HETATM   15  C13 UNL     1      -6.250   1.241   0.397  1.00  0.00     0.019 A 
HETATM   16  C14 UNL     1      -5.297   2.196   0.140  1.00  0.00     0.012 A 
HETATM   17 BR1  UNL     1      -5.895   3.996   0.033  1.00  0.00    -0.051 Br
HETATM   18  C15 UNL     1      -3.970   1.825  -0.027  1.00  0.00     0.038 A 
ENDBRANCH  11  12
ENDBRANCH   8  11
BRANCH   1  19
HETATM   19  N1  UNL     1       3.165   0.332  -0.981  1.00  0.00    -0.327 N 
HETATM   20  C3  UNL     1       3.838   1.065   0.034  1.00  0.00     0.221 C 
HETATM   21  O1  UNL     1       3.801   0.924   1.283  1.00  0.00    -0.273 OA
HETATM   22  H6  UNL     1       3.303   0.577  -1.976  1.00  0.00     0.169 HD
BRANCH  20  23
HETATM   23  C2  UNL     1       4.722   2.166  -0.389  1.00  0.00     0.098 C 
HETATM   24  C1  UNL     1       5.332   2.808   0.822  1.00  0.00     0.014 C 
ENDBRANCH  20  23
ENDBRANCH   1  19
TORSDOF 4
