REMARK  6 active torsions:
REMARK  status: ('A' for Active; 'I' for Inactive)
REMARK    1  A    between atoms: O1_2  and  C2_3 
REMARK    2  A    between atoms: C2_3  and  C3_4 
REMARK    3  A    between atoms: C3_4  and  O2_5 
REMARK    4  A    between atoms: O2_5  and  C4_6 
REMARK    5  A    between atoms: C8_12  and  N3_13 
REMARK    6  A    between atoms: N3_13  and  C9_14 
ROOT
HETATM    1  C4  UNL     1       1.988  -0.378   0.265  1.00  0.00     0.093 C 
HETATM    2  C5  UNL     1       1.546  -1.273  -0.619  1.00  0.00     0.065 C 
HETATM    3  C6  UNL     1       2.583  -1.764  -1.553  1.00  0.00     0.073 C 
HETATM    4  N1  UNL     1       0.293  -1.883  -0.888  1.00  0.00    -0.244 NA
HETATM    5  C7  UNL     1      -0.940  -1.586  -0.646  1.00  0.00     0.235 C 
HETATM    6  N2  UNL     1      -1.604  -0.509   0.004  1.00  0.00    -0.225 NA
HETATM    7  C8  UNL     1      -1.232   0.367   0.869  1.00  0.00     0.129 C 
HETATM    8  C17 UNL     1       0.033   0.640   1.562  1.00  0.00     0.053 C 
HETATM    9  C18 UNL     1       1.331   0.364   1.357  1.00  0.00     0.042 C 
ENDROOT
BRANCH   7  10
HETATM   10  N3  UNL     1      -2.271   1.256   1.224  1.00  0.00    -0.341 N 
HETATM   11  H12 UNL     1      -2.000   2.091   1.813  1.00  0.00     0.167 HD
BRANCH  10  12
HETATM   12  C9  UNL     1      -3.613   1.071   0.831  1.00  0.00     0.034 C 
HETATM   13  C10 UNL     1      -3.838   0.974  -0.470  1.00  0.00     0.037 C 
HETATM   14  C11 UNL     1      -5.144   0.782  -1.091  1.00  0.00    -0.049 C 
HETATM   15  C12 UNL     1      -5.119   0.132  -2.450  1.00  0.00     0.049 C 
HETATM   16  C13 UNL     1      -6.339   1.080  -0.665  1.00  0.00    -0.019 C 
HETATM   17  C14 UNL     1      -6.684   1.149   0.590  1.00  0.00     0.013 C 
HETATM   18  C15 UNL     1      -5.895   1.049   1.812  1.00  0.00     0.003 C 
HETATM   19  C16 UNL     1      -4.578   1.013   1.952  1.00  0.00     0.029 C 
ENDBRANCH  10  12
ENDBRANCH   7  10
BRANCH   1  20
HETATM   20  O2  UNL     1       3.324  -0.029   0.202  1.00  0.00    -0.347 OA
BRANCH  20  21
HETATM   21  C3  UNL     1       4.260  -0.834   0.894  1.00  0.00     0.201 C 
BRANCH  21  22
HETATM   22  C2  UNL     1       5.671  -0.269   0.689  1.00  0.00     0.193 C 
BRANCH  22  23
HETATM   23  O1  UNL     1       5.974  -0.268  -0.668  1.00  0.00    -0.394 OA
HETATM   24  C1  UNL     1       7.273   0.256  -0.806  1.00  0.00     0.201 C 
ENDBRANCH  22  23
ENDBRANCH  21  22
ENDBRANCH  20  21
ENDBRANCH   1  20
TORSDOF 6
