REMARK  6 active torsions:
REMARK  status: ('A' for Active; 'I' for Inactive)
REMARK    1  A    between atoms: C2_2  and  C3_3 
REMARK    2  A    between atoms: C3_3  and  O1_4 
REMARK    3  A    between atoms: O1_4  and  C4_5 
REMARK    4  A    between atoms: C7_8  and  N1_9 
REMARK    5  A    between atoms: N1_9  and  C8_10 
REMARK    6  A    between atoms: C17_23  and  O2_24 
ROOT
HETATM    1  C4  UNL     1      -2.132  -0.573   0.434  1.00  0.00     0.103 A 
HETATM    2  C5  UNL     1      -0.794  -0.328   0.397  1.00  0.00     0.057 A 
HETATM    3  C6  UNL     1       0.196  -1.136  -0.089  1.00  0.00     0.042 A 
HETATM    4  C7  UNL     1       1.529  -0.808  -0.087  1.00  0.00     0.142 A 
HETATM    5  N2  UNL     1       2.343  -1.724  -0.603  1.00  0.00    -0.224 NA
HETATM    6  C14 UNL     1       1.962  -2.900  -1.105  1.00  0.00     0.236 A 
HETATM    7  N3  UNL     1       0.659  -3.207  -1.101  1.00  0.00    -0.241 NA
HETATM    8  C15 UNL     1      -0.226  -2.339  -0.599  1.00  0.00     0.075 A 
HETATM    9  C16 UNL     1      -1.557  -2.696  -0.614  1.00  0.00     0.072 A 
HETATM   10  C17 UNL     1      -2.513  -1.815  -0.098  1.00  0.00     0.103 A 
ENDROOT
BRANCH   4  11
HETATM   11  N1  UNL     1       1.951   0.438   0.437  1.00  0.00    -0.340 N 
HETATM   12  H9  UNL     1       1.279   1.122   0.808  1.00  0.00     0.167 HD
BRANCH  11  13
HETATM   13  C8  UNL     1       3.257   0.978   0.560  1.00  0.00     0.035 A 
HETATM   14  C9  UNL     1       3.569   2.244   1.022  1.00  0.00     0.032 A 
HETATM   15  C10 UNL     1       4.827   2.740   1.135  1.00  0.00     0.046 A 
HETATM   16  C11 UNL     1       5.901   1.990   0.785  1.00  0.00     0.138 A 
HETATM   17  F1  UNL     1       7.123   2.537   0.919  1.00  0.00    -0.204 F 
HETATM   18  C12 UNL     1       5.670   0.705   0.311  1.00  0.00     0.074 A 
HETATM   19 CL1  UNL     1       7.084  -0.219  -0.126  1.00  0.00    -0.081 Cl
HETATM   20  C13 UNL     1       4.372   0.260   0.220  1.00  0.00     0.056 A 
ENDBRANCH  11  13
ENDBRANCH   4  11
BRANCH   1  21
HETATM   21  O1  UNL     1      -3.225   0.097   0.865  1.00  0.00    -0.348 OA
BRANCH  21  22
HETATM   22  C3  UNL     1      -3.251   1.350   1.416  1.00  0.00     0.175 C 
BRANCH  22  23
HETATM   23  C2  UNL     1      -2.790   2.472   0.524  1.00  0.00     0.022 C 
HETATM   24  C1  UNL     1      -3.677   2.526  -0.712  1.00  0.00     0.007 C 
ENDBRANCH  22  23
ENDBRANCH  21  22
ENDBRANCH   1  21
BRANCH  10  25
HETATM   25  O2  UNL     1      -3.835  -2.276  -0.163  1.00  0.00    -0.353 OA
HETATM   26  C18 UNL     1      -4.125  -3.531  -0.711  1.00  0.00     0.210 C 
ENDBRANCH  10  25
TORSDOF 6
