REMARK  2 active torsions:
REMARK  status: ('A' for Active; 'I' for Inactive)
REMARK    1  A    between atoms: C7_7  and  N1_8 
REMARK    2  A    between atoms: N1_8  and  C8_9 
ROOT
HETATM    1  C1  UNL     1       7.603  -0.440  -0.482  1.00  0.00     0.018 C 
HETATM    2  C2  UNL     1       6.584   0.020  -0.029  1.00  0.00    -0.078 C 
HETATM    3  C3  UNL     1       5.386   0.582   0.524  1.00  0.00     0.019 A 
HETATM    4  C4  UNL     1       5.316   1.808   1.147  1.00  0.00     0.021 A 
HETATM    5  C5  UNL     1       4.103   2.233   1.635  1.00  0.00     0.004 A 
HETATM    6  C6  UNL     1       2.935   1.508   1.541  1.00  0.00     0.029 A 
HETATM    7  C7  UNL     1       2.962   0.274   0.924  1.00  0.00     0.034 A 
HETATM    8  C19 UNL     1       4.207  -0.147   0.432  1.00  0.00     0.050 A 
ENDROOT
BRANCH   7   9
HETATM    9  N1  UNL     1       1.876  -0.652   0.702  1.00  0.00    -0.343 N 
HETATM   10  H5  UNL     1       1.541  -1.322   1.429  1.00  0.00     0.167 HD
BRANCH   9  11
HETATM   11  C8  UNL     1       1.268  -0.614  -0.577  1.00  0.00     0.129 C 
HETATM   12  N2  UNL     1       1.174   0.397  -1.360  1.00  0.00    -0.227 NA
HETATM   13  C9  UNL     1       1.655   1.695  -1.112  1.00  0.00     0.228 C 
HETATM   14  N3  UNL     1       0.671   2.387  -0.624  1.00  0.00    -0.281 NA
HETATM   15  C10 UNL     1      -0.618   1.722  -0.451  1.00  0.00     0.176 C 
HETATM   16  C11 UNL     1      -1.595   2.639   0.233  1.00  0.00     0.189 C 
HETATM   17  O1  UNL     1      -2.803   2.020   0.426  1.00  0.00    -0.387 OA
HETATM   18  C12 UNL     1      -3.446   1.609  -0.707  1.00  0.00     0.194 C 
HETATM   19  C13 UNL     1      -4.785   0.975  -0.341  1.00  0.00     0.200 C 
HETATM   20  O2  UNL     1      -4.614  -0.155   0.506  1.00  0.00    -0.361 OA
HETATM   21  C14 UNL     1      -5.808  -0.689   1.028  1.00  0.00     0.131 C 
HETATM   22  C15 UNL     1      -6.120  -1.746   0.291  1.00  0.00    -0.050 C 
HETATM   23  B1  UNL     1      -4.916  -3.137   0.401  1.00  0.00     0.363 B 
HETATM   24  O3  UNL     1      -3.225  -2.445  -0.160  1.00  0.00    -0.450 OA
HETATM   25  C16 UNL     1      -2.337  -3.570  -0.036  1.00  0.00     0.168 C 
HETATM   26  C17 UNL     1      -1.070  -3.293  -0.853  1.00  0.00     0.192 C 
HETATM   27  O4  UNL     1      -0.499  -2.156  -0.341  1.00  0.00    -0.382 OA
HETATM   28  C18 UNL     1       0.643  -1.854  -1.085  1.00  0.00     0.246 C 
ENDBRANCH   9  11
ENDBRANCH   7   9
TORSDOF 2
