REMARK  11 active torsions:
REMARK  status: ('A' for Active; 'I' for Inactive)
REMARK    1  A    between atoms: C3_4  and  C4_5 
REMARK    2  A    between atoms: C5_6  and  N1_8 
REMARK    3  A    between atoms: N1_8  and  C7_9 
REMARK    4  A    between atoms: C9_11  and  O1_12 
REMARK    5  A    between atoms: O1_12  and  C10_13 
REMARK    6  A    between atoms: C10_13  and  C11_14 
REMARK    7  A    between atoms: C11_14  and  C13_16 
REMARK    8  A    between atoms: C13_16  and  N2_17 
REMARK    9  A    between atoms: C13_16  and  C14_18 
REMARK   10  A    between atoms: C14_18  and  C15_19 
REMARK   11  A    between atoms: C15_19  and  N3_20 
ROOT
HETATM    1  C7  UNL     1       2.104   0.909   0.227  1.00  0.00     0.133 A 
HETATM    2  C8  UNL     1       0.818   0.446   0.405  1.00  0.00     0.108 A 
HETATM    3  C9  UNL     1      -0.214   1.297   0.067  1.00  0.00     0.169 A 
HETATM    4  N4  UNL     1       0.030   2.540  -0.420  1.00  0.00    -0.218 NA
HETATM    5  C16 UNL     1       1.287   2.989  -0.592  1.00  0.00     0.238 A 
HETATM    6  N5  UNL     1       2.283   2.150  -0.259  1.00  0.00    -0.224 NA
ENDROOT
BRANCH   3   7
HETATM    7  O1  UNL     1      -1.511   0.805   0.256  1.00  0.00    -0.334 OA
BRANCH   7   8
HETATM    8  C10 UNL     1      -2.578   1.670  -0.088  1.00  0.00     0.183 C 
BRANCH   8   9
HETATM    9  C11 UNL     1      -3.917   0.948   0.192  1.00  0.00     0.039 C 
HETATM   10  C12 UNL     1      -3.907   0.639   1.649  1.00  0.00     0.014 C 
BRANCH   9  11
HETATM   11  C13 UNL     1      -3.931  -0.220  -0.730  1.00  0.00     0.225 C 
BRANCH  11  12
HETATM   12  N2  UNL     1      -3.826   0.361  -2.096  1.00  0.00     0.083 N 
HETATM   13  H18 UNL     1      -2.829   0.369  -2.416  1.00  0.00     0.313 HD
HETATM   14  H19 UNL     1      -4.266   1.320  -2.104  1.00  0.00     0.313 HD
ENDBRANCH  11  12
BRANCH  11  15
HETATM   15  C14 UNL     1      -5.137  -1.082  -0.734  1.00  0.00     0.065 C 
BRANCH  15  16
HETATM   16  C15 UNL     1      -5.516  -1.757   0.531  1.00  0.00     0.269 C 
BRANCH  16  17
HETATM   17  N3  UNL     1      -6.723  -2.555   0.229  1.00  0.00     0.078 N 
HETATM   18  H24 UNL     1      -7.427  -1.875  -0.147  1.00  0.00     0.312 HD
HETATM   19  H25 UNL     1      -7.078  -2.870   1.155  1.00  0.00     0.312 HD
ENDBRANCH  16  17
ENDBRANCH  15  16
ENDBRANCH  11  15
ENDBRANCH   9  11
ENDBRANCH   8   9
ENDBRANCH   7   8
ENDBRANCH   3   7
BRANCH   1  20
HETATM   20  N1  UNL     1       3.262   0.123   0.540  1.00  0.00    -0.345 N 
HETATM   21  H9  UNL     1       3.075  -0.842   0.918  1.00  0.00     0.167 HD
BRANCH  20  22
HETATM   22  C5  UNL     1       4.636   0.466   0.410  1.00  0.00     0.007 C 
HETATM   23  C4  UNL     1       5.497  -0.431  -0.055  1.00  0.00     0.027 C 
HETATM   24  C6  UNL     1       5.056   1.835   0.807  1.00  0.00     0.068 C 
BRANCH  23  25
HETATM   25  C3  UNL     1       5.234  -1.801  -0.480  1.00  0.00     0.039 C 
HETATM   26  C2  UNL     1       6.156  -2.635  -0.935  1.00  0.00     0.090 C 
HETATM   27  C1  UNL     1       7.545  -2.113  -1.005  1.00  0.00     0.082 C 
HETATM   28  F1  UNL     1       5.716  -3.869  -1.281  1.00  0.00    -0.211 F 
ENDBRANCH  23  25
ENDBRANCH  20  22
ENDBRANCH   1  20
TORSDOF 11
