REMARK  4 active torsions:
REMARK  status: ('A' for Active; 'I' for Inactive)
REMARK    1  A    between atoms: C7_7  and  N1_8 
REMARK    2  A    between atoms: N1_8  and  C8_9 
REMARK    3  A    between atoms: C17_21  and  O1_22 
REMARK    4  A    between atoms: O1_22  and  P1_23 
ROOT
HETATM    1  C1  UNL     1      -5.226  -2.179  -1.027  1.00  0.00     0.013 C 
HETATM    2  C2  UNL     1      -4.422  -1.780  -0.211  1.00  0.00    -0.102 C 
HETATM    3  C3  UNL     1      -3.454  -1.300   0.805  1.00  0.00     0.145 A 
HETATM    4  C4  UNL     1      -2.073  -1.432   0.271  1.00  0.00     0.011 A 
HETATM    5  C5  UNL     1      -1.278  -0.393   0.116  1.00  0.00    -0.006 A 
HETATM    6  C6  UNL     1       0.012  -0.794  -0.421  1.00  0.00     0.064 A 
HETATM    7  C7  UNL     1       1.049  -0.022  -0.702  1.00  0.00     0.130 A 
HETATM    8  N2  UNL     1       1.127   1.381  -0.540  1.00  0.00    -0.224 NA
HETATM    9  C14 UNL     1       0.278   2.220  -0.108  1.00  0.00     0.235 A 
HETATM   10  N3  UNL     1      -1.046   2.058   0.364  1.00  0.00    -0.241 NA
HETATM   11  C15 UNL     1      -1.692   0.963   0.456  1.00  0.00     0.070 A 
HETATM   12  C16 UNL     1      -3.021   1.182   0.982  1.00  0.00     0.066 A 
HETATM   13  C17 UNL     1      -3.790   0.115   1.123  1.00  0.00     0.072 A 
ENDROOT
BRANCH  13  14
HETATM   14  O1  UNL     1      -5.068   0.333   1.631  1.00  0.00    -0.333 OA
BRANCH  14  15
HETATM   15  P1  UNL     1      -6.032   1.723   1.159  1.00  0.00     0.008 P 
HETATM   16  H12 UNL     1      -6.292   1.582  -0.268  1.00  0.00     0.085 HD
HETATM   17  H13 UNL     1      -5.263   2.915   1.461  1.00  0.00     0.085 HD
ENDBRANCH  14  15
ENDBRANCH  13  14
BRANCH   7  18
HETATM   18  N1  UNL     1       2.261  -0.561  -1.229  1.00  0.00    -0.341 N 
HETATM   19  H5  UNL     1       2.068  -1.138  -2.077  1.00  0.00     0.167 HD
BRANCH  18  20
HETATM   20  C8  UNL     1       3.580  -0.375  -0.716  1.00  0.00     0.033 A 
HETATM   21  C9  UNL     1       4.663  -0.963  -1.335  1.00  0.00     0.032 A 
HETATM   22  C10 UNL     1       5.919  -0.775  -0.833  1.00  0.00     0.044 A 
HETATM   23  C11 UNL     1       6.081   0.007   0.298  1.00  0.00     0.116 A 
HETATM   24  F1  UNL     1       7.339   0.181   0.782  1.00  0.00    -0.206 F 
HETATM   25  C12 UNL     1       5.000   0.582   0.901  1.00  0.00     0.044 A 
HETATM   26  C13 UNL     1       3.706   0.415   0.418  1.00  0.00     0.032 A 
ENDBRANCH  18  20
ENDBRANCH   7  18
TORSDOF 4
