REMARK  7 active torsions:
REMARK  status: ('A' for Active; 'I' for Inactive)
REMARK    1  A    between atoms: C2_2  and  C3_3 
REMARK    2  A    between atoms: C3_3  and  C4_4 
REMARK    3  A    between atoms: C4_4  and  O1_5 
REMARK    4  A    between atoms: O1_5  and  C5_6 
REMARK    5  A    between atoms: C8_9  and  N1_10 
REMARK    6  A    between atoms: N1_10  and  C9_11 
REMARK    7  A    between atoms: C18_24  and  O2_25 
ROOT
HETATM    1  C5  UNL     1      -1.735  -1.313  -0.514  1.00  0.00     0.103 A 
HETATM    2  C6  UNL     1      -0.469  -0.789  -0.372  1.00  0.00     0.057 A 
HETATM    3  C7  UNL     1       0.652  -1.382   0.152  1.00  0.00     0.042 A 
HETATM    4  C8  UNL     1       1.883  -0.781   0.257  1.00  0.00     0.142 A 
HETATM    5  N2  UNL     1       2.861  -1.513   0.796  1.00  0.00    -0.224 NA
HETATM    6  C15 UNL     1       2.669  -2.762   1.214  1.00  0.00     0.236 A 
HETATM    7  N3  UNL     1       1.463  -3.338   1.108  1.00  0.00    -0.241 NA
HETATM    8  C16 UNL     1       0.420  -2.670   0.576  1.00  0.00     0.075 A 
HETATM    9  C17 UNL     1      -0.784  -3.332   0.502  1.00  0.00     0.072 A 
HETATM   10  C18 UNL     1      -1.870  -2.636  -0.052  1.00  0.00     0.103 A 
ENDROOT
BRANCH   4  11
HETATM   11  N1  UNL     1       2.052   0.537  -0.187  1.00  0.00    -0.340 N 
HETATM   12  H11 UNL     1       1.263   1.084  -0.580  1.00  0.00     0.167 HD
BRANCH  11  13
HETATM   13  C9  UNL     1       3.221   1.337  -0.197  1.00  0.00     0.035 A 
HETATM   14  C10 UNL     1       4.464   0.850   0.128  1.00  0.00     0.032 A 
HETATM   15  C11 UNL     1       5.629   1.585   0.142  1.00  0.00     0.046 A 
HETATM   16  C12 UNL     1       5.587   2.915  -0.191  1.00  0.00     0.138 A 
HETATM   17  F1  UNL     1       6.669   3.713  -0.207  1.00  0.00    -0.204 F 
HETATM   18  C13 UNL     1       4.370   3.459  -0.526  1.00  0.00     0.074 A 
HETATM   19 CL1  UNL     1       4.268   5.139  -0.954  1.00  0.00    -0.081 Cl
HETATM   20  C14 UNL     1       3.254   2.664  -0.517  1.00  0.00     0.056 A 
ENDBRANCH  11  13
ENDBRANCH   4  11
BRANCH   1  21
HETATM   21  O1  UNL     1      -2.860  -0.861  -0.983  1.00  0.00    -0.348 OA
BRANCH  21  22
HETATM   22  C4  UNL     1      -3.637   0.063  -1.520  1.00  0.00     0.176 C 
BRANCH  22  23
HETATM   23  C3  UNL     1      -3.865   1.282  -0.676  1.00  0.00     0.026 C 
BRANCH  23  24
HETATM   24  C2  UNL     1      -2.625   2.023  -0.311  1.00  0.00    -0.002 C 
HETATM   25  C1  UNL     1      -3.022   3.275   0.509  1.00  0.00     0.005 C 
ENDBRANCH  23  24
ENDBRANCH  22  23
ENDBRANCH  21  22
ENDBRANCH   1  21
BRANCH  10  26
HETATM   26  O2  UNL     1      -3.061  -3.347  -0.104  1.00  0.00    -0.353 OA
HETATM   27  C19 UNL     1      -3.106  -4.665   0.381  1.00  0.00     0.210 C 
ENDBRANCH  10  26
TORSDOF 7
