REMARK  5 active torsions:
REMARK  status: ('A' for Active; 'I' for Inactive)
REMARK    1  A    between atoms: C2_2  and  C3_3 
REMARK    2  A    between atoms: C3_3  and  C4_4 
REMARK    3  A    between atoms: C4_4  and  C5_5 
REMARK    4  A    between atoms: C9_10  and  N1_11 
REMARK    5  A    between atoms: N1_11  and  C10_12 
ROOT
HETATM    1  C5  UNL     1       2.175  -0.308   1.177  1.00  0.00     0.147 C 
HETATM    2  O1  UNL     1       1.782   0.976   1.629  1.00  0.00    -0.356 OA
HETATM    3  C6  UNL     1       1.243   1.956   0.835  1.00  0.00     0.136 C 
HETATM    4  C7  UNL     1       0.441   1.476  -0.111  1.00  0.00     0.036 C 
HETATM    5  C8  UNL     1       0.202   0.043  -0.238  1.00  0.00     0.007 C 
HETATM    6  C9  UNL     1      -0.938  -0.414  -0.731  1.00  0.00     0.137 C 
HETATM    7  N2  UNL     1      -1.142  -1.817  -0.843  1.00  0.00    -0.224 NA
HETATM    8  C17 UNL     1      -1.911  -2.479  -0.054  1.00  0.00     0.237 C 
HETATM    9  N3  UNL     1      -1.927  -3.873  -0.397  1.00  0.00    -0.230 NA
HETATM   10  C18 UNL     1      -0.751  -4.450  -0.354  1.00  0.00     0.257 C 
HETATM   11  O2  UNL     1       0.468  -3.832  -0.012  1.00  0.00    -0.319 OA
HETATM   12  P1  UNL     1       0.414  -2.424   0.995  1.00  0.00     0.036 P 
HETATM   13  C19 UNL     1       1.269  -0.943   0.201  1.00  0.00     0.058 C 
HETATM   14  C20 UNL     1       1.887  -1.418  -1.084  1.00  0.00     0.030 C 
HETATM   15  H22 UNL     1       1.047  -2.668   2.279  1.00  0.00     0.089 HD
ENDROOT
BRANCH   6  16
HETATM   16  N1  UNL     1      -1.932   0.518  -1.139  1.00  0.00    -0.340 N 
HETATM   17  H13 UNL     1      -2.077   1.038  -2.019  1.00  0.00     0.167 HD
BRANCH  16  18
HETATM   18  C10 UNL     1      -3.041   0.990  -0.382  1.00  0.00     0.034 A 
HETATM   19  C11 UNL     1      -3.039   2.100   0.426  1.00  0.00     0.032 A 
HETATM   20  C12 UNL     1      -4.101   2.548   1.151  1.00  0.00     0.045 A 
HETATM   21  C13 UNL     1      -5.288   1.846   1.083  1.00  0.00     0.122 A 
HETATM   22  F1  UNL     1      -6.348   2.288   1.801  1.00  0.00    -0.206 F 
HETATM   23  C14 UNL     1      -5.383   0.707   0.288  1.00  0.00    -0.021 A 
HETATM   24  C15 UNL     1      -6.653  -0.065   0.201  1.00  0.00     0.051 C 
HETATM   25  C16 UNL     1      -4.257   0.312  -0.421  1.00  0.00     0.039 A 
ENDBRANCH  16  18
ENDBRANCH   6  16
BRANCH   1  26
HETATM   26  C4  UNL     1       3.623  -0.212   0.821  1.00  0.00     0.034 C 
BRANCH  26  27
HETATM   27  C3  UNL     1       3.940   0.797  -0.256  1.00  0.00     0.002 C 
BRANCH  27  28
HETATM   28  C2  UNL     1       5.443   0.824  -0.551  1.00  0.00    -0.004 C 
HETATM   29  C1  UNL     1       5.689   1.840  -1.621  1.00  0.00     0.005 C 
ENDBRANCH  27  28
ENDBRANCH  26  27
ENDBRANCH   1  26
TORSDOF 5
