REMARK  7 active torsions:
REMARK  status: ('A' for Active; 'I' for Inactive)
REMARK    1  A    between atoms: C2_2  and  C3_3 
REMARK    2  A    between atoms: C3_3  and  C4_4 
REMARK    3  A    between atoms: C4_4  and  C5_5 
REMARK    4  A    between atoms: C5_5  and  O1_6 
REMARK    5  A    between atoms: O1_6  and  C6_7 
REMARK    6  A    between atoms: N3_14  and  C11_15 
REMARK    7  A    between atoms: C17_23  and  O2_24 
ROOT
HETATM    1  C6  UNL     1       0.226  -1.291  -0.214  1.00  0.00     0.100 A 
HETATM    2  C7  UNL     1      -1.037  -1.432   0.156  1.00  0.00     0.044 A 
HETATM    3  C8  UNL     1      -2.162  -1.551  -0.768  1.00  0.00     0.166 A 
HETATM    4  C9  UNL     1      -1.654  -1.488  -2.164  1.00  0.00     0.083 A 
HETATM    5  N1  UNL     1      -2.689  -1.595  -2.954  1.00  0.00    -0.180 NA
HETATM    6  N2  UNL     1      -3.988  -1.739  -2.398  1.00  0.00    -0.295 N 
HETATM    7  C10 UNL     1      -4.237  -0.534  -1.604  1.00  0.00     0.267 C 
HETATM    8  N3  UNL     1      -3.172  -0.507  -0.614  1.00  0.00    -0.347 N 
HETATM    9  C16 UNL     1      -0.276  -1.334  -2.615  1.00  0.00     0.071 A 
HETATM   10  C17 UNL     1       0.617  -1.241  -1.641  1.00  0.00     0.103 A 
HETATM   11  H14 UNL     1      -4.665  -2.531  -2.507  1.00  0.00     0.184 HD
ENDROOT
BRANCH   8  12
HETATM   12  C11 UNL     1      -3.227   0.513   0.379  1.00  0.00     0.069 A 
HETATM   13  C12 UNL     1      -2.638   1.657   0.639  1.00  0.00     0.125 A 
HETATM   14  F1  UNL     1      -1.680   2.101  -0.218  1.00  0.00    -0.208 F 
HETATM   15  C13 UNL     1      -3.183   2.248   1.889  1.00  0.00     0.123 A 
HETATM   16  C14 UNL     1      -4.188   1.259   2.316  1.00  0.00     0.020 A 
HETATM   17 CL1  UNL     1      -5.054   1.618   3.778  1.00  0.00    -0.088 Cl
HETATM   18  C15 UNL     1      -4.212   0.262   1.447  1.00  0.00     0.052 A 
ENDBRANCH   8  12
BRANCH   1  19
HETATM   19  O1  UNL     1       1.275  -1.180   0.696  1.00  0.00    -0.348 OA
BRANCH  19  20
HETATM   20  C5  UNL     1       1.604  -0.049   1.423  1.00  0.00     0.176 C 
BRANCH  20  21
HETATM   21  C4  UNL     1       2.795  -0.217   2.337  1.00  0.00     0.027 C 
BRANCH  21  22
HETATM   22  C3  UNL     1       4.033  -0.584   1.552  1.00  0.00     0.002 C 
BRANCH  22  23
HETATM   23  C2  UNL     1       4.410   0.443   0.541  1.00  0.00    -0.004 C 
HETATM   24  C1  UNL     1       4.709   1.802   1.078  1.00  0.00     0.005 C 
ENDBRANCH  22  23
ENDBRANCH  21  22
ENDBRANCH  20  21
ENDBRANCH  19  20
ENDBRANCH   1  19
BRANCH  10  25
HETATM   25  O2  UNL     1       1.947  -1.094  -2.007  1.00  0.00    -0.353 OA
HETATM   26  C18 UNL     1       2.515  -1.747  -3.123  1.00  0.00     0.210 C 
ENDBRANCH  10  25
TORSDOF 7
