REMARK  4 active torsions:
REMARK  status: ('A' for Active; 'I' for Inactive)
REMARK    1  A    between atoms: C3_3  and  C15_20 
REMARK    2  A    between atoms: C4_4  and  C5_5 
REMARK    3  A    between atoms: C8_10  and  N3_11 
REMARK    4  A    between atoms: N3_11  and  C9_12 
ROOT
HETATM    1  C1  UNL     1      -2.104  -3.119   2.782  1.00  0.00     0.018 C 
HETATM    2  C2  UNL     1      -2.160  -2.145   2.044  1.00  0.00    -0.077 C 
HETATM    3  C3  UNL     1      -2.220  -1.017   1.160  1.00  0.00     0.024 C 
HETATM    4  C4  UNL     1      -1.259  -0.123   1.010  1.00  0.00     0.038 C 
ENDROOT
BRANCH   3   5
HETATM    5  C15 UNL     1      -3.448  -0.894   0.397  1.00  0.00    -0.031 A 
HETATM    6  C16 UNL     1      -4.465  -1.740   0.477  1.00  0.00     0.045 A 
HETATM    7  O1  UNL     1      -4.427  -0.450  -0.472  1.00  0.00     0.000 OA
HETATM    8  C17 UNL     1      -4.172  -0.337  -1.880  1.00  0.00     0.000 C 
ENDBRANCH   3   5
BRANCH   4   9
HETATM    9  C5  UNL     1       0.016  -0.128   1.712  1.00  0.00     0.029 A 
HETATM   10  C6  UNL     1       0.035  -0.434   3.053  1.00  0.00     0.133 A 
HETATM   11  N1  UNL     1       1.166  -0.476   3.789  1.00  0.00    -0.253 NA
HETATM   12  C7  UNL     1       2.302  -0.196   3.128  1.00  0.00     0.234 A 
HETATM   13  N2  UNL     1       2.301   0.105   1.824  1.00  0.00    -0.224 NA
HETATM   14  C8  UNL     1       1.213   0.162   1.044  1.00  0.00     0.141 A 
BRANCH  14  15
HETATM   15  N3  UNL     1       1.222   0.482  -0.339  1.00  0.00    -0.340 N 
HETATM   16  H5  UNL     1       0.281   0.485  -0.792  1.00  0.00     0.167 HD
BRANCH  15  17
HETATM   17  C9  UNL     1       2.339   0.788  -1.159  1.00  0.00     0.035 A 
HETATM   18  C10 UNL     1       3.660   0.656  -0.792  1.00  0.00     0.032 A 
HETATM   19  C11 UNL     1       4.716   0.981  -1.630  1.00  0.00     0.046 A 
HETATM   20  C12 UNL     1       4.380   1.452  -2.878  1.00  0.00     0.138 A 
HETATM   21  F1  UNL     1       5.385   1.791  -3.755  1.00  0.00    -0.204 F 
HETATM   22  C13 UNL     1       3.072   1.621  -3.346  1.00  0.00     0.074 A 
HETATM   23 CL1  UNL     1       2.690   2.217  -4.926  1.00  0.00    -0.081 Cl
HETATM   24  C14 UNL     1       2.111   1.266  -2.426  1.00  0.00     0.056 A 
ENDBRANCH  15  17
ENDBRANCH  14  15
ENDBRANCH   4   9
TORSDOF 4
