REMARK  1 active torsions:
REMARK  status: ('A' for Active; 'I' for Inactive)
REMARK    1  A    between atoms: C2_2  and  C3_3 
ROOT
HETATM    1  C3  UNL     1      -1.560  -1.266   0.452  1.00  0.00    -0.056 C 
HETATM    2  C4  UNL     1      -1.385  -0.124   1.007  1.00  0.00     0.020 C 
HETATM    3  C5  UNL     1      -1.123   1.196   1.462  1.00  0.00     0.007 A 
HETATM    4  C6  UNL     1      -2.337   1.876   1.599  1.00  0.00     0.131 A 
HETATM    5  N1  UNL     1      -2.390   3.177   2.055  1.00  0.00    -0.253 NA
HETATM    6  C7  UNL     1      -1.149   3.673   2.337  1.00  0.00     0.232 A 
HETATM    7  N2  UNL     1       0.033   3.021   2.206  1.00  0.00    -0.245 NA
HETATM    8  C8  UNL     1       0.090   1.759   1.764  1.00  0.00     0.051 A 
HETATM    9  C9  UNL     1       1.443   1.206   1.641  1.00  0.00     0.090 C 
HETATM   10  C10 UNL     1       2.279   2.078   0.724  1.00  0.00     0.023 C 
HETATM   11  C11 UNL     1       3.009   2.594  -0.272  1.00  0.00     0.131 C 
HETATM   12  F1  UNL     1       3.709   3.666  -0.766  1.00  0.00    -0.205 F 
HETATM   13  C12 UNL     1       3.127   1.670  -1.389  1.00  0.00     0.054 A 
HETATM   14 CL1  UNL     1       3.919   1.746  -2.950  1.00  0.00    -0.171 Cl
HETATM   15  C13 UNL     1       2.827   0.487  -1.888  1.00  0.00     0.146 A 
HETATM   16  C14 UNL     1       2.607  -0.789  -2.644  1.00  0.00     0.297 C 
HETATM   17  N3  UNL     1       1.213  -1.099  -2.821  1.00  0.00     0.108 N 
HETATM   18  C15 UNL     1       0.565  -1.508  -1.600  1.00  0.00     0.437 C 
HETATM   19  O1  UNL     1      -0.786  -1.767  -1.801  1.00  0.00    -0.358 OA
HETATM   20  C16 UNL     1      -1.427  -2.201  -0.669  1.00  0.00     0.204 C 
HETATM   21  H15 UNL     1       1.019  -1.718  -3.609  1.00  0.00     0.318 HD
ENDROOT
BRANCH   1  22
HETATM   22  C2  UNL     1      -2.167  -2.052   1.552  1.00  0.00     0.032 C 
HETATM   23  C1  UNL     1      -3.547  -2.582   1.128  1.00  0.00     0.010 C 
ENDBRANCH   1  22
TORSDOF 1
