REMARK  4 active torsions:
REMARK  status: ('A' for Active; 'I' for Inactive)
REMARK    1  A    between atoms: C6_6  and  C7_7 
REMARK    2  A    between atoms: C6_6  and  N2_9 
REMARK    3  A    between atoms: C7_7  and  N1_8 
REMARK    4  A    between atoms: C9_11  and  N3_12 
ROOT
HETATM    1  C1  UNL     1       5.521   0.521  -1.443  1.00  0.00     0.018 C 
HETATM    2  C2  UNL     1       4.464   0.271  -0.922  1.00  0.00    -0.077 C 
HETATM    3  C3  UNL     1       3.196  -0.025  -0.316  1.00  0.00     0.023 A 
HETATM    4  C4  UNL     1       2.048   0.291  -0.902  1.00  0.00     0.030 A 
HETATM    5  C5  UNL     1       0.750   0.001  -0.308  1.00  0.00    -0.029 A 
HETATM    6  C6  UNL     1      -0.377   0.332  -0.913  1.00  0.00     0.046 C 
HETATM    7  C13 UNL     1       0.648  -0.678   1.006  1.00  0.00     0.068 A 
HETATM    8  C14 UNL     1       2.013  -0.942   1.485  1.00  0.00    -0.014 A 
HETATM    9  C15 UNL     1       3.210  -0.694   0.978  1.00  0.00    -0.047 A 
HETATM   10  C16 UNL     1       4.430  -1.090   1.718  1.00  0.00     0.049 C 
ENDROOT
BRANCH   6  11
HETATM   11  C7  UNL     1      -0.625   1.009  -2.209  1.00  0.00     0.324 C 
BRANCH  11  12
HETATM   12  N1  UNL     1      -1.389   0.207  -3.140  1.00  0.00     0.083 N 
HETATM   13  H5  UNL     1      -1.772   0.846  -3.871  1.00  0.00     0.313 HD
HETATM   14  H6  UNL     1      -0.844  -0.542  -3.598  1.00  0.00     0.313 HD
ENDBRANCH  11  12
ENDBRANCH   6  11
BRANCH   6  15
HETATM   15  N2  UNL     1      -1.649   0.057  -0.344  1.00  0.00    -0.352 N 
HETATM   16  C8  UNL     1      -2.153   1.072   0.504  1.00  0.00     0.122 A 
HETATM   17  C9  UNL     1      -3.311   0.947   1.102  1.00  0.00     0.063 A 
HETATM   18  C10 UNL     1      -4.168  -0.228   0.946  1.00  0.00     0.059 A 
HETATM   19 CL1  UNL     1      -5.722  -0.428   1.731  1.00  0.00    -0.082 Cl
HETATM   20  C11 UNL     1      -3.684  -1.171   0.144  1.00  0.00     0.019 A 
HETATM   21  C12 UNL     1      -2.408  -1.158  -0.584  1.00  0.00     0.157 A 
BRANCH  17  22
HETATM   22  N3  UNL     1      -3.839   1.971   1.969  1.00  0.00    -0.397 N 
HETATM   23  H8  UNL     1      -3.695   2.037   3.018  1.00  0.00     0.156 HD
HETATM   24  H9  UNL     1      -4.402   2.661   1.406  1.00  0.00     0.156 HD
ENDBRANCH  17  22
ENDBRANCH   6  15
TORSDOF 4
