REMARK  4 active torsions:
REMARK  status: ('A' for Active; 'I' for Inactive)
REMARK    1  A    between atoms: O1_1  and  C1_2 
REMARK    2  A    between atoms: C1_2  and  C2_3 
REMARK    3  A    between atoms: C8_11  and  N3_12 
REMARK    4  A    between atoms: N3_12  and  C9_13 
ROOT
HETATM    1  C2  UNL     1      -2.131   1.198   0.164  1.00  0.00     0.163 C 
HETATM    2  N1  UNL     1      -1.995   0.591   1.463  1.00  0.00    -0.278 NA
HETATM    3  C3  UNL     1      -2.337  -0.452   2.100  1.00  0.00     0.077 C 
HETATM    4  C4  UNL     1      -2.115  -1.663   1.610  1.00  0.00     0.021 C 
HETATM    5  C5  UNL     1      -1.264  -2.049   0.437  1.00  0.00     0.075 C 
HETATM    6  C6  UNL     1      -2.108  -1.825  -0.782  1.00  0.00     0.097 C 
HETATM    7  N2  UNL     1      -2.299  -0.661  -1.330  1.00  0.00    -0.291 NA
HETATM    8  C7  UNL     1      -1.433   0.451  -0.922  1.00  0.00     0.183 C 
HETATM    9  C8  UNL     1      -0.129  -0.127  -0.586  1.00  0.00     0.034 C 
HETATM   10  C15 UNL     1      -0.110  -1.080   0.350  1.00  0.00     0.014 C 
ENDROOT
BRANCH   9  11
HETATM   11  N3  UNL     1       1.128   0.219  -1.177  1.00  0.00    -0.358 N 
HETATM   12  H9  UNL     1       1.084   0.412  -2.203  1.00  0.00     0.166 HD
BRANCH  11  13
HETATM   13  C9  UNL     1       2.435   0.345  -0.646  1.00  0.00     0.034 A 
HETATM   14  C10 UNL     1       2.986   1.570  -0.366  1.00  0.00     0.032 A 
HETATM   15  C11 UNL     1       4.267   1.569   0.161  1.00  0.00     0.046 A 
HETATM   16  C12 UNL     1       4.920   0.373   0.377  1.00  0.00     0.138 A 
HETATM   17  F1  UNL     1       6.167   0.447   0.892  1.00  0.00    -0.204 F 
HETATM   18  C13 UNL     1       4.349  -0.829   0.089  1.00  0.00     0.074 A 
HETATM   19 CL1  UNL     1       5.259  -2.294   0.402  1.00  0.00    -0.081 Cl
HETATM   20  C14 UNL     1       3.053  -0.871  -0.447  1.00  0.00     0.056 A 
ENDBRANCH  11  13
ENDBRANCH   9  11
BRANCH   1  21
HETATM   21  C1  UNL     1      -3.611   1.214  -0.264  1.00  0.00     0.194 C 
BRANCH  21  22
HETATM   22  O1  UNL     1      -4.403   1.913   0.620  1.00  0.00    -0.399 OA
HETATM   23  H1  UNL     1      -5.037   2.489   0.105  1.00  0.00     0.209 HD
ENDBRANCH  21  22
ENDBRANCH   1  21
TORSDOF 4
