REMARK  6 active torsions:
REMARK  status: ('A' for Active; 'I' for Inactive)
REMARK    1  A    between atoms: C3_3  and  C4_4 
REMARK    2  A    between atoms: C3_3  and  N1_10 
REMARK    3  A    between atoms: C5_5  and  C6_6 
REMARK    4  A    between atoms: C5_5  and  C7_8 
REMARK    5  A    between atoms: N1_10  and  C8_11 
REMARK    6  A    between atoms: C12_17  and  O1_18 
ROOT
HETATM    1  C8  UNL     1      -0.219  -0.874  -0.176  1.00  0.00     0.142 A 
HETATM    2  N2  UNL     1      -0.487  -1.813  -1.097  1.00  0.00    -0.224 NA
HETATM    3  C9  UNL     1       0.521  -2.194  -1.915  1.00  0.00     0.236 A 
HETATM    4  N3  UNL     1       1.751  -1.650  -1.811  1.00  0.00    -0.241 NA
HETATM    5  C10 UNL     1       2.021  -0.701  -0.880  1.00  0.00     0.074 A 
HETATM    6  C11 UNL     1       3.298  -0.203  -0.844  1.00  0.00     0.070 A 
HETATM    7  C12 UNL     1       3.515   0.762   0.125  1.00  0.00     0.076 A 
HETATM    8  C14 UNL     1       2.530   1.212   1.010  1.00  0.00    -0.028 A 
HETATM    9  C15 UNL     1       2.821   2.246   2.026  1.00  0.00     0.051 C 
HETATM   10  C16 UNL     1       1.272   0.641   0.887  1.00  0.00     0.027 A 
HETATM   11  C17 UNL     1       1.011  -0.310  -0.050  1.00  0.00     0.039 A 
ENDROOT
BRANCH   1  12
HETATM   12  N1  UNL     1      -1.313  -0.512   0.656  1.00  0.00    -0.341 N 
HETATM   13  H10 UNL     1      -1.383   0.174   1.436  1.00  0.00     0.167 HD
BRANCH  12  14
HETATM   14  C3  UNL     1      -2.584  -1.127   0.489  1.00  0.00     0.029 C 
HETATM   15  C2  UNL     1      -2.718  -2.333   1.068  1.00  0.00    -0.002 C 
HETATM   16  C1  UNL     1      -1.642  -2.984   1.823  1.00  0.00     0.038 C 
BRANCH  14  17
HETATM   17  C4  UNL     1      -3.710  -0.562  -0.241  1.00  0.00     0.035 C 
HETATM   18  C5  UNL     1      -3.768   0.600  -0.870  1.00  0.00    -0.036 C 
BRANCH  18  19
HETATM   19  C6  UNL     1      -4.994   1.079  -1.593  1.00  0.00     0.257 C 
HETATM   20  F1  UNL     1      -4.754   1.298  -2.933  1.00  0.00    -0.251 F 
ENDBRANCH  18  19
BRANCH  18  21
HETATM   21  C7  UNL     1      -2.801   1.709  -1.070  1.00  0.00     0.151 C 
HETATM   22 CL1  UNL     1      -3.438   3.229  -0.396  1.00  0.00    -0.126 Cl
ENDBRANCH  18  21
ENDBRANCH  14  17
ENDBRANCH  12  14
ENDBRANCH   1  12
BRANCH   7  23
HETATM   23  O1  UNL     1       4.767   1.346   0.264  1.00  0.00    -0.355 OA
HETATM   24  C13 UNL     1       5.878   1.032  -0.521  1.00  0.00     0.210 C 
ENDBRANCH   7  23
TORSDOF 6
