REMARK  3 active torsions:
REMARK  status: ('A' for Active; 'I' for Inactive)
REMARK    1  A    between atoms: C5_6  and  N1_7 
REMARK    2  A    between atoms: N1_7  and  C6_8 
REMARK    3  A    between atoms: C6_8  and  C7_9 
ROOT
HETATM    1  C7  UNL     1       0.025   0.521   2.746  1.00  0.00     0.093 A 
HETATM    2  N2  UNL     1       0.161   0.541   4.042  1.00  0.00    -0.238 NA
HETATM    3  C8  UNL     1      -0.915  -0.007   4.859  1.00  0.00     0.236 A 
HETATM    4  N3  UNL     1      -2.073  -0.562   4.746  1.00  0.00    -0.215 NA
HETATM    5  C9  UNL     1      -2.720  -0.830   3.484  1.00  0.00     0.210 A 
HETATM    6  N4  UNL     1      -3.684  -1.270   2.764  1.00  0.00    -0.146 NA
HETATM    7  N5  UNL     1      -3.573  -1.169   1.398  1.00  0.00    -0.268 N 
HETATM    8  C10 UNL     1      -2.429  -0.595   0.792  1.00  0.00     0.100 A 
HETATM    9  C11 UNL     1      -1.897  -0.294  -0.488  1.00  0.00    -0.001 A 
HETATM   10  C12 UNL     1      -1.820   1.074  -0.782  1.00  0.00     0.014 A 
HETATM   11  C13 UNL     1      -1.328   1.536  -1.982  1.00  0.00     0.001 A 
HETATM   12  C14 UNL     1      -0.909   0.595  -2.894  1.00  0.00     0.000 A 
HETATM   13  C15 UNL     1      -0.973  -0.761  -2.630  1.00  0.00     0.001 A 
HETATM   14  C16 UNL     1      -1.468  -1.214  -1.426  1.00  0.00     0.014 A 
HETATM   15  S1  UNL     1      -1.596  -0.242   2.180  1.00  0.00    -0.043 SA
HETATM   16  H8  UNL     1      -4.351  -1.522   0.761  1.00  0.00     0.190 HD
ENDROOT
BRANCH   1  17
HETATM   17  C6  UNL     1       0.858   0.963   1.616  1.00  0.00     0.186 C 
BRANCH  17  18
HETATM   18  N1  UNL     1       1.122  -0.239   0.810  1.00  0.00    -0.384 N 
HETATM   19  H4  UNL     1       0.754  -1.203   1.053  1.00  0.00     0.160 HD
BRANCH  18  20
HETATM   20  C5  UNL     1       1.911  -0.182  -0.379  1.00  0.00     0.029 A 
HETATM   21  C4  UNL     1       2.189  -1.290  -1.176  1.00  0.00     0.029 A 
HETATM   22  C3  UNL     1       2.957  -1.190  -2.319  1.00  0.00     0.004 A 
HETATM   23  C2  UNL     1       3.476   0.013  -2.713  1.00  0.00     0.024 A 
HETATM   24  C1  UNL     1       3.228   1.139  -1.958  1.00  0.00     0.036 A 
HETATM   25 CL1  UNL     1       3.873   2.714  -2.420  1.00  0.00    -0.084 Cl
HETATM   26  C17 UNL     1       2.456   1.013  -0.816  1.00  0.00     0.052 A 
ENDBRANCH  18  20
ENDBRANCH  17  18
ENDBRANCH   1  17
TORSDOF 3
