REMARK  6 active torsions:
REMARK  status: ('A' for Active; 'I' for Inactive)
REMARK    1  A    between atoms: C2_2  and  C3_4 
REMARK    2  A    between atoms: C3_4  and  C4_5 
REMARK    3  A    between atoms: C4_5  and  C5_6 
REMARK    4  A    between atoms: C5_6  and  C6_7 
REMARK    5  A    between atoms: C10_13  and  O1_14 
REMARK    6  A    between atoms: O1_14  and  N3_15 
ROOT
HETATM    1  C6  UNL     1      -0.929   0.474  -1.408  1.00  0.00     0.070 A 
HETATM    2  N1  UNL     1      -1.920   0.668  -2.295  1.00  0.00    -0.241 NA
HETATM    3  C7  UNL     1      -3.165   0.279  -2.118  1.00  0.00     0.234 A 
HETATM    4  N2  UNL     1      -3.406  -0.341  -0.974  1.00  0.00    -0.241 NA
HETATM    5  C8  UNL     1      -2.504  -0.585  -0.031  1.00  0.00     0.073 A 
HETATM    6  C9  UNL     1      -2.982  -1.253   1.090  1.00  0.00     0.073 A 
HETATM    7  C10 UNL     1      -2.084  -1.534   2.105  1.00  0.00     0.112 A 
HETATM    8  C11 UNL     1      -0.773  -1.139   1.950  1.00  0.00     0.053 A 
HETATM    9  C12 UNL     1       0.171  -1.423   2.988  1.00  0.00    -0.075 C 
HETATM   10  C13 UNL     1       0.961  -1.660   3.889  1.00  0.00     0.018 C 
HETATM   11  C14 UNL     1      -0.347  -0.479   0.818  1.00  0.00     0.039 A 
HETATM   12  C15 UNL     1      -1.204  -0.176  -0.219  1.00  0.00     0.023 A 
ENDROOT
BRANCH   7  13
HETATM   13  O1  UNL     1      -2.516  -2.201   3.246  1.00  0.00    -0.265 OA
BRANCH  13  14
HETATM   14  N3  UNL     1      -3.839  -2.576   3.357  1.00  0.00    -0.209 NA
HETATM   15  H9  UNL     1      -4.034  -3.309   2.613  1.00  0.00     0.150 HD
HETATM   16  H10 UNL     1      -4.473  -1.745   3.163  1.00  0.00     0.150 HD
ENDBRANCH  13  14
ENDBRANCH   7  13
BRANCH   1  17
HETATM   17  C5  UNL     1       0.416   0.846  -1.508  1.00  0.00     0.032 C 
BRANCH  17  18
HETATM   18  C4  UNL     1       1.676   1.089  -1.376  1.00  0.00     0.005 C 
BRANCH  18  19
HETATM   19  C3  UNL     1       2.816   1.659  -2.004  1.00  0.00     0.037 C 
BRANCH  19  20
HETATM   20  C2  UNL     1       3.872   2.141  -2.489  1.00  0.00     0.090 C 
HETATM   21  C1  UNL     1       4.885   1.890  -1.433  1.00  0.00     0.082 C 
HETATM   22  F1  UNL     1       4.306   2.769  -3.603  1.00  0.00    -0.211 F 
ENDBRANCH  19  20
ENDBRANCH  18  19
ENDBRANCH  17  18
ENDBRANCH   1  17
TORSDOF 6
