REMARK  4 active torsions:
REMARK  status: ('A' for Active; 'I' for Inactive)
REMARK    1  A    between atoms: O1_3  and  C3_4 
REMARK    2  A    between atoms: C7_9  and  N2_10 
REMARK    3  A    between atoms: C10_13  and  C11_14 
REMARK    4  A    between atoms: C11_14  and  C12_15 
ROOT
HETATM    1  C1  UNL     1       5.618   0.851   1.187  1.00  0.00     0.044 C 
HETATM    2  C2  UNL     1       4.997   0.336   0.294  1.00  0.00     0.043 C 
HETATM    3  O1  UNL     1       4.275  -0.234  -0.717  1.00  0.00    -0.295 OA
ENDROOT
BRANCH   3   4
HETATM    4  C3  UNL     1       2.970  -0.792  -0.440  1.00  0.00     0.091 C 
HETATM    5  C4  UNL     1       2.687   0.098  -1.458  1.00  0.00     0.165 C 
HETATM    6  C5  UNL     1       1.344   0.354  -2.058  1.00  0.00     0.046 A 
HETATM    7  N1  UNL     1       1.621   0.483  -3.290  1.00  0.00    -0.287 NA
HETATM    8  C8  UNL     1      -0.097   0.522  -1.877  1.00  0.00    -0.004 A 
HETATM    9  C6  UNL     1       0.481   0.747  -4.139  1.00  0.00     0.206 A 
HETATM   10  C7  UNL     1      -0.584   0.752  -3.112  1.00  0.00     0.031 A 
HETATM   11  C9  UNL     1      -0.703   0.423  -0.552  1.00  0.00     0.041 C 
HETATM   12  C10 UNL     1      -1.478   0.620   0.509  1.00  0.00    -0.024 C 
HETATM   13  C14 UNL     1      -0.916  -0.321   1.582  1.00  0.00     0.013 C 
HETATM   14  C15 UNL     1       0.324  -0.873   0.888  1.00  0.00     0.027 C 
HETATM   15  C16 UNL     1       1.038  -1.862   1.719  1.00  0.00     0.167 C 
HETATM   16  O2  UNL     1       2.092  -2.436   1.101  1.00  0.00    -0.389 OA
HETATM   17  C17 UNL     1       3.159  -1.795   0.677  1.00  0.00     0.202 C 
BRANCH  10  18
HETATM   18  N2  UNL     1      -1.914   0.976  -3.483  1.00  0.00    -0.400 N 
HETATM   19  H5  UNL     1      -2.342   1.801  -3.000  1.00  0.00     0.156 HD
HETATM   20  H6  UNL     1      -2.420   0.393  -4.159  1.00  0.00     0.156 HD
ENDBRANCH  10  18
BRANCH  12  21
HETATM   21  C11 UNL     1      -2.612   1.438   1.025  1.00  0.00     0.011 C 
BRANCH  21  22
HETATM   22  C12 UNL     1      -3.847   0.727   1.408  1.00  0.00    -0.004 C 
HETATM   23  C13 UNL     1      -3.806  -0.242   2.532  1.00  0.00     0.005 C 
ENDBRANCH  21  22
ENDBRANCH  12  21
ENDBRANCH   3   4
TORSDOF 4
