REMARK  10 active torsions:
REMARK  status: ('A' for Active; 'I' for Inactive)
REMARK    1  A    between atoms: C3_3  and  C4_4 
REMARK    2  A    between atoms: C4_4  and  C5_5 
REMARK    3  A    between atoms: C5_5  and  C6_6 
REMARK    4  A    between atoms: C6_6  and  O1_7 
REMARK    5  A    between atoms: O1_7  and  C7_8 
REMARK    6  A    between atoms: C10_11  and  N1_12 
REMARK    7  A    between atoms: N1_12  and  C11_13 
REMARK    8  A    between atoms: C11_13  and  C12_14 
REMARK    9  A    between atoms: C12_14  and  C13_15 
REMARK   10  A    between atoms: C17_22  and  O2_23 
ROOT
HETATM    1  C1  UNL     1       4.648   3.010   2.835  1.00  0.00     0.012 C 
HETATM    2  C2  UNL     1       4.313   2.461   1.814  1.00  0.00    -0.117 C 
HETATM    3  C3  UNL     1       3.922   1.779   0.588  1.00  0.00     0.093 C 
ENDROOT
BRANCH   3   4
HETATM    4  C4  UNL     1       3.479   0.360   0.822  1.00  0.00     0.014 C 
BRANCH   4   5
HETATM    5  C5  UNL     1       2.268   0.314   1.766  1.00  0.00     0.028 C 
BRANCH   5   6
HETATM    6  C6  UNL     1       1.885  -1.113   1.953  1.00  0.00     0.176 C 
BRANCH   6   7
HETATM    7  O1  UNL     1       1.532  -1.814   0.817  1.00  0.00    -0.348 OA
BRANCH   7   8
HETATM    8  C7  UNL     1       0.529  -1.630  -0.080  1.00  0.00     0.103 A 
HETATM    9  C8  UNL     1      -0.483  -0.707  -0.182  1.00  0.00     0.057 A 
HETATM   10  C9  UNL     1      -1.418  -0.671  -1.169  1.00  0.00     0.041 A 
HETATM   11  C10 UNL     1      -2.383   0.312  -1.153  1.00  0.00     0.137 A 
HETATM   12  C15 UNL     1      -1.354  -1.634  -2.155  1.00  0.00     0.075 A 
HETATM   13  N2  UNL     1      -3.257   0.259  -2.171  1.00  0.00    -0.224 NA
HETATM   14  C14 UNL     1      -3.216  -0.669  -3.144  1.00  0.00     0.235 A 
HETATM   15  N3  UNL     1      -2.267  -1.624  -3.147  1.00  0.00    -0.241 NA
HETATM   16  C16 UNL     1      -0.374  -2.596  -2.131  1.00  0.00     0.072 A 
HETATM   17  C17 UNL     1       0.566  -2.594  -1.096  1.00  0.00     0.103 A 
BRANCH  11  18
HETATM   18  N1  UNL     1      -2.491   1.315  -0.173  1.00  0.00    -0.374 N 
HETATM   19  H11 UNL     1      -1.878   1.454   0.653  1.00  0.00     0.161 HD
BRANCH  18  20
HETATM   20  C11 UNL     1      -3.563   2.298  -0.275  1.00  0.00     0.128 C 
BRANCH  20  21
HETATM   21  C12 UNL     1      -3.558   3.291   0.817  1.00  0.00     0.030 C 
BRANCH  21  22
HETATM   22  C13 UNL     1      -4.604   3.435   1.651  1.00  0.00     0.239 C 
HETATM   23 CL1  UNL     1      -6.177   3.223   2.432  1.00  0.00    -0.255 Cl
ENDBRANCH  21  22
ENDBRANCH  20  21
ENDBRANCH  18  20
ENDBRANCH  11  18
BRANCH  17  24
HETATM   24  O2  UNL     1       1.490  -3.597  -1.180  1.00  0.00    -0.353 OA
HETATM   25  C18 UNL     1       1.534  -4.566  -2.191  1.00  0.00     0.210 C 
ENDBRANCH  17  24
ENDBRANCH   7   8
ENDBRANCH   6   7
ENDBRANCH   5   6
ENDBRANCH   4   5
ENDBRANCH   3   4
TORSDOF 10
