REMARK  7 active torsions:
REMARK  status: ('A' for Active; 'I' for Inactive)
REMARK    1  A    between atoms: C3_3  and  C4_4 
REMARK    2  A    between atoms: C9_12  and  N3_13 
REMARK    3  A    between atoms: N3_13  and  C10_14 
REMARK    4  A    between atoms: C10_14  and  C11_15 
REMARK    5  A    between atoms: C12_16  and  C13_18 
REMARK    6  A    between atoms: C15_21  and  C16_22 
REMARK    7  A    between atoms: C16_22  and  O1_23 
ROOT
HETATM    1  C1  UNL     1       7.113  -1.683  -0.271  1.00  0.00     0.112 C 
HETATM    2  C2  UNL     1       5.718  -1.359  -0.095  1.00  0.00    -0.108 C 
HETATM    3  C3  UNL     1       4.513  -1.099   0.046  1.00  0.00    -0.063 C 
ENDROOT
BRANCH   3   4
HETATM    4  C4  UNL     1       3.089  -0.781   0.238  1.00  0.00     0.167 A 
HETATM    5  C5  UNL     1       1.981  -1.285  -0.243  1.00  0.00     0.155 A 
HETATM    6  F1  UNL     1       3.074  -1.893  -0.698  1.00  0.00    -0.365 F 
HETATM    7  C6  UNL     1       1.766  -2.428  -1.181  1.00  0.00     0.139 C 
HETATM    8  C7  UNL     1       1.120  -3.521  -0.703  1.00  0.00     0.069 C 
HETATM    9  N1  UNL     1       0.358  -3.154   0.273  1.00  0.00    -0.274 NA
HETATM   10  C8  UNL     1      -0.289  -1.871   0.021  1.00  0.00     0.229 C 
HETATM   11  N2  UNL     1      -0.955  -1.138   0.883  1.00  0.00    -0.226 NA
HETATM   12  C9  UNL     1      -1.539   0.097   0.502  1.00  0.00     0.123 C 
HETATM   13  C14 UNL     1      -1.295   1.382   0.555  1.00  0.00     0.057 C 
HETATM   14  C15 UNL     1      -0.095   1.962   1.157  1.00  0.00     0.171 C 
HETATM   15  O2  UNL     1       1.043   1.372   0.558  1.00  0.00    -0.380 OA
HETATM   16  C18 UNL     1       1.762   0.864   1.618  1.00  0.00     0.173 C 
HETATM   17  C19 UNL     1       3.063   0.313   1.174  1.00  0.00     0.083 C 
BRANCH  12  18
HETATM   18  N3  UNL     1      -2.721  -0.450  -0.092  1.00  0.00    -0.371 N 
HETATM   19  H6  UNL     1      -2.500  -0.242  -1.098  1.00  0.00     0.161 HD
BRANCH  18  20
HETATM   20  C10 UNL     1      -3.798  -1.073   0.692  1.00  0.00     0.150 C 
BRANCH  20  21
HETATM   21  C11 UNL     1      -4.894  -1.554  -0.184  1.00  0.00     0.014 C 
HETATM   22  C12 UNL     1      -5.153  -1.569  -1.469  1.00  0.00     0.038 C 
HETATM   23 CL1  UNL     1      -4.228  -0.971  -2.813  1.00  0.00    -0.087 Cl
BRANCH  22  24
HETATM   24  C13 UNL     1      -6.410  -2.169  -1.966  1.00  0.00     0.273 C 
HETATM   25  F2  UNL     1      -6.073  -3.214  -2.826  1.00  0.00    -0.250 F 
ENDBRANCH  22  24
ENDBRANCH  20  21
ENDBRANCH  18  20
ENDBRANCH  12  18
BRANCH  14  26
HETATM   26  C16 UNL     1      -0.025   3.467   0.979  1.00  0.00     0.203 C 
BRANCH  26  27
HETATM   27  O1  UNL     1       0.003   3.797  -0.360  1.00  0.00    -0.393 OA
HETATM   28  C17 UNL     1       0.067   5.171  -0.481  1.00  0.00     0.201 C 
ENDBRANCH  26  27
ENDBRANCH  14  26
ENDBRANCH   3   4
TORSDOF 7
