REMARK  6 active torsions:
REMARK  status: ('A' for Active; 'I' for Inactive)
REMARK    1  A    between atoms: C2_2  and  C3_3 
REMARK    2  A    between atoms: C3_3  and  C4_4 
REMARK    3  A    between atoms: C4_4  and  C5_5 
REMARK    4  A    between atoms: C5_5  and  C6_6 
REMARK    5  A    between atoms: C10_11  and  C11_12 
REMARK    6  A    between atoms: C12_13  and  O2_14 
ROOT
HETATM    1  C6  UNL     1       1.387   0.191  -0.226  1.00  0.00     0.019 C 
HETATM    2  C7  UNL     1      -0.059   0.623  -0.456  1.00  0.00     0.173 C 
HETATM    3  O1  UNL     1      -0.998  -0.142   0.192  1.00  0.00    -0.386 OA
HETATM    4  C8  UNL     1      -2.255   0.455  -0.142  1.00  0.00     0.212 C 
HETATM    5  C9  UNL     1      -3.362  -0.305   0.402  1.00  0.00     0.040 A 
HETATM    6  C10 UNL     1      -4.228   0.038   1.368  1.00  0.00     0.072 A 
HETATM    7  N1  UNL     1      -5.164  -0.854   1.670  1.00  0.00    -0.241 NA
HETATM    8  C13 UNL     1      -5.265  -2.040   1.066  1.00  0.00     0.235 A 
HETATM    9  N2  UNL     1      -4.377  -2.325   0.115  1.00  0.00    -0.224 NA
HETATM   10  C14 UNL     1      -3.418  -1.496  -0.245  1.00  0.00     0.139 A 
HETATM   11  N3  UNL     1      -2.554  -1.996  -1.292  1.00  0.00    -0.351 N 
HETATM   12  C15 UNL     1      -1.528  -2.973  -1.178  1.00  0.00     0.086 C 
HETATM   13  C16 UNL     1      -0.235  -3.046  -0.911  1.00  0.00    -0.003 C 
HETATM   14  C17 UNL     1       0.367  -1.703  -0.641  1.00  0.00     0.027 C 
HETATM   15  C18 UNL     1       1.596  -1.243  -0.323  1.00  0.00    -0.022 C 
HETATM   16  C19 UNL     1       2.963  -1.791  -0.020  1.00  0.00     0.017 C 
HETATM   17  H17 UNL     1      -2.982  -1.389  -2.020  1.00  0.00     0.166 HD
ENDROOT
BRANCH   1  18
HETATM   18  C5  UNL     1       2.282   1.088  -1.026  1.00  0.00     0.009 C 
BRANCH  18  19
HETATM   19  C4  UNL     1       3.751   0.874  -0.962  1.00  0.00     0.018 C 
BRANCH  19  20
HETATM   20  C3  UNL     1       4.474   1.903  -1.798  1.00  0.00     0.066 C 
BRANCH  20  21
HETATM   21  C2  UNL     1       5.755   2.108  -1.547  1.00  0.00    -0.176 C 
HETATM   22  C1  UNL     1       7.010   2.096  -1.131  1.00  0.00     0.091 C 
ENDBRANCH  20  21
ENDBRANCH  19  20
ENDBRANCH  18  19
ENDBRANCH   1  18
BRANCH   6  23
HETATM   23  C11 UNL     1      -4.163   1.285   2.046  1.00  0.00     0.056 C 
HETATM   24  C12 UNL     1      -3.490   2.392   2.109  1.00  0.00     0.133 C 
BRANCH  24  25
HETATM   25  O2  UNL     1      -3.553   3.559   2.852  1.00  0.00    -0.373 OA
HETATM   26  H15 UNL     1      -4.300   3.651   3.559  1.00  0.00     0.216 HD
ENDBRANCH  24  25
ENDBRANCH   6  23
TORSDOF 6
