REMARK  0 active torsions:
REMARK  status: ('A' for Active; 'I' for Inactive)
ROOT
HETATM    1  F1  UNL     1       2.016   1.271  -0.719  1.00  0.00    -0.379 F 
HETATM    2  C1  UNL     1       0.718   1.467  -0.989  1.00  0.00     0.170 A 
HETATM    3  C2  UNL     1       1.486   0.767  -1.816  1.00  0.00     0.175 A 
HETATM    4  C3  UNL     1       2.778   0.137  -2.261  1.00  0.00     0.042 C 
HETATM    5  C4  UNL     1       3.658  -0.187  -1.062  1.00  0.00     0.049 C 
HETATM    6  C5  UNL     1       2.917  -1.174  -0.187  1.00  0.00     0.083 C 
HETATM    7  N1  UNL     1       2.213  -1.122   0.873  1.00  0.00    -0.305 NA
HETATM    8  C6  UNL     1       1.612  -2.228   1.507  1.00  0.00     0.156 C 
HETATM    9  C7  UNL     1       0.115  -2.237   1.245  1.00  0.00     0.058 C 
HETATM   10  C8  UNL     1      -0.569  -1.188   2.038  1.00  0.00     0.281 C 
HETATM   11  N2  UNL     1      -0.705   0.103   1.462  1.00  0.00     0.126 N 
HETATM   12  C9  UNL     1      -1.985   0.257   0.859  1.00  0.00     0.533 C 
HETATM   13  C10 UNL     1      -2.048  -0.636  -0.341  1.00  0.00     0.224 C 
HETATM   14  N3  UNL     1      -2.796  -0.298  -1.337  1.00  0.00    -0.153 NA
HETATM   15  N4  UNL     1      -3.563   0.867  -1.363  1.00  0.00    -0.284 N 
HETATM   16  C11 UNL     1      -3.750   1.449  -0.030  1.00  0.00     0.417 C 
HETATM   17  N5  UNL     1      -2.432   1.577   0.585  1.00  0.00     0.152 N 
HETATM   18  C12 UNL     1      -1.514   2.282  -0.264  1.00  0.00     0.307 C 
HETATM   19  C13 UNL     1      -0.277   2.624   0.523  1.00  0.00     0.026 C 
HETATM   20  C14 UNL     1       0.990   2.249   0.252  1.00  0.00     0.052 C 
HETATM   21 CL1  UNL     1       1.975   2.965   1.557  1.00  0.00    -0.086 Cl
HETATM   22  O1  UNL     1      -1.422  -1.838  -0.618  1.00  0.00    -0.333 OA
HETATM   23  C15 UNL     1      -0.141  -2.256  -0.218  1.00  0.00     0.185 C 
HETATM   24  H12 UNL     1      -0.605   0.838   2.203  1.00  0.00     0.319 HD
HETATM   25  H14 UNL     1      -3.982   1.325  -2.199  1.00  0.00     0.184 HD
ENDROOT
TORSDOF 0
