REMARK  11 active torsions:
REMARK  status: ('A' for Active; 'I' for Inactive)
REMARK    1  A    between atoms: N1_1  and  C1_2 
REMARK    2  A    between atoms: C1_2  and  C2_3 
REMARK    3  A    between atoms: C2_3  and  C3_4 
REMARK    4  A    between atoms: C3_4  and  C4_5 
REMARK    5  A    between atoms: C4_5  and  C5_6 
REMARK    6  A    between atoms: C5_6  and  C6_7 
REMARK    7  A    between atoms: C6_7  and  C7_8 
REMARK    8  A    between atoms: C7_8  and  O1_9 
REMARK    9  A    between atoms: O1_9  and  C8_10 
REMARK   10  A    between atoms: C10_12  and  C11_13 
REMARK   11  A    between atoms: C20_26  and  O2_27 
ROOT
HETATM    1  C8  UNL     1      -0.967   0.691  -0.929  1.00  0.00     0.101 C 
HETATM    2  C9  UNL     1      -1.617  -0.461  -0.952  1.00  0.00     0.057 C 
HETATM    3  C10 UNL     1      -2.916  -0.218  -1.519  1.00  0.00     0.147 A 
HETATM    4  N2  UNL     1      -3.697  -1.214  -2.144  1.00  0.00    -0.256 NA
HETATM    5  C17 UNL     1      -4.319  -0.659  -3.138  1.00  0.00     0.229 A 
HETATM    6  N3  UNL     1      -3.977   0.743  -3.245  1.00  0.00    -0.243 NA
HETATM    7  C18 UNL     1      -3.122   1.006  -2.277  1.00  0.00     0.077 A 
HETATM    8  C19 UNL     1      -2.376   2.221  -2.099  1.00  0.00     0.070 C 
HETATM    9  C20 UNL     1      -1.234   2.040  -1.413  1.00  0.00     0.100 C 
ENDROOT
BRANCH   1  10
HETATM   10  O1  UNL     1       0.316   0.609  -0.345  1.00  0.00    -0.348 OA
BRANCH  10  11
HETATM   11  C7  UNL     1       0.509   0.245   0.986  1.00  0.00     0.176 C 
BRANCH  11  12
HETATM   12  C6  UNL     1       1.969   0.227   1.386  1.00  0.00     0.027 C 
BRANCH  12  13
HETATM   13  C5  UNL     1       2.719  -0.769   0.523  1.00  0.00     0.003 C 
BRANCH  13  14
HETATM   14  C4  UNL     1       4.173  -0.773   0.937  1.00  0.00     0.018 C 
BRANCH  14  15
HETATM   15  C3  UNL     1       4.929  -1.740   0.107  1.00  0.00     0.073 C 
BRANCH  15  16
HETATM   16  C2  UNL     1       6.248  -1.743   0.232  1.00  0.00    -0.133 C 
BRANCH  16  17
HETATM   17  C1  UNL     1       7.540  -1.479   0.370  1.00  0.00     0.132 C 
BRANCH  17  18
HETATM   18  N1  UNL     1       8.075  -0.486  -0.488  1.00  0.00    -0.402 N 
HETATM   19  H1  UNL     1       8.860  -0.310  -1.169  1.00  0.00     0.156 HD
HETATM   20  H2  UNL     1       7.541   0.415  -0.485  1.00  0.00     0.156 HD
ENDBRANCH  17  18
ENDBRANCH  16  17
ENDBRANCH  15  16
ENDBRANCH  14  15
ENDBRANCH  13  14
ENDBRANCH  12  13
ENDBRANCH  11  12
ENDBRANCH  10  11
ENDBRANCH   1  10
BRANCH   9  21
HETATM   21  O2  UNL     1      -0.390   3.119  -1.207  1.00  0.00    -0.358 OA
HETATM   22  H19 UNL     1       0.613   2.968  -1.189  1.00  0.00     0.217 HD
ENDBRANCH   9  21
BRANCH   3  23
HETATM   23  C11 UNL     1      -3.845   0.030  -0.203  1.00  0.00    -0.016 A 
HETATM   24  C12 UNL     1      -4.746   1.074  -0.167  1.00  0.00     0.013 A 
HETATM   25  C13 UNL     1      -5.451   1.145   1.013  1.00  0.00     0.045 A 
HETATM   26  C14 UNL     1      -5.264   0.258   2.040  1.00  0.00     0.138 A 
HETATM   27  F1  UNL     1      -6.002   0.389   3.186  1.00  0.00    -0.204 F 
HETATM   28  C15 UNL     1      -4.347  -0.767   1.944  1.00  0.00     0.073 A 
HETATM   29 CL1  UNL     1      -4.074  -1.924   3.229  1.00  0.00    -0.081 Cl
HETATM   30  C16 UNL     1      -3.602  -0.902   0.791  1.00  0.00     0.037 A 
ENDBRANCH   3  23
TORSDOF 11
