REMARK  7 active torsions:
REMARK  status: ('A' for Active; 'I' for Inactive)
REMARK    1  A    between atoms: N1_1  and  C1_2 
REMARK    2  A    between atoms: C1_2  and  C2_3 
REMARK    3  A    between atoms: C2_3  and  N2_4 
REMARK    4  A    between atoms: C9_13  and  O1_14 
REMARK    5  A    between atoms: C10_15  and  O2_16 
REMARK    6  A    between atoms: O2_16  and  C11_17 
REMARK    7  A    between atoms: C11_17  and  C12_18 
ROOT
HETATM    1  C1  UNL     1      -1.186  -0.452   0.829  1.00  0.00     0.194 A 
HETATM    2  C8  UNL     1      -0.755  -0.550  -0.595  1.00  0.00     0.055 A 
HETATM    3  C9  UNL     1       0.393  -0.506  -1.255  1.00  0.00     0.097 A 
HETATM    4  C10 UNL     1       1.563  -0.310  -0.395  1.00  0.00     0.098 A 
HETATM    5  C15 UNL     1       1.288  -0.208   0.894  1.00  0.00     0.016 A 
HETATM    6  C16 UNL     1       0.044  -0.247   1.679  1.00  0.00     0.077 A 
ENDROOT
BRANCH   1   7
HETATM    7  N1  UNL     1      -1.774  -1.727   1.174  1.00  0.00     0.093 N 
HETATM    8  H1  UNL     1      -1.606  -1.979   2.193  1.00  0.00     0.314 HD
HETATM    9  H2  UNL     1      -1.327  -2.507   0.627  1.00  0.00     0.314 HD
ENDBRANCH   1   7
BRANCH   1  10
HETATM   10  C2  UNL     1      -2.108   0.704   1.074  1.00  0.00     0.170 C 
BRANCH  10  11
HETATM   11  N2  UNL     1      -3.341   0.665   0.335  1.00  0.00    -0.364 N 
HETATM   12  C3  UNL     1      -3.539   1.641  -0.682  1.00  0.00     0.087 A 
HETATM   13  C4  UNL     1      -4.651   1.682  -1.414  1.00  0.00     0.020 A 
HETATM   14  C5  UNL     1      -5.730   0.748  -1.234  1.00  0.00     0.042 A 
HETATM   15  C6  UNL     1      -5.536  -0.166  -0.276  1.00  0.00     0.131 A 
HETATM   16  F1  UNL     1      -6.488  -1.109  -0.007  1.00  0.00    -0.207 F 
HETATM   17  C7  UNL     1      -4.356  -0.332   0.612  1.00  0.00     0.243 A 
HETATM   18 CL1  UNL     1      -4.914  -0.183   2.306  1.00  0.00    -0.095 Cl
ENDBRANCH  10  11
ENDBRANCH   1  10
BRANCH   3  19
HETATM   19  O1  UNL     1       0.611  -0.621  -2.639  1.00  0.00    -0.358 OA
HETATM   20  H10 UNL     1       0.889   0.177  -3.213  1.00  0.00     0.217 HD
ENDBRANCH   3  19
BRANCH   4  21
HETATM   21  O2  UNL     1       2.845  -0.241  -0.901  1.00  0.00    -0.348 OA
BRANCH  21  22
HETATM   22  C11 UNL     1       3.931  -0.222   0.012  1.00  0.00     0.180 C 
BRANCH  22  23
HETATM   23  C12 UNL     1       5.244  -0.317  -0.715  1.00  0.00     0.010 A 
HETATM   24  C13 UNL     1       6.524  -0.308   0.157  1.00  0.00     0.007 A 
HETATM   25  C14 UNL     1       6.168   0.848  -0.702  1.00  0.00     0.007 A 
ENDBRANCH  22  23
ENDBRANCH  21  22
ENDBRANCH   4  21
TORSDOF 7
