REMARK  1 active torsions:
REMARK  status: ('A' for Active; 'I' for Inactive)
REMARK    1  A    between atoms: O1_1  and  C1_2 
ROOT
HETATM    1  C1  UNL     1      -2.937  -1.534   1.436  1.00  0.00     0.101 A 
HETATM    2  C2  UNL     1      -4.036  -0.739   1.086  1.00  0.00     0.072 A 
HETATM    3  C3  UNL     1      -3.800   0.437   0.392  1.00  0.00     0.075 A 
HETATM    4  N1  UNL     1      -4.875   1.204   0.056  1.00  0.00    -0.241 NA
HETATM    5  C4  UNL     1      -4.643   2.344  -0.617  1.00  0.00     0.236 A 
HETATM    6  N2  UNL     1      -3.375   2.721  -0.953  1.00  0.00    -0.224 NA
HETATM    7  C5  UNL     1      -2.363   1.945  -0.606  1.00  0.00     0.141 A 
HETATM    8  C6  UNL     1      -2.514   0.764   0.083  1.00  0.00     0.042 A 
HETATM    9  C7  UNL     1      -1.422  -0.006   0.419  1.00  0.00     0.057 A 
HETATM   10  C8  UNL     1      -1.640  -1.180   1.110  1.00  0.00     0.102 A 
HETATM   11  O2  UNL     1      -0.754  -2.114   1.560  1.00  0.00    -0.349 OA
HETATM   12  C9  UNL     1      -0.007  -2.949   0.732  1.00  0.00     0.165 C 
HETATM   13  C10 UNL     1       0.909  -2.238  -0.208  1.00  0.00    -0.027 C 
HETATM   14  B1  UNL     1       1.984  -1.350   0.556  1.00  0.00     0.162 B 
HETATM   15  C11 UNL     1       3.378  -1.040  -0.135  1.00  0.00    -0.026 C 
HETATM   16  C12 UNL     1       4.465  -0.650   0.738  1.00  0.00    -0.025 C 
HETATM   17  C13 UNL     1       3.898   0.121   1.658  1.00  0.00    -0.031 C 
HETATM   18  C14 UNL     1       3.668   1.273   1.093  1.00  0.00     0.012 C 
HETATM   19  C15 UNL     1       3.323   1.438  -0.313  1.00  0.00     0.001 C 
HETATM   20  C16 UNL     1       2.190   1.754  -0.940  1.00  0.00     0.001 C 
HETATM   21  C17 UNL     1       1.095   2.075  -1.836  1.00  0.00     0.017 C 
HETATM   22  C18 UNL     1      -0.160   2.396  -2.012  1.00  0.00     0.090 C 
HETATM   23  N3  UNL     1      -1.180   2.596  -1.091  1.00  0.00    -0.350 N 
HETATM   24  H9  UNL     1       1.968  -1.351   1.723  1.00  0.00    -0.026 HD
HETATM   25  H18 UNL     1      -0.798   3.516  -0.785  1.00  0.00     0.166 HD
ENDROOT
BRANCH   1  26
HETATM   26  O1  UNL     1      -3.321  -2.682   2.128  1.00  0.00    -0.358 OA
HETATM   27  H1  UNL     1      -2.706  -3.257   2.670  1.00  0.00     0.217 HD
ENDBRANCH   1  26
TORSDOF 1
