REMARK  7 active torsions:
REMARK  status: ('A' for Active; 'I' for Inactive)
REMARK    1  A    between atoms: C2_2  and  C3_3 
REMARK    2  A    between atoms: C3_3  and  C4_4 
REMARK    3  A    between atoms: C4_4  and  C5_5 
REMARK    4  A    between atoms: C6_6  and  N1_7 
REMARK    5  A    between atoms: N1_7  and  C7_8 
REMARK    6  A    between atoms: C11_14  and  O1_15 
REMARK    7  A    between atoms: C12_16  and  O2_17 
ROOT
HETATM    1  C7  UNL     1       0.402  -0.436   1.257  1.00  0.00     0.142 A 
HETATM    2  N2  UNL     1      -0.166  -0.368   2.456  1.00  0.00    -0.224 NA
HETATM    3  C8  UNL     1       0.417   0.190   3.526  1.00  0.00     0.236 A 
HETATM    4  N3  UNL     1       1.663   0.717   3.376  1.00  0.00    -0.241 NA
HETATM    5  C9  UNL     1       2.259   0.658   2.163  1.00  0.00     0.075 A 
HETATM    6  C10 UNL     1       3.520   1.207   2.079  1.00  0.00     0.072 A 
HETATM    7  C11 UNL     1       4.232   1.202   0.884  1.00  0.00     0.101 A 
HETATM    8  C12 UNL     1       3.624   0.622  -0.222  1.00  0.00     0.102 A 
HETATM    9  C14 UNL     1       2.362   0.088  -0.085  1.00  0.00     0.057 A 
HETATM   10  C15 UNL     1       1.643   0.081   1.077  1.00  0.00     0.042 A 
ENDROOT
BRANCH   1  11
HETATM   11  N1  UNL     1      -0.244  -1.038   0.148  1.00  0.00    -0.340 N 
HETATM   12  H6  UNL     1       0.169  -1.159  -0.782  1.00  0.00     0.167 HD
BRANCH  11  13
HETATM   13  C6  UNL     1      -1.525  -1.609  -0.054  1.00  0.00     0.042 A 
HETATM   14  C5  UNL     1      -2.709  -0.907   0.003  1.00  0.00    -0.005 A 
HETATM   15  C19 UNL     1      -3.902  -1.588  -0.234  1.00  0.00     0.081 A 
HETATM   16  C18 UNL     1      -3.957  -2.923  -0.521  1.00  0.00     0.138 A 
HETATM   17 CL1  UNL     1      -5.449  -0.739  -0.173  1.00  0.00    -0.080 Cl
HETATM   18  C17 UNL     1      -2.816  -3.686  -0.596  1.00  0.00     0.046 A 
HETATM   19  F1  UNL     1      -5.123  -3.596  -0.753  1.00  0.00    -0.204 F 
HETATM   20  C16 UNL     1      -1.643  -2.973  -0.353  1.00  0.00     0.033 A 
BRANCH  14  21
HETATM   21  C4  UNL     1      -2.747   0.539   0.280  1.00  0.00     0.060 C 
BRANCH  21  22
HETATM   22  C3  UNL     1      -2.339   1.344  -0.893  1.00  0.00     0.071 C 
BRANCH  22  23
HETATM   23  C2  UNL     1      -2.914   2.515  -1.127  1.00  0.00    -0.176 C 
HETATM   24  C1  UNL     1      -3.526   3.684  -1.066  1.00  0.00     0.091 C 
ENDBRANCH  22  23
ENDBRANCH  21  22
ENDBRANCH  14  21
ENDBRANCH  11  13
ENDBRANCH   1  11
BRANCH   8  25
HETATM   25  O2  UNL     1       4.407   0.667  -1.355  1.00  0.00    -0.353 OA
HETATM   26  C13 UNL     1       3.944   0.125  -2.569  1.00  0.00     0.210 C 
ENDBRANCH   8  25
BRANCH   7  27
HETATM   27  O1  UNL     1       5.503   1.775   0.874  1.00  0.00    -0.358 OA
HETATM   28  H9  UNL     1       6.113   1.478   0.121  1.00  0.00     0.217 HD
ENDBRANCH   7  27
TORSDOF 7
