REMARK  5 active torsions:
REMARK  status: ('A' for Active; 'I' for Inactive)
REMARK    1  A    between atoms: C3_3  and  C4_4 
REMARK    2  A    between atoms: C5_5  and  O1_6 
REMARK    3  A    between atoms: C7_8  and  O2_9 
REMARK    4  A    between atoms: C12_16  and  N3_17 
REMARK    5  A    between atoms: N3_17  and  C13_18 
ROOT
HETATM    1  C1  UNL     1      -1.848  -3.578  -0.404  1.00  0.00     0.012 C 
HETATM    2  C2  UNL     1      -1.224  -2.660   0.089  1.00  0.00    -0.113 C 
HETATM    3  C3  UNL     1      -0.465  -1.552   0.692  1.00  0.00     0.135 C 
ENDROOT
BRANCH   3   4
HETATM    4  C4  UNL     1      -0.857  -0.241   0.195  1.00  0.00     0.005 A 
HETATM    5  C5  UNL     1      -2.034   0.385   0.656  1.00  0.00     0.109 A 
HETATM    6  C7  UNL     1      -2.522   1.597   0.269  1.00  0.00     0.104 A 
HETATM    7  C9  UNL     1      -1.830   2.310  -0.658  1.00  0.00     0.072 A 
HETATM    8  C10 UNL     1      -0.671   1.778  -1.165  1.00  0.00     0.075 A 
HETATM    9  N1  UNL     1       0.040   2.449  -2.099  1.00  0.00    -0.241 NA
HETATM   10  C19 UNL     1      -0.235   0.561  -0.738  1.00  0.00     0.049 A 
HETATM   11  C11 UNL     1       1.173   1.934  -2.614  1.00  0.00     0.236 A 
HETATM   12  N2  UNL     1       1.627   0.727  -2.207  1.00  0.00    -0.223 NA
HETATM   13  C12 UNL     1       0.905   0.061  -1.267  1.00  0.00     0.142 A 
BRANCH   5  14
HETATM   14  O1  UNL     1      -2.792  -0.310   1.619  1.00  0.00    -0.352 OA
HETATM   15  C6  UNL     1      -3.786  -1.175   1.107  1.00  0.00     0.210 C 
ENDBRANCH   5  14
BRANCH   6  16
HETATM   16  O2  UNL     1      -3.693   2.105   0.799  1.00  0.00    -0.353 OA
HETATM   17  C8  UNL     1      -4.116   3.375   0.332  1.00  0.00     0.210 C 
ENDBRANCH   6  16
BRANCH  13  18
HETATM   18  N3  UNL     1       1.559  -1.182  -0.997  1.00  0.00    -0.340 N 
HETATM   19  H12 UNL     1       1.292  -2.173  -1.202  1.00  0.00     0.167 HD
BRANCH  18  20
HETATM   20  C13 UNL     1       2.840  -1.015  -0.324  1.00  0.00     0.035 A 
HETATM   21  C14 UNL     1       3.635  -2.110  -0.013  1.00  0.00     0.032 A 
HETATM   22  C15 UNL     1       4.840  -2.107   0.608  1.00  0.00     0.046 A 
HETATM   23  C16 UNL     1       5.322  -0.852   0.968  1.00  0.00     0.138 A 
HETATM   24  F1  UNL     1       6.524  -0.781   1.595  1.00  0.00    -0.204 F 
HETATM   25  C17 UNL     1       4.588   0.292   0.693  1.00  0.00     0.074 A 
HETATM   26 CL1  UNL     1       5.204   1.874   1.151  1.00  0.00    -0.081 Cl
HETATM   27  C18 UNL     1       3.368   0.200   0.057  1.00  0.00     0.056 A 
ENDBRANCH  18  20
ENDBRANCH  13  18
ENDBRANCH   3   4
TORSDOF 5
