REMARK  8 active torsions:
REMARK  status: ('A' for Active; 'I' for Inactive)
REMARK    1  A    between atoms: O1_1  and  C1_2 
REMARK    2  A    between atoms: C1_2  and  C2_3 
REMARK    3  A    between atoms: C2_3  and  C3_4 
REMARK    4  A    between atoms: C3_4  and  C4_5 
REMARK    5  A    between atoms: C4_5  and  C5_6 
REMARK    6  A    between atoms: C8_9  and  N1_10 
REMARK    7  A    between atoms: N1_10  and  C9_11 
REMARK    8  A    between atoms: C18_24  and  O2_25 
ROOT
HETATM    1  C5  UNL     1      -2.192  -0.920  -1.260  1.00  0.00     0.005 A 
HETATM    2  C6  UNL     1      -0.935  -0.447  -0.933  1.00  0.00     0.032 A 
HETATM    3  C7  UNL     1       0.212  -1.203  -0.882  1.00  0.00     0.040 A 
HETATM    4  C8  UNL     1       1.457  -0.729  -0.557  1.00  0.00     0.142 A 
HETATM    5  N2  UNL     1       2.481  -1.591  -0.550  1.00  0.00    -0.224 NA
HETATM    6  C15 UNL     1       2.305  -2.881  -0.851  1.00  0.00     0.236 A 
HETATM    7  N3  UNL     1       1.088  -3.356  -1.173  1.00  0.00    -0.241 NA
HETATM    8  C16 UNL     1       0.013  -2.526  -1.195  1.00  0.00     0.074 A 
HETATM    9  C17 UNL     1      -1.202  -3.062  -1.528  1.00  0.00     0.070 A 
HETATM   10  C18 UNL     1      -2.327  -2.266  -1.566  1.00  0.00     0.078 A 
ENDROOT
BRANCH   4  11
HETATM   11  N1  UNL     1       1.613   0.626  -0.255  1.00  0.00    -0.340 N 
HETATM   12  H7  UNL     1       0.839   1.282  -0.298  1.00  0.00     0.167 HD
BRANCH  11  13
HETATM   13  C9  UNL     1       2.758   1.368   0.146  1.00  0.00     0.035 A 
HETATM   14  C10 UNL     1       2.855   2.762   0.237  1.00  0.00     0.032 A 
HETATM   15  C11 UNL     1       3.978   3.417   0.635  1.00  0.00     0.046 A 
HETATM   16  C12 UNL     1       5.107   2.739   0.979  1.00  0.00     0.138 A 
HETATM   17  F1  UNL     1       6.161   3.490   1.358  1.00  0.00    -0.204 F 
HETATM   18  C13 UNL     1       5.082   1.364   0.912  1.00  0.00     0.074 A 
HETATM   19 CL1  UNL     1       6.557   0.543   1.364  1.00  0.00    -0.081 Cl
HETATM   20  C14 UNL     1       3.929   0.736   0.505  1.00  0.00     0.056 A 
ENDBRANCH  11  13
ENDBRANCH   4  11
BRANCH   1  21
HETATM   21  C4  UNL     1      -3.352  -0.051  -1.287  1.00  0.00     0.065 C 
BRANCH  21  22
HETATM   22  C3  UNL     1      -3.556   0.671  -0.220  1.00  0.00    -0.146 C 
BRANCH  22  23
HETATM   23  C2  UNL     1      -3.769   1.143   1.001  1.00  0.00     0.097 C 
BRANCH  23  24
HETATM   24  C1  UNL     1      -4.547   0.373   1.961  1.00  0.00     0.181 C 
BRANCH  24  25
HETATM   25  O1  UNL     1      -5.779   1.047   2.133  1.00  0.00    -0.400 OA
HETATM   26  H1  UNL     1      -5.943   1.694   1.399  1.00  0.00     0.209 HD
ENDBRANCH  24  25
ENDBRANCH  23  24
ENDBRANCH  22  23
ENDBRANCH  21  22
ENDBRANCH   1  21
BRANCH  10  27
HETATM   27  O2  UNL     1      -3.560  -2.798  -1.901  1.00  0.00    -0.360 OA
HETATM   28  H13 UNL     1      -3.903  -3.630  -1.404  1.00  0.00     0.217 HD
ENDBRANCH  10  27
TORSDOF 8
