REMARK  6 active torsions:
REMARK  status: ('A' for Active; 'I' for Inactive)
REMARK    1  A    between atoms: C3_3  and  C4_4 
REMARK    2  A    between atoms: C4_4  and  C5_5 
REMARK    3  A    between atoms: C5_5  and  O1_6 
REMARK    4  A    between atoms: O1_6  and  C6_7 
REMARK    5  A    between atoms: C9_10  and  N1_11 
REMARK    6  A    between atoms: C18_23  and  O2_24 
ROOT
HETATM    1  C1  UNL     1       7.274   1.512   0.536  1.00  0.00     0.012 C 
HETATM    2  C2  UNL     1       6.221   1.004   0.296  1.00  0.00    -0.117 C 
HETATM    3  C3  UNL     1       4.929   0.403  -0.006  1.00  0.00     0.095 C 
ENDROOT
BRANCH   3   4
HETATM    4  C4  UNL     1       3.982   1.469  -0.498  1.00  0.00     0.039 C 
BRANCH   4   5
HETATM    5  C5  UNL     1       2.603   0.890  -0.832  1.00  0.00     0.176 C 
BRANCH   5   6
HETATM    6  O1  UNL     1       2.100   0.325   0.331  1.00  0.00    -0.348 OA
BRANCH   6   7
HETATM    7  C6  UNL     1       0.981  -0.302   0.619  1.00  0.00     0.104 C 
HETATM    8  C7  UNL     1      -0.176   0.317   1.038  1.00  0.00     0.051 C 
HETATM    9  C8  UNL     1      -1.318  -0.608   1.314  1.00  0.00    -0.004 C 
HETATM   10  C9  UNL     1      -2.549  -0.579   0.761  1.00  0.00     0.134 C 
HETATM   11  C20 UNL     1      -0.820  -1.807   2.195  1.00  0.00     0.102 C 
HETATM   12  N2  UNL     1      -3.214  -1.899   0.501  1.00  0.00    -0.226 NA
HETATM   13  C16 UNL     1      -2.530  -2.887  -0.158  1.00  0.00     0.209 C 
HETATM   14  N3  UNL     1      -1.065  -3.239  -0.035  1.00  0.00    -0.351 N 
HETATM   15  C17 UNL     1      -0.261  -2.373   0.823  1.00  0.00     0.051 C 
HETATM   16  H17 UNL     1      -0.319  -3.886  -0.354  1.00  0.00     0.166 HD
HETATM   17  C18 UNL     1       0.930  -1.817   0.487  1.00  0.00     0.124 C 
BRANCH  10  18
HETATM   18  N1  UNL     1      -2.678   0.831   0.613  1.00  0.00    -0.358 N 
HETATM   19  C10 UNL     1      -3.190   1.467   1.812  1.00  0.00     0.152 C 
HETATM   20  C11 UNL     1      -4.443   2.192   1.413  1.00  0.00    -0.005 C 
HETATM   21  C12 UNL     1      -5.084   2.405   0.269  1.00  0.00     0.021 C 
HETATM   22  C13 UNL     1      -4.675   1.928  -1.048  1.00  0.00     0.031 C 
HETATM   23 CL1  UNL     1      -5.955   1.942  -2.257  1.00  0.00    -0.085 Cl
HETATM   24  C14 UNL     1      -3.522   1.485  -1.510  1.00  0.00     0.017 C 
HETATM   25  C15 UNL     1      -2.291   1.382  -0.670  1.00  0.00     0.153 C 
ENDBRANCH  10  18
BRANCH  17  26
HETATM   26  O2  UNL     1       1.668  -2.897   0.125  1.00  0.00    -0.351 OA
HETATM   27  C19 UNL     1       2.657  -2.888  -0.901  1.00  0.00     0.210 C 
ENDBRANCH  17  26
ENDBRANCH   6   7
ENDBRANCH   5   6
ENDBRANCH   4   5
ENDBRANCH   3   4
TORSDOF 6
