REMARK  6 active torsions:
REMARK  status: ('A' for Active; 'I' for Inactive)
REMARK    1  A    between atoms: C3_3  and  C4_4 
REMARK    2  A    between atoms: C4_4  and  C5_5 
REMARK    3  A    between atoms: C5_5  and  C6_6 
REMARK    4  A    between atoms: C10_13  and  N3_14 
REMARK    5  A    between atoms: C15_21  and  O1_22 
REMARK    6  A    between atoms: C17_24  and  O2_25 
ROOT
HETATM    1  C1  UNL     1      -3.814   4.053   1.228  1.00  0.00     0.012 C 
HETATM    2  C2  UNL     1      -4.097   3.344   0.282  1.00  0.00    -0.117 C 
HETATM    3  C3  UNL     1      -4.437   2.509  -0.871  1.00  0.00     0.093 C 
ENDROOT
BRANCH   3   4
HETATM    4  C4  UNL     1      -3.861   1.107  -0.612  1.00  0.00     0.017 C 
BRANCH   4   5
HETATM    5  C5  UNL     1      -2.396   1.302  -0.471  1.00  0.00     0.044 C 
BRANCH   5   6
HETATM    6  C6  UNL     1      -1.654   0.051  -0.213  1.00  0.00    -0.010 A 
HETATM    7  P1  UNL     1       0.062   0.171  -0.035  1.00  0.00    -0.006 P 
HETATM    8  C7  UNL     1       0.839  -1.350   0.263  1.00  0.00     0.053 A 
HETATM    9  C8  UNL     1      -0.031  -2.418   0.312  1.00  0.00     0.076 A 
HETATM   10  C10 UNL     1       2.211  -1.408   0.431  1.00  0.00     0.143 A 
HETATM   11  N1  UNL     1       0.585  -3.616   0.552  1.00  0.00    -0.241 NA
HETATM   12  C16 UNL     1      -1.375  -2.327   0.147  1.00  0.00     0.070 A 
HETATM   13  C9  UNL     1       1.916  -3.685   0.717  1.00  0.00     0.236 A 
HETATM   14  N2  UNL     1       2.749  -2.633   0.666  1.00  0.00    -0.224 NA
HETATM   15  C17 UNL     1      -2.147  -1.232  -0.092  1.00  0.00     0.078 A 
BRANCH  15  16
HETATM   16  O2  UNL     1      -3.545  -1.338  -0.236  1.00  0.00    -0.355 OA
HETATM   17  C18 UNL     1      -4.224  -2.555  -0.145  1.00  0.00     0.210 C 
ENDBRANCH  15  16
BRANCH  10  18
HETATM   18  N3  UNL     1       3.070  -0.284   0.362  1.00  0.00    -0.332 N 
HETATM   19  C11 UNL     1       4.487  -0.528   0.667  1.00  0.00     0.156 C 
HETATM   20  C12 UNL     1       5.293  -0.196  -0.546  1.00  0.00     0.015 C 
HETATM   21  C13 UNL     1       5.121   1.035  -1.021  1.00  0.00     0.047 C 
HETATM   22 CL1  UNL     1       6.031   1.487  -2.435  1.00  0.00    -0.086 Cl
HETATM   23  C14 UNL     1       4.152   1.859  -0.253  1.00  0.00     0.263 C 
HETATM   24  F1  UNL     1       3.803   2.982  -0.978  1.00  0.00    -0.239 F 
HETATM   25  C15 UNL     1       2.873   1.102   0.042  1.00  0.00     0.261 C 
BRANCH  25  26
HETATM   26  O1  UNL     1       2.246   1.800   1.066  1.00  0.00    -0.373 OA
HETATM   27  H14 UNL     1       2.397   1.354   1.944  1.00  0.00     0.212 HD
ENDBRANCH  25  26
ENDBRANCH  10  18
ENDBRANCH   5   6
ENDBRANCH   4   5
ENDBRANCH   3   4
TORSDOF 6
