REMARK  6 active torsions:
REMARK  status: ('A' for Active; 'I' for Inactive)
REMARK    1  A    between atoms: N1_2  and  C2_3 
REMARK    2  A    between atoms: C9_10  and  O1_11 
REMARK    3  A    between atoms: C12_14  and  N2_15 
REMARK    4  A    between atoms: N2_15  and  C13_16 
REMARK    5  A    between atoms: C13_16  and  N3_17 
REMARK    6  A    between atoms: N3_17  and  C14_18 
ROOT
HETATM    1  C2  UNL     1      -0.473  -0.134   2.257  1.00  0.00     0.133 A 
HETATM    2  C3  UNL     1      -1.428  -0.548   1.426  1.00  0.00     0.100 A 
HETATM    3  C4  UNL     1      -2.189  -0.868   0.741  1.00  0.00    -0.165 C 
HETATM    4  C5  UNL     1      -3.119  -1.244  -0.120  1.00  0.00     0.081 C 
HETATM    5  C6  UNL     1      -4.133  -1.618  -1.030  1.00  0.00     0.012 C 
HETATM    6  C7  UNL     1      -4.144  -0.250  -1.828  1.00  0.00     0.007 C 
HETATM    7  C8  UNL     1      -2.877   0.386  -2.195  1.00  0.00     0.064 C 
HETATM    8  C9  UNL     1      -1.778   0.855  -1.382  1.00  0.00     0.044 C 
HETATM    9  C11 UNL     1      -0.937   0.940  -0.283  1.00  0.00     0.042 C 
HETATM   10  C12 UNL     1      -0.372   0.683   0.985  1.00  0.00     0.123 A 
ENDROOT
BRANCH  10  11
HETATM   11  N2  UNL     1       0.576   1.079   1.716  1.00  0.00    -0.291 NA
BRANCH  11  12
HETATM   12  C13 UNL     1       1.497   2.110   1.303  1.00  0.00     0.265 C 
BRANCH  12  13
HETATM   13  N3  UNL     1       2.211   1.648   0.132  1.00  0.00    -0.372 N 
HETATM   14  H18 UNL     1       2.124   2.196  -0.772  1.00  0.00     0.161 HD
BRANCH  13  15
HETATM   15  C14 UNL     1       3.025   0.490   0.152  1.00  0.00     0.030 A 
HETATM   16  C15 UNL     1       3.693   0.080  -1.004  1.00  0.00     0.029 A 
HETATM   17  C16 UNL     1       4.475  -1.038  -0.947  1.00  0.00     0.004 A 
HETATM   18  C17 UNL     1       4.660  -1.809   0.175  1.00  0.00     0.024 A 
HETATM   19  C18 UNL     1       3.985  -1.379   1.306  1.00  0.00     0.036 A 
HETATM   20 CL1  UNL     1       4.153  -2.297   2.782  1.00  0.00    -0.084 Cl
HETATM   21  C19 UNL     1       3.165  -0.239   1.324  1.00  0.00     0.053 A 
ENDBRANCH  13  15
ENDBRANCH  12  13
ENDBRANCH  11  12
ENDBRANCH  10  11
BRANCH   1  22
HETATM   22  N1  UNL     1      -0.890  -0.976   3.126  1.00  0.00    -0.316 NA
HETATM   23  C1  UNL     1      -0.166  -1.000   4.398  1.00  0.00     0.172 C 
ENDBRANCH   1  22
BRANCH   8  24
HETATM   24  O1  UNL     1      -1.166   1.848  -2.232  1.00  0.00    -0.360 OA
HETATM   25  C10 UNL     1      -0.068   1.299  -2.963  1.00  0.00     0.209 C 
ENDBRANCH   8  24
TORSDOF 6
