REMARK  8 active torsions:
REMARK  status: ('A' for Active; 'I' for Inactive)
REMARK    1  A    between atoms: C2_2  and  C3_3 
REMARK    2  A    between atoms: C3_3  and  C4_4 
REMARK    3  A    between atoms: C4_4  and  C5_5 
REMARK    4  A    between atoms: C5_5  and  C6_6 
REMARK    5  A    between atoms: C6_6  and  O1_7 
REMARK    6  A    between atoms: O1_7  and  C7_8 
REMARK    7  A    between atoms: C10_11  and  N1_12 
REMARK    8  A    between atoms: C18_23  and  O2_24 
ROOT
HETATM    1  C7  UNL     1       0.196  -0.620   0.317  1.00  0.00     0.104 C 
HETATM    2  C8  UNL     1      -0.955  -0.469  -0.426  1.00  0.00     0.051 C 
HETATM    3  C9  UNL     1      -2.112  -1.282   0.064  1.00  0.00    -0.004 C 
HETATM    4  C10 UNL     1      -3.331  -0.821   0.426  1.00  0.00     0.138 C 
HETATM    5  N2  UNL     1      -4.014  -1.516   1.570  1.00  0.00    -0.226 NA
HETATM    6  C16 UNL     1      -3.329  -1.724   2.739  1.00  0.00     0.209 C 
HETATM    7  N3  UNL     1      -1.876  -2.094   2.909  1.00  0.00    -0.351 N 
HETATM    8  C17 UNL     1      -1.080  -2.152   1.687  1.00  0.00     0.050 C 
HETATM    9  C18 UNL     1       0.127  -1.556   1.512  1.00  0.00     0.122 C 
HETATM   10  C19 UNL     1      -1.669  -2.760   0.342  1.00  0.00     0.102 C 
HETATM   11  H17 UNL     1      -1.140  -2.320   3.603  1.00  0.00     0.166 HD
ENDROOT
BRANCH   1  12
HETATM   12  O1  UNL     1       1.334  -0.008   0.055  1.00  0.00    -0.348 OA
BRANCH  12  13
HETATM   13  C6  UNL     1       2.556  -0.538  -0.390  1.00  0.00     0.176 C 
BRANCH  13  14
HETATM   14  C5  UNL     1       3.524   0.635  -0.541  1.00  0.00     0.028 C 
BRANCH  14  15
HETATM   15  C4  UNL     1       4.865   0.103  -1.021  1.00  0.00     0.019 C 
BRANCH  15  16
HETATM   16  C3  UNL     1       5.799   1.236  -1.167  1.00  0.00     0.067 C 
BRANCH  16  17
HETATM   17  C2  UNL     1       5.680   2.284  -0.400  1.00  0.00    -0.176 C 
HETATM   18  C1  UNL     1       5.384   3.199   0.505  1.00  0.00     0.091 C 
ENDBRANCH  16  17
ENDBRANCH  15  16
ENDBRANCH  14  15
ENDBRANCH  13  14
ENDBRANCH  12  13
ENDBRANCH   1  12
BRANCH   9  19
HETATM   19  O2  UNL     1       0.847  -2.049   2.547  1.00  0.00    -0.356 OA
HETATM   20  H18 UNL     1       1.677  -2.593   2.384  1.00  0.00     0.218 HD
ENDBRANCH   9  19
BRANCH   4  21
HETATM   21  N1  UNL     1      -3.439   0.257  -0.495  1.00  0.00    -0.338 N 
HETATM   22  C11 UNL     1      -2.964   1.540  -0.102  1.00  0.00     0.094 A 
HETATM   23  C12 UNL     1      -3.111   2.485  -1.018  1.00  0.00     0.041 A 
HETATM   24  C13 UNL     1      -3.701   2.288  -2.337  1.00  0.00     0.033 A 
HETATM   25 CL1  UNL     1      -3.875   3.559  -3.511  1.00  0.00    -0.085 Cl
HETATM   26  C14 UNL     1      -4.105   1.054  -2.588  1.00  0.00     0.017 A 
HETATM   27  C15 UNL     1      -4.051  -0.164  -1.740  1.00  0.00     0.159 A 
ENDBRANCH   4  21
TORSDOF 8
