REMARK  3 active torsions:
REMARK  status: ('A' for Active; 'I' for Inactive)
REMARK    1  A    between atoms: O1_2  and  C2_3 
REMARK    2  A    between atoms: C6_9  and  N3_10 
REMARK    3  A    between atoms: N3_10  and  C7_11 
ROOT
HETATM    1  C2  UNL     1       3.288   0.828  -0.672  1.00  0.00     0.087 A 
HETATM    2  C3  UNL     1       2.967  -0.108   0.297  1.00  0.00     0.070 A 
HETATM    3  C4  UNL     1       1.656  -0.491   0.503  1.00  0.00     0.075 A 
HETATM    4  N1  UNL     1       1.334  -1.399   1.441  1.00  0.00    -0.241 NA
HETATM    5  C5  UNL     1       0.043  -1.739   1.603  1.00  0.00     0.236 A 
HETATM    6  N2  UNL     1      -0.920  -1.188   0.847  1.00  0.00    -0.224 NA
HETATM    7  C6  UNL     1      -0.602  -0.279  -0.092  1.00  0.00     0.141 A 
HETATM    8  C12 UNL     1       0.702   0.116  -0.312  1.00  0.00     0.040 A 
HETATM    9  C13 UNL     1       1.005   1.050  -1.282  1.00  0.00     0.039 A 
HETATM   10  C14 UNL     1       2.324   1.415  -1.467  1.00  0.00     0.045 A 
HETATM   11 BR1  UNL     1       2.692   2.709  -2.819  1.00  0.00    -0.048 Br
ENDROOT
BRANCH   7  12
HETATM   12  N3  UNL     1      -1.677   0.234  -0.826  1.00  0.00    -0.342 N 
HETATM   13  H6  UNL     1      -1.735   0.934  -1.598  1.00  0.00     0.167 HD
BRANCH  12  14
HETATM   14  C7  UNL     1      -3.000  -0.170  -0.599  1.00  0.00     0.033 A 
HETATM   15  C8  UNL     1      -3.919  -0.726  -1.383  1.00  0.00     0.026 A 
HETATM   16  C9  UNL     1      -5.175  -0.962  -0.662  1.00  0.00    -0.000 A 
HETATM   17  C10 UNL     1      -4.955  -0.523   0.567  1.00  0.00    -0.001 A 
HETATM   18  C11 UNL     1      -3.578   0.017   0.739  1.00  0.00     0.154 A 
HETATM   19 CL1  UNL     1      -3.739   1.728   1.163  1.00  0.00    -0.114 Cl
ENDBRANCH  12  14
ENDBRANCH   7  12
BRANCH   1  20
HETATM   20  O1  UNL     1       4.589   1.237  -0.908  1.00  0.00    -0.355 OA
HETATM   21  C1  UNL     1       5.642   0.684  -0.135  1.00  0.00     0.210 C 
ENDBRANCH   1  20
TORSDOF 3
