REMARK  2 active torsions:
REMARK  status: ('A' for Active; 'I' for Inactive)
REMARK    1  A    between atoms: C6_9  and  N3_10 
REMARK    2  A    between atoms: N3_10  and  C7_11 
ROOT
HETATM    1  C1  UNL     1      -3.949  -2.991  -1.307  1.00  0.00     0.000 C 
HETATM    2  O1  UNL     1      -3.133  -1.886  -0.909  1.00  0.00     0.000 OA
HETATM    3  C2  UNL     1      -3.804  -0.918  -0.173  1.00  0.00    -0.054 A 
HETATM    4  C3  UNL     1      -2.550  -0.631  -0.316  1.00  0.00     0.082 A 
HETATM    5  C4  UNL     1      -1.139  -0.519  -0.600  1.00  0.00     0.057 A 
HETATM    6  N1  UNL     1      -1.078  -0.791  -1.916  1.00  0.00    -0.245 NA
HETATM    7  C5  UNL     1       0.099  -0.801  -2.615  1.00  0.00     0.235 A 
HETATM    8  N2  UNL     1       1.201  -0.524  -1.919  1.00  0.00    -0.224 NA
HETATM    9  C6  UNL     1       1.090  -0.261  -0.617  1.00  0.00     0.140 A 
HETATM   10  C13 UNL     1      -0.031  -0.226   0.169  1.00  0.00     0.037 A 
HETATM   11  C14 UNL     1      -0.107   0.065   1.619  1.00  0.00     0.212 C 
HETATM   12  O2  UNL     1      -1.061   0.919   2.033  1.00  0.00    -0.386 OA
HETATM   13  C15 UNL     1      -1.044   2.234   1.638  1.00  0.00     0.180 C 
HETATM   14  C16 UNL     1      -2.442   2.739   2.230  1.00  0.00     0.120 C 
HETATM   15  C17 UNL     1      -3.317   1.755   1.650  1.00  0.00    -0.104 C 
HETATM   16  C18 UNL     1      -3.996   0.961   1.182  1.00  0.00    -0.102 C 
HETATM   17  C19 UNL     1      -4.827  -0.050   0.591  1.00  0.00     0.129 C 
ENDROOT
BRANCH   9  18
HETATM   18  N3  UNL     1       2.331   0.020   0.037  1.00  0.00    -0.340 N 
HETATM   19  H6  UNL     1       2.514   0.282   1.019  1.00  0.00     0.167 HD
BRANCH  18  20
HETATM   20  C7  UNL     1       3.577  -0.037  -0.636  1.00  0.00     0.035 A 
HETATM   21  C8  UNL     1       3.911  -0.871  -1.682  1.00  0.00     0.029 A 
HETATM   22  C9  UNL     1       5.116  -0.878  -2.325  1.00  0.00     0.004 A 
HETATM   23  C10 UNL     1       6.102  -0.018  -1.945  1.00  0.00     0.024 A 
HETATM   24  C11 UNL     1       5.860   0.842  -0.919  1.00  0.00     0.036 A 
HETATM   25 CL1  UNL     1       7.111   1.957  -0.411  1.00  0.00    -0.084 Cl
HETATM   26  C12 UNL     1       4.646   0.811  -0.312  1.00  0.00     0.053 A 
ENDBRANCH  18  20
ENDBRANCH   9  18
TORSDOF 2
