REMARK  7 active torsions:
REMARK  status: ('A' for Active; 'I' for Inactive)
REMARK    1  A    between atoms: C2_2  and  C3_3 
REMARK    2  A    between atoms: C3_3  and  C4_4 
REMARK    3  A    between atoms: C4_4  and  O1_5 
REMARK    4  A    between atoms: O1_5  and  C5_6 
REMARK    5  A    between atoms: C10_11  and  O2_12 
REMARK    6  A    between atoms: C12_15  and  N2_16 
REMARK    7  A    between atoms: N2_16  and  C13_17 
ROOT
HETATM    1  C5  UNL     1       2.102   1.363  -0.558  1.00  0.00     0.102 A 
HETATM    2  C6  UNL     1       0.836   0.945  -0.200  1.00  0.00     0.055 A 
HETATM    3  C7  UNL     1      -0.326   1.454  -0.755  1.00  0.00     0.025 A 
HETATM    4  C8  UNL     1      -0.180   2.441  -1.726  1.00  0.00     0.012 A 
HETATM    5  C9  UNL     1       1.077   2.872  -2.098  1.00  0.00     0.054 A 
HETATM    6  C10 UNL     1       2.228   2.342  -1.522  1.00  0.00     0.100 A 
HETATM    7  C11 UNL     1      -1.414   2.714  -2.051  1.00  0.00     0.100 A 
HETATM    8  N1  UNL     1      -2.311   2.055  -1.439  1.00  0.00    -0.227 NA
HETATM    9  C12 UNL     1      -1.624   1.182  -0.543  1.00  0.00     0.140 A 
ENDROOT
BRANCH   9  10
HETATM   10  N2  UNL     1      -2.033   0.205   0.406  1.00  0.00    -0.340 N 
HETATM   11  H9  UNL     1      -1.555   0.155   1.327  1.00  0.00     0.167 HD
BRANCH  10  12
HETATM   12  C13 UNL     1      -3.087  -0.701   0.105  1.00  0.00     0.035 A 
HETATM   13  C14 UNL     1      -3.740  -0.663  -1.101  1.00  0.00     0.032 A 
HETATM   14  C15 UNL     1      -4.773  -1.528  -1.435  1.00  0.00     0.046 A 
HETATM   15  C16 UNL     1      -5.158  -2.477  -0.493  1.00  0.00     0.138 A 
HETATM   16  F1  UNL     1      -6.163  -3.387  -0.701  1.00  0.00    -0.204 F 
HETATM   17  C17 UNL     1      -4.508  -2.527   0.729  1.00  0.00     0.074 A 
HETATM   18 CL1  UNL     1      -4.999  -3.733   1.923  1.00  0.00    -0.081 Cl
HETATM   19  C18 UNL     1      -3.478  -1.641   1.021  1.00  0.00     0.056 A 
ENDBRANCH  10  12
ENDBRANCH   9  10
BRANCH   1  20
HETATM   20  O1  UNL     1       3.258   0.849   0.001  1.00  0.00    -0.347 OA
BRANCH  20  21
HETATM   21  C4  UNL     1       3.209  -0.163   1.002  1.00  0.00     0.193 C 
BRANCH  21  22
HETATM   22  C3  UNL     1       4.604  -0.470   1.367  1.00  0.00     0.093 C 
BRANCH  22  23
HETATM   23  C2  UNL     1       4.873  -1.560   2.070  1.00  0.00    -0.174 C 
HETATM   24  C1  UNL     1       4.872  -2.688   2.764  1.00  0.00     0.091 C 
ENDBRANCH  22  23
ENDBRANCH  21  22
ENDBRANCH  20  21
ENDBRANCH   1  20
BRANCH   6  25
HETATM   25  O2  UNL     1       3.468   2.829  -1.950  1.00  0.00    -0.358 OA
HETATM   26  H8  UNL     1       4.140   3.061  -1.208  1.00  0.00     0.217 HD
ENDBRANCH   6  25
TORSDOF 7
