REMARK  4 active torsions:
REMARK  status: ('A' for Active; 'I' for Inactive)
REMARK    1  A    between atoms: O1_1  and  C1_2 
REMARK    2  A    between atoms: C2_3  and  N1_4 
REMARK    3  A    between atoms: N1_4  and  C3_5 
REMARK    4  A    between atoms: C11_14  and  O3_15 
ROOT
HETATM    1  C3  UNL     1       1.991  -0.631   0.524  1.00  0.00     0.128 C 
HETATM    2  C4  UNL     1       2.269  -1.912   0.624  1.00  0.00     0.052 C 
HETATM    3  C5  UNL     1       1.374  -3.048   0.525  1.00  0.00     0.028 C 
HETATM    4  C6  UNL     1       0.074  -2.976   0.308  1.00  0.00     0.135 C 
HETATM    5  O2  UNL     1      -0.698  -1.858   0.133  1.00  0.00    -0.358 OA
HETATM    6  C7  UNL     1      -1.800  -1.570   0.941  1.00  0.00     0.216 C 
HETATM    7  C8  UNL     1      -2.505  -0.319   0.602  1.00  0.00     0.006 C 
HETATM    8  C9  UNL     1      -3.803  -0.243   0.531  1.00  0.00    -0.012 C 
HETATM    9  C10 UNL     1      -4.316   0.383  -0.489  1.00  0.00     0.049 C 
HETATM   10  C11 UNL     1      -3.811   1.705  -0.871  1.00  0.00     0.068 C 
HETATM   11  C12 UNL     1      -2.565   1.965  -0.457  1.00  0.00     0.068 C 
HETATM   12  C13 UNL     1      -1.835   0.946   0.316  1.00  0.00     0.070 C 
HETATM   13  N2  UNL     1      -0.643   1.379   0.628  1.00  0.00    -0.241 NA
HETATM   14  C14 UNL     1       0.192   0.508   1.379  1.00  0.00     0.235 C 
HETATM   15  N3  UNL     1       0.912   0.269   0.310  1.00  0.00    -0.225 NA
ENDROOT
BRANCH   1  16
HETATM   16  N1  UNL     1       2.942   0.441   0.635  1.00  0.00    -0.349 N 
HETATM   17  H4  UNL     1       3.195   1.124   1.406  1.00  0.00     0.167 HD
BRANCH  16  18
HETATM   18  C2  UNL     1       3.803   0.773  -0.453  1.00  0.00     0.113 C 
HETATM   19  C1  UNL     1       3.933   1.692  -1.395  1.00  0.00     0.148 C 
BRANCH  19  20
HETATM   20  O1  UNL     1       4.661   2.160  -2.481  1.00  0.00    -0.371 OA
HETATM   21  H1  UNL     1       5.475   1.593  -2.751  1.00  0.00     0.216 HD
ENDBRANCH  19  20
ENDBRANCH  16  18
ENDBRANCH   1  16
BRANCH  10  22
HETATM   22  O3  UNL     1      -4.587   2.594  -1.605  1.00  0.00    -0.361 OA
HETATM   23  H11 UNL     1      -5.483   2.929  -1.256  1.00  0.00     0.217 HD
ENDBRANCH  10  22
TORSDOF 4
