REMARK  3 active torsions:
REMARK  status: ('A' for Active; 'I' for Inactive)
REMARK    1  A    between atoms: O1_1  and  C1_2 
REMARK    2  A    between atoms: C6_9  and  N3_10 
REMARK    3  A    between atoms: N3_10  and  C7_11 
ROOT
HETATM    1  C1  UNL     1      -1.871  -1.256   0.481  1.00  0.00     0.178 C 
HETATM    2  C2  UNL     1      -0.769  -0.667  -0.032  1.00  0.00     0.081 C 
HETATM    3  C3  UNL     1      -0.546   0.352  -1.060  1.00  0.00     0.043 A 
HETATM    4  C4  UNL     1      -1.360   1.364  -1.575  1.00  0.00     0.072 A 
HETATM    5  N1  UNL     1      -0.907   2.175  -2.521  1.00  0.00    -0.241 NA
HETATM    6  C5  UNL     1       0.361   2.010  -2.988  1.00  0.00     0.236 A 
HETATM    7  N2  UNL     1       1.208   1.066  -2.552  1.00  0.00    -0.224 NA
HETATM    8  C6  UNL     1       0.748   0.249  -1.597  1.00  0.00     0.142 A 
HETATM    9  C13 UNL     1      -2.533   1.109  -0.814  1.00  0.00     0.028 C 
HETATM   10  C14 UNL     1      -3.028   1.200   0.383  1.00  0.00    -0.022 C 
HETATM   11  C15 UNL     1      -4.453   0.720   0.617  1.00  0.00     0.054 C 
HETATM   12  C16 UNL     1      -4.115  -0.628   1.350  1.00  0.00     0.181 C 
HETATM   13  O2  UNL     1      -3.276  -1.265   0.375  1.00  0.00    -0.330 OA
ENDROOT
BRANCH   8  14
HETATM   14  N3  UNL     1       1.704  -0.735  -1.168  1.00  0.00    -0.340 N 
HETATM   15  H4  UNL     1       1.591  -1.684  -1.581  1.00  0.00     0.167 HD
BRANCH  14  16
HETATM   16  C7  UNL     1       2.747  -0.472  -0.244  1.00  0.00     0.035 A 
HETATM   17  C8  UNL     1       3.133   0.797   0.116  1.00  0.00     0.032 A 
HETATM   18  C9  UNL     1       4.156   1.053   1.032  1.00  0.00     0.046 A 
HETATM   19  C10 UNL     1       4.827  -0.014   1.619  1.00  0.00     0.138 A 
HETATM   20  F1  UNL     1       5.814   0.199   2.500  1.00  0.00    -0.204 F 
HETATM   21  C11 UNL     1       4.439  -1.303   1.257  1.00  0.00     0.074 A 
HETATM   22 CL1  UNL     1       5.249  -2.716   1.956  1.00  0.00    -0.081 Cl
HETATM   23  C12 UNL     1       3.412  -1.552   0.337  1.00  0.00     0.056 A 
ENDBRANCH  14  16
ENDBRANCH   8  14
BRANCH   1  24
HETATM   24  O1  UNL     1      -1.871  -2.220   1.470  1.00  0.00    -0.341 OA
HETATM   25  H1  UNL     1      -1.672  -3.183   1.158  1.00  0.00     0.220 HD
ENDBRANCH   1  24
TORSDOF 3
