REMARK  9 active torsions:
REMARK  status: ('A' for Active; 'I' for Inactive)
REMARK    1  A    between atoms: C2_2  and  O1_3 
REMARK    2  A    between atoms: O1_3  and  C3_4 
REMARK    3  A    between atoms: C8_9  and  C9_10 
REMARK    4  A    between atoms: C9_10  and  O2_11 
REMARK    5  A    between atoms: C11_14  and  N2_15 
REMARK    6  A    between atoms: N2_15  and  C12_16 
REMARK    7  A    between atoms: C12_16  and  C13_17 
REMARK    8  A    between atoms: C14_18  and  C15_20 
REMARK    9  A    between atoms: C15_20  and  C16_21 
ROOT
HETATM    1  C3  UNL     1      -3.357  -0.100  -0.249  1.00  0.00     0.078 A 
HETATM    2  C4  UNL     1      -1.997  -0.336  -0.262  1.00  0.00     0.053 A 
HETATM    3  C5  UNL     1      -1.177   0.737   0.025  1.00  0.00     0.019 A 
HETATM    4  C6  UNL     1      -1.653   1.983   0.313  1.00  0.00     0.064 A 
HETATM    5  C7  UNL     1      -3.015   2.160   0.312  1.00  0.00     0.044 A 
HETATM    6  C8  UNL     1      -3.900   1.137   0.034  1.00  0.00     0.001 A 
HETATM    7  N1  UNL     1      -0.721   2.845   0.553  1.00  0.00    -0.283 NA
HETATM    8  C10 UNL     1       0.557   2.187   0.434  1.00  0.00     0.207 A 
HETATM    9  C11 UNL     1       0.142   0.809   0.083  1.00  0.00     0.038 A 
ENDROOT
BRANCH   9  10
HETATM   10  N2  UNL     1       1.138  -0.179  -0.131  1.00  0.00    -0.388 N 
HETATM   11  H11 UNL     1       0.882  -0.823  -0.908  1.00  0.00     0.159 HD
BRANCH  10  12
HETATM   12  C12 UNL     1       2.365  -0.326   0.597  1.00  0.00     0.148 C 
BRANCH  12  13
HETATM   13  C13 UNL     1       3.191  -1.465   0.102  1.00  0.00     0.012 C 
HETATM   14  C14 UNL     1       4.440  -1.385  -0.398  1.00  0.00     0.012 C 
HETATM   15 CL1  UNL     1       5.404  -2.740  -0.979  1.00  0.00    -0.089 Cl
BRANCH  14  16
HETATM   16  C15 UNL     1       5.304  -0.193  -0.591  1.00  0.00     0.082 C 
BRANCH  16  17
HETATM   17  C16 UNL     1       6.583  -0.353   0.205  1.00  0.00     0.227 C 
HETATM   18  F1  UNL     1       6.220  -0.482   1.534  1.00  0.00    -0.255 F 
ENDBRANCH  16  17
ENDBRANCH  14  16
ENDBRANCH  12  13
ENDBRANCH  10  12
ENDBRANCH   9  10
BRANCH   1  19
HETATM   19  O1  UNL     1      -4.256  -1.131  -0.529  1.00  0.00    -0.343 OA
BRANCH  19  20
HETATM   20  C2  UNL     1      -3.741  -2.372  -0.815  1.00  0.00     0.158 C 
HETATM   21  C1  UNL     1      -3.794  -2.706   0.470  1.00  0.00     0.038 C 
ENDBRANCH  19  20
ENDBRANCH   1  19
BRANCH   6  22
HETATM   22  C9  UNL     1      -5.371   1.408   0.053  1.00  0.00     0.205 C 
BRANCH  22  23
HETATM   23  O2  UNL     1      -5.861   1.493  -1.255  1.00  0.00    -0.396 OA
HETATM   24  H8  UNL     1      -5.276   2.063  -1.826  1.00  0.00     0.209 HD
ENDBRANCH  22  23
ENDBRANCH   6  22
TORSDOF 9
