REMARK  8 active torsions:
REMARK  status: ('A' for Active; 'I' for Inactive)
REMARK    1  A    between atoms: O1_1  and  C1_2 
REMARK    2  A    between atoms: C5_8  and  N3_9 
REMARK    3  A    between atoms: N3_9  and  C6_10 
REMARK    4  A    between atoms: C13_18  and  O2_19 
REMARK    5  A    between atoms: O2_19  and  C14_20 
REMARK    6  A    between atoms: C14_20  and  C15_21 
REMARK    7  A    between atoms: C15_21  and  C16_22 
REMARK    8  A    between atoms: C16_22  and  C17_23 
ROOT
HETATM    1  C1  UNL     1       1.684  -0.890   2.132  1.00  0.00     0.101 A 
HETATM    2  C2  UNL     1       0.621  -1.657   2.624  1.00  0.00     0.072 A 
HETATM    3  C3  UNL     1      -0.545  -1.773   1.880  1.00  0.00     0.075 A 
HETATM    4  N1  UNL     1      -1.577  -2.485   2.344  1.00  0.00    -0.241 NA
HETATM    5  C4  UNL     1      -2.724  -2.598   1.656  1.00  0.00     0.236 A 
HETATM    6  N2  UNL     1      -2.821  -1.960   0.450  1.00  0.00    -0.224 NA
HETATM    7  C5  UNL     1      -1.781  -1.240  -0.021  1.00  0.00     0.141 A 
HETATM    8  C11 UNL     1      -0.595  -1.114   0.671  1.00  0.00     0.042 A 
HETATM    9  C12 UNL     1       0.432  -0.373   0.191  1.00  0.00     0.057 A 
HETATM   10  C13 UNL     1       1.607  -0.226   0.892  1.00  0.00     0.102 A 
ENDROOT
BRANCH   7  11
HETATM   11  N3  UNL     1      -1.893  -0.545  -1.274  1.00  0.00    -0.343 N 
HETATM   12  H4  UNL     1      -1.137  -0.569  -1.974  1.00  0.00     0.167 HD
BRANCH  11  13
HETATM   13  C6  UNL     1      -3.114   0.195  -1.499  1.00  0.00     0.017 A 
HETATM   14  C7  UNL     1      -3.944   0.639  -0.543  1.00  0.00     0.067 A 
HETATM   15  C8  UNL     1      -5.077   1.344  -1.120  1.00  0.00     0.114 A 
HETATM   16  F1  UNL     1      -6.089   1.906  -0.408  1.00  0.00    -0.206 F 
HETATM   17  C9  UNL     1      -4.904   1.312  -2.455  1.00  0.00     0.021 A 
HETATM   18  C10 UNL     1      -3.665   0.593  -2.824  1.00  0.00     0.087 A 
ENDBRANCH  11  13
ENDBRANCH   7  11
BRANCH  10  19
HETATM   19  O2  UNL     1       2.781   0.419   0.703  1.00  0.00    -0.347 OA
BRANCH  19  20
HETATM   20  C14 UNL     1       3.295   1.185  -0.318  1.00  0.00     0.193 C 
BRANCH  20  21
HETATM   21  C15 UNL     1       4.661   1.631   0.124  1.00  0.00     0.099 C 
BRANCH  21  22
HETATM   22  C16 UNL     1       5.702   0.825  -0.001  1.00  0.00    -0.136 C 
BRANCH  22  23
HETATM   23  C17 UNL     1       6.496  -0.226  -0.144  1.00  0.00     0.135 C 
HETATM   24 CL1  UNL     1       7.196  -0.175  -1.765  1.00  0.00    -0.088 Cl
ENDBRANCH  22  23
ENDBRANCH  21  22
ENDBRANCH  20  21
ENDBRANCH  19  20
ENDBRANCH  10  19
BRANCH   1  25
HETATM   25  O1  UNL     1       2.767  -0.901   3.033  1.00  0.00    -0.358 OA
HETATM   26  H1  UNL     1       3.593  -1.457   2.788  1.00  0.00     0.217 HD
ENDBRANCH   1  25
TORSDOF 8
