REMARK  9 active torsions:
REMARK  status: ('A' for Active; 'I' for Inactive)
REMARK    1  A    between atoms: B1_1  and  C1_2 
REMARK    2  A    between atoms: C1_2  and  C2_3 
REMARK    3  A    between atoms: C2_3  and  O1_4 
REMARK    4  A    between atoms: O1_4  and  C3_5 
REMARK    5  A    between atoms: C3_5  and  C4_6 
REMARK    6  A    between atoms: N2_13  and  C10_14 
REMARK    7  A    between atoms: C10_14  and  C11_15 
REMARK    8  A    between atoms: C10_14  and  C13_18 
REMARK    9  A    between atoms: C16_23  and  O2_24 
ROOT
HETATM    1  C4  UNL     1      -1.500  -0.604  -0.079  1.00  0.00     0.002 C 
HETATM    2  C5  UNL     1      -0.486  -0.946   0.701  1.00  0.00     0.055 C 
HETATM    3  C6  UNL     1       0.900  -0.948   0.128  1.00  0.00     0.295 C 
HETATM    4  C7  UNL     1       1.753  -1.859   0.902  1.00  0.00     0.076 C 
HETATM    5  C8  UNL     1       1.624  -1.583   2.169  1.00  0.00     0.082 C 
HETATM    6  N1  UNL     1       1.526  -0.384   2.532  1.00  0.00    -0.257 NA
HETATM    7  C9  UNL     1       1.241   0.739   1.660  1.00  0.00     0.426 C 
HETATM    8  N2  UNL     1       1.515   0.378   0.258  1.00  0.00     0.155 N 
HETATM    9  N3  UNL     1       0.814  -1.253  -1.263  1.00  0.00    -0.235 NA
HETATM   10  C15 UNL     1      -0.039  -0.620  -1.956  1.00  0.00     0.119 C 
HETATM   11  C16 UNL     1      -1.183  -0.249  -1.458  1.00  0.00     0.104 C 
ENDROOT
BRANCH   8  12
HETATM   12  C10 UNL     1       2.946   0.257   0.131  1.00  0.00     0.260 C 
BRANCH  12  13
HETATM   13  C11 UNL     1       3.402  -0.109  -1.240  1.00  0.00     0.068 C 
HETATM   14  C12 UNL     1       4.069   0.803  -1.946  1.00  0.00     0.421 C 
HETATM   15  F1  UNL     1       4.571   0.698  -3.188  1.00  0.00    -0.455 F 
ENDBRANCH  12  13
BRANCH  12  16
HETATM   16  C13 UNL     1       3.549   1.556   0.556  1.00  0.00     0.021 C 
HETATM   17  C14 UNL     1       4.428   1.736   1.527  1.00  0.00     0.082 C 
HETATM   18 CL1  UNL     1       5.250   3.118   2.186  1.00  0.00    -0.097 Cl
ENDBRANCH  12  16
ENDBRANCH   8  12
BRANCH   1  19
HETATM   19  C3  UNL     1      -2.930  -0.551   0.335  1.00  0.00     0.209 C 
BRANCH  19  20
HETATM   20  O1  UNL     1      -3.665  -1.416  -0.436  1.00  0.00    -0.384 OA
BRANCH  20  21
HETATM   21  C2  UNL     1      -5.018  -1.431  -0.116  1.00  0.00     0.178 C 
BRANCH  21  22
HETATM   22  C1  UNL     1      -5.493  -0.018  -0.341  1.00  0.00    -0.095 C 
BRANCH  22  23
HETATM   23  B1  UNL     1      -6.261   1.374   0.452  1.00  0.00     0.141 B 
HETATM   24  H1  UNL     1      -6.904   2.060   1.735  1.00  0.00    -0.032 HD
ENDBRANCH  22  23
ENDBRANCH  21  22
ENDBRANCH  20  21
ENDBRANCH  19  20
ENDBRANCH   1  19
BRANCH  11  25
HETATM   25  O2  UNL     1      -2.055   0.472  -2.270  1.00  0.00    -0.358 OA
HETATM   26  H16 UNL     1      -2.148   1.497  -2.203  1.00  0.00     0.217 HD
ENDBRANCH  11  25
TORSDOF 9
