REMARK  1 active torsions:
REMARK  status: ('A' for Active; 'I' for Inactive)
REMARK    1  A    between atoms: C2_3  and  C3_4 
ROOT
HETATM    1  C3  UNL     1       3.598  -0.361  -0.395  1.00  0.00     0.031 C 
HETATM    2  C4  UNL     1       2.309  -0.464  -0.610  1.00  0.00     0.031 C 
HETATM    3  C5  UNL     1       1.454  -1.516  -0.099  1.00  0.00     0.021 C 
HETATM    4  C6  UNL     1       0.537  -2.364   0.261  1.00  0.00     0.109 C 
HETATM    5  C7  UNL     1      -0.821  -2.442  -0.000  1.00  0.00    -0.094 C 
HETATM    6  C8  UNL     1      -1.947  -2.519  -0.235  1.00  0.00    -0.080 C 
HETATM    7  C9  UNL     1      -3.313  -2.628  -0.539  1.00  0.00     0.261 C 
HETATM    8  O1  UNL     1      -4.107  -1.542  -0.618  1.00  0.00    -0.379 OA
HETATM    9  C10 UNL     1      -4.336  -0.793   0.452  1.00  0.00     0.172 C 
HETATM   10  C11 UNL     1      -3.232   0.008   1.030  1.00  0.00     0.053 C 
HETATM   11  C12 UNL     1      -2.654   1.034   0.139  1.00  0.00    -0.024 C 
HETATM   12  C13 UNL     1      -1.795   1.821  -0.480  1.00  0.00     0.013 C 
HETATM   13  C14 UNL     1      -0.354   2.029  -0.437  1.00  0.00     0.027 A 
HETATM   14  C15 UNL     1      -0.249   3.264   0.255  1.00  0.00     0.133 A 
HETATM   15  N1  UNL     1       0.846   4.015   0.623  1.00  0.00    -0.253 NA
HETATM   16  C16 UNL     1       2.037   3.460   0.247  1.00  0.00     0.234 A 
HETATM   17  N2  UNL     1       2.005   2.272  -0.422  1.00  0.00    -0.224 NA
HETATM   18  C17 UNL     1       0.904   1.595  -0.747  1.00  0.00     0.141 A 
HETATM   19  N3  UNL     1       1.637   0.522  -1.383  1.00  0.00    -0.340 N 
HETATM   20  H16 UNL     1       1.805   0.317  -2.373  1.00  0.00     0.167 HD
ENDROOT
BRANCH   1  21
HETATM   21  C2  UNL     1       4.399  -1.284   0.395  1.00  0.00     0.032 C 
HETATM   22  C1  UNL     1       5.677  -1.095   0.550  1.00  0.00     0.188 C 
HETATM   23  F1  UNL     1       6.095   0.026  -0.103  1.00  0.00    -0.219 F 
ENDBRANCH   1  21
TORSDOF 1
