REMARK  6 active torsions:
REMARK  status: ('A' for Active; 'I' for Inactive)
REMARK    1  A    between atoms: C2_2  and  C3_3 
REMARK    2  A    between atoms: C3_3  and  C4_4 
REMARK    3  A    between atoms: C4_4  and  O1_5 
REMARK    4  A    between atoms: O1_5  and  C5_6 
REMARK    5  A    between atoms: C12_15  and  N3_16 
REMARK    6  A    between atoms: N3_16  and  C13_17 
ROOT
HETATM    1  C5  UNL     1       0.504   0.288   0.076  1.00  0.00     0.096 A 
HETATM    2  C6  UNL     1       1.145   1.235   0.844  1.00  0.00     0.054 A 
HETATM    3  C7  UNL     1       1.074   2.588   0.627  1.00  0.00     0.013 A 
HETATM    4  C8  UNL     1       1.760   3.442   1.465  1.00  0.00     0.132 A 
HETATM    5  N1  UNL     1       1.680   4.782   1.237  1.00  0.00    -0.253 NA
HETATM    6  C9  UNL     1       0.937   5.233   0.206  1.00  0.00     0.233 A 
HETATM    7  N2  UNL     1       0.274   4.385  -0.601  1.00  0.00    -0.241 NA
HETATM    8  C10 UNL     1       0.317   3.056  -0.423  1.00  0.00     0.072 A 
HETATM    9  C11 UNL     1      -0.332   2.125  -1.203  1.00  0.00     0.065 A 
HETATM   10  C12 UNL     1      -0.259   0.767  -0.984  1.00  0.00     0.068 A 
ENDROOT
BRANCH  10  11
HETATM   11  N3  UNL     1      -1.004  -0.025  -1.906  1.00  0.00    -0.354 N 
HETATM   12  H10 UNL     1      -0.664   0.124  -2.903  1.00  0.00     0.166 HD
BRANCH  11  13
HETATM   13  C13 UNL     1      -2.074  -0.929  -1.679  1.00  0.00     0.032 A 
HETATM   14  C14 UNL     1      -2.647  -1.619  -2.726  1.00  0.00     0.032 A 
HETATM   15  C15 UNL     1      -3.683  -2.480  -2.433  1.00  0.00     0.044 A 
HETATM   16  C16 UNL     1      -4.183  -2.696  -1.154  1.00  0.00     0.116 A 
HETATM   17  F1  UNL     1      -5.209  -3.562  -0.933  1.00  0.00    -0.206 F 
HETATM   18  C17 UNL     1      -3.589  -1.990  -0.116  1.00  0.00     0.044 A 
HETATM   19  C18 UNL     1      -2.549  -1.126  -0.421  1.00  0.00     0.032 A 
ENDBRANCH  11  13
ENDBRANCH  10  11
BRANCH   1  20
HETATM   20  O1  UNL     1       0.537  -1.068   0.242  1.00  0.00    -0.347 OA
BRANCH  20  21
HETATM   21  C4  UNL     1       1.278  -1.707   1.286  1.00  0.00     0.193 C 
BRANCH  21  22
HETATM   22  C3  UNL     1       2.696  -1.318   1.072  1.00  0.00     0.093 C 
BRANCH  22  23
HETATM   23  C2  UNL     1       3.663  -1.891   1.774  1.00  0.00    -0.174 C 
HETATM   24  C1  UNL     1       4.387  -2.623   2.605  1.00  0.00     0.091 C 
ENDBRANCH  22  23
ENDBRANCH  21  22
ENDBRANCH  20  21
ENDBRANCH   1  20
TORSDOF 6
