REMARK  6 active torsions:
REMARK  status: ('A' for Active; 'I' for Inactive)
REMARK    1  A    between atoms: N1_1  and  C1_2 
REMARK    2  A    between atoms: C4_5  and  O1_6 
REMARK    3  A    between atoms: O1_6  and  C5_7 
REMARK    4  A    between atoms: C7_9  and  N2_10 
REMARK    5  A    between atoms: N2_10  and  C8_11 
REMARK    6  A    between atoms: C15_22  and  N5_23 
ROOT
HETATM    1  C5  UNL     1      -0.579  -0.278  -0.406  1.00  0.00     0.174 A 
HETATM    2  C6  UNL     1       0.700  -0.603  -0.735  1.00  0.00     0.108 A 
HETATM    3  C7  UNL     1       1.618   0.303  -1.223  1.00  0.00     0.133 A 
HETATM    4  N3  UNL     1       1.148   1.572  -1.358  1.00  0.00    -0.224 NA
HETATM    5  C14 UNL     1      -0.115   1.894  -1.033  1.00  0.00     0.238 A 
HETATM    6  N4  UNL     1      -1.002   1.003  -0.558  1.00  0.00    -0.217 NA
ENDROOT
BRANCH   1   7
HETATM    7  O1  UNL     1      -1.435  -1.258   0.080  1.00  0.00    -0.290 OA
BRANCH   7   8
HETATM    8  C4  UNL     1      -2.729  -0.852   0.395  1.00  0.00     0.104 A 
HETATM    9  C3  UNL     1      -3.065  -1.055   1.720  1.00  0.00     0.042 A 
HETATM   10  C2  UNL     1      -4.306  -0.708   2.191  1.00  0.00     0.032 A 
HETATM   11  C1  UNL     1      -5.238  -0.143   1.321  1.00  0.00     0.028 A 
HETATM   12  C16 UNL     1      -4.877   0.048   0.004  1.00  0.00     0.060 A 
HETATM   13  C15 UNL     1      -3.634  -0.295  -0.486  1.00  0.00     0.062 A 
BRANCH  11  14
HETATM   14  N1  UNL     1      -6.562   0.262   1.681  1.00  0.00    -0.399 N 
HETATM   15  H1  UNL     1      -7.144  -0.584   1.536  1.00  0.00     0.156 HD
HETATM   16  H2  UNL     1      -6.790   1.219   2.006  1.00  0.00     0.156 HD
ENDBRANCH  11  14
BRANCH  13  17
HETATM   17  N5  UNL     1      -3.209  -0.121  -1.831  1.00  0.00    -0.397 N 
HETATM   18  H11 UNL     1      -3.358   0.699  -2.484  1.00  0.00     0.156 HD
HETATM   19  H12 UNL     1      -2.674  -0.886  -2.271  1.00  0.00     0.156 HD
ENDBRANCH  13  17
ENDBRANCH   7   8
ENDBRANCH   1   7
BRANCH   3  20
HETATM   20  N2  UNL     1       2.937  -0.120  -1.543  1.00  0.00    -0.341 N 
HETATM   21  H6  UNL     1       2.870  -0.406  -2.545  1.00  0.00     0.167 HD
BRANCH  20  22
HETATM   22  C8  UNL     1       4.104  -0.165  -0.733  1.00  0.00     0.035 A 
HETATM   23  C9  UNL     1       5.271  -0.628  -1.303  1.00  0.00     0.032 A 
HETATM   24  C10 UNL     1       6.401  -0.670  -0.516  1.00  0.00     0.046 A 
HETATM   25  C11 UNL     1       6.337  -0.254   0.807  1.00  0.00     0.138 A 
HETATM   26  F1  UNL     1       7.465  -0.307   1.561  1.00  0.00    -0.204 F 
HETATM   27  C12 UNL     1       5.131   0.206   1.339  1.00  0.00     0.074 A 
HETATM   28 CL1  UNL     1       5.062   0.729   3.010  1.00  0.00    -0.081 Cl
HETATM   29  C13 UNL     1       3.981   0.258   0.564  1.00  0.00     0.056 A 
ENDBRANCH  20  22
ENDBRANCH   3  20
TORSDOF 6
