REMARK  6 active torsions:
REMARK  status: ('A' for Active; 'I' for Inactive)
REMARK    1  A    between atoms: C2_2  and  C3_3 
REMARK    2  A    between atoms: C3_3  and  C4_4 
REMARK    3  A    between atoms: C4_4  and  O1_5 
REMARK    4  A    between atoms: O1_5  and  C5_6 
REMARK    5  A    between atoms: C7_8  and  N1_9 
REMARK    6  A    between atoms: C16_21  and  O2_22 
ROOT
HETATM    1  C5  UNL     1       1.191   0.254  -0.023  1.00  0.00     0.103 A 
HETATM    2  C6  UNL     1       0.388   0.523  -1.018  1.00  0.00     0.073 A 
HETATM    3  C7  UNL     1      -0.622   1.283  -0.402  1.00  0.00     0.182 A 
HETATM    4  N2  UNL     1      -1.334   2.387  -0.979  1.00  0.00    -0.242 NA
HETATM    5  C13 UNL     1      -1.886   3.169  -0.028  1.00  0.00     0.230 C 
HETATM    6  N3  UNL     1      -1.895   3.196   1.415  1.00  0.00    -0.254 NA
HETATM    7  C14 UNL     1      -1.146   2.297   2.025  1.00  0.00     0.132 C 
HETATM    8  C15 UNL     1      -0.427   1.546   1.011  1.00  0.00     0.050 A 
HETATM    9  C16 UNL     1       0.722   0.867   1.238  1.00  0.00     0.111 A 
ENDROOT
BRANCH   3  10
HETATM   10  N1  UNL     1      -1.853   0.270  -0.393  1.00  0.00    -0.350 N 
HETATM   11  C8  UNL     1      -1.527  -0.878   0.345  1.00  0.00     0.113 A 
HETATM   12  C9  UNL     1      -2.402  -1.856   0.487  1.00  0.00     0.049 A 
HETATM   13 CL1  UNL     1      -2.156  -3.337   1.365  1.00  0.00    -0.083 Cl
HETATM   14  C10 UNL     1      -3.715  -1.728  -0.135  1.00  0.00     0.023 A 
HETATM   15  C11 UNL     1      -3.975  -0.637  -0.816  1.00  0.00    -0.005 A 
HETATM   16  C12 UNL     1      -3.109   0.531  -1.062  1.00  0.00     0.153 A 
ENDBRANCH   3  10
BRANCH   1  17
HETATM   17  O1  UNL     1       2.334  -0.510  -0.210  1.00  0.00    -0.347 OA
BRANCH  17  18
HETATM   18  C4  UNL     1       2.560  -1.651   0.603  1.00  0.00     0.193 C 
BRANCH  18  19
HETATM   19  C3  UNL     1       3.835  -2.288   0.210  1.00  0.00     0.093 C 
BRANCH  19  20
HETATM   20  C2  UNL     1       4.829  -1.540  -0.243  1.00  0.00    -0.174 C 
HETATM   21  C1  UNL     1       5.645  -0.581  -0.656  1.00  0.00     0.091 C 
ENDBRANCH  19  20
ENDBRANCH  18  19
ENDBRANCH  17  18
ENDBRANCH   1  17
BRANCH   9  22
HETATM   22  O2  UNL     1       1.459   0.691   2.427  1.00  0.00    -0.357 OA
HETATM   23  H14 UNL     1       2.447   0.965   2.419  1.00  0.00     0.217 HD
ENDBRANCH   9  22
TORSDOF 6
