REMARK  7 active torsions:
REMARK  status: ('A' for Active; 'I' for Inactive)
REMARK    1  A    between atoms: C2_2  and  C3_3 
REMARK    2  A    between atoms: C3_3  and  C4_4 
REMARK    3  A    between atoms: C4_4  and  O1_5 
REMARK    4  A    between atoms: O1_5  and  C5_6 
REMARK    5  A    between atoms: C8_9  and  N1_10 
REMARK    6  A    between atoms: N1_10  and  C9_11 
REMARK    7  A    between atoms: C17_23  and  O2_24 
ROOT
HETATM    1  C5  UNL     1       2.300  -0.604  -0.657  1.00  0.00     0.102 A 
HETATM    2  C6  UNL     1       0.947  -0.421  -0.465  1.00  0.00     0.057 A 
HETATM    3  C7  UNL     1      -0.010  -0.546  -1.425  1.00  0.00     0.045 A 
HETATM    4  C8  UNL     1      -1.360  -0.357  -1.210  1.00  0.00     0.164 A 
HETATM    5  N2  UNL     1      -2.076  -0.541  -2.319  1.00  0.00    -0.111 NA
HETATM    6  N3  UNL     1      -1.628  -0.858  -3.489  1.00  0.00    -0.041 NA
HETATM    7  N4  UNL     1      -0.354  -1.041  -3.712  1.00  0.00    -0.130 NA
HETATM    8  C15 UNL     1       0.479  -0.885  -2.671  1.00  0.00     0.097 A 
HETATM    9  C16 UNL     1       1.816  -1.081  -2.928  1.00  0.00     0.073 A 
HETATM   10  C17 UNL     1       2.750  -0.944  -1.923  1.00  0.00     0.101 A 
ENDROOT
BRANCH   4  11
HETATM   11  N1  UNL     1      -1.817  -0.011   0.082  1.00  0.00    -0.339 N 
HETATM   12  H7  UNL     1      -1.175   0.101   0.862  1.00  0.00     0.167 HD
BRANCH  11  13
HETATM   13  C9  UNL     1      -3.153   0.224   0.494  1.00  0.00     0.035 A 
HETATM   14  C10 UNL     1      -4.225   0.151  -0.365  1.00  0.00     0.029 A 
HETATM   15  C11 UNL     1      -5.525   0.372   0.006  1.00  0.00     0.004 A 
HETATM   16  C12 UNL     1      -5.835   0.689   1.299  1.00  0.00     0.024 A 
HETATM   17  C13 UNL     1      -4.803   0.773   2.191  1.00  0.00     0.036 A 
HETATM   18 CL1  UNL     1      -5.119   1.173   3.861  1.00  0.00    -0.084 Cl
HETATM   19  C14 UNL     1      -3.525   0.544   1.776  1.00  0.00     0.053 A 
ENDBRANCH  11  13
ENDBRANCH   4  11
BRANCH   1  20
HETATM   20  O1  UNL     1       3.241  -0.463   0.368  1.00  0.00    -0.347 OA
BRANCH  20  21
HETATM   21  C4  UNL     1       2.748  -0.121   1.624  1.00  0.00     0.193 C 
BRANCH  21  22
HETATM   22  C3  UNL     1       3.799   0.010   2.655  1.00  0.00     0.093 C 
BRANCH  22  23
HETATM   23  C2  UNL     1       4.882   0.738   2.427  1.00  0.00    -0.174 C 
HETATM   24  C1  UNL     1       5.828   1.513   1.919  1.00  0.00     0.091 C 
ENDBRANCH  22  23
ENDBRANCH  21  22
ENDBRANCH  20  21
ENDBRANCH   1  20
BRANCH  10  25
HETATM   25  O2  UNL     1       4.096  -1.146  -2.198  1.00  0.00    -0.358 OA
HETATM   26  H13 UNL     1       4.549  -0.517  -2.830  1.00  0.00     0.217 HD
ENDBRANCH  10  25
TORSDOF 7
