REMARK  4 active torsions:
REMARK  status: ('A' for Active; 'I' for Inactive)
REMARK    1  A    between atoms: C2_2  and  C3_3 
REMARK    2  A    between atoms: C3_3  and  C4_4 
REMARK    3  A    between atoms: C4_4  and  C5_5 
REMARK    4  A    between atoms: C12_14  and  O1_15 
ROOT
HETATM    1  C5  UNL     1      -2.243  -0.085  -0.680  1.00  0.00    -0.023 A 
HETATM    2  C6  UNL     1      -1.006  -0.661  -0.476  1.00  0.00     0.027 A 
HETATM    3  C7  UNL     1       0.123   0.090  -0.232  1.00  0.00     0.039 A 
HETATM    4  C8  UNL     1       1.345  -0.508  -0.030  1.00  0.00     0.142 A 
HETATM    5  N1  UNL     1       2.392   0.302   0.203  1.00  0.00    -0.211 NA
HETATM    6  C9  UNL     1       2.237   1.637   0.234  1.00  0.00     0.153 A 
HETATM    7  N2  UNL     1       1.027   2.178   0.032  1.00  0.00    -0.228 NA
HETATM    8  C10 UNL     1      -0.082   1.453  -0.209  1.00  0.00     0.076 A 
HETATM    9  C11 UNL     1      -1.265   2.099  -0.400  1.00  0.00     0.069 A 
HETATM   10  C12 UNL     1      -2.373   1.282  -0.643  1.00  0.00     0.074 A 
HETATM   11  C13 UNL     1       3.482   2.335   0.509  1.00  0.00     0.076 A 
HETATM   12  C14 UNL     1       4.648   1.814   0.747  1.00  0.00     0.037 A 
HETATM   13 CL1  UNL     1       5.758   3.151   1.006  1.00  0.00    -0.084 Cl
HETATM   14  C15 UNL     1       4.997   0.405   0.782  1.00  0.00     0.024 A 
HETATM   15  C16 UNL     1       5.004  -0.919   0.745  1.00  0.00     0.003 A 
HETATM   16  C17 UNL     1       3.964  -1.913   0.484  1.00  0.00     0.017 A 
HETATM   17  C18 UNL     1       2.818  -2.461   0.213  1.00  0.00     0.090 A 
HETATM   18  N3  UNL     1       1.530  -1.913  -0.062  1.00  0.00    -0.350 N 
HETATM   19  H14 UNL     1       0.736  -2.496  -0.283  1.00  0.00     0.166 HD
ENDROOT
BRANCH   1  20
HETATM   20  C4  UNL     1      -3.454  -0.930  -0.943  1.00  0.00     0.059 C 
BRANCH  20  21
HETATM   21  C3  UNL     1      -4.299  -1.004   0.258  1.00  0.00     0.071 C 
BRANCH  21  22
HETATM   22  C2  UNL     1      -5.614  -0.886   0.146  1.00  0.00    -0.176 C 
HETATM   23  C1  UNL     1      -6.867  -0.652  -0.211  1.00  0.00     0.091 C 
ENDBRANCH  21  22
ENDBRANCH  20  21
ENDBRANCH   1  20
BRANCH  10  24
HETATM   24  O1  UNL     1      -3.606   1.875  -0.845  1.00  0.00    -0.360 OA
HETATM   25  H8  UNL     1      -3.753   2.857  -0.663  1.00  0.00     0.217 HD
ENDBRANCH  10  24
TORSDOF 4
