REMARK  7 active torsions:
REMARK  status: ('A' for Active; 'I' for Inactive)
REMARK    1  A    between atoms: C2_2  and  C3_3 
REMARK    2  A    between atoms: C3_3  and  C4_4 
REMARK    3  A    between atoms: C4_4  and  O1_5 
REMARK    4  A    between atoms: O1_5  and  C5_6 
REMARK    5  A    between atoms: C8_9  and  N1_10 
REMARK    6  A    between atoms: N1_10  and  C9_11 
REMARK    7  A    between atoms: C18_23  and  O2_24 
ROOT
HETATM    1  C5  UNL     1       1.577  -0.214   0.542  1.00  0.00     0.102 C 
HETATM    2  C6  UNL     1       0.297  -0.205   0.864  1.00  0.00     0.053 C 
HETATM    3  C7  UNL     1      -0.406  -1.418   0.565  1.00  0.00     0.017 C 
HETATM    4  C8  UNL     1      -1.693  -1.579   0.762  1.00  0.00     0.138 C 
HETATM    5  N2  UNL     1      -2.559  -2.639   0.307  1.00  0.00    -0.226 NA
HETATM    6  C15 UNL     1      -1.940  -3.545  -0.419  1.00  0.00     0.205 C 
HETATM    7  N3  UNL     1      -0.548  -3.457  -0.721  1.00  0.00    -0.372 N 
HETATM    8  C16 UNL     1       0.266  -2.651   0.099  1.00  0.00     0.145 C 
HETATM    9  C17 UNL     1       1.678  -2.496  -0.252  1.00  0.00     0.042 C 
HETATM   10  C18 UNL     1       2.288  -1.349  -0.031  1.00  0.00     0.097 C 
HETATM   11  H13 UNL     1      -0.132  -3.974  -1.528  1.00  0.00     0.161 HD
ENDROOT
BRANCH   4  12
HETATM   12  N1  UNL     1      -2.506  -0.524   1.326  1.00  0.00    -0.340 N 
HETATM   13  H7  UNL     1      -2.610  -0.434   2.366  1.00  0.00     0.167 HD
BRANCH  12  14
HETATM   14  C9  UNL     1      -3.139   0.362   0.410  1.00  0.00     0.035 A 
HETATM   15  C10 UNL     1      -2.943   0.163  -0.930  1.00  0.00     0.029 A 
HETATM   16  C11 UNL     1      -3.580   1.051  -1.799  1.00  0.00     0.004 A 
HETATM   17  C12 UNL     1      -4.363   2.071  -1.314  1.00  0.00     0.024 A 
HETATM   18  C13 UNL     1      -4.525   2.224   0.033  1.00  0.00     0.036 A 
HETATM   19 CL1  UNL     1      -5.539   3.546   0.607  1.00  0.00    -0.084 Cl
HETATM   20  C14 UNL     1      -3.915   1.370   0.930  1.00  0.00     0.053 A 
ENDBRANCH  12  14
ENDBRANCH   4  12
BRANCH   1  21
HETATM   21  O1  UNL     1       2.309   0.927   0.782  1.00  0.00    -0.347 OA
BRANCH  21  22
HETATM   22  C4  UNL     1       2.824   1.740  -0.257  1.00  0.00     0.193 C 
BRANCH  22  23
HETATM   23  C3  UNL     1       3.549   2.866   0.359  1.00  0.00     0.093 C 
BRANCH  23  24
HETATM   24  C2  UNL     1       4.850   2.822   0.459  1.00  0.00    -0.174 C 
HETATM   25  C1  UNL     1       6.140   2.562   0.451  1.00  0.00     0.091 C 
ENDBRANCH  23  24
ENDBRANCH  22  23
ENDBRANCH  21  22
ENDBRANCH   1  21
BRANCH  10  26
HETATM   26  O2  UNL     1       3.631  -1.288  -0.373  1.00  0.00    -0.358 OA
HETATM   27  H16 UNL     1       4.216  -2.016   0.059  1.00  0.00     0.217 HD
ENDBRANCH  10  26
TORSDOF 7
