REMARK  3 active torsions:
REMARK  status: ('A' for Active; 'I' for Inactive)
REMARK    1  A    between atoms: C7_8  and  N1_9 
REMARK    2  A    between atoms: N1_9  and  C8_10 
REMARK    3  A    between atoms: C16_20  and  O2_21 
ROOT
HETATM    1  C1  UNL     1      -6.244   0.649   0.273  1.00  0.00     0.015 C 
HETATM    2  C2  UNL     1      -5.076   0.453   0.104  1.00  0.00    -0.082 C 
HETATM    3  C3  UNL     1      -3.650   0.232  -0.121  1.00  0.00     0.234 C 
HETATM    4  O1  UNL     1      -3.115   1.463  -0.552  1.00  0.00    -0.369 OA
HETATM    5  C4  UNL     1      -1.907   1.527  -1.261  1.00  0.00     0.110 C 
HETATM    6  C5  UNL     1      -0.704   1.400  -1.794  1.00  0.00     0.111 C 
HETATM    7  C6  UNL     1       0.419   0.482  -1.549  1.00  0.00     0.009 C 
HETATM    8  C7  UNL     1       1.068  -0.538  -0.954  1.00  0.00     0.036 C 
HETATM    9  C14 UNL     1       0.586  -1.440   0.144  1.00  0.00     0.273 C 
HETATM   10  N2  UNL     1      -0.637  -1.264   0.643  1.00  0.00    -0.456 NA
HETATM   11  C15 UNL     1      -1.725  -0.978   0.965  1.00  0.00     0.183 C 
HETATM   12  C16 UNL     1      -3.059  -0.356   1.108  1.00  0.00     0.213 C 
ENDROOT
BRANCH  12  13
HETATM   13  O2  UNL     1      -3.149   0.466   2.232  1.00  0.00    -0.381 OA
HETATM   14  C17 UNL     1      -4.015  -0.131   3.149  1.00  0.00     0.202 C 
ENDBRANCH  12  13
BRANCH   8  15
HETATM   15  N1  UNL     1       2.389  -0.891  -1.342  1.00  0.00    -0.358 N 
HETATM   16  H6  UNL     1       2.301  -1.739  -1.948  1.00  0.00     0.166 HD
BRANCH  15  17
HETATM   17  C8  UNL     1       3.624  -0.274  -1.020  1.00  0.00     0.034 A 
HETATM   18  C9  UNL     1       4.250  -0.738   0.119  1.00  0.00     0.029 A 
HETATM   19  C10 UNL     1       5.457  -0.224   0.544  1.00  0.00     0.004 A 
HETATM   20  C11 UNL     1       6.063   0.791  -0.194  1.00  0.00     0.024 A 
HETATM   21  C12 UNL     1       5.414   1.243  -1.338  1.00  0.00     0.036 A 
HETATM   22 CL1  UNL     1       6.132   2.521  -2.308  1.00  0.00    -0.084 Cl
HETATM   23  C13 UNL     1       4.217   0.730  -1.757  1.00  0.00     0.053 A 
ENDBRANCH  15  17
ENDBRANCH   8  15
TORSDOF 3
