REMARK  2 active torsions:
REMARK  status: ('A' for Active; 'I' for Inactive)
REMARK    1  A    between atoms: O1_1  and  C1_2 
REMARK    2  A    between atoms: N1_9  and  C6_10 
ROOT
HETATM    1  C6  UNL     1       1.300   1.029  -0.653  1.00  0.00     0.166 A 
HETATM    2  N2  UNL     1       1.268   2.329  -1.070  1.00  0.00    -0.221 NA
HETATM    3  C7  UNL     1       0.071   2.984  -1.119  1.00  0.00     0.236 A 
HETATM    4  N3  UNL     1      -1.120   2.437  -0.778  1.00  0.00    -0.239 NA
HETATM    5  C8  UNL     1      -1.101   1.165  -0.368  1.00  0.00     0.095 A 
HETATM    6  C9  UNL     1       0.088   0.451  -0.300  1.00  0.00     0.104 A 
HETATM    7  N4  UNL     1       0.099  -0.886   0.132  1.00  0.00    -0.384 N 
HETATM    8  C10 UNL     1      -1.105  -1.655   0.370  1.00  0.00     0.129 C 
HETATM    9  C11 UNL     1      -2.255  -0.784   0.828  1.00  0.00     0.039 C 
HETATM   10  C12 UNL     1      -3.579  -1.416   0.476  1.00  0.00     0.015 C 
HETATM   11  C13 UNL     1      -4.493  -0.197   0.359  1.00  0.00     0.028 C 
HETATM   12  C14 UNL     1      -3.568   0.815  -0.249  1.00  0.00    -0.017 C 
HETATM   13  C15 UNL     1      -2.328   0.467   0.026  1.00  0.00    -0.025 C 
HETATM   14  H4  UNL     1       0.988  -1.389   0.302  1.00  0.00     0.159 HD
ENDROOT
BRANCH   1  15
HETATM   15  N1  UNL     1       2.524   0.303  -0.585  1.00  0.00    -0.283 N 
HETATM   16  C1  UNL     1       3.213   0.393   0.674  1.00  0.00     0.173 C 
HETATM   17  C2  UNL     1       4.372  -0.279   0.779  1.00  0.00     0.124 C 
HETATM   18 CL1  UNL     1       5.329  -0.262   2.263  1.00  0.00    -0.076 Cl
HETATM   19  C3  UNL     1       4.862  -1.053  -0.378  1.00  0.00     0.154 C 
HETATM   20  F1  UNL     1       5.898  -1.920  -0.246  1.00  0.00    -0.203 F 
HETATM   21  C4  UNL     1       4.294  -0.905  -1.543  1.00  0.00     0.035 C 
HETATM   22  C5  UNL     1       3.057  -0.462  -1.652  1.00  0.00     0.116 C 
BRANCH  16  23
HETATM   23  O1  UNL     1       2.749   1.124   1.764  1.00  0.00    -0.344 OA
HETATM   24  H1  UNL     1       2.910   2.138   1.685  1.00  0.00     0.219 HD
ENDBRANCH  16  23
ENDBRANCH   1  15
TORSDOF 2
