REMARK  2 active torsions:
REMARK  status: ('A' for Active; 'I' for Inactive)
REMARK    1  A    between atoms: C2_2  and  O1_3 
REMARK    2  A    between atoms: O1_3  and  C3_4 
ROOT
HETATM    1  C3  UNL     1       2.210   0.261   0.189  1.00  0.00     0.067 C 
HETATM    2  C4  UNL     1       1.630   1.434  -0.231  1.00  0.00     0.023 C 
HETATM    3  C5  UNL     1       0.462   2.181   0.112  1.00  0.00     0.133 C 
HETATM    4  N1  UNL     1      -0.681   2.292  -0.829  1.00  0.00    -0.248 NA
HETATM    5  C6  UNL     1      -1.501   3.073   0.251  1.00  0.00     0.252 C 
HETATM    6  N2  UNL     1      -1.852   2.147   1.250  1.00  0.00    -0.268 NA
HETATM    7  C7  UNL     1      -2.172   1.828   2.361  1.00  0.00     0.227 C 
HETATM    8  N3  UNL     1      -2.160   0.532   1.820  1.00  0.00    -0.256 NA
HETATM    9  C8  UNL     1      -1.352  -0.402   1.670  1.00  0.00     0.123 C 
HETATM   10  C9  UNL     1      -0.542  -1.835   1.306  1.00  0.00     0.174 C 
HETATM   11  O2  UNL     1       0.515  -1.217   0.980  1.00  0.00    -0.373 OA
HETATM   12  C10 UNL     1       1.167  -0.106   1.252  1.00  0.00     0.232 C 
HETATM   13  C11 UNL     1      -0.923  -1.996  -0.299  1.00  0.00     0.072 C 
HETATM   14  C12 UNL     1      -0.297  -0.744  -0.827  1.00  0.00     0.005 C 
HETATM   15  C13 UNL     1      -0.817   0.271  -0.372  1.00  0.00     0.010 C 
HETATM   16  S1  UNL     1      -1.806   1.171  -1.072  1.00  0.00    -0.152 SA
HETATM   17  C14 UNL     1      -2.331   0.216  -2.161  1.00  0.00     0.042 C 
HETATM   18  C15 UNL     1      -2.742  -1.225  -1.744  1.00  0.00     0.010 C 
HETATM   19  C16 UNL     1      -2.271  -2.047  -0.704  1.00  0.00    -0.073 C 
HETATM   20  C17 UNL     1      -3.311  -2.974  -0.116  1.00  0.00     0.044 C 
HETATM   21  H18 UNL     1      -3.042   1.425  -0.428  1.00  0.00     0.106 HD
ENDROOT
BRANCH   1  22
HETATM   22  O1  UNL     1       3.353  -0.438  -0.168  1.00  0.00    -0.354 OA
BRANCH  22  23
HETATM   23  C2  UNL     1       4.533   0.116  -0.629  1.00  0.00     0.171 C 
HETATM   24  C1  UNL     1       5.526  -1.029  -0.898  1.00  0.00     0.034 C 
ENDBRANCH  22  23
ENDBRANCH   1  22
TORSDOF 2
