REMARK  4 active torsions:
REMARK  status: ('A' for Active; 'I' for Inactive)
REMARK    1  A    between atoms: C2_2  and  C3_3 
REMARK    2  A    between atoms: C3_3  and  O1_4 
REMARK    3  A    between atoms: O1_4  and  C4_5 
REMARK    4  A    between atoms: C10_15  and  C11_16 
ROOT
HETATM    1  C4  UNL     1       0.609   0.450   0.860  1.00  0.00     0.160 C 
HETATM    2  C5  UNL     1       2.157  -0.216   1.333  1.00  0.00     0.530 C 
HETATM    3  P1  UNL     1       2.055  -1.145   1.556  1.00  0.00     0.066 P 
HETATM    4  N1  UNL     1       1.873  -2.472   1.877  1.00  0.00    -0.164 N 
HETATM    5  C6  UNL     1       2.532   1.773   0.850  1.00  0.00     0.311 C 
HETATM    6  N2  UNL     1       2.280   0.905  -0.342  1.00  0.00     0.034 NA
HETATM    7  C7  UNL     1       2.835   1.293  -1.477  1.00  0.00     0.317 C 
HETATM    8  N3  UNL     1       2.349   0.226  -2.329  1.00  0.00    -0.286 NA
HETATM    9  C8  UNL     1       1.361  -0.520  -1.879  1.00  0.00     0.209 C 
HETATM   10  C9  UNL     1       0.276  -1.199  -1.170  1.00  0.00     0.019 C 
HETATM   11  C10 UNL     1       0.040  -0.687   0.022  1.00  0.00    -0.038 C 
ENDROOT
BRANCH  11  12
HETATM   12  C11 UNL     1      -1.001  -1.604   0.589  1.00  0.00     0.072 A 
HETATM   13  C12 UNL     1      -2.311  -0.815   0.667  1.00  0.00    -0.013 A 
HETATM   14  C13 UNL     1      -3.465  -1.110   0.033  1.00  0.00    -0.003 A 
HETATM   15  C14 UNL     1      -3.542  -2.291  -0.822  1.00  0.00     0.000 A 
HETATM   16  C15 UNL     1      -2.533  -3.136  -1.026  1.00  0.00     0.007 A 
HETATM   17  C16 UNL     1      -1.340  -2.746  -0.281  1.00  0.00    -0.056 A 
HETATM   18  C17 UNL     1      -0.320  -3.634  -0.372  1.00  0.00     0.020 C 
ENDBRANCH  11  12
BRANCH   1  19
HETATM   19  O1  UNL     1       0.449   1.578   0.417  1.00  0.00    -0.377 OA
BRANCH  19  20
HETATM   20  C3  UNL     1      -0.352   2.580   0.933  1.00  0.00     0.195 C 
BRANCH  20  21
HETATM   21  C2  UNL     1      -0.210   3.767   0.004  1.00  0.00    -0.011 C 
HETATM   22  C1  UNL     1      -1.325   4.231  -0.605  1.00  0.00     0.009 C 
ENDBRANCH  20  21
ENDBRANCH  19  20
ENDBRANCH   1  19
TORSDOF 4
