REMARK  6 active torsions:
REMARK  status: ('A' for Active; 'I' for Inactive)
REMARK    1  A    between atoms: C3_3  and  O1_4 
REMARK    2  A    between atoms: O1_4  and  C4_5 
REMARK    3  A    between atoms: C4_5  and  C5_6 
REMARK    4  A    between atoms: C7_8  and  C8_9 
REMARK    5  A    between atoms: C10_11  and  N1_12 
REMARK    6  A    between atoms: N1_12  and  C11_13 
ROOT
HETATM    1  C1  UNL     1       7.823   1.512  -0.936  1.00  0.00     0.014 C 
HETATM    2  C2  UNL     1       6.840   0.816  -0.883  1.00  0.00    -0.091 C 
HETATM    3  C3  UNL     1       5.611  -0.040  -0.799  1.00  0.00     0.260 C 
ENDROOT
BRANCH   3   4
HETATM    4  O1  UNL     1       5.291  -0.104   0.513  1.00  0.00    -0.375 OA
BRANCH   4   5
HETATM    5  C4  UNL     1       4.258  -0.849   0.953  1.00  0.00     0.202 C 
BRANCH   5   6
HETATM    6  C5  UNL     1       2.914  -0.530   0.407  1.00  0.00    -0.058 C 
HETATM    7  C6  UNL     1       2.689  -0.670  -1.051  1.00  0.00     0.046 C 
HETATM    8  C7  UNL     1       1.919  -0.144   1.232  1.00  0.00     0.036 C 
BRANCH   8   9
HETATM    9  C8  UNL     1       0.517   0.253   1.195  1.00  0.00     0.062 A 
HETATM   10  C9  UNL     1      -0.503  -0.354   0.513  1.00  0.00     0.082 A 
HETATM   11  C10 UNL     1      -1.794   0.080   0.489  1.00  0.00     0.131 A 
HETATM   12  N2  UNL     1      -2.010   1.179   1.201  1.00  0.00    -0.224 NA
HETATM   13  C17 UNL     1      -1.088   1.825   1.885  1.00  0.00     0.235 A 
HETATM   14  N3  UNL     1       0.160   1.373   1.886  1.00  0.00    -0.242 NA
BRANCH  11  15
HETATM   15  N1  UNL     1      -2.765  -0.635  -0.256  1.00  0.00    -0.341 N 
HETATM   16  H11 UNL     1      -2.437  -1.497  -0.788  1.00  0.00     0.167 HD
BRANCH  15  17
HETATM   17  C11 UNL     1      -4.133  -0.361  -0.395  1.00  0.00     0.035 A 
HETATM   18  C12 UNL     1      -4.967  -1.162  -1.179  1.00  0.00     0.029 A 
HETATM   19  C13 UNL     1      -6.300  -0.937  -1.342  1.00  0.00     0.004 A 
HETATM   20  C14 UNL     1      -6.917   0.128  -0.721  1.00  0.00     0.024 A 
HETATM   21  C15 UNL     1      -6.147   0.957   0.068  1.00  0.00     0.036 A 
HETATM   22 CL1  UNL     1      -6.921   2.315   0.863  1.00  0.00    -0.084 Cl
HETATM   23  C16 UNL     1      -4.805   0.672   0.189  1.00  0.00     0.053 A 
ENDBRANCH  15  17
ENDBRANCH  11  15
ENDBRANCH   8   9
ENDBRANCH   5   6
ENDBRANCH   4   5
ENDBRANCH   3   4
TORSDOF 6
