REMARK  5 active torsions:
REMARK  status: ('A' for Active; 'I' for Inactive)
REMARK    1  A    between atoms: O1_2  and  C2_3 
REMARK    2  A    between atoms: C5_6  and  N1_7 
REMARK       I    between atoms: N1_7  and  C6_8 
REMARK    3  A    between atoms: C6_8  and  C7_10 
REMARK    4  A    between atoms: C10_13  and  N2_14 
REMARK    5  A    between atoms: N2_14  and  C12_16 
ROOT
HETATM    1  N1  UNL     1       1.228  -0.003  -0.116  1.00  0.00    -0.323 N 
HETATM    2  C6  UNL     1       0.176  -0.819   0.319  1.00  0.00     0.256 C 
HETATM    3  O2  UNL     1       0.479  -1.930   0.828  1.00  0.00    -0.267 OA
HETATM    4  H6  UNL     1       0.872   0.896  -0.524  1.00  0.00     0.169 HD
ENDROOT
BRANCH   2   5
HETATM    5  C7  UNL     1      -1.236  -0.476   0.224  1.00  0.00     0.032 A 
HETATM    6  C8  UNL     1      -1.738   0.694  -0.304  1.00  0.00     0.019 A 
HETATM    7  C9  UNL     1      -3.084   0.980  -0.375  1.00  0.00     0.030 A 
HETATM    8  C10 UNL     1      -4.014   0.077   0.096  1.00  0.00     0.030 A 
HETATM    9  C13 UNL     1      -3.556  -1.106   0.632  1.00  0.00     0.030 A 
HETATM   10  C14 UNL     1      -2.200  -1.350   0.683  1.00  0.00     0.019 A 
BRANCH   8  11
HETATM   11  N2  UNL     1      -5.394   0.404   0.006  1.00  0.00    -0.372 N 
HETATM   12  C11 UNL     1      -5.754   1.679  -0.585  1.00  0.00     0.151 C 
BRANCH  11  13
HETATM   13  C12 UNL     1      -6.409  -0.518   0.497  1.00  0.00     0.237 C 
HETATM   14 CL1  UNL     1      -6.214  -0.823   2.239  1.00  0.00    -0.109 Cl
ENDBRANCH  11  13
ENDBRANCH   8  11
ENDBRANCH   2   5
BRANCH   1  15
HETATM   15  C5  UNL     1       2.618  -0.201  -0.090  1.00  0.00     0.035 A 
HETATM   16  C4  UNL     1       3.293  -1.295   0.395  1.00  0.00     0.032 A 
HETATM   17  C3  UNL     1       4.661  -1.457   0.405  1.00  0.00     0.039 A 
HETATM   18  C2  UNL     1       5.440  -0.443  -0.110  1.00  0.00     0.068 A 
HETATM   19  C16 UNL     1       4.811   0.677  -0.608  1.00  0.00     0.039 A 
HETATM   20  C15 UNL     1       3.453   0.774  -0.589  1.00  0.00     0.032 A 
BRANCH  18  21
HETATM   21  O1  UNL     1       6.821  -0.578  -0.112  1.00  0.00    -0.356 OA
HETATM   22  C1  UNL     1       7.660   0.451  -0.638  1.00  0.00     0.210 C 
ENDBRANCH  18  21
ENDBRANCH   1  15
TORSDOF 5
