REMARK  4 active torsions:
REMARK  status: ('A' for Active; 'I' for Inactive)
REMARK    1  A    between atoms: N1_1  and  C1_2 
REMARK    2  A    between atoms: C3_4  and  N2_5 
REMARK    3  A    between atoms: N2_5  and  C4_6 
REMARK    4  A    between atoms: C14_20  and  O1_21 
ROOT
HETATM    1  C4  UNL     1      -0.250   0.682   1.275  1.00  0.00     0.056 C 
HETATM    2  C5  UNL     1      -0.088   0.033   2.397  1.00  0.00     0.092 C 
HETATM    3  N3  UNL     1       1.028  -0.536   3.131  1.00  0.00    -0.277 NA
HETATM    4  C6  UNL     1       1.590  -1.845   3.387  1.00  0.00     0.060 C 
HETATM    5  C7  UNL     1       2.516  -2.204   2.422  1.00  0.00     0.023 C 
HETATM    6  C8  UNL     1       3.081  -1.578   1.187  1.00  0.00     0.211 A 
HETATM    7  C9  UNL     1       3.992  -1.887   0.177  1.00  0.00     0.201 A 
HETATM    8  F1  UNL     1       3.273  -0.829   0.376  1.00  0.00    -0.364 F 
HETATM    9  C10 UNL     1       4.070  -0.657  -0.726  1.00  0.00     0.051 A 
HETATM   10 CL1  UNL     1       5.096  -2.049  -1.234  1.00  0.00    -0.135 Cl
HETATM   11  C11 UNL     1       3.825   0.658  -1.218  1.00  0.00     0.014 C 
HETATM   12  C12 UNL     1       2.923   1.254  -0.249  1.00  0.00     0.136 C 
HETATM   13  N4  UNL     1       1.577   1.542  -0.579  1.00  0.00    -0.416 NA
HETATM   14  C13 UNL     1       0.569   1.206   0.192  1.00  0.00     0.304 C 
HETATM   15  H7  UNL     1       0.444  -1.295   2.642  1.00  0.00     0.132 HD
ENDROOT
BRANCH   1  16
HETATM   16  N2  UNL     1      -1.529   1.130   0.779  1.00  0.00    -0.374 N 
HETATM   17  H5  UNL     1      -1.842   2.147   0.870  1.00  0.00     0.160 HD
BRANCH  16  18
HETATM   18  C3  UNL     1      -2.316   0.080   0.169  1.00  0.00     0.163 C 
HETATM   19  C2  UNL     1      -3.602   0.677  -0.307  1.00  0.00     0.029 C 
HETATM   20  C1  UNL     1      -3.817   1.079  -1.551  1.00  0.00     0.004 C 
HETATM   21  C16 UNL     1      -2.751   0.944  -2.545  1.00  0.00     0.086 C 
HETATM   22  C15 UNL     1      -1.836  -0.194  -2.252  1.00  0.00     0.013 C 
HETATM   23  C14 UNL     1      -1.655  -0.571  -0.982  1.00  0.00     0.066 C 
BRANCH  20  24
HETATM   24  N1  UNL     1      -5.053   1.641  -1.963  1.00  0.00    -0.402 N 
HETATM   25  H1  UNL     1      -6.045   1.610  -1.681  1.00  0.00     0.156 HD
HETATM   26  H2  UNL     1      -5.084   2.306  -2.796  1.00  0.00     0.156 HD
ENDBRANCH  20  24
BRANCH  23  27
HETATM   27  O1  UNL     1      -0.808  -1.621  -0.729  1.00  0.00    -0.363 OA
HETATM   28  H15 UNL     1      -0.862  -2.527  -1.153  1.00  0.00     0.217 HD
ENDBRANCH  23  27
ENDBRANCH  16  18
ENDBRANCH   1  16
TORSDOF 4
