REMARK  7 active torsions:
REMARK  status: ('A' for Active; 'I' for Inactive)
REMARK    1  A    between atoms: C4_4  and  N1_5 
REMARK       I    between atoms: N1_5  and  C5_6 
REMARK    2  A    between atoms: C5_6  and  C6_8 
REMARK    3  A    between atoms: C9_11  and  N2_12 
REMARK    4  A    between atoms: N2_12  and  C10_13 
REMARK    5  A    between atoms: N2_12  and  C12_16 
REMARK    6  A    between atoms: C10_13  and  C11_14 
REMARK    7  A    between atoms: C12_16  and  C13_17 
ROOT
HETATM    1  C6  UNL     1       0.457  -0.669   0.071  1.00  0.00     0.032 A 
HETATM    2  C7  UNL     1      -0.138   0.569   0.153  1.00  0.00     0.019 A 
HETATM    3  C8  UNL     1      -1.451   0.670  -0.225  1.00  0.00     0.030 A 
HETATM    4  C9  UNL     1      -2.250  -0.361  -0.688  1.00  0.00     0.030 A 
HETATM    5  C14 UNL     1      -1.551  -1.539  -0.726  1.00  0.00     0.030 A 
HETATM    6  C15 UNL     1      -0.243  -1.756  -0.373  1.00  0.00     0.019 A 
ENDROOT
BRANCH   1   7
HETATM    7  C5  UNL     1       1.852  -0.910   0.426  1.00  0.00     0.256 C 
HETATM    8  N1  UNL     1       2.683   0.166   0.831  1.00  0.00    -0.322 N 
HETATM    9  H4  UNL     1       2.360   1.171   0.903  1.00  0.00     0.169 HD
HETATM   10  O1  UNL     1       2.400  -2.034   0.401  1.00  0.00    -0.267 OA
BRANCH   8  11
HETATM   11  C4  UNL     1       4.059   0.130   1.211  1.00  0.00     0.046 C 
HETATM   12  C3  UNL     1       4.931   1.015   1.597  1.00  0.00     0.010 C 
HETATM   13  C2  UNL     1       6.197   0.701   1.473  1.00  0.00    -0.049 C 
HETATM   14  C1  UNL     1       7.266   1.731   1.443  1.00  0.00     0.049 C 
HETATM   15  C17 UNL     1       6.147  -0.775   1.392  1.00  0.00     0.010 C 
HETATM   16  C16 UNL     1       4.869  -1.108   1.236  1.00  0.00     0.031 C 
ENDBRANCH   8  11
ENDBRANCH   1   7
BRANCH   4  17
HETATM   17  N2  UNL     1      -3.586  -0.130  -1.098  1.00  0.00    -0.379 N 
BRANCH  17  18
HETATM   18  C10 UNL     1      -4.751  -0.846  -1.470  1.00  0.00     0.138 C 
BRANCH  18  19
HETATM   19  C11 UNL     1      -4.674  -2.323  -1.179  1.00  0.00     0.134 C 
HETATM   20 CL1  UNL     1      -4.383  -2.527   0.557  1.00  0.00    -0.129 Cl
ENDBRANCH  18  19
ENDBRANCH  17  18
BRANCH  17  21
HETATM   21  C12 UNL     1      -3.907   1.279  -1.261  1.00  0.00     0.138 C 
BRANCH  21  22
HETATM   22  C13 UNL     1      -4.701   1.921  -0.199  1.00  0.00     0.134 C 
HETATM   23 CL2  UNL     1      -6.294   1.356   0.173  1.00  0.00    -0.129 Cl
ENDBRANCH  21  22
ENDBRANCH  17  21
ENDBRANCH   4  17
TORSDOF 7
