REMARK  7 active torsions:
REMARK  status: ('A' for Active; 'I' for Inactive)
REMARK    1  A    between atoms: C2_2  and  N1_3 
REMARK    2  A    between atoms: N1_3  and  C3_4 
REMARK    3  A    between atoms: N1_3  and  C5_7 
REMARK    4  A    between atoms: C3_4  and  C4_5 
REMARK    5  A    between atoms: C8_10  and  C9_11 
REMARK       I    between atoms: C9_11  and  N2_13 
REMARK    6  A    between atoms: N2_13  and  C10_14 
REMARK    7  A    between atoms: C13_17  and  O2_18 
ROOT
HETATM    1  C5  UNL     1      -2.923  -0.135  -0.465  1.00  0.00     0.030 A 
HETATM    2  C6  UNL     1      -2.381   1.043  -0.933  1.00  0.00     0.030 A 
HETATM    3  C7  UNL     1      -1.056   1.396  -0.803  1.00  0.00     0.019 A 
HETATM    4  C8  UNL     1      -0.172   0.551  -0.170  1.00  0.00     0.032 A 
HETATM    5  C17 UNL     1      -0.661  -0.640   0.318  1.00  0.00     0.019 A 
HETATM    6  C18 UNL     1      -2.000  -0.942   0.158  1.00  0.00     0.030 A 
ENDROOT
BRANCH   4   7
HETATM    7  C9  UNL     1       1.210   0.984  -0.070  1.00  0.00     0.256 C 
HETATM    8  O1  UNL     1       1.542   2.099  -0.516  1.00  0.00    -0.267 OA
HETATM    9  N2  UNL     1       2.199   0.161   0.528  1.00  0.00    -0.323 N 
HETATM   10  H12 UNL     1       2.008  -0.765   0.919  1.00  0.00     0.169 HD
BRANCH   9  11
HETATM   11  C10 UNL     1       3.584   0.298   0.766  1.00  0.00     0.035 A 
HETATM   12  C11 UNL     1       4.260   0.809   1.837  1.00  0.00     0.032 A 
HETATM   13  C12 UNL     1       5.628   0.860   1.898  1.00  0.00     0.039 A 
HETATM   14  C13 UNL     1       6.367   0.371   0.824  1.00  0.00     0.068 A 
HETATM   15  C15 UNL     1       5.715  -0.148  -0.267  1.00  0.00     0.039 A 
HETATM   16  C16 UNL     1       4.318  -0.194  -0.316  1.00  0.00     0.032 A 
BRANCH  14  17
HETATM   17  O2  UNL     1       7.752   0.400   0.837  1.00  0.00    -0.356 OA
HETATM   18  C14 UNL     1       8.500  -0.106  -0.273  1.00  0.00     0.210 C 
ENDBRANCH  14  17
ENDBRANCH   9  11
ENDBRANCH   4   7
BRANCH   1  19
HETATM   19  N1  UNL     1      -4.292  -0.521  -0.598  1.00  0.00    -0.380 N 
BRANCH  19  20
HETATM   20  C2  UNL     1      -4.835  -1.754  -0.082  1.00  0.00     0.118 C 
HETATM   21  C1  UNL     1      -5.784  -1.626   1.064  1.00  0.00     0.026 C 
ENDBRANCH  19  20
BRANCH  19  22
HETATM   22  C3  UNL     1      -5.259   0.295  -1.261  1.00  0.00     0.138 C 
BRANCH  22  23
HETATM   23  C4  UNL     1      -6.284   0.974  -0.433  1.00  0.00     0.134 C 
HETATM   24 CL1  UNL     1      -5.538   2.111   0.746  1.00  0.00    -0.129 Cl
ENDBRANCH  22  23
ENDBRANCH  19  22
ENDBRANCH   1  19
TORSDOF 7
