REMARK  3 active torsions:
REMARK  status: ('A' for Active; 'I' for Inactive)
REMARK    1  A    between atoms: O1_2  and  C2_3 
REMARK    2  A    between atoms: C6_7  and  N1_8 
REMARK    3  A    between atoms: N1_8  and  C7_9 
ROOT
HETATM    1  C2  UNL     1       3.912  -1.407  -0.525  1.00  0.00     0.070 A 
HETATM    2  C3  UNL     1       3.558  -0.206   0.118  1.00  0.00     0.038 A 
HETATM    3  C4  UNL     1       2.209   0.131   0.231  1.00  0.00     0.020 A 
HETATM    4  C5  UNL     1       1.229  -0.697  -0.274  1.00  0.00     0.039 A 
HETATM    5  C6  UNL     1      -0.108  -0.347  -0.162  1.00  0.00     0.143 A 
HETATM    6  N2  UNL     1      -1.081  -1.131  -0.653  1.00  0.00    -0.223 NA
HETATM    7  C15 UNL     1      -0.746  -2.277  -1.264  1.00  0.00     0.236 A 
HETATM    8  N3  UNL     1       0.539  -2.616  -1.374  1.00  0.00    -0.241 NA
HETATM    9  C16 UNL     1       1.515  -1.874  -0.906  1.00  0.00     0.074 A 
HETATM   10  C17 UNL     1       2.868  -2.166  -0.995  1.00  0.00     0.069 A 
ENDROOT
BRANCH   5  11
HETATM   11  N1  UNL     1      -0.498   0.850   0.486  1.00  0.00    -0.320 N 
HETATM   12  H6  UNL     1       0.053   1.581   0.975  1.00  0.00     0.169 HD
BRANCH  11  13
HETATM   13  C7  UNL     1      -1.749   1.541   0.755  1.00  0.00     0.155 C 
HETATM   14  C8  UNL     1      -2.026   2.183  -0.384  1.00  0.00     0.027 C 
HETATM   15  C9  UNL     1      -2.960   1.584  -1.051  1.00  0.00     0.018 C 
HETATM   16  C10 UNL     1      -4.335   1.763  -0.754  1.00  0.00     0.080 A 
HETATM   17 CL1  UNL     1      -4.393   2.818  -2.131  1.00  0.00    -0.197 Cl
HETATM   18  C11 UNL     1      -5.642   2.017  -0.665  1.00  0.00     0.119 A 
HETATM   19  C12 UNL     1      -4.946   1.459   0.276  1.00  0.00     0.078 A 
HETATM   20  C13 UNL     1      -4.370   1.024   1.036  1.00  0.00    -0.141 C 
HETATM   21  C14 UNL     1      -3.578   0.463   2.044  1.00  0.00     0.258 C 
HETATM   22  O2  UNL     1      -2.526   1.594   1.835  1.00  0.00    -0.324 OA
ENDBRANCH  11  13
ENDBRANCH   5  11
BRANCH   1  23
HETATM   23  O1  UNL     1       5.244  -1.797  -0.672  1.00  0.00    -0.356 OA
HETATM   24  C1  UNL     1       6.273  -0.972  -0.172  1.00  0.00     0.210 C 
ENDBRANCH   1  23
TORSDOF 3
