REMARK  8 active torsions:
REMARK  status: ('A' for Active; 'I' for Inactive)
REMARK       I    between atoms: C1_2  and  N1_3 
REMARK    1  A    between atoms: C1_2  and  C9_12 
REMARK    2  A    between atoms: N1_3  and  C2_4 
REMARK    3  A    between atoms: C6_8  and  O2_9 
REMARK    4  A    between atoms: C12_15  and  N2_16 
REMARK    5  A    between atoms: N2_16  and  C13_17 
REMARK    6  A    between atoms: N2_16  and  C15_20 
REMARK    7  A    between atoms: C13_17  and  C14_18 
REMARK    8  A    between atoms: C15_20  and  C16_21 
ROOT
HETATM    1  C9  UNL     1      -0.103   0.503   0.492  1.00  0.00     0.032 A 
HETATM    2  C10 UNL     1      -0.943   1.457   1.042  1.00  0.00     0.019 A 
HETATM    3  C11 UNL     1      -2.289   1.350   0.773  1.00  0.00     0.030 A 
HETATM    4  C12 UNL     1      -2.918   0.401   0.015  1.00  0.00     0.030 A 
HETATM    5  C17 UNL     1      -2.040  -0.518  -0.504  1.00  0.00     0.030 A 
HETATM    6  C18 UNL     1      -0.685  -0.477  -0.280  1.00  0.00     0.019 A 
ENDROOT
BRANCH   1   7
HETATM    7  C1  UNL     1       1.319   0.613   0.780  1.00  0.00     0.256 C 
HETATM    8  O1  UNL     1       1.709   1.568   1.473  1.00  0.00    -0.267 OA
HETATM    9  N1  UNL     1       2.315  -0.260   0.352  1.00  0.00    -0.323 N 
HETATM   10  H1  UNL     1       1.894  -1.028  -0.221  1.00  0.00     0.169 HD
BRANCH   9  11
HETATM   11  C2  UNL     1       3.710  -0.328   0.521  1.00  0.00     0.034 C 
HETATM   12  C3  UNL     1       4.458   0.512   1.218  1.00  0.00     0.029 C 
HETATM   13  C4  UNL     1       5.903   0.618   1.515  1.00  0.00     0.001 C 
HETATM   14  C5  UNL     1       6.826   0.102   0.710  1.00  0.00     0.008 C 
HETATM   15  C6  UNL     1       6.768  -0.641  -0.559  1.00  0.00     0.164 C 
HETATM   16  C7  UNL     1       5.626  -1.588  -0.611  1.00  0.00     0.011 C 
HETATM   17  C8  UNL     1       4.365  -1.463  -0.167  1.00  0.00     0.028 C 
BRANCH  15  18
HETATM   18  O2  UNL     1       7.950  -1.337  -0.768  1.00  0.00    -0.388 OA
HETATM   19  H6  UNL     1       8.544  -0.781  -1.339  1.00  0.00     0.210 HD
ENDBRANCH  15  18
ENDBRANCH   9  11
ENDBRANCH   1   7
BRANCH   4  20
HETATM   20  N2  UNL     1      -4.308   0.285  -0.231  1.00  0.00    -0.379 N 
BRANCH  20  21
HETATM   21  C13 UNL     1      -5.475   0.958   0.175  1.00  0.00     0.138 C 
BRANCH  21  22
HETATM   22  C14 UNL     1      -5.338   2.143   1.093  1.00  0.00     0.134 C 
HETATM   23 CL1  UNL     1      -7.047   2.707   1.388  1.00  0.00    -0.129 Cl
ENDBRANCH  21  22
ENDBRANCH  20  21
BRANCH  20  24
HETATM   24  C15 UNL     1      -4.764  -0.762  -1.119  1.00  0.00     0.138 C 
BRANCH  24  25
HETATM   25  C16 UNL     1      -5.523  -1.853  -0.406  1.00  0.00     0.134 C 
HETATM   26 CL2  UNL     1      -4.505  -2.613   0.859  1.00  0.00    -0.129 Cl
ENDBRANCH  24  25
ENDBRANCH  20  24
ENDBRANCH   4  20
TORSDOF 8
