REMARK  4 active torsions:
REMARK  status: ('A' for Active; 'I' for Inactive)
REMARK    1  A    between atoms: C3_3  and  O1_4 
REMARK    2  A    between atoms: O1_4  and  C4_5 
REMARK    3  A    between atoms: C7_8  and  C8_9 
REMARK    4  A    between atoms: C17_21  and  O2_22 
ROOT
HETATM    1  C1  UNL     1      -1.150   3.451   0.888  1.00  0.00     0.014 C 
HETATM    2  C2  UNL     1      -1.726   2.879  -0.013  1.00  0.00    -0.091 C 
HETATM    3  C3  UNL     1      -2.400   2.183  -1.112  1.00  0.00     0.268 C 
ENDROOT
BRANCH   3   4
HETATM    4  O1  UNL     1      -2.775   0.902  -0.720  1.00  0.00    -0.337 OA
BRANCH   4   5
HETATM    5  C4  UNL     1      -1.928  -0.089  -0.295  1.00  0.00     0.104 A 
HETATM    6  C5  UNL     1      -0.557   0.018  -0.184  1.00  0.00     0.055 A 
HETATM    7  C6  UNL     1       0.162  -1.070   0.261  1.00  0.00     0.025 A 
HETATM    8  C7  UNL     1       1.518  -0.846   0.323  1.00  0.00     0.081 A 
HETATM    9  C15 UNL     1      -0.376  -2.289   0.613  1.00  0.00     0.073 A 
HETATM   10  N1  UNL     1       2.286  -1.881   0.744  1.00  0.00    -0.240 NA
HETATM   11  C14 UNL     1       1.795  -3.075   1.091  1.00  0.00     0.234 A 
HETATM   12  N2  UNL     1       0.451  -3.260   1.019  1.00  0.00    -0.241 NA
HETATM   13  C16 UNL     1      -1.745  -2.395   0.501  1.00  0.00     0.072 A 
HETATM   14  C17 UNL     1      -2.504  -1.315   0.056  1.00  0.00     0.103 A 
BRANCH   8  15
HETATM   15  C8  UNL     1       2.303   0.336   0.007  1.00  0.00    -0.005 A 
HETATM   16  C9  UNL     1       3.398   0.141  -0.842  1.00  0.00     0.014 A 
HETATM   17  C10 UNL     1       4.279   1.114  -1.253  1.00  0.00     0.003 A 
HETATM   18  C11 UNL     1       4.068   2.388  -0.791  1.00  0.00     0.024 A 
HETATM   19  C12 UNL     1       3.013   2.637   0.041  1.00  0.00     0.035 A 
HETATM   20 CL1  UNL     1       2.663   4.241   0.684  1.00  0.00    -0.084 Cl
HETATM   21  C13 UNL     1       2.150   1.637   0.433  1.00  0.00     0.037 A 
ENDBRANCH   8  15
BRANCH  14  22
HETATM   22  O2  UNL     1      -3.875  -1.476  -0.037  1.00  0.00    -0.353 OA
HETATM   23  C18 UNL     1      -4.427  -2.728   0.325  1.00  0.00     0.210 C 
ENDBRANCH  14  22
ENDBRANCH   4   5
ENDBRANCH   3   4
TORSDOF 4
