REMARK  9 active torsions:
REMARK  status: ('A' for Active; 'I' for Inactive)
REMARK    1  A    between atoms: C5_5  and  C6_6 
REMARK    2  A    between atoms: C6_6  and  C7_7 
REMARK    3  A    between atoms: C7_7  and  N1_8 
REMARK    4  A    between atoms: C7_7  and  C8_9 
REMARK    5  A    between atoms: C11_12  and  N2_13 
REMARK    6  A    between atoms: N2_13  and  C12_14 
REMARK    7  A    between atoms: N2_13  and  C14_17 
REMARK    8  A    between atoms: C12_14  and  C13_15 
REMARK    9  A    between atoms: C14_17  and  C15_18 
ROOT
HETATM    1  C8  UNL     1       0.110   0.107   0.809  1.00  0.00    -0.025 A 
HETATM    2  C9  UNL     1       0.765  -1.087   0.653  1.00  0.00     0.011 A 
HETATM    3  C10 UNL     1       2.090  -1.084   0.294  1.00  0.00     0.030 A 
HETATM    4  C11 UNL     1       2.856   0.036   0.066  1.00  0.00     0.030 A 
HETATM    5  C16 UNL     1       2.148   1.196   0.236  1.00  0.00     0.030 A 
HETATM    6  C17 UNL     1       0.820   1.273   0.594  1.00  0.00     0.011 A 
ENDROOT
BRANCH   1   7
HETATM    7  C7  UNL     1      -1.322   0.230   1.189  1.00  0.00     0.254 C 
BRANCH   7   8
HETATM    8  C6  UNL     1      -2.181  -0.001  -0.007  1.00  0.00     0.075 C 
BRANCH   8   9
HETATM    9  C5  UNL     1      -3.631   0.125   0.280  1.00  0.00    -0.068 A 
HETATM   10  C4  UNL     1      -4.354  -0.151  -1.016  1.00  0.00     0.063 A 
HETATM   11  C3  UNL     1      -5.829  -0.054  -0.870  1.00  0.00    -0.009 A 
HETATM   12  C2  UNL     1      -6.710   0.209   0.088  1.00  0.00    -0.025 A 
HETATM   13  C1  UNL     1      -8.171   0.200  -0.216  1.00  0.00     0.056 C 
HETATM   14  S1  UNL     1      -5.964   0.556   1.693  1.00  0.00    -0.107 SA
HETATM   15  C18 UNL     1      -4.197   0.423   1.442  1.00  0.00     0.053 A 
ENDBRANCH   8   9
ENDBRANCH   7   8
BRANCH   7  16
HETATM   16  N1  UNL     1      -1.601  -0.726   2.237  1.00  0.00     0.087 N 
HETATM   17  H10 UNL     1      -2.034  -1.610   1.912  1.00  0.00     0.313 HD
HETATM   18  H11 UNL     1      -0.757  -0.943   2.784  1.00  0.00     0.313 HD
ENDBRANCH   7  16
ENDBRANCH   1   7
BRANCH   4  19
HETATM   19  N2  UNL     1       4.247  -0.012  -0.292  1.00  0.00    -0.379 N 
BRANCH  19  20
HETATM   20  C12 UNL     1       4.921  -1.264  -0.375  1.00  0.00     0.138 C 
BRANCH  20  21
HETATM   21  C13 UNL     1       5.291  -1.770  -1.719  1.00  0.00     0.134 C 
HETATM   22 CL1  UNL     1       6.395  -0.810  -2.668  1.00  0.00    -0.129 Cl
ENDBRANCH  20  21
ENDBRANCH  19  20
BRANCH  19  23
HETATM   23  C14 UNL     1       4.958   1.189  -0.581  1.00  0.00     0.138 C 
BRANCH  23  24
HETATM   24  C15 UNL     1       6.007   1.480   0.479  1.00  0.00     0.134 C 
HETATM   25 CL2  UNL     1       6.808   3.012  -0.017  1.00  0.00    -0.129 Cl
ENDBRANCH  23  24
ENDBRANCH  19  23
ENDBRANCH   4  19
TORSDOF 9
