REMARK  9 active torsions:
REMARK  status: ('A' for Active; 'I' for Inactive)
REMARK    1  A    between atoms: C2_2  and  C3_4 
REMARK    2  A    between atoms: C4_5  and  C5_6 
REMARK    3  A    between atoms: C5_6  and  N1_7 
REMARK       I    between atoms: N1_7  and  C6_8 
REMARK    4  A    between atoms: C6_8  and  C7_10 
REMARK    5  A    between atoms: C10_13  and  N2_14 
REMARK    6  A    between atoms: N2_14  and  C11_15 
REMARK    7  A    between atoms: N2_14  and  C13_18 
REMARK    8  A    between atoms: C11_15  and  C12_16 
REMARK    9  A    between atoms: C13_18  and  C14_19 
ROOT
HETATM    1  C7  UNL     1       0.206  -0.301   0.693  1.00  0.00     0.032 A 
HETATM    2  C8  UNL     1      -0.533  -1.445   0.506  1.00  0.00     0.019 A 
HETATM    3  C9  UNL     1      -1.870  -1.278   0.243  1.00  0.00     0.030 A 
HETATM    4  C10 UNL     1      -2.574  -0.104   0.140  1.00  0.00     0.030 A 
HETATM    5  C15 UNL     1      -1.762   0.983   0.339  1.00  0.00     0.030 A 
HETATM    6  C16 UNL     1      -0.436   0.931   0.605  1.00  0.00     0.019 A 
ENDROOT
BRANCH   1   7
HETATM    7  C6  UNL     1       1.628  -0.458   0.977  1.00  0.00     0.251 C 
HETATM    8  N1  UNL     1       2.524   0.595   1.249  1.00  0.00    -0.353 N 
HETATM    9  H9  UNL     1       2.170   1.575   1.256  1.00  0.00     0.163 HD
HETATM   10  O1  UNL     1       2.118  -1.609   0.988  1.00  0.00    -0.268 OA
BRANCH   8  11
HETATM   11  C5  UNL     1       3.911   0.275   1.512  1.00  0.00     0.150 C 
BRANCH  11  12
HETATM   12  C4  UNL     1       4.462  -0.396   0.309  1.00  0.00    -0.009 C 
HETATM   13  C3  UNL     1       5.493   0.030  -0.435  1.00  0.00     0.007 C 
BRANCH  13  14
HETATM   14  C2  UNL     1       6.115  -0.585  -1.664  1.00  0.00     0.188 C 
HETATM   15  C1  UNL     1       6.908   0.492  -2.361  1.00  0.00     0.049 C 
HETATM   16  F1  UNL     1       6.953  -1.631  -1.310  1.00  0.00    -0.246 F 
ENDBRANCH  13  14
ENDBRANCH  11  12
ENDBRANCH   8  11
ENDBRANCH   1   7
BRANCH   4  17
HETATM   17  N2  UNL     1      -3.950   0.086  -0.127  1.00  0.00    -0.379 N 
BRANCH  17  18
HETATM   18  C11 UNL     1      -4.484   1.458  -0.150  1.00  0.00     0.138 C 
BRANCH  18  19
HETATM   19  C12 UNL     1      -5.359   1.783   1.014  1.00  0.00     0.134 C 
HETATM   20 CL1  UNL     1      -5.864   3.497   0.799  1.00  0.00    -0.129 Cl
ENDBRANCH  18  19
ENDBRANCH  17  18
BRANCH  17  21
HETATM   21  C13 UNL     1      -5.099  -0.699  -0.372  1.00  0.00     0.138 C 
BRANCH  21  22
HETATM   22  C14 UNL     1      -4.965  -2.160  -0.655  1.00  0.00     0.134 C 
HETATM   23 CL2  UNL     1      -4.052  -2.552  -2.107  1.00  0.00    -0.129 Cl
ENDBRANCH  21  22
ENDBRANCH  17  21
ENDBRANCH   4  17
TORSDOF 9
