REMARK  8 active torsions:
REMARK  status: ('A' for Active; 'I' for Inactive)
REMARK    1  A    between atoms: O1_2  and  C2_3 
REMARK    2  A    between atoms: C5_6  and  N1_7 
REMARK       I    between atoms: N1_7  and  C6_8 
REMARK    3  A    between atoms: C6_8  and  C7_10 
REMARK    4  A    between atoms: C10_13  and  N2_14 
REMARK    5  A    between atoms: N2_14  and  C11_15 
REMARK    6  A    between atoms: N2_14  and  C13_18 
REMARK    7  A    between atoms: C11_15  and  C12_16 
REMARK    8  A    between atoms: C13_18  and  C14_19 
ROOT
HETATM    1  C7  UNL     1      -0.326  -0.607   0.899  1.00  0.00     0.032 A 
HETATM    2  C8  UNL     1      -1.356  -1.186   1.605  1.00  0.00     0.019 A 
HETATM    3  C9  UNL     1      -2.655  -0.886   1.262  1.00  0.00     0.030 A 
HETATM    4  C10 UNL     1      -3.035  -0.034   0.248  1.00  0.00     0.030 A 
HETATM    5  C15 UNL     1      -1.975   0.516  -0.423  1.00  0.00     0.030 A 
HETATM    6  C16 UNL     1      -0.655   0.252  -0.123  1.00  0.00     0.019 A 
ENDROOT
BRANCH   1   7
HETATM    7  C6  UNL     1       1.038  -0.943   1.283  1.00  0.00     0.252 C 
HETATM    8  N1  UNL     1       2.203  -0.432   0.650  1.00  0.00    -0.349 N 
HETATM    9  H8  UNL     1       2.096   0.232  -0.147  1.00  0.00     0.163 HD
HETATM   10  O2  UNL     1       1.245  -1.736   2.234  1.00  0.00    -0.268 OA
BRANCH   8  11
HETATM   11  C5  UNL     1       3.551  -0.782   1.049  1.00  0.00     0.111 A 
HETATM   12  C4  UNL     1       4.273   0.441   1.486  1.00  0.00     0.059 A 
HETATM   13  C3  UNL     1       5.489   0.725   0.678  1.00  0.00     0.012 A 
HETATM   14  C2  UNL     1       5.996   0.046  -0.351  1.00  0.00     0.064 A 
HETATM   15  C18 UNL     1       5.260  -1.148  -0.750  1.00  0.00     0.034 A 
HETATM   16  C17 UNL     1       4.165  -1.479  -0.088  1.00  0.00     0.001 A 
BRANCH  14  17
HETATM   17  O1  UNL     1       7.145   0.540  -0.919  1.00  0.00    -0.356 OA
HETATM   18  C1  UNL     1       7.524   0.091  -2.222  1.00  0.00     0.210 C 
ENDBRANCH  14  17
ENDBRANCH   8  11
ENDBRANCH   1   7
BRANCH   4  19
HETATM   19  N2  UNL     1      -4.383   0.262  -0.095  1.00  0.00    -0.379 N 
BRANCH  19  20
HETATM   20  C11 UNL     1      -4.782   1.152  -1.141  1.00  0.00     0.138 C 
BRANCH  20  21
HETATM   21  C12 UNL     1      -5.446   0.455  -2.318  1.00  0.00     0.134 C 
HETATM   22 CL1  UNL     1      -4.376  -0.738  -3.071  1.00  0.00    -0.129 Cl
ENDBRANCH  20  21
ENDBRANCH  19  20
BRANCH  19  23
HETATM   23  C13 UNL     1      -5.524  -0.290   0.553  1.00  0.00     0.138 C 
BRANCH  23  24
HETATM   24  C14 UNL     1      -6.346   0.652   1.365  1.00  0.00     0.134 C 
HETATM   25 CL2  UNL     1      -5.447   1.414   2.680  1.00  0.00    -0.129 Cl
ENDBRANCH  23  24
ENDBRANCH  19  23
ENDBRANCH   4  19
TORSDOF 8
