REMARK  7 active torsions:
REMARK  status: ('A' for Active; 'I' for Inactive)
REMARK    1  A    between atoms: O1_2  and  C2_3 
REMARK    2  A    between atoms: C4_5  and  N1_6 
REMARK    3  A    between atoms: C6_8  and  C7_9 
REMARK    4  A    between atoms: C7_9  and  N2_10 
REMARK    5  A    between atoms: N2_10  and  C8_11 
REMARK    6  A    between atoms: C11_16  and  N5_17 
REMARK    7  A    between atoms: N5_17  and  C12_18 
ROOT
HETATM    1  C8  UNL     1       0.221  -0.236  -0.899  1.00  0.00     0.092 A 
HETATM    2  C9  UNL     1      -0.659   0.283  -1.800  1.00  0.00     0.151 A 
HETATM    3  N3  UNL     1      -0.208   1.076  -2.799  1.00  0.00    -0.252 NA
HETATM    4  C10 UNL     1       1.117   1.352  -2.899  1.00  0.00     0.235 A 
HETATM    5  N4  UNL     1       1.986   0.847  -2.020  1.00  0.00    -0.222 NA
HETATM    6  C11 UNL     1       1.586   0.057  -1.015  1.00  0.00     0.157 A 
ENDROOT
BRANCH   1   7
HETATM    7  N2  UNL     1      -0.306  -1.080   0.133  1.00  0.00    -0.382 N 
HETATM    8  H11 UNL     1       0.190  -1.570   0.886  1.00  0.00     0.160 HD
BRANCH   7   9
HETATM    9  C7  UNL     1      -1.733  -1.346   0.219  1.00  0.00     0.157 C 
BRANCH   9  10
HETATM   10  C6  UNL     1      -2.532  -0.139   0.541  1.00  0.00    -0.028 A 
HETATM   11  C2  UNL     1      -4.014  -0.372   0.623  1.00  0.00     0.176 A 
HETATM   12  C3  UNL     1      -4.513   0.981   0.946  1.00  0.00     0.038 A 
HETATM   13  C4  UNL     1      -3.538   1.867   1.043  1.00  0.00     0.025 A 
HETATM   14  C5  UNL     1      -2.301   1.143   0.785  1.00  0.00     0.036 A 
BRANCH  11  15
HETATM   15  O1  UNL     1      -4.534  -0.883  -0.552  1.00  0.00    -0.382 OA
HETATM   16  C1  UNL     1      -5.225  -2.057  -0.200  1.00  0.00     0.202 C 
ENDBRANCH  11  15
BRANCH  13  17
HETATM   17  N1  UNL     1      -3.504   3.268   1.330  1.00  0.00    -0.399 N 
HETATM   18  H6  UNL     1      -3.819   3.751   2.210  1.00  0.00     0.156 HD
HETATM   19  H7  UNL     1      -3.115   3.890   0.564  1.00  0.00     0.156 HD
ENDBRANCH  13  17
ENDBRANCH   9  10
ENDBRANCH   7   9
ENDBRANCH   1   7
BRANCH   6  20
HETATM   20  N5  UNL     1       2.496  -0.465  -0.104  1.00  0.00    -0.339 N 
HETATM   21  H14 UNL     1       2.101  -1.081   0.665  1.00  0.00     0.167 HD
BRANCH  20  22
HETATM   22  C12 UNL     1       3.901  -0.314  -0.018  1.00  0.00     0.035 A 
HETATM   23  C13 UNL     1       4.686   0.422  -0.872  1.00  0.00     0.032 A 
HETATM   24  C14 UNL     1       6.042   0.559  -0.776  1.00  0.00     0.046 A 
HETATM   25  C15 UNL     1       6.699  -0.071   0.234  1.00  0.00     0.138 A 
HETATM   26  F1  UNL     1       8.033   0.022   0.386  1.00  0.00    -0.204 F 
HETATM   27  C16 UNL     1       5.987  -0.828   1.133  1.00  0.00     0.074 A 
HETATM   28 CL1  UNL     1       6.825  -1.634   2.425  1.00  0.00    -0.081 Cl
HETATM   29  C17 UNL     1       4.645  -0.922   0.981  1.00  0.00     0.056 A 
ENDBRANCH  20  22
ENDBRANCH   6  20
TORSDOF 7
