REMARK  7 active torsions:
REMARK  status: ('A' for Active; 'I' for Inactive)
REMARK    1  A    between atoms: C5_5  and  N1_6 
REMARK       I    between atoms: N1_6  and  C6_7 
REMARK    2  A    between atoms: C6_7  and  C7_9 
REMARK    3  A    between atoms: C10_12  and  N2_13 
REMARK    4  A    between atoms: N2_13  and  C11_14 
REMARK    5  A    between atoms: N2_13  and  C13_17 
REMARK    6  A    between atoms: C11_14  and  C12_15 
REMARK    7  A    between atoms: C13_17  and  C14_18 
ROOT
HETATM    1  C7  UNL     1       0.062  -0.089   0.117  1.00  0.00     0.032 A 
HETATM    2  C8  UNL     1      -0.583  -1.290  -0.058  1.00  0.00     0.019 A 
HETATM    3  C9  UNL     1      -1.961  -1.336  -0.042  1.00  0.00     0.030 A 
HETATM    4  C10 UNL     1      -2.781  -0.230   0.142  1.00  0.00     0.030 A 
HETATM    5  C15 UNL     1      -2.057   0.915   0.308  1.00  0.00     0.030 A 
HETATM    6  C16 UNL     1      -0.693   1.022   0.301  1.00  0.00     0.019 A 
ENDROOT
BRANCH   1   7
HETATM    7  C6  UNL     1       1.516  -0.045   0.083  1.00  0.00     0.256 C 
HETATM    8  N1  UNL     1       2.281   1.115   0.419  1.00  0.00    -0.323 N 
HETATM    9  H6  UNL     1       1.807   1.992   0.712  1.00  0.00     0.169 HD
HETATM   10  O1  UNL     1       2.242  -1.019  -0.241  1.00  0.00    -0.267 OA
BRANCH   8  11
HETATM   11  C5  UNL     1       3.686   0.816   0.277  1.00  0.00     0.035 A 
HETATM   12  C4  UNL     1       4.141   1.123  -1.008  1.00  0.00     0.030 A 
HETATM   13  C3  UNL     1       5.472   0.877  -1.248  1.00  0.00     0.009 A 
HETATM   14  C2  UNL     1       6.290   0.359  -0.270  1.00  0.00    -0.062 A 
HETATM   15  C1  UNL     1       7.711   0.108  -0.553  1.00  0.00     0.048 C 
HETATM   16  C18 UNL     1       5.800   0.063   1.004  1.00  0.00     0.009 A 
HETATM   17  C17 UNL     1       4.470   0.296   1.284  1.00  0.00     0.030 A 
ENDBRANCH   8  11
ENDBRANCH   1   7
BRANCH   4  18
HETATM   18  N2  UNL     1      -4.213  -0.372   0.202  1.00  0.00    -0.379 N 
BRANCH  18  19
HETATM   19  C11 UNL     1      -4.560  -1.760   0.323  1.00  0.00     0.138 C 
BRANCH  19  20
HETATM   20  C12 UNL     1      -5.047  -2.492  -0.857  1.00  0.00     0.134 C 
HETATM   21 CL1  UNL     1      -6.551  -1.897  -1.535  1.00  0.00    -0.129 Cl
ENDBRANCH  19  20
ENDBRANCH  18  19
BRANCH  18  22
HETATM   22  C13 UNL     1      -5.304   0.507   0.115  1.00  0.00     0.138 C 
BRANCH  22  23
HETATM   23  C14 UNL     1      -5.093   1.958  -0.152  1.00  0.00     0.134 C 
HETATM   24 CL2  UNL     1      -4.301   2.288  -1.708  1.00  0.00    -0.129 Cl
ENDBRANCH  22  23
ENDBRANCH  18  22
ENDBRANCH   4  18
TORSDOF 7
