REMARK  4 active torsions:
REMARK  status: ('A' for Active; 'I' for Inactive)
REMARK    1  A    between atoms: C5_6  and  N1_7 
REMARK    2  A    between atoms: N1_7  and  C6_8 
REMARK    3  A    between atoms: N2_9  and  C7_10 
REMARK    4  A    between atoms: C7_10  and  C8_11 
ROOT
HETATM    1  C7  UNL     1       1.146  -1.841  -0.760  1.00  0.00     0.185 C 
ENDROOT
BRANCH   1   2
HETATM    2  N2  UNL     1      -0.286  -1.683  -0.701  1.00  0.00    -0.282 NA
HETATM    3  C6  UNL     1      -0.913  -1.272   0.337  1.00  0.00     0.201 C 
BRANCH   3   4
HETATM    4  N1  UNL     1      -2.323  -1.175   0.218  1.00  0.00    -0.351 N 
HETATM    5  H4  UNL     1      -2.914  -1.441   1.038  1.00  0.00     0.166 HD
BRANCH   4   6
HETATM    6  C5  UNL     1      -2.996  -0.730  -0.946  1.00  0.00     0.034 A 
HETATM    7  C4  UNL     1      -2.398  -0.286  -2.109  1.00  0.00     0.029 A 
HETATM    8  C3  UNL     1      -3.047   0.134  -3.237  1.00  0.00     0.004 A 
HETATM    9  C2  UNL     1      -4.434   0.128  -3.248  1.00  0.00     0.024 A 
HETATM   10  C1  UNL     1      -5.098  -0.310  -2.101  1.00  0.00     0.036 A 
HETATM   11 CL1  UNL     1      -6.820  -0.269  -2.243  1.00  0.00    -0.084 Cl
HETATM   12  C17 UNL     1      -4.361  -0.715  -1.013  1.00  0.00     0.053 A 
ENDBRANCH   4   6
ENDBRANCH   3   4
ENDBRANCH   1   2
BRANCH   1  13
HETATM   13  C8  UNL     1       1.755  -0.936   0.289  1.00  0.00     0.071 A 
HETATM   14  C9  UNL     1       1.420   0.466   0.100  1.00  0.00     0.062 A 
HETATM   15  C10 UNL     1       1.403   1.826   0.295  1.00  0.00     0.002 A 
HETATM   16  C11 UNL     1       2.071   2.793   1.268  1.00  0.00    -0.026 A 
HETATM   17  C12 UNL     1       2.890   2.513   2.230  1.00  0.00    -0.004 A 
HETATM   18  C13 UNL     1       3.677   1.616   3.054  1.00  0.00    -0.001 A 
HETATM   19  C14 UNL     1       3.231   0.636   2.352  1.00  0.00     0.010 A 
HETATM   20  C15 UNL     1       2.776  -0.489   1.617  1.00  0.00     0.090 A 
HETATM   21  C16 UNL     1       1.911  -1.466   1.640  1.00  0.00     0.017 A 
HETATM   22  N3  UNL     1       3.216  -1.040   0.360  1.00  0.00    -0.390 N 
HETATM   23  H15 UNL     1       4.241  -1.163   0.285  1.00  0.00     0.155 HD
ENDBRANCH   1  13
TORSDOF 4
