REMARK  6 active torsions:
REMARK  status: ('A' for Active; 'I' for Inactive)
REMARK    1  A    between atoms: C2_2  and  N1_3 
REMARK    2  A    between atoms: N1_3  and  C3_4 
REMARK    3  A    between atoms: N1_3  and  C5_7 
REMARK    4  A    between atoms: C3_4  and  C4_5 
REMARK    5  A    between atoms: C8_10  and  C9_11 
REMARK       I    between atoms: C9_11  and  N2_13 
REMARK    6  A    between atoms: N2_13  and  C10_14 
ROOT
HETATM    1  C5  UNL     1      -2.048  -0.037   0.030  1.00  0.00     0.030 A 
HETATM    2  C6  UNL     1      -1.222  -0.123   1.119  1.00  0.00     0.030 A 
HETATM    3  C7  UNL     1       0.149  -0.096   1.017  1.00  0.00     0.019 A 
HETATM    4  C8  UNL     1       0.785   0.021  -0.201  1.00  0.00     0.032 A 
HETATM    5  C16 UNL     1      -0.043   0.110  -1.320  1.00  0.00     0.019 A 
HETATM    6  C17 UNL     1      -1.432   0.080  -1.192  1.00  0.00     0.030 A 
ENDROOT
BRANCH   4   7
HETATM    7  C9  UNL     1       2.221   0.057  -0.423  1.00  0.00     0.256 C 
HETATM    8  O1  UNL     1       2.737   0.176  -1.565  1.00  0.00    -0.267 OA
HETATM    9  N2  UNL     1       3.153  -0.039   0.645  1.00  0.00    -0.321 N 
HETATM   10  H12 UNL     1       2.845  -0.140   1.630  1.00  0.00     0.169 HD
BRANCH   9  11
HETATM   11  C10 UNL     1       4.527   0.016   0.222  1.00  0.00     0.056 A 
HETATM   12  C11 UNL     1       5.089   1.293   0.164  1.00  0.00     0.031 A 
HETATM   13  C12 UNL     1       6.394   1.514  -0.221  1.00  0.00     0.002 A 
HETATM   14  C13 UNL     1       7.163   0.407  -0.561  1.00  0.00     0.002 A 
HETATM   15  C14 UNL     1       6.617  -0.862  -0.508  1.00  0.00     0.026 A 
HETATM   16  C15 UNL     1       5.314  -1.068  -0.122  1.00  0.00     0.060 A 
HETATM   17 CL2  UNL     1       4.555  -2.648  -0.031  1.00  0.00    -0.082 Cl
ENDBRANCH   9  11
ENDBRANCH   4   7
BRANCH   1  18
HETATM   18  N1  UNL     1      -3.461  -0.071   0.155  1.00  0.00    -0.380 N 
BRANCH  18  19
HETATM   19  C2  UNL     1      -4.209  -0.194   1.367  1.00  0.00     0.118 C 
HETATM   20  C1  UNL     1      -4.984   1.023   1.738  1.00  0.00     0.026 C 
ENDBRANCH  18  19
BRANCH  18  21
HETATM   21  C3  UNL     1      -4.418   0.011  -0.901  1.00  0.00     0.138 C 
BRANCH  21  22
HETATM   22  C4  UNL     1      -5.197  -1.271  -1.138  1.00  0.00     0.134 C 
HETATM   23 CL1  UNL     1      -4.112  -2.610  -1.558  1.00  0.00    -0.129 Cl
ENDBRANCH  21  22
ENDBRANCH  18  21
ENDBRANCH   1  18
TORSDOF 6
