REMARK  7 active torsions:
REMARK  status: ('A' for Active; 'I' for Inactive)
REMARK       I    between atoms: C1_2  and  N1_3 
REMARK    1  A    between atoms: C1_2  and  C8_11 
REMARK    2  A    between atoms: N1_3  and  C2_4 
REMARK    3  A    between atoms: C11_14  and  N2_15 
REMARK    4  A    between atoms: N2_15  and  C12_16 
REMARK    5  A    between atoms: N2_15  and  C14_19 
REMARK    6  A    between atoms: C12_16  and  C13_17 
REMARK    7  A    between atoms: C14_19  and  C15_20 
ROOT
HETATM    1  C8  UNL     1       0.605  -0.572  -0.101  1.00  0.00     0.032 A 
HETATM    2  C9  UNL     1       0.092   0.644   0.367  1.00  0.00     0.019 A 
HETATM    3  C10 UNL     1      -1.235   0.836   0.565  1.00  0.00     0.030 A 
HETATM    4  C11 UNL     1      -2.172  -0.137   0.325  1.00  0.00     0.030 A 
HETATM    5  C16 UNL     1      -1.633  -1.313  -0.132  1.00  0.00     0.030 A 
HETATM    6  C17 UNL     1      -0.302  -1.580  -0.356  1.00  0.00     0.019 A 
ENDROOT
BRANCH   1   7
HETATM    7  C1  UNL     1       2.003  -0.898  -0.349  1.00  0.00     0.256 C 
HETATM    8  O1  UNL     1       2.402  -2.036  -0.776  1.00  0.00    -0.267 OA
HETATM    9  N1  UNL     1       2.992   0.087  -0.109  1.00  0.00    -0.320 N 
HETATM   10  H1  UNL     1       2.852   1.050   0.233  1.00  0.00     0.169 HD
BRANCH   9  11
HETATM   11  C2  UNL     1       4.405   0.079  -0.247  1.00  0.00     0.073 A 
HETATM   12  C3  UNL     1       5.203   0.406  -1.322  1.00  0.00     0.033 A 
HETATM   13  C4  UNL     1       6.557   0.327  -1.235  1.00  0.00     0.002 A 
HETATM   14  C5  UNL     1       7.196  -0.077  -0.088  1.00  0.00     0.003 A 
HETATM   15  C6  UNL     1       6.426  -0.416   1.025  1.00  0.00     0.044 A 
HETATM   16  C7  UNL     1       5.049  -0.327   0.908  1.00  0.00     0.143 A 
HETATM   17  F1  UNL     1       4.417  -0.682   2.055  1.00  0.00    -0.204 F 
ENDBRANCH   9  11
ENDBRANCH   1   7
BRANCH   4  18
HETATM   18  N2  UNL     1      -3.532   0.158   0.580  1.00  0.00    -0.379 N 
BRANCH  18  19
HETATM   19  C12 UNL     1      -3.879   1.452   1.151  1.00  0.00     0.138 C 
BRANCH  19  20
HETATM   20  C13 UNL     1      -4.590   2.367   0.206  1.00  0.00     0.134 C 
HETATM   21 CL1  UNL     1      -3.597   2.701  -1.231  1.00  0.00    -0.129 Cl
ENDBRANCH  19  20
ENDBRANCH  18  19
BRANCH  18  22
HETATM   22  C14 UNL     1      -4.785  -0.502   0.399  1.00  0.00     0.138 C 
BRANCH  22  23
HETATM   23  C15 UNL     1      -4.770  -1.889  -0.177  1.00  0.00     0.134 C 
HETATM   24 CL2  UNL     1      -6.528  -2.366  -0.244  1.00  0.00    -0.129 Cl
ENDBRANCH  22  23
ENDBRANCH  18  22
ENDBRANCH   4  18
TORSDOF 7
