REMARK  5 active torsions:
REMARK  status: ('A' for Active; 'I' for Inactive)
REMARK       I    between atoms: C1_2  and  N1_3 
REMARK    1  A    between atoms: C1_2  and  C8_11 
REMARK    2  A    between atoms: N1_3  and  C2_4 
REMARK    3  A    between atoms: C11_14  and  N2_15 
REMARK    4  A    between atoms: N2_15  and  C12_16 
REMARK    5  A    between atoms: N2_15  and  C13_18 
ROOT
HETATM    1  O1  UNL     1       1.271  -0.601  -1.301  1.00  0.00    -0.268 OA
HETATM    2  C1  UNL     1       0.900  -0.090  -0.191  1.00  0.00     0.252 C 
HETATM    3  N1  UNL     1       1.945   0.342   0.670  1.00  0.00    -0.322 N 
HETATM    4  H1  UNL     1       1.690   0.766   1.588  1.00  0.00     0.169 HD
ENDROOT
BRANCH   2   5
HETATM    5  C8  UNL     1      -0.498   0.072   0.235  1.00  0.00     0.015 A 
HETATM    6  C9  UNL     1      -0.953   0.590   1.367  1.00  0.00     0.015 A 
HETATM    7  C10 UNL     1      -2.417   0.520   1.302  1.00  0.00     0.026 A 
HETATM    8  C11 UNL     1      -2.804  -0.028   0.155  1.00  0.00     0.013 A 
HETATM    9  C14 UNL     1      -1.618  -0.379  -0.660  1.00  0.00     0.101 A 
BRANCH   8  10
HETATM   10  N2  UNL     1      -4.195  -0.218  -0.169  1.00  0.00    -0.358 N 
BRANCH  10  11
HETATM   11  C12 UNL     1      -5.108  -1.222   0.354  1.00  0.00     0.239 C 
HETATM   12 CL2  UNL     1      -6.716  -1.010  -0.385  1.00  0.00    -0.109 Cl
ENDBRANCH  10  11
BRANCH  10  13
HETATM   13  C13 UNL     1      -4.653   0.757  -1.147  1.00  0.00     0.239 C 
HETATM   14 CL3  UNL     1      -4.426   2.371  -0.439  1.00  0.00    -0.109 Cl
ENDBRANCH  10  13
ENDBRANCH   8  10
ENDBRANCH   2   5
BRANCH   3  15
HETATM   15  C2  UNL     1       3.343   0.259   0.413  1.00  0.00     0.056 A 
HETATM   16  C3  UNL     1       4.119   1.215  -0.206  1.00  0.00     0.031 A 
HETATM   17  C4  UNL     1       5.471   1.032  -0.405  1.00  0.00     0.002 A 
HETATM   18  C5  UNL     1       6.069  -0.154   0.031  1.00  0.00     0.002 A 
HETATM   19  C6  UNL     1       5.292  -1.130   0.659  1.00  0.00     0.026 A 
HETATM   20  C7  UNL     1       3.934  -0.923   0.849  1.00  0.00     0.060 A 
HETATM   21 CL1  UNL     1       3.016  -2.193   1.646  1.00  0.00    -0.082 Cl
ENDBRANCH   3  15
TORSDOF 5
