REMARK  7 active torsions:
REMARK  status: ('A' for Active; 'I' for Inactive)
REMARK    1  A    between atoms: C2_2  and  N1_3 
REMARK    2  A    between atoms: N1_3  and  C3_4 
REMARK    3  A    between atoms: N1_3  and  C5_7 
REMARK    4  A    between atoms: C3_4  and  C4_5 
REMARK    5  A    between atoms: C5_7  and  C6_8 
REMARK    6  A    between atoms: C8_10  and  C9_11 
REMARK       I    between atoms: C9_11  and  N2_13 
REMARK    7  A    between atoms: N2_13  and  C10_14 
ROOT
HETATM    1  C6  UNL     1      -1.492  -0.754   1.279  1.00  0.00    -0.034 A 
HETATM    2  C7  UNL     1      -0.396  -0.251   0.768  1.00  0.00     0.024 A 
HETATM    3  C8  UNL     1       0.956  -0.746   0.914  1.00  0.00     0.047 A 
HETATM    4  C16 UNL     1       1.201  -1.822   1.630  1.00  0.00     0.100 A 
HETATM    5  N3  UNL     1       0.016  -2.361   2.183  1.00  0.00    -0.394 N 
HETATM    6  C17 UNL     1      -1.369  -1.994   2.127  1.00  0.00     0.155 A 
HETATM    7  H19 UNL     1       0.058  -3.233   2.791  1.00  0.00     0.159 HD
ENDROOT
BRANCH   3   8
HETATM    8  C9  UNL     1       2.012  -0.026   0.235  1.00  0.00     0.257 C 
HETATM    9  O1  UNL     1       1.703   0.982  -0.440  1.00  0.00    -0.267 OA
HETATM   10  N2  UNL     1       3.379  -0.345   0.252  1.00  0.00    -0.320 N 
HETATM   11  H13 UNL     1       3.494  -1.192   0.847  1.00  0.00     0.169 HD
BRANCH  10  12
HETATM   12  C10 UNL     1       4.513   0.225  -0.338  1.00  0.00     0.073 A 
HETATM   13  C11 UNL     1       5.728  -0.399  -0.063  1.00  0.00     0.033 A 
HETATM   14  C12 UNL     1       6.917   0.019  -0.554  1.00  0.00     0.002 A 
HETATM   15  C13 UNL     1       6.974   1.113  -1.372  1.00  0.00     0.003 A 
HETATM   16  C14 UNL     1       5.810   1.780  -1.686  1.00  0.00     0.044 A 
HETATM   17  C15 UNL     1       4.641   1.296  -1.150  1.00  0.00     0.143 A 
HETATM   18  F1  UNL     1       3.570   2.000  -1.509  1.00  0.00    -0.204 F 
ENDBRANCH  10  12
ENDBRANCH   3   8
BRANCH   1  19
HETATM   19  C5  UNL     1      -2.903  -0.436   1.261  1.00  0.00     0.308 C 
BRANCH  19  20
HETATM   20  N1  UNL     1      -3.287   0.667   0.450  1.00  0.00     0.093 NA
BRANCH  20  21
HETATM   21  C2  UNL     1      -4.713   0.956   0.772  1.00  0.00     0.268 C 
HETATM   22  C1  UNL     1      -5.104   2.305   0.280  1.00  0.00     0.037 C 
ENDBRANCH  20  21
BRANCH  20  23
HETATM   23  C3  UNL     1      -3.171   0.517  -0.972  1.00  0.00     0.287 C 
BRANCH  23  24
HETATM   24  C4  UNL     1      -3.782  -0.668  -1.608  1.00  0.00     0.144 C 
HETATM   25 CL1  UNL     1      -3.182  -2.235  -1.131  1.00  0.00    -0.129 Cl
ENDBRANCH  23  24
ENDBRANCH  20  23
ENDBRANCH  19  20
ENDBRANCH   1  19
TORSDOF 7
