REMARK  1 active torsions:
REMARK  status: ('A' for Active; 'I' for Inactive)
REMARK    1  A    between atoms: N1_1  and  C1_2 
ROOT
HETATM    1  C1  UNL     1      -1.080  -0.056   0.796  1.00  0.00     0.258 C 
HETATM    2  C2  UNL     1      -0.188  -0.038  -0.443  1.00  0.00     0.083 C 
HETATM    3  C3  UNL     1       1.182   0.346  -0.195  1.00  0.00     0.001 A 
HETATM    4  C4  UNL     1       1.386   1.651   0.066  1.00  0.00     0.132 A 
HETATM    5  N2  UNL     1       0.208   2.432   0.053  1.00  0.00    -0.224 NA
HETATM    6  C5  UNL     1      -0.198   3.166  -0.917  1.00  0.00     0.237 C 
HETATM    7  N3  UNL     1      -1.350   3.548  -0.137  1.00  0.00    -0.230 NA
HETATM    8  C6  UNL     1      -2.451   2.841  -0.212  1.00  0.00     0.260 C 
HETATM    9  O1  UNL     1      -2.765   1.723  -0.934  1.00  0.00    -0.303 OA
HETATM   10  C7  UNL     1      -3.142   0.498  -0.460  1.00  0.00     0.085 A 
HETATM   11  C8  UNL     1      -4.426   0.175  -0.888  1.00  0.00     0.039 A 
HETATM   12  C9  UNL     1      -5.037  -1.033  -0.533  1.00  0.00     0.022 A 
HETATM   13  C10 UNL     1      -4.360  -1.928   0.258  1.00  0.00     0.011 A 
HETATM   14 BR1  UNL     1      -5.050  -3.602   0.823  1.00  0.00    -0.051 Br
HETATM   15  C11 UNL     1      -3.092  -1.568   0.658  1.00  0.00     0.031 A 
HETATM   16  C12 UNL     1      -2.451  -0.393   0.334  1.00  0.00     0.010 A 
HETATM   17  N4  UNL     1       2.694   2.143   0.324  1.00  0.00    -0.370 N 
HETATM   18  C13 UNL     1       3.888   1.333   0.333  1.00  0.00     0.160 A 
HETATM   19  C14 UNL     1       3.527  -0.057   0.038  1.00  0.00    -0.030 A 
HETATM   20  C15 UNL     1       4.620  -0.926   0.025  1.00  0.00     0.010 A 
HETATM   21  C16 UNL     1       4.440  -2.284  -0.242  1.00  0.00     0.001 A 
HETATM   22  C17 UNL     1       3.168  -2.789  -0.498  1.00  0.00     0.001 A 
HETATM   23  C18 UNL     1       2.100  -1.913  -0.481  1.00  0.00     0.012 A 
HETATM   24  C19 UNL     1       2.290  -0.589  -0.219  1.00  0.00    -0.018 A 
HETATM   25  H11 UNL     1       2.686   3.165   0.507  1.00  0.00     0.161 HD
ENDROOT
BRANCH   1  26
HETATM   26  N1  UNL     1      -0.564  -0.988   1.746  1.00  0.00     0.087 N 
HETATM   27  H1  UNL     1      -1.122  -0.957   2.624  1.00  0.00     0.313 HD
HETATM   28  H2  UNL     1      -0.406  -1.943   1.397  1.00  0.00     0.313 HD
ENDBRANCH   1  26
TORSDOF 1
