REMARK  7 active torsions:
REMARK  status: ('A' for Active; 'I' for Inactive)
REMARK       I    between atoms: C1_2  and  N1_3 
REMARK    1  A    between atoms: C1_2  and  C8_11 
REMARK    2  A    between atoms: N1_3  and  C2_4 
REMARK    3  A    between atoms: C10_13  and  N2_14 
REMARK    4  A    between atoms: N2_14  and  C11_15 
REMARK    5  A    between atoms: N2_14  and  C13_18 
REMARK    6  A    between atoms: C11_15  and  C12_16 
REMARK    7  A    between atoms: C13_18  and  C14_19 
ROOT
HETATM    1  C8  UNL     1      -0.011  -0.021   0.418  1.00  0.00     0.045 A 
HETATM    2  C9  UNL     1      -1.139   0.077  -0.219  1.00  0.00     0.020 A 
HETATM    3  C10 UNL     1      -2.215   0.168   0.546  1.00  0.00     0.042 A 
HETATM    4  C15 UNL     1      -1.747   0.135   1.901  1.00  0.00     0.031 A 
HETATM    5  C16 UNL     1      -0.416   0.019   1.808  1.00  0.00     0.020 A 
ENDROOT
BRANCH   1   6
HETATM    6  C1  UNL     1       1.429  -0.143   0.243  1.00  0.00     0.257 C 
HETATM    7  O1  UNL     1       2.229  -0.200   1.232  1.00  0.00    -0.267 OA
HETATM    8  N1  UNL     1       2.173  -0.220  -0.931  1.00  0.00    -0.320 N 
HETATM    9  H1  UNL     1       1.622  -0.192  -1.841  1.00  0.00     0.169 HD
BRANCH   8  10
HETATM   10  C2  UNL     1       3.567  -0.322  -0.653  1.00  0.00     0.073 A 
HETATM   11  C3  UNL     1       4.329   0.852  -0.659  1.00  0.00     0.033 A 
HETATM   12  C4  UNL     1       5.670   0.824  -0.385  1.00  0.00     0.002 A 
HETATM   13  C5  UNL     1       6.317  -0.376  -0.087  1.00  0.00     0.003 A 
HETATM   14  C6  UNL     1       5.550  -1.517  -0.086  1.00  0.00     0.044 A 
HETATM   15  C7  UNL     1       4.197  -1.536  -0.359  1.00  0.00     0.143 A 
HETATM   16  F1  UNL     1       3.440  -2.644  -0.349  1.00  0.00    -0.204 F 
ENDBRANCH   8  10
ENDBRANCH   1   6
BRANCH   3  17
HETATM   17  N2  UNL     1      -3.358   0.260  -0.295  1.00  0.00    -0.378 N 
BRANCH  17  18
HETATM   18  C11 UNL     1      -4.057  -0.941  -0.758  1.00  0.00     0.138 C 
BRANCH  18  19
HETATM   19  C12 UNL     1      -3.532  -2.092   0.105  1.00  0.00     0.134 C 
HETATM   20 CL1  UNL     1      -4.293  -3.644  -0.351  1.00  0.00    -0.129 Cl
ENDBRANCH  18  19
ENDBRANCH  17  18
BRANCH  17  21
HETATM   21  C13 UNL     1      -3.972   1.460  -0.834  1.00  0.00     0.138 C 
BRANCH  21  22
HETATM   22  C14 UNL     1      -3.242   2.689  -0.341  1.00  0.00     0.134 C 
HETATM   23 CL2  UNL     1      -4.027   4.157  -1.021  1.00  0.00    -0.129 Cl
ENDBRANCH  21  22
ENDBRANCH  17  21
ENDBRANCH   3  17
TORSDOF 7
