REMARK  7 active torsions:
REMARK  status: ('A' for Active; 'I' for Inactive)
REMARK       I    between atoms: C1_2  and  N1_3 
REMARK    1  A    between atoms: C1_2  and  C8_11 
REMARK    2  A    between atoms: N1_3  and  C2_4 
REMARK    3  A    between atoms: C11_14  and  N2_15 
REMARK    4  A    between atoms: N2_15  and  C12_16 
REMARK    5  A    between atoms: N2_15  and  C13_19 
REMARK    6  A    between atoms: C12_16  and  B1_17 
REMARK    7  A    between atoms: C13_19  and  C14_20 
ROOT
HETATM    1  C8  UNL     1       0.375   0.043  -0.187  1.00  0.00     0.032 A 
HETATM    2  C9  UNL     1      -0.095  -1.242  -0.029  1.00  0.00     0.019 A 
HETATM    3  C10 UNL     1      -1.479  -1.411  -0.158  1.00  0.00     0.030 A 
HETATM    4  C11 UNL     1      -2.349  -0.385  -0.425  1.00  0.00     0.033 A 
HETATM    5  C15 UNL     1      -1.842   0.884  -0.576  1.00  0.00     0.030 A 
HETATM    6  C16 UNL     1      -0.464   1.086  -0.453  1.00  0.00     0.019 A 
ENDROOT
BRANCH   1   7
HETATM    7  C1  UNL     1       1.818   0.221  -0.052  1.00  0.00     0.256 C 
HETATM    8  O1  UNL     1       2.530  -0.809   0.203  1.00  0.00    -0.267 OA
HETATM    9  N1  UNL     1       2.560   1.422  -0.170  1.00  0.00    -0.322 N 
HETATM   10  H1  UNL     1       1.992   2.274  -0.379  1.00  0.00     0.169 HD
BRANCH   9  11
HETATM   11  C2  UNL     1       3.945   1.076   0.047  1.00  0.00     0.052 A 
HETATM   12  C3  UNL     1       4.549   0.743  -1.162  1.00  0.00     0.031 A 
HETATM   13  C4  UNL     1       5.886   0.375  -1.192  1.00  0.00     0.002 A 
HETATM   14  C5  UNL     1       6.575   0.354   0.007  1.00  0.00     0.002 A 
HETATM   15  C6  UNL     1       5.973   0.685   1.207  1.00  0.00     0.021 A 
HETATM   16  C7  UNL     1       4.644   1.050   1.224  1.00  0.00     0.037 A 
HETATM   17 BR1  UNL     1       3.650   1.536   2.758  1.00  0.00    -0.049 Br
ENDBRANCH   9  11
ENDBRANCH   1   7
BRANCH   4  18
HETATM   18  N2  UNL     1      -3.750  -0.584  -0.552  1.00  0.00    -0.369 N 
BRANCH  18  19
HETATM   19  C12 UNL     1      -4.619   0.491  -0.820  1.00  0.00     0.023 C 
BRANCH  19  20
HETATM   20  B1  UNL     1      -4.556   1.598   0.942  1.00  0.00     0.315 B 
HETATM   21 CL1  UNL     1      -5.762   3.372   0.993  1.00  0.00    -0.213 Cl
ENDBRANCH  19  20
ENDBRANCH  18  19
BRANCH  18  22
HETATM   22  C13 UNL     1      -4.475  -1.805  -0.439  1.00  0.00     0.142 C 
BRANCH  22  23
HETATM   23  C14 UNL     1      -5.363  -1.879   0.779  1.00  0.00     0.134 C 
HETATM   24 CL2  UNL     1      -4.480  -1.733   2.292  1.00  0.00    -0.129 Cl
ENDBRANCH  22  23
ENDBRANCH  18  22
ENDBRANCH   4  18
TORSDOF 7
