REMARK  9 active torsions:
REMARK  status: ('A' for Active; 'I' for Inactive)
REMARK    1  A    between atoms: O1_1  and  C1_2 
REMARK    2  A    between atoms: C6_7  and  N1_8 
REMARK    3  A    between atoms: N1_8  and  C7_9 
REMARK    4  A    between atoms: C7_9  and  C8_10 
REMARK    5  A    between atoms: C11_13  and  N2_14 
REMARK    6  A    between atoms: N2_14  and  C12_15 
REMARK    7  A    between atoms: N2_14  and  C14_18 
REMARK    8  A    between atoms: C12_15  and  C13_16 
REMARK    9  A    between atoms: C14_18  and  C15_19 
ROOT
HETATM    1  C8  UNL     1       0.414  -0.456   1.786  1.00  0.00    -0.040 A 
HETATM    2  C9  UNL     1      -0.472  -1.438   1.262  1.00  0.00     0.011 A 
HETATM    3  C10 UNL     1      -1.578  -1.162   0.424  1.00  0.00     0.030 A 
HETATM    4  C11 UNL     1      -1.851   0.179   0.058  1.00  0.00     0.030 A 
HETATM    5  C16 UNL     1      -1.032   1.245   0.521  1.00  0.00     0.030 A 
HETATM    6  C17 UNL     1      -0.089   0.693   1.276  1.00  0.00     0.011 A 
ENDROOT
BRANCH   1   7
HETATM    7  C7  UNL     1       1.520  -0.716   2.686  1.00  0.00     0.158 C 
BRANCH   7   8
HETATM    8  N1  UNL     1       2.701  -1.342   2.141  1.00  0.00    -0.383 N 
HETATM    9  H6  UNL     1       2.757  -2.223   2.676  1.00  0.00     0.160 HD
BRANCH   8  10
HETATM   10  C6  UNL     1       3.337  -0.562   1.110  1.00  0.00     0.061 A 
HETATM   11  C1  UNL     1       3.895   0.119   0.207  1.00  0.00     0.091 A 
HETATM   12  C2  UNL     1       4.877   0.288  -0.615  1.00  0.00     0.039 A 
HETATM   13  C3  UNL     1       5.884  -0.670  -0.624  1.00  0.00     0.003 A 
HETATM   14  C4  UNL     1       5.631  -1.697   0.316  1.00  0.00     0.002 A 
HETATM   15  C5  UNL     1       4.437  -1.611   1.104  1.00  0.00     0.032 A 
BRANCH  11  16
HETATM   16  O1  UNL     1       2.822   1.058   0.269  1.00  0.00    -0.358 OA
HETATM   17  H1  UNL     1       3.063   2.025   0.169  1.00  0.00     0.217 HD
ENDBRANCH  11  16
ENDBRANCH   8  10
ENDBRANCH   7   8
ENDBRANCH   1   7
BRANCH   4  18
HETATM   18  N2  UNL     1      -2.982   0.461  -0.757  1.00  0.00    -0.379 N 
BRANCH  18  19
HETATM   19  C12 UNL     1      -3.986  -0.441  -1.262  1.00  0.00     0.138 C 
BRANCH  19  20
HETATM   20  C13 UNL     1      -4.011  -0.596  -2.750  1.00  0.00     0.134 C 
HETATM   21 CL1  UNL     1      -2.482  -1.202  -3.395  1.00  0.00    -0.129 Cl
ENDBRANCH  19  20
ENDBRANCH  18  19
BRANCH  18  22
HETATM   22  C14 UNL     1      -3.195   1.816  -1.191  1.00  0.00     0.138 C 
BRANCH  22  23
HETATM   23  C15 UNL     1      -4.312   2.573  -0.594  1.00  0.00     0.134 C 
HETATM   24 CL2  UNL     1      -5.935   1.977  -0.797  1.00  0.00    -0.129 Cl
ENDBRANCH  22  23
ENDBRANCH  18  22
ENDBRANCH   4  18
TORSDOF 9
