REMARK  7 active torsions:
REMARK  status: ('A' for Active; 'I' for Inactive)
REMARK       I    between atoms: C1_2  and  N1_3 
REMARK    1  A    between atoms: C1_2  and  C8_11 
REMARK    2  A    between atoms: N1_3  and  C2_4 
REMARK    3  A    between atoms: C11_14  and  N2_15 
REMARK    4  A    between atoms: N2_15  and  C12_16 
REMARK    5  A    between atoms: N2_15  and  C14_19 
REMARK    6  A    between atoms: C12_16  and  C13_17 
REMARK    7  A    between atoms: C14_19  and  C15_20 
ROOT
HETATM    1  C8  UNL     1       1.095   0.214   0.326  1.00  0.00     0.032 A 
HETATM    2  C9  UNL     1       0.304   0.398   1.449  1.00  0.00     0.019 A 
HETATM    3  C10 UNL     1      -1.050   0.466   1.295  1.00  0.00     0.030 A 
HETATM    4  C11 UNL     1      -1.752   0.372   0.120  1.00  0.00     0.030 A 
HETATM    5  C16 UNL     1      -0.913   0.191  -0.954  1.00  0.00     0.030 A 
HETATM    6  C17 UNL     1       0.459   0.109  -0.899  1.00  0.00     0.019 A 
ENDROOT
BRANCH   1   7
HETATM    7  C1  UNL     1       2.539   0.144   0.488  1.00  0.00     0.256 C 
HETATM    8  O1  UNL     1       3.045   0.310   1.611  1.00  0.00    -0.267 OA
HETATM    9  N1  UNL     1       3.450  -0.107  -0.566  1.00  0.00    -0.322 N 
HETATM   10  H1  UNL     1       3.115  -0.257  -1.521  1.00  0.00     0.169 HD
BRANCH   9  11
HETATM   11  C2  UNL     1       4.826  -0.138  -0.228  1.00  0.00     0.053 C 
HETATM   12  C3  UNL     1       5.514   0.789  -0.917  1.00  0.00     0.032 C 
HETATM   13  C4  UNL     1       6.939   0.770  -0.579  1.00  0.00     0.015 C 
HETATM   14  C5  UNL     1       7.402   0.159   0.501  1.00  0.00    -0.012 C 
HETATM   15  C6  UNL     1       6.739  -0.791   1.064  1.00  0.00     0.007 C 
HETATM   16  C7  UNL     1       5.494  -1.015   0.727  1.00  0.00     0.049 C 
HETATM   17 BR1  UNL     1       4.468  -2.433   1.410  1.00  0.00    -0.048 Br
ENDBRANCH   9  11
ENDBRANCH   1   7
BRANCH   4  18
HETATM   18  N2  UNL     1      -3.188   0.442  -0.002  1.00  0.00    -0.379 N 
BRANCH  18  19
HETATM   19  C12 UNL     1      -3.940   0.614   1.216  1.00  0.00     0.138 C 
BRANCH  19  20
HETATM   20  C13 UNL     1      -4.704  -0.559   1.704  1.00  0.00     0.134 C 
HETATM   21 CL1  UNL     1      -3.580  -1.913   1.960  1.00  0.00    -0.129 Cl
ENDBRANCH  19  20
ENDBRANCH  18  19
BRANCH  18  22
HETATM   22  C14 UNL     1      -3.741   0.307  -1.325  1.00  0.00     0.138 C 
BRANCH  22  23
HETATM   23  C15 UNL     1      -4.419  -0.984  -1.650  1.00  0.00     0.134 C 
HETATM   24 CL2  UNL     1      -4.968  -0.833  -3.373  1.00  0.00    -0.129 Cl
ENDBRANCH  22  23
ENDBRANCH  18  22
ENDBRANCH   4  18
TORSDOF 7
