REMARK  5 active torsions:
REMARK  status: ('A' for Active; 'I' for Inactive)
REMARK    1  A    between atoms: C2_2  and  C3_3 
REMARK    2  A    between atoms: C2_2  and  C5_6 
REMARK    3  A    between atoms: C3_3  and  C4_4 
REMARK    4  A    between atoms: C8_9  and  C9_10 
REMARK       I    between atoms: C9_10  and  N1_12 
REMARK    5  A    between atoms: N1_12  and  C10_13 
ROOT
HETATM    1  C5  UNL     1      -2.364  -0.452  -0.069  1.00  0.00    -0.054 A 
HETATM    2  C6  UNL     1      -1.773  -0.264  -1.298  1.00  0.00     0.008 A 
HETATM    3  C7  UNL     1      -0.392  -0.052  -1.391  1.00  0.00     0.017 A 
HETATM    4  C8  UNL     1       0.430  -0.020  -0.290  1.00  0.00     0.032 A 
HETATM    5  C16 UNL     1      -0.207  -0.212   0.917  1.00  0.00     0.017 A 
HETATM    6  C17 UNL     1      -1.562  -0.424   1.052  1.00  0.00     0.008 A 
ENDROOT
BRANCH   4   7
HETATM    7  C9  UNL     1       1.855   0.206  -0.466  1.00  0.00     0.256 C 
HETATM    8  O1  UNL     1       2.229   0.358  -1.656  1.00  0.00    -0.267 OA
HETATM    9  N1  UNL     1       2.807   0.264   0.554  1.00  0.00    -0.322 N 
HETATM   10  H11 UNL     1       2.363   0.123   1.486  1.00  0.00     0.169 HD
BRANCH   9  11
HETATM   11  C10 UNL     1       4.203   0.476   0.490  1.00  0.00     0.052 A 
HETATM   12  C11 UNL     1       4.955   0.680  -0.640  1.00  0.00     0.031 A 
HETATM   13  C12 UNL     1       6.317   0.884  -0.678  1.00  0.00     0.002 A 
HETATM   14  C13 UNL     1       7.003   0.889   0.517  1.00  0.00     0.002 A 
HETATM   15  C14 UNL     1       6.288   0.689   1.678  1.00  0.00     0.021 A 
HETATM   16  C15 UNL     1       4.926   0.489   1.658  1.00  0.00     0.037 A 
HETATM   17 BR1  UNL     1       4.025   0.220   3.330  1.00  0.00    -0.049 Br
ENDBRANCH   9  11
ENDBRANCH   4   7
BRANCH   1  18
HETATM   18  C2  UNL     1      -3.820  -0.678   0.058  1.00  0.00     0.015 C 
HETATM   19  C1  UNL     1      -4.155  -1.942  -0.692  1.00  0.00     0.015 C 
BRANCH  18  20
HETATM   20  C3  UNL     1      -4.557   0.535  -0.443  1.00  0.00     0.024 C 
BRANCH  20  21
HETATM   21  C4  UNL     1      -6.041   0.404  -0.348  1.00  0.00     0.115 C 
HETATM   22 CL1  UNL     1      -6.735  -0.927  -1.251  1.00  0.00    -0.130 Cl
ENDBRANCH  20  21
ENDBRANCH  18  20
ENDBRANCH   1  18
TORSDOF 5
