REMARK  7 active torsions:
REMARK  status: ('A' for Active; 'I' for Inactive)
REMARK       I    between atoms: C1_2  and  N1_3 
REMARK    1  A    between atoms: C1_2  and  C6_9 
REMARK    2  A    between atoms: N1_3  and  C2_4 
REMARK    3  A    between atoms: C9_12  and  N2_13 
REMARK    4  A    between atoms: N2_13  and  C10_14 
REMARK    5  A    between atoms: N2_13  and  C12_17 
REMARK    6  A    between atoms: C10_14  and  C11_15 
REMARK    7  A    between atoms: C12_17  and  C13_18 
ROOT
HETATM    1  C6  UNL     1       1.436   0.112  -0.131  1.00  0.00     0.032 A 
HETATM    2  C7  UNL     1       0.804   1.278  -0.540  1.00  0.00     0.019 A 
HETATM    3  C8  UNL     1      -0.561   1.239  -0.668  1.00  0.00     0.030 A 
HETATM    4  C9  UNL     1      -1.397   0.180  -0.441  1.00  0.00     0.030 A 
HETATM    5  C14 UNL     1      -0.712  -0.937  -0.042  1.00  0.00     0.030 A 
HETATM    6  C15 UNL     1       0.655  -0.988   0.113  1.00  0.00     0.019 A 
ENDROOT
BRANCH   1   7
HETATM    7  C1  UNL     1       2.891   0.146   0.002  1.00  0.00     0.256 C 
HETATM    8  O1  UNL     1       3.518   1.155  -0.403  1.00  0.00    -0.267 OA
HETATM    9  N1  UNL     1       3.648  -0.903   0.572  1.00  0.00    -0.323 N 
HETATM   10  H1  UNL     1       3.188  -1.754   0.924  1.00  0.00     0.169 HD
BRANCH   9  11
HETATM   11  C2  UNL     1       5.059  -0.793   0.664  1.00  0.00     0.040 A 
HETATM   12  C3  UNL     1       5.735  -0.769   1.826  1.00  0.00     0.072 A 
HETATM   13  C4  UNL     1       7.041  -0.654   1.190  1.00  0.00     0.120 A 
HETATM   14  F1  UNL     1       8.390  -0.547   1.181  1.00  0.00    -0.206 F 
HETATM   15  C5  UNL     1       6.387  -0.677   0.019  1.00  0.00     0.072 A 
ENDBRANCH   9  11
ENDBRANCH   1   7
BRANCH   4  16
HETATM   16  N2  UNL     1      -2.810   0.153  -0.539  1.00  0.00    -0.379 N 
BRANCH  16  17
HETATM   17  C10 UNL     1      -3.829   1.094  -0.802  1.00  0.00     0.138 C 
BRANCH  17  18
HETATM   18  C11 UNL     1      -3.491   2.500  -1.124  1.00  0.00     0.134 C 
HETATM   19 CL1  UNL     1      -5.056   3.410  -1.361  1.00  0.00    -0.129 Cl
ENDBRANCH  17  18
ENDBRANCH  16  17
BRANCH  16  20
HETATM   20  C12 UNL     1      -3.490  -1.132  -0.344  1.00  0.00     0.138 C 
BRANCH  20  21
HETATM   21  C13 UNL     1      -4.274  -1.203   0.920  1.00  0.00     0.134 C 
HETATM   22 CL2  UNL     1      -4.990  -2.854   0.969  1.00  0.00    -0.129 Cl
ENDBRANCH  20  21
ENDBRANCH  16  20
ENDBRANCH   4  16
TORSDOF 7
