REMARK  3 active torsions:
REMARK  status: ('A' for Active; 'I' for Inactive)
REMARK       I    between atoms: C1_2  and  N1_3 
REMARK    1  A    between atoms: C1_2  and  C8_11 
REMARK    2  A    between atoms: N1_3  and  C2_4 
REMARK    3  A    between atoms: C11_14  and  C12_15 
ROOT
HETATM    1  O1  UNL     1       0.161   0.360  -1.366  1.00  0.00    -0.270 OA
HETATM    2  C1  UNL     1       0.134  -0.267  -0.301  1.00  0.00     0.252 C 
HETATM    3  N1  UNL     1      -1.078  -0.444   0.393  1.00  0.00    -0.325 N 
HETATM    4  H1  UNL     1      -0.940  -0.993   1.272  1.00  0.00     0.169 HD
ENDROOT
BRANCH   2   5
HETATM    5  C8  UNL     1       1.433  -0.780   0.139  1.00  0.00     0.135 C 
HETATM    6  C9  UNL     1       2.009  -0.204   1.403  1.00  0.00     0.072 C 
HETATM    7  C10 UNL     1       2.662   1.031   0.834  1.00  0.00     0.002 C 
HETATM    8  C11 UNL     1       2.973   0.874  -0.465  1.00  0.00     0.018 C 
HETATM    9  N2  UNL     1       2.541  -0.445  -0.775  1.00  0.00    -0.362 N 
HETATM   10  C13 UNL     1       2.379  -1.787  -1.363  1.00  0.00     0.147 C 
HETATM   11  C14 UNL     1       1.652  -2.253  -0.104  1.00  0.00     0.138 C 
HETATM   12 CL2  UNL     1       2.674  -3.069   1.067  1.00  0.00    -0.120 Cl
BRANCH   8  13
HETATM   13  C12 UNL     1       3.615   1.825  -1.387  1.00  0.00     0.171 C 
HETATM   14 CL1  UNL     1       2.572   2.201  -2.774  1.00  0.00    -0.124 Cl
ENDBRANCH   8  13
ENDBRANCH   2   5
BRANCH   3  15
HETATM   15  C2  UNL     1      -2.369   0.016   0.040  1.00  0.00     0.034 A 
HETATM   16  C3  UNL     1      -2.716   0.732  -1.054  1.00  0.00     0.031 A 
HETATM   17  C4  UNL     1      -3.998   1.148  -1.337  1.00  0.00     0.021 A 
HETATM   18  C5  UNL     1      -5.027   0.834  -0.471  1.00  0.00     0.011 A 
HETATM   19 BR1  UNL     1      -6.820   1.386  -0.816  1.00  0.00    -0.051 Br
HETATM   20  C6  UNL     1      -4.693   0.102   0.653  1.00  0.00     0.021 A 
HETATM   21  C7  UNL     1      -3.412  -0.283   0.883  1.00  0.00     0.031 A 
ENDBRANCH   3  15
TORSDOF 3
