REMARK  7 active torsions:
REMARK  status: ('A' for Active; 'I' for Inactive)
REMARK       I    between atoms: C1_2  and  N1_3 
REMARK    1  A    between atoms: C1_2  and  C8_11 
REMARK    2  A    between atoms: N1_3  and  C2_4 
REMARK    3  A    between atoms: C11_14  and  N2_15 
REMARK    4  A    between atoms: N2_15  and  C12_16 
REMARK    5  A    between atoms: N2_15  and  C14_19 
REMARK    6  A    between atoms: C12_16  and  C13_17 
REMARK    7  A    between atoms: C14_19  and  C15_20 
ROOT
HETATM    1  C8  UNL     1      -0.770  -0.018   0.130  1.00  0.00     0.032 A 
HETATM    2  C9  UNL     1      -0.202  -1.275   0.109  1.00  0.00     0.019 A 
HETATM    3  C10 UNL     1       1.167  -1.424   0.050  1.00  0.00     0.030 A 
HETATM    4  C11 UNL     1       2.048  -0.369   0.010  1.00  0.00     0.030 A 
HETATM    5  C16 UNL     1       1.443   0.868   0.032  1.00  0.00     0.030 A 
HETATM    6  C17 UNL     1       0.065   1.063   0.091  1.00  0.00     0.019 A 
ENDROOT
BRANCH   1   7
HETATM    7  C1  UNL     1      -2.223   0.078   0.190  1.00  0.00     0.256 C 
HETATM    8  O1  UNL     1      -2.919  -0.967   0.227  1.00  0.00    -0.267 OA
HETATM    9  N1  UNL     1      -2.926   1.310   0.209  1.00  0.00    -0.323 N 
HETATM   10  H1  UNL     1      -2.429   2.203   0.183  1.00  0.00     0.169 HD
BRANCH   9  11
HETATM   11  C2  UNL     1      -4.346   1.057   0.269  1.00  0.00     0.035 A 
HETATM   12  C3  UNL     1      -5.066   0.938   1.441  1.00  0.00     0.031 A 
HETATM   13  C4  UNL     1      -6.425   0.692   1.352  1.00  0.00     0.021 A 
HETATM   14  C5  UNL     1      -7.108   0.559   0.161  1.00  0.00     0.011 A 
HETATM   15 BR1  UNL     1      -8.989   0.220   0.087  1.00  0.00    -0.051 Br
HETATM   16  C6  UNL     1      -6.328   0.689  -0.994  1.00  0.00     0.021 A 
HETATM   17  C7  UNL     1      -4.972   0.933  -0.957  1.00  0.00     0.031 A 
ENDBRANCH   9  11
ENDBRANCH   1   7
BRANCH   4  18
HETATM   18  N2  UNL     1       3.475  -0.490  -0.062  1.00  0.00    -0.379 N 
BRANCH  18  19
HETATM   19  C12 UNL     1       4.394   0.603  -0.080  1.00  0.00     0.138 C 
BRANCH  19  20
HETATM   20  C13 UNL     1       5.088   0.765  -1.431  1.00  0.00     0.134 C 
HETATM   21 CL1  UNL     1       6.171   2.190  -1.210  1.00  0.00    -0.129 Cl
ENDBRANCH  19  20
ENDBRANCH  18  19
BRANCH  18  22
HETATM   22  C14 UNL     1       4.135  -1.771  -0.139  1.00  0.00     0.138 C 
BRANCH  22  23
HETATM   23  C15 UNL     1       4.932  -2.090   1.123  1.00  0.00     0.134 C 
HETATM   24 CL2  UNL     1       3.901  -2.121   2.546  1.00  0.00    -0.129 Cl
ENDBRANCH  22  23
ENDBRANCH  18  22
ENDBRANCH   4  18
TORSDOF 7
