REMARK  6 active torsions:
REMARK  status: ('A' for Active; 'I' for Inactive)
REMARK    1  A    between atoms: C2_2  and  C3_3 
REMARK    2  A    between atoms: C3_3  and  C4_4 
REMARK    3  A    between atoms: C5_5  and  N1_6 
REMARK       I    between atoms: N1_6  and  C6_7 
REMARK    4  A    between atoms: C6_7  and  C7_9 
REMARK    5  A    between atoms: N2_13  and  C11_14 
REMARK    6  A    between atoms: C11_14  and  C12_15 
ROOT
HETATM    1  C7  UNL     1      -0.119  -0.346   0.151  1.00  0.00     0.032 C 
HETATM    2  C8  UNL     1      -0.743  -1.364   0.716  1.00  0.00     0.018 C 
HETATM    3  C9  UNL     1      -2.087  -1.815   0.887  1.00  0.00     0.018 C 
HETATM    4  C10 UNL     1      -3.404  -1.658   0.684  1.00  0.00     0.085 C 
HETATM    5  N2  UNL     1      -4.044  -0.581  -0.043  1.00  0.00    -0.387 N 
HETATM    6  C13 UNL     1      -3.059  -0.009  -0.975  1.00  0.00     0.146 C 
HETATM    7  C14 UNL     1      -2.712   1.334  -0.428  1.00  0.00     0.123 C 
HETATM    8 CL2  UNL     1      -4.023   2.486  -0.639  1.00  0.00    -0.119 Cl
HETATM    9  C15 UNL     1      -1.379   1.771  -0.806  1.00  0.00    -0.004 C 
HETATM   10  C16 UNL     1      -0.488   0.906  -0.454  1.00  0.00     0.014 C 
ENDROOT
BRANCH   1  11
HETATM   11  C6  UNL     1       1.327  -0.520   0.342  1.00  0.00     0.255 C 
HETATM   12  N1  UNL     1       2.316   0.340  -0.155  1.00  0.00    -0.333 N 
HETATM   13  H8  UNL     1       2.070   1.161  -0.710  1.00  0.00     0.168 HD
HETATM   14  O1  UNL     1       2.029  -1.388   0.953  1.00  0.00    -0.267 OA
BRANCH  12  15
HETATM   15  C5  UNL     1       3.708   0.403  -0.106  1.00  0.00     0.087 C 
HETATM   16  C4  UNL     1       4.643   0.412  -1.073  1.00  0.00    -0.004 C 
BRANCH  16  17
HETATM   17  C3  UNL     1       5.913   0.490  -0.385  1.00  0.00     0.021 C 
BRANCH  17  18
HETATM   18  C2  UNL     1       7.116   0.557   0.034  1.00  0.00    -0.006 C 
HETATM   19  C1  UNL     1       7.273   0.615   1.503  1.00  0.00     0.011 C 
ENDBRANCH  17  18
ENDBRANCH  16  17
ENDBRANCH  12  15
ENDBRANCH   1  11
BRANCH   5  20
HETATM   20  C11 UNL     1      -5.394  -0.126   0.154  1.00  0.00     0.137 C 
BRANCH  20  21
HETATM   21  C12 UNL     1      -6.263  -0.998   0.992  1.00  0.00     0.134 C 
HETATM   22 CL1  UNL     1      -6.490  -2.604   0.274  1.00  0.00    -0.129 Cl
ENDBRANCH  20  21
ENDBRANCH   5  20
TORSDOF 6
