REMARK  5 active torsions:
REMARK  status: ('A' for Active; 'I' for Inactive)
REMARK    1  A    between atoms: N1_8  and  N2_9 
REMARK    2  A    between atoms: N2_9  and  C6_10 
REMARK    3  A    between atoms: C9_13  and  N3_14 
REMARK    4  A    between atoms: N3_14  and  C10_15 
REMARK    5  A    between atoms: N3_14  and  C11_17 
ROOT
HETATM    1  C6  UNL     1      -0.344   0.475   0.760  1.00  0.00     0.048 A 
HETATM    2  C7  UNL     1       0.611   1.304   1.304  1.00  0.00     0.033 A 
HETATM    3  C8  UNL     1       1.944   1.059   1.076  1.00  0.00     0.031 A 
HETATM    4  C9  UNL     1       2.389  -0.008   0.306  1.00  0.00     0.032 A 
HETATM    5  C12 UNL     1       1.403  -0.815  -0.219  1.00  0.00     0.031 A 
HETATM    6  C13 UNL     1       0.055  -0.594  -0.008  1.00  0.00     0.033 A 
ENDROOT
BRANCH   1   7
HETATM    7  N2  UNL     1      -1.724   0.691   0.946  1.00  0.00    -0.292 N 
HETATM    8  H4  UNL     1      -1.978   1.383   1.715  1.00  0.00     0.187 HD
BRANCH   7   9
HETATM    9  N1  UNL     1      -2.901   0.230   0.397  1.00  0.00    -0.230 N 
HETATM   10  C1  UNL     1      -3.208   0.674  -0.834  1.00  0.00     0.287 A 
HETATM   11  O1  UNL     1      -2.447   1.467  -1.489  1.00  0.00    -0.264 OA
HETATM   12  C2  UNL     1      -4.352   0.349  -1.546  1.00  0.00     0.103 A 
HETATM   13 CL1  UNL     1      -4.782   0.917  -3.143  1.00  0.00    -0.078 Cl
HETATM   14  C3  UNL     1      -5.219  -0.494  -0.918  1.00  0.00     0.031 A 
HETATM   15  C4  UNL     1      -4.961  -0.987   0.349  1.00  0.00     0.021 A 
HETATM   16  C5  UNL     1      -3.788  -0.588   0.953  1.00  0.00     0.120 A 
ENDBRANCH   7   9
ENDBRANCH   1   7
BRANCH   4  17
HETATM   17  N3  UNL     1       3.791  -0.226   0.029  1.00  0.00    -0.355 N 
BRANCH  17  18
HETATM   18  C10 UNL     1       4.749   0.732   0.538  1.00  0.00     0.239 C 
HETATM   19 CL2  UNL     1       4.312   2.305  -0.235  1.00  0.00    -0.109 Cl
ENDBRANCH  17  18
BRANCH  17  20
HETATM   20  C11 UNL     1       4.096  -1.429  -0.760  1.00  0.00     0.239 C 
HETATM   21 CL3  UNL     1       5.851  -1.510  -1.005  1.00  0.00    -0.109 Cl
ENDBRANCH  17  20
ENDBRANCH   4  17
TORSDOF 5
