REMARK  7 active torsions:
REMARK  status: ('A' for Active; 'I' for Inactive)
REMARK       I    between atoms: C1_2  and  N1_3 
REMARK    1  A    between atoms: C1_2  and  C7_11 
REMARK    2  A    between atoms: N1_3  and  C2_4 
REMARK    3  A    between atoms: C10_14  and  N2_15 
REMARK    4  A    between atoms: N2_15  and  C11_16 
REMARK    5  A    between atoms: N2_15  and  C13_19 
REMARK    6  A    between atoms: C11_16  and  C12_17 
REMARK    7  A    between atoms: C13_19  and  C14_20 
ROOT
HETATM    1  C7  UNL     1       0.768   0.493  -0.395  1.00  0.00     0.032 A 
HETATM    2  C8  UNL     1       0.130  -0.478   0.347  1.00  0.00     0.019 A 
HETATM    3  C9  UNL     1      -1.229  -0.376   0.535  1.00  0.00     0.030 A 
HETATM    4  C10 UNL     1      -2.052   0.613   0.054  1.00  0.00     0.030 A 
HETATM    5  C15 UNL     1      -1.348   1.546  -0.676  1.00  0.00     0.030 A 
HETATM    6  C16 UNL     1       0.008   1.517  -0.911  1.00  0.00     0.019 A 
ENDROOT
BRANCH   1   7
HETATM    7  C1  UNL     1       2.195   0.542  -0.687  1.00  0.00     0.256 C 
HETATM    8  O1  UNL     1       2.741   1.431  -1.395  1.00  0.00    -0.267 OA
HETATM    9  N1  UNL     1       3.035  -0.465  -0.149  1.00  0.00    -0.322 N 
HETATM   10  H1  UNL     1       2.755  -1.267   0.450  1.00  0.00     0.169 HD
BRANCH   9  11
HETATM   11  C2  UNL     1       4.419  -0.782  -0.182  1.00  0.00     0.048 A 
HETATM   12  C3  UNL     1       5.272  -0.246   0.792  1.00  0.00     0.032 A 
HETATM   13  C4  UNL     1       6.619  -0.436   0.929  1.00  0.00     0.021 A 
HETATM   14  C5  UNL     1       7.490  -1.190   0.166  1.00  0.00     0.012 A 
HETATM   15 BR1  UNL     1       9.356  -1.303   0.554  1.00  0.00    -0.051 Br
HETATM   16  C6  UNL     1       6.989  -1.893  -0.930  1.00  0.00     0.037 A 
HETATM   17  P1  UNL     1       5.278  -1.804  -1.311  1.00  0.00    -0.002 P 
ENDBRANCH   9  11
ENDBRANCH   1   7
BRANCH   4  18
HETATM   18  N2  UNL     1      -3.473   0.634   0.311  1.00  0.00    -0.379 N 
BRANCH  18  19
HETATM   19  C11 UNL     1      -3.973  -0.443   1.126  1.00  0.00     0.138 C 
BRANCH  19  20
HETATM   20  C12 UNL     1      -4.749  -1.512   0.450  1.00  0.00     0.134 C 
HETATM   21 CL1  UNL     1      -5.192  -2.741   1.714  1.00  0.00    -0.129 Cl
ENDBRANCH  19  20
ENDBRANCH  18  19
BRANCH  18  22
HETATM   22  C13 UNL     1      -4.286   1.673  -0.271  1.00  0.00     0.138 C 
BRANCH  22  23
HETATM   23  C14 UNL     1      -5.184   1.297  -1.389  1.00  0.00     0.134 C 
HETATM   24 CL2  UNL     1      -5.997   2.844  -1.886  1.00  0.00    -0.129 Cl
ENDBRANCH  22  23
ENDBRANCH  18  22
ENDBRANCH   4  18
TORSDOF 7
