REMARK  4 active torsions:
REMARK  status: ('A' for Active; 'I' for Inactive)
REMARK    1  A    between atoms: N1_2  and  C2_3 
REMARK    2  A    between atoms: N1_2  and  C3_5 
REMARK    3  A    between atoms: C6_8  and  C7_9 
REMARK       I    between atoms: C7_9  and  N2_11 
REMARK    4  A    between atoms: N2_11  and  C8_12 
ROOT
HETATM    1  C7  UNL     1      -1.225  -0.278   0.089  1.00  0.00     0.256 C 
HETATM    2  O1  UNL     1      -1.799  -1.359  -0.278  1.00  0.00    -0.267 OA
HETATM    3  N2  UNL     1      -2.151   0.732   0.466  1.00  0.00    -0.323 N 
HETATM    4  H8  UNL     1      -1.764   1.649   0.780  1.00  0.00     0.169 HD
ENDROOT
BRANCH   1   5
HETATM    5  C6  UNL     1       0.226  -0.150   0.099  1.00  0.00     0.032 A 
HETATM    6  C5  UNL     1       0.855   1.001   0.489  1.00  0.00     0.019 A 
HETATM    7  C4  UNL     1       2.228   1.011   0.460  1.00  0.00     0.030 A 
HETATM    8  C3  UNL     1       3.047  -0.026   0.076  1.00  0.00     0.030 A 
HETATM    9  C15 UNL     1       2.329  -1.136  -0.298  1.00  0.00     0.030 A 
HETATM   10  C14 UNL     1       0.973  -1.213  -0.292  1.00  0.00     0.019 A 
BRANCH   8  11
HETATM   11  N1  UNL     1       4.466   0.015   0.056  1.00  0.00    -0.372 N 
HETATM   12  C1  UNL     1       5.060  -1.250  -0.401  1.00  0.00     0.151 C 
BRANCH  11  13
HETATM   13  C2  UNL     1       5.500   0.929   0.349  1.00  0.00     0.237 C 
HETATM   14 CL1  UNL     1       4.977   2.500   0.929  1.00  0.00    -0.109 Cl
ENDBRANCH  11  13
ENDBRANCH   8  11
ENDBRANCH   1   5
BRANCH   3  15
HETATM   15  C8  UNL     1      -3.558   0.422   0.391  1.00  0.00     0.035 A 
HETATM   16  C9  UNL     1      -4.232  -0.122   1.463  1.00  0.00     0.031 A 
HETATM   17  C10 UNL     1      -5.592  -0.381   1.277  1.00  0.00     0.021 A 
HETATM   18  C11 UNL     1      -6.224  -0.108   0.090  1.00  0.00     0.011 A 
HETATM   19 BR1  UNL     1      -8.079  -0.461  -0.164  1.00  0.00    -0.051 Br
HETATM   20  C12 UNL     1      -5.497   0.445  -0.969  1.00  0.00     0.021 A 
HETATM   21  C13 UNL     1      -4.141   0.718  -0.828  1.00  0.00     0.031 A 
ENDBRANCH   3  15
TORSDOF 4
