REMARK  5 active torsions:
REMARK  status: ('A' for Active; 'I' for Inactive)
REMARK    1  A    between atoms: N1_2  and  C2_3 
REMARK    2  A    between atoms: N1_2  and  C4_6 
REMARK    3  A    between atoms: C2_3  and  C3_4 
REMARK    4  A    between atoms: C7_9  and  C8_10 
REMARK       I    between atoms: C8_10  and  N2_12 
REMARK    5  A    between atoms: N2_12  and  C9_13 
ROOT
HETATM    1  C4  UNL     1      -2.582  -0.268  -0.247  1.00  0.00     0.029 A 
HETATM    2  C5  UNL     1      -1.610   0.561  -0.764  1.00  0.00     0.030 A 
HETATM    3  C6  UNL     1      -0.270   0.360  -0.551  1.00  0.00     0.019 A 
HETATM    4  C7  UNL     1       0.196  -0.677   0.192  1.00  0.00     0.032 A 
HETATM    5  C15 UNL     1      -0.747  -1.527   0.726  1.00  0.00     0.019 A 
HETATM    6  C16 UNL     1      -2.110  -1.314   0.502  1.00  0.00     0.030 A 
ENDROOT
BRANCH   4   7
HETATM    7  C8  UNL     1       1.581  -0.987   0.483  1.00  0.00     0.256 C 
HETATM    8  O1  UNL     1       1.982  -1.956   1.176  1.00  0.00    -0.267 OA
HETATM    9  N2  UNL     1       2.572  -0.129  -0.056  1.00  0.00    -0.323 N 
HETATM   10  H10 UNL     1       2.434   0.716  -0.647  1.00  0.00     0.169 HD
BRANCH   9  11
HETATM   11  C9  UNL     1       3.992  -0.079  -0.012  1.00  0.00     0.035 A 
HETATM   12  C10 UNL     1       4.824  -0.702  -0.927  1.00  0.00     0.031 A 
HETATM   13  C11 UNL     1       6.200  -0.640  -0.868  1.00  0.00     0.021 A 
HETATM   14  C12 UNL     1       6.782   0.084   0.162  1.00  0.00     0.011 A 
HETATM   15 BR1  UNL     1       8.697   0.225   0.321  1.00  0.00    -0.051 Br
HETATM   16  C13 UNL     1       6.008   0.726   1.103  1.00  0.00     0.021 A 
HETATM   17  C14 UNL     1       4.621   0.642   1.012  1.00  0.00     0.031 A 
ENDBRANCH   9  11
ENDBRANCH   4   7
BRANCH   1  18
HETATM   18  N1  UNL     1      -3.980  -0.093  -0.448  1.00  0.00    -0.384 N 
HETATM   19  C1  UNL     1      -4.895  -1.048   0.167  1.00  0.00     0.149 C 
BRANCH  18  20
HETATM   20  C2  UNL     1      -4.562   0.977  -1.231  1.00  0.00     0.137 C 
BRANCH  20  21
HETATM   21  C3  UNL     1      -5.332   1.967  -0.384  1.00  0.00     0.134 C 
HETATM   22 CL1  UNL     1      -4.246   2.700   0.809  1.00  0.00    -0.129 Cl
ENDBRANCH  20  21
ENDBRANCH  18  20
ENDBRANCH   1  18
TORSDOF 5
