REMARK  9 active torsions:
REMARK  status: ('A' for Active; 'I' for Inactive)
REMARK    1  A    between atoms: C3_3  and  C4_4 
REMARK    2  A    between atoms: C4_4  and  C5_5 
REMARK    3  A    between atoms: C6_6  and  N1_7 
REMARK       I    between atoms: N1_7  and  C8_9 
REMARK    4  A    between atoms: C8_9  and  C9_11 
REMARK    5  A    between atoms: C12_14  and  C13_15 
REMARK    6  A    between atoms: C12_14  and  C15_18 
REMARK    7  A    between atoms: C13_15  and  C14_16 
REMARK    8  A    between atoms: C15_18  and  C16_19 
REMARK    9  A    between atoms: C17_21  and  N2_22 
ROOT
HETATM    1  C9  UNL     1      -1.163  -0.427  -0.172  1.00  0.00     0.134 C 
HETATM    2  C10 UNL     1      -1.377  -0.541   1.298  1.00  0.00    -0.014 C 
HETATM    3  C11 UNL     1      -2.644  -0.925   1.567  1.00  0.00    -0.018 C 
HETATM    4  C12 UNL     1      -3.358  -1.090   0.256  1.00  0.00     0.011 C 
HETATM    5  C17 UNL     1      -2.552  -0.195  -0.680  1.00  0.00     0.246 C 
ENDROOT
BRANCH   1   6
HETATM    6  C8  UNL     1      -0.229   0.644  -0.516  1.00  0.00     0.233 C 
HETATM    7  N1  UNL     1       1.135   0.723  -0.152  1.00  0.00    -0.332 N 
HETATM    8  C7  UNL     1       1.674  -0.387   0.609  1.00  0.00     0.158 C 
HETATM    9  O1  UNL     1      -0.645   1.627  -1.213  1.00  0.00    -0.272 OA
BRANCH   7  10
HETATM   10  C6  UNL     1       1.916   1.839  -0.541  1.00  0.00     0.089 C 
HETATM   11  C5  UNL     1       3.170   2.104  -0.294  1.00  0.00    -0.006 C 
BRANCH  11  12
HETATM   12  C4  UNL     1       4.344   1.565   0.387  1.00  0.00     0.055 C 
BRANCH  12  13
HETATM   13  C3  UNL     1       5.459   1.348  -0.601  1.00  0.00    -0.027 C 
HETATM   14  C2  UNL     1       6.645   1.973  -0.482  1.00  0.00    -0.035 C 
HETATM   15  C1  UNL     1       7.860   1.891  -1.346  1.00  0.00     0.036 C 
ENDBRANCH  12  13
ENDBRANCH  11  12
ENDBRANCH   7  10
ENDBRANCH   1   6
BRANCH   5  16
HETATM   16  N2  UNL     1      -2.738  -0.636  -2.051  1.00  0.00     0.085 N 
HETATM   17  H25 UNL     1      -2.297   0.028  -2.701  1.00  0.00     0.313 HD
HETATM   18  H26 UNL     1      -2.377  -1.590  -2.248  1.00  0.00     0.313 HD
ENDBRANCH   5  16
BRANCH   4  19
HETATM   19  C13 UNL     1      -3.260  -2.529  -0.153  1.00  0.00     0.030 C 
BRANCH  19  20
HETATM   20  C14 UNL     1      -3.901  -3.392   0.905  1.00  0.00     0.116 C 
HETATM   21 CL1  UNL     1      -3.773  -5.113   0.441  1.00  0.00    -0.130 Cl
ENDBRANCH  19  20
ENDBRANCH   4  19
BRANCH   4  22
HETATM   22  C15 UNL     1      -4.755  -0.615   0.435  1.00  0.00     0.030 C 
BRANCH  22  23
HETATM   23  C16 UNL     1      -4.880   0.838   0.841  1.00  0.00     0.116 C 
HETATM   24 CL2  UNL     1      -6.652   1.128   0.998  1.00  0.00    -0.130 Cl
ENDBRANCH  22  23
ENDBRANCH   4  22
TORSDOF 9
