REMARK  6 active torsions:
REMARK  status: ('A' for Active; 'I' for Inactive)
REMARK    1  A    between atoms: C2_2  and  C3_3 
REMARK    2  A    between atoms: C3_3  and  C4_4 
REMARK    3  A    between atoms: C4_4  and  N1_5 
REMARK       I    between atoms: N1_5  and  C5_6 
REMARK    4  A    between atoms: C5_6  and  C6_8 
REMARK    5  A    between atoms: N2_12  and  C10_13 
REMARK    6  A    between atoms: C10_13  and  C11_14 
ROOT
HETATM    1  C6  UNL     1      -0.185  -0.520  -0.278  1.00  0.00     0.031 C 
HETATM    2  C7  UNL     1      -0.852  -1.166  -1.212  1.00  0.00     0.018 C 
HETATM    3  C8  UNL     1      -2.136  -0.894  -1.816  1.00  0.00     0.018 C 
HETATM    4  C9  UNL     1      -3.112  -0.013  -1.677  1.00  0.00     0.085 C 
HETATM    5  N2  UNL     1      -3.745   1.148  -1.054  1.00  0.00    -0.387 N 
HETATM    6  C12 UNL     1      -2.917   2.282  -1.308  1.00  0.00     0.146 C 
HETATM    7  C13 UNL     1      -2.157   2.855  -0.162  1.00  0.00     0.123 C 
HETATM    8 CL2  UNL     1      -1.330   4.340  -0.862  1.00  0.00    -0.119 Cl
HETATM    9  C14 UNL     1      -1.064   2.008   0.370  1.00  0.00    -0.004 C 
HETATM   10  C15 UNL     1      -0.593   0.813   0.114  1.00  0.00     0.014 C 
ENDROOT
BRANCH   1  11
HETATM   11  C5  UNL     1       1.091  -1.100   0.120  1.00  0.00     0.251 C 
HETATM   12  N1  UNL     1       2.006  -0.629   1.088  1.00  0.00    -0.357 N 
HETATM   13  H10 UNL     1       1.745   0.244   1.591  1.00  0.00     0.162 HD
HETATM   14  O1  UNL     1       1.536  -2.148  -0.393  1.00  0.00    -0.268 OA
BRANCH  12  15
HETATM   15  C4  UNL     1       3.240  -1.270   1.409  1.00  0.00     0.123 C 
BRANCH  15  16
HETATM   16  C3  UNL     1       4.209  -1.404   0.273  1.00  0.00     0.019 C 
BRANCH  16  17
HETATM   17  C2  UNL     1       5.456  -2.106   0.828  1.00  0.00    -0.003 C 
HETATM   18  C1  UNL     1       6.076  -1.290   1.954  1.00  0.00     0.005 C 
ENDBRANCH  16  17
ENDBRANCH  15  16
ENDBRANCH  12  15
ENDBRANCH   1  11
BRANCH   5  19
HETATM   19  C10 UNL     1      -4.944   0.724  -0.409  1.00  0.00     0.137 C 
BRANCH  19  20
HETATM   20  C11 UNL     1      -5.069   0.684   1.055  1.00  0.00     0.134 C 
HETATM   21 CL1  UNL     1      -4.988   2.171   1.959  1.00  0.00    -0.129 Cl
ENDBRANCH  19  20
ENDBRANCH   5  19
TORSDOF 6
