REMARK  1 active torsions:
REMARK  status: ('A' for Active; 'I' for Inactive)
REMARK    1  A    between atoms: C6_7  and  C7_8 
ROOT
HETATM    1  C1  UNL     1      -4.193  -0.350  -0.086  1.00  0.00     0.101 C 
HETATM    2  C2  UNL     1      -3.652  -1.040  -1.112  1.00  0.00     0.100 C 
HETATM    3  N1  UNL     1      -2.551  -1.864  -1.554  1.00  0.00    -0.392 N 
HETATM    4  C3  UNL     1      -1.433  -1.860  -0.664  1.00  0.00     0.176 C 
HETATM    5  C4  UNL     1      -0.671  -0.605  -0.556  1.00  0.00     0.031 A 
HETATM    6  C5  UNL     1       0.631  -0.830  -0.285  1.00  0.00     0.039 A 
HETATM    7  C6  UNL     1       1.671   0.169  -0.110  1.00  0.00    -0.026 A 
HETATM    8  C13 UNL     1       1.302   1.430  -0.229  1.00  0.00     0.005 A 
HETATM    9  C14 UNL     1      -0.059   1.880  -0.519  1.00  0.00     0.158 A 
HETATM   10  N2  UNL     1      -0.976   0.778  -0.665  1.00  0.00    -0.340 N 
HETATM   11  C15 UNL     1      -2.250   1.352  -0.942  1.00  0.00     0.205 C 
HETATM   12  N3  UNL     1      -2.723   1.185   0.273  1.00  0.00    -0.265 NA
HETATM   13  C16 UNL     1      -4.092   1.633   0.530  1.00  0.00     0.271 C 
HETATM   14  N4  UNL     1      -4.860   0.421   0.952  1.00  0.00    -0.380 N 
HETATM   15  H3  UNL     1      -3.029  -2.173  -2.420  1.00  0.00     0.159 HD
HETATM   16  H18 UNL     1      -5.510  -0.254   1.437  1.00  0.00     0.160 HD
ENDROOT
BRANCH   7  17
HETATM   17  C7  UNL     1       3.060  -0.132   0.183  1.00  0.00    -0.026 A 
HETATM   18  C8  UNL     1       3.984   0.844   0.351  1.00  0.00     0.012 A 
HETATM   19  C9  UNL     1       5.315   0.595   0.627  1.00  0.00     0.001 A 
HETATM   20  C10 UNL     1       5.785  -0.713   0.751  1.00  0.00     0.000 A 
HETATM   21  C11 UNL     1       4.853  -1.729   0.582  1.00  0.00     0.001 A 
HETATM   22  C12 UNL     1       3.557  -1.410   0.311  1.00  0.00     0.012 A 
ENDBRANCH   7  17
TORSDOF 1
