REMARK  9 active torsions:
REMARK  status: ('A' for Active; 'I' for Inactive)
REMARK    1  A    between atoms: C2_2  and  C3_3 
REMARK    2  A    between atoms: C3_3  and  C4_4 
REMARK    3  A    between atoms: C4_4  and  N1_5 
REMARK       I    between atoms: N1_5  and  C5_6 
REMARK    4  A    between atoms: C5_6  and  C6_8 
REMARK    5  A    between atoms: C9_11  and  N2_12 
REMARK    6  A    between atoms: N2_12  and  C10_13 
REMARK    7  A    between atoms: N2_12  and  C12_16 
REMARK    8  A    between atoms: C10_13  and  C11_14 
REMARK    9  A    between atoms: C12_16  and  C13_17 
ROOT
HETATM    1  C6  UNL     1      -0.647   0.572  -0.639  1.00  0.00     0.032 A 
HETATM    2  C7  UNL     1       0.088  -0.361  -1.335  1.00  0.00     0.019 A 
HETATM    3  C8  UNL     1       1.440  -0.516  -1.122  1.00  0.00     0.030 A 
HETATM    4  C9  UNL     1       2.151   0.232  -0.216  1.00  0.00     0.030 A 
HETATM    5  C14 UNL     1       1.415   1.164   0.479  1.00  0.00     0.030 A 
HETATM    6  C15 UNL     1       0.060   1.329   0.275  1.00  0.00     0.019 A 
ENDROOT
BRANCH   1   7
HETATM    7  C5  UNL     1      -2.076   0.823  -0.768  1.00  0.00     0.251 C 
HETATM    8  N1  UNL     1      -2.973   0.111  -1.600  1.00  0.00    -0.357 N 
HETATM    9  H10 UNL     1      -2.569  -0.679  -2.184  1.00  0.00     0.162 HD
HETATM   10  O1  UNL     1      -2.648   1.746  -0.110  1.00  0.00    -0.268 OA
BRANCH   8  11
HETATM   11  C4  UNL     1      -4.377   0.448  -1.649  1.00  0.00     0.123 C 
BRANCH  11  12
HETATM   12  C3  UNL     1      -5.078   0.333  -0.340  1.00  0.00     0.019 C 
BRANCH  12  13
HETATM   13  C2  UNL     1      -5.060  -1.027   0.283  1.00  0.00    -0.003 C 
HETATM   14  C1  UNL     1      -5.823  -0.926   1.608  1.00  0.00     0.005 C 
ENDBRANCH  12  13
ENDBRANCH  11  12
ENDBRANCH   8  11
ENDBRANCH   1   7
BRANCH   4  15
HETATM   15  N2  UNL     1       3.543   0.049  -0.025  1.00  0.00    -0.379 N 
BRANCH  15  16
HETATM   16  C10 UNL     1       4.341  -0.901  -0.765  1.00  0.00     0.138 C 
BRANCH  16  17
HETATM   17  C11 UNL     1       4.820  -2.060   0.101  1.00  0.00     0.134 C 
HETATM   18 CL1  UNL     1       3.468  -2.968   0.803  1.00  0.00    -0.129 Cl
ENDBRANCH  16  17
ENDBRANCH  15  16
BRANCH  15  19
HETATM   19  C12 UNL     1       4.312   0.784   0.945  1.00  0.00     0.138 C 
BRANCH  19  20
HETATM   20  C13 UNL     1       5.305   1.741   0.377  1.00  0.00     0.134 C 
HETATM   21 CL2  UNL     1       6.179   2.597   1.699  1.00  0.00    -0.129 Cl
ENDBRANCH  19  20
ENDBRANCH  15  19
ENDBRANCH   4  15
TORSDOF 9
