REMARK  10 active torsions:
REMARK  status: ('A' for Active; 'I' for Inactive)
REMARK    1  A    between atoms: C2_2  and  C3_3 
REMARK    2  A    between atoms: C2_2  and  C4_5 
REMARK    3  A    between atoms: C3_3  and  N1_4 
REMARK    4  A    between atoms: C4_5  and  C5_6 
REMARK    5  A    between atoms: C5_6  and  C6_8 
REMARK    6  A    between atoms: C9_11  and  N2_12 
REMARK    7  A    between atoms: N2_12  and  C10_13 
REMARK    8  A    between atoms: N2_12  and  C12_16 
REMARK    9  A    between atoms: C10_13  and  C11_14 
REMARK   10  A    between atoms: C12_16  and  C13_17 
ROOT
HETATM    1  C6  UNL     1       0.658  -0.469  -0.208  1.00  0.00     0.010 A 
HETATM    2  C7  UNL     1       0.124   0.558   0.559  1.00  0.00     0.017 A 
HETATM    3  C8  UNL     1      -1.193   0.533   0.881  1.00  0.00     0.030 A 
HETATM    4  C9  UNL     1      -2.103  -0.434   0.523  1.00  0.00     0.030 A 
HETATM    5  C14 UNL     1      -1.523  -1.419  -0.230  1.00  0.00     0.030 A 
HETATM    6  C15 UNL     1      -0.209  -1.476  -0.602  1.00  0.00     0.017 A 
ENDROOT
BRANCH   1   7
HETATM    7  C5  UNL     1       2.075  -0.488  -0.589  1.00  0.00     0.160 C 
HETATM    8  O1  UNL     1       2.466  -1.481  -1.292  1.00  0.00    -0.292 OA
BRANCH   7   9
HETATM    9  C4  UNL     1       2.907   0.645  -0.120  1.00  0.00     0.089 C 
BRANCH   9  10
HETATM   10  C2  UNL     1       4.342   0.564  -0.529  1.00  0.00     0.016 C 
HETATM   11  C1  UNL     1       5.130   1.772  -0.012  1.00  0.00     0.012 C 
BRANCH  10  12
HETATM   12  C3  UNL     1       5.042  -0.644   0.074  1.00  0.00     0.271 C 
BRANCH  12  13
HETATM   13  N1  UNL     1       6.433  -0.701  -0.355  1.00  0.00     0.078 N 
HETATM   14  H7  UNL     1       6.588  -0.174  -1.222  1.00  0.00     0.312 HD
HETATM   15  H8  UNL     1       7.057  -0.337   0.378  1.00  0.00     0.312 HD
ENDBRANCH  12  13
ENDBRANCH  10  12
ENDBRANCH   9  10
ENDBRANCH   7   9
ENDBRANCH   1   7
BRANCH   4  16
HETATM   16  N2  UNL     1      -3.502  -0.402   0.882  1.00  0.00    -0.379 N 
BRANCH  16  17
HETATM   17  C10 UNL     1      -4.276  -1.530   0.417  1.00  0.00     0.138 C 
BRANCH  17  18
HETATM   18  C11 UNL     1      -5.175  -1.261  -0.760  1.00  0.00     0.134 C 
HETATM   19 CL1  UNL     1      -6.029  -2.794  -1.209  1.00  0.00    -0.129 Cl
ENDBRANCH  17  18
ENDBRANCH  16  17
BRANCH  16  20
HETATM   20  C12 UNL     1      -4.021   0.711   1.605  1.00  0.00     0.138 C 
BRANCH  20  21
HETATM   21  C13 UNL     1      -4.900   1.686   0.920  1.00  0.00     0.134 C 
HETATM   22 CL2  UNL     1      -5.269   2.965   2.163  1.00  0.00    -0.129 Cl
ENDBRANCH  20  21
ENDBRANCH  16  20
ENDBRANCH   4  16
TORSDOF 10
