REMARK  7 active torsions:
REMARK  status: ('A' for Active; 'I' for Inactive)
REMARK    1  A    between atoms: C1_2  and  C2_3 
REMARK    2  A    between atoms: C2_3  and  N1_4 
REMARK    3  A    between atoms: N1_4  and  C3_5 
REMARK    4  A    between atoms: N1_4  and  C5_8 
REMARK    5  A    between atoms: C3_5  and  C4_6 
REMARK    6  A    between atoms: C12_16  and  C13_17 
REMARK    7  A    between atoms: C13_17  and  N3_18 
ROOT
HETATM    1  C5  UNL     1      -1.036   0.105  -0.703  1.00  0.00     0.265 C 
HETATM    2  C6  UNL     1      -1.985   0.276  -1.838  1.00  0.00     0.065 C 
HETATM    3  C7  UNL     1      -2.373  -1.023  -2.475  1.00  0.00    -0.028 C 
HETATM    4  C8  UNL     1      -1.306  -1.817  -2.686  1.00  0.00    -0.028 C 
HETATM    5  C9  UNL     1       0.086  -1.393  -2.304  1.00  0.00     0.071 C 
HETATM    6  C10 UNL     1       0.022  -0.924  -0.863  1.00  0.00     0.198 C 
HETATM    7  N2  UNL     1       0.006  -2.017   0.075  1.00  0.00     0.096 N 
HETATM    8  C11 UNL     1       1.455  -2.004   0.046  1.00  0.00     0.279 C 
HETATM    9  C12 UNL     1       1.413  -0.564  -0.422  1.00  0.00     0.083 C 
HETATM   10  H16 UNL     1      -0.422  -1.823   0.984  1.00  0.00     0.317 HD
ENDROOT
BRANCH   1  11
HETATM   11  N1  UNL     1      -1.715   0.141   0.559  1.00  0.00     0.098 N 
BRANCH  11  12
HETATM   12  C2  UNL     1      -1.941   1.430   1.096  1.00  0.00     0.288 C 
BRANCH  12  13
HETATM   13  C1  UNL     1      -2.743   2.410   0.340  1.00  0.00     0.145 C 
HETATM   14 CL1  UNL     1      -2.789   3.907   1.357  1.00  0.00    -0.129 Cl
ENDBRANCH  12  13
ENDBRANCH  11  12
BRANCH  11  15
HETATM   15  C3  UNL     1      -2.968  -0.577   0.561  1.00  0.00     0.288 C 
BRANCH  15  16
HETATM   16  C4  UNL     1      -3.471  -0.946   1.933  1.00  0.00     0.145 C 
HETATM   17 CL2  UNL     1      -5.044  -1.824   1.785  1.00  0.00    -0.129 Cl
ENDBRANCH  15  16
ENDBRANCH  11  15
ENDBRANCH   1  11
BRANCH   9  18
HETATM   18  C13 UNL     1       1.585   0.426   0.670  1.00  0.00     0.284 C 
BRANCH  18  19
HETATM   19  N3  UNL     1       2.904   0.738   1.067  1.00  0.00     0.113 N 
HETATM   20  C14 UNL     1       3.685   1.460   0.108  1.00  0.00     0.301 C 
HETATM   21  C15 UNL     1       5.021   1.457   0.821  1.00  0.00     0.200 C 
HETATM   22  O1  UNL     1       4.941   0.455   1.805  1.00  0.00    -0.361 OA
HETATM   23  C16 UNL     1       3.763  -0.278   1.521  1.00  0.00     0.440 C 
ENDBRANCH  18  19
ENDBRANCH   9  18
TORSDOF 7
