REMARK  7 active torsions:
REMARK  status: ('A' for Active; 'I' for Inactive)
REMARK       I    between atoms: C1_2  and  N1_3 
REMARK    1  A    between atoms: C1_2  and  C6_8 
REMARK    2  A    between atoms: N1_3  and  C2_4 
REMARK    3  A    between atoms: C9_11  and  N2_12 
REMARK    4  A    between atoms: N2_12  and  C10_13 
REMARK    5  A    between atoms: N2_12  and  C12_16 
REMARK    6  A    between atoms: C10_13  and  C11_14 
REMARK    7  A    between atoms: C12_16  and  C13_17 
ROOT
HETATM    1  C6  UNL     1       0.692   0.577   0.861  1.00  0.00     0.036 C 
HETATM    2  C7  UNL     1      -0.347  -0.285   1.040  1.00  0.00    -0.015 C 
HETATM    3  C8  UNL     1      -1.467  -0.770   0.464  1.00  0.00     0.024 C 
HETATM    4  C9  UNL     1      -1.946  -0.405  -0.769  1.00  0.00     0.015 C 
HETATM    5  C14 UNL     1      -1.209   0.534  -1.454  1.00  0.00    -0.057 C 
HETATM    6  B1  UNL     1      -0.796   2.039  -0.588  1.00  0.00     0.200 B 
ENDROOT
BRANCH   1   7
HETATM    7  C1  UNL     1       1.603   1.622   0.516  1.00  0.00     0.221 C 
HETATM    8  O1  UNL     1       1.953   2.703  -0.077  1.00  0.00    -0.273 OA
HETATM    9  N1  UNL     1       2.823   1.334   1.200  1.00  0.00    -0.356 N 
HETATM   10  H1  UNL     1       2.965   0.496   1.830  1.00  0.00     0.162 HD
BRANCH   9  11
HETATM   11  C2  UNL     1       4.114   2.027   1.245  1.00  0.00     0.084 C 
HETATM   12  C3  UNL     1       5.321   1.155   1.042  1.00  0.00     0.025 C 
HETATM   13  C4  UNL     1       5.324   0.942   2.557  1.00  0.00     0.004 C 
HETATM   14  C5  UNL     1       4.627   2.298   2.650  1.00  0.00     0.025 C 
ENDBRANCH   9  11
ENDBRANCH   1   7
BRANCH   4  15
HETATM   15  N2  UNL     1      -3.144  -1.059  -1.199  1.00  0.00    -0.380 N 
BRANCH  15  16
HETATM   16  C10 UNL     1      -3.797  -2.032  -0.350  1.00  0.00     0.138 C 
BRANCH  16  17
HETATM   17  C11 UNL     1      -3.620  -3.406  -0.944  1.00  0.00     0.134 C 
HETATM   18 CL1  UNL     1      -4.379  -4.647   0.109  1.00  0.00    -0.129 Cl
ENDBRANCH  16  17
ENDBRANCH  15  16
BRANCH  15  19
HETATM   19  C12 UNL     1      -3.893  -0.961  -2.403  1.00  0.00     0.138 C 
BRANCH  19  20
HETATM   20  C13 UNL     1      -3.489   0.067  -3.410  1.00  0.00     0.134 C 
HETATM   21 CL2  UNL     1      -3.531   1.728  -2.834  1.00  0.00    -0.129 Cl
ENDBRANCH  19  20
ENDBRANCH  15  19
ENDBRANCH   4  15
TORSDOF 7
