REMARK  8 active torsions:
REMARK  status: ('A' for Active; 'I' for Inactive)
REMARK       I    between atoms: C1_2  and  N1_3 
REMARK    1  A    between atoms: C1_2  and  C9_11 
REMARK    2  A    between atoms: N1_3  and  C2_4 
REMARK    3  A    between atoms: C2_4  and  C3_5 
REMARK    4  A    between atoms: C11_13  and  N2_14 
REMARK    5  A    between atoms: N2_14  and  C12_15 
REMARK    6  A    between atoms: N2_14  and  C14_18 
REMARK    7  A    between atoms: C12_15  and  C13_16 
REMARK    8  A    between atoms: C14_18  and  C15_19 
ROOT
HETATM    1  C9  UNL     1      -0.259   0.707   0.378  1.00  0.00     0.011 C 
HETATM    2  C10 UNL     1      -1.377   0.426   1.019  1.00  0.00     0.025 C 
HETATM    3  C11 UNL     1      -2.742   0.778   0.538  1.00  0.00     0.269 C 
HETATM    4  C16 UNL     1      -2.685   1.690  -0.629  1.00  0.00     0.009 C 
HETATM    5  C17 UNL     1      -1.558   1.979  -1.277  1.00  0.00    -0.024 C 
HETATM    6  C18 UNL     1      -0.232   1.419  -0.906  1.00  0.00     0.071 C 
ENDROOT
BRANCH   1   7
HETATM    7  C1  UNL     1       0.965   0.265   1.031  1.00  0.00     0.247 C 
HETATM    8  O1  UNL     1       0.904  -0.344   2.149  1.00  0.00    -0.268 OA
HETATM    9  N1  UNL     1       2.273   0.458   0.515  1.00  0.00    -0.353 N 
HETATM   10  H1  UNL     1       2.376   0.960  -0.397  1.00  0.00     0.163 HD
BRANCH   9  11
HETATM   11  C2  UNL     1       3.242  -0.129   1.443  1.00  0.00     0.161 C 
BRANCH  11  12
HETATM   12  C3  UNL     1       4.549  -0.109   0.741  1.00  0.00    -0.041 A 
HETATM   13  C4  UNL     1       4.739  -1.236  -0.051  1.00  0.00     0.009 A 
HETATM   14  C5  UNL     1       5.870  -1.447  -0.793  1.00  0.00     0.001 A 
HETATM   15  C6  UNL     1       6.848  -0.480  -0.732  1.00  0.00     0.000 A 
HETATM   16  C7  UNL     1       6.703   0.672   0.050  1.00  0.00     0.001 A 
HETATM   17  C8  UNL     1       5.539   0.837   0.781  1.00  0.00     0.009 A 
ENDBRANCH  11  12
ENDBRANCH   9  11
ENDBRANCH   1   7
BRANCH   3  18
HETATM   18  N2  UNL     1      -3.475  -0.408   0.164  1.00  0.00     0.102 N 
BRANCH  18  19
HETATM   19  C12 UNL     1      -4.819  -0.087  -0.203  1.00  0.00     0.288 C 
BRANCH  19  20
HETATM   20  C13 UNL     1      -5.652   0.378   0.977  1.00  0.00     0.145 C 
HETATM   21 CL1  UNL     1      -5.762  -0.853   2.243  1.00  0.00    -0.129 Cl
ENDBRANCH  19  20
ENDBRANCH  18  19
BRANCH  18  22
HETATM   22  C14 UNL     1      -2.732  -1.062  -0.882  1.00  0.00     0.288 C 
BRANCH  22  23
HETATM   23  C15 UNL     1      -3.354  -2.380  -1.300  1.00  0.00     0.145 C 
HETATM   24 CL2  UNL     1      -3.415  -3.479   0.106  1.00  0.00    -0.129 Cl
ENDBRANCH  22  23
ENDBRANCH  18  22
ENDBRANCH   3  18
TORSDOF 8
