REMARK  1 active torsions:
REMARK  status: ('A' for Active; 'I' for Inactive)
REMARK    1  A    between atoms: N1_1  and  S1_2 
ROOT
HETATM    1  S1  UNL     1      -0.285   2.854  -0.118  1.00  0.00    -0.094 SA
HETATM    2  C1  UNL     1      -1.172   3.194  -1.488  1.00  0.00     0.028 C 
HETATM    3  C2  UNL     1      -2.013   2.253  -1.773  1.00  0.00     0.039 C 
HETATM    4  C3  UNL     1      -2.356   1.026  -1.057  1.00  0.00     0.010 C 
HETATM    5 BR1  UNL     1      -2.857   1.885   0.622  1.00  0.00    -0.051 Br
HETATM    6  C4  UNL     1      -2.431  -0.302  -1.209  1.00  0.00     0.019 C 
HETATM    7  C5  UNL     1      -2.365  -1.637  -1.802  1.00  0.00     0.203 C 
HETATM    8  O1  UNL     1      -1.499  -2.535  -1.153  1.00  0.00    -0.357 OA
HETATM    9  C6  UNL     1      -1.181  -3.775  -1.574  1.00  0.00     0.170 C 
HETATM   10  C7  UNL     1      -0.150  -4.385  -0.997  1.00  0.00     0.130 C 
HETATM   11  N2  UNL     1       0.237  -4.060   0.193  1.00  0.00    -0.175 NA
HETATM   12  N3  UNL     1      -0.006  -2.701   0.533  1.00  0.00    -0.309 N 
HETATM   13  C8  UNL     1       0.307  -1.359   0.542  1.00  0.00     0.180 C 
HETATM   14  C9  UNL     1       1.312  -0.619   1.233  1.00  0.00    -0.032 A 
HETATM   15  C10 UNL     1       2.132  -0.955   2.256  1.00  0.00     0.009 A 
HETATM   16  C11 UNL     1       3.041  -0.113   2.853  1.00  0.00     0.001 A 
HETATM   17  C12 UNL     1       3.094   1.166   2.346  1.00  0.00     0.001 A 
HETATM   18  C13 UNL     1       2.272   1.540   1.304  1.00  0.00     0.008 A 
HETATM   19  C14 UNL     1       1.361   0.699   0.702  1.00  0.00    -0.040 A 
HETATM   20  C15 UNL     1       0.582   1.262  -0.428  1.00  0.00     0.128 C 
HETATM   21  H8  UNL     1      -0.876  -3.099   1.012  1.00  0.00     0.182 HD
ENDROOT
BRANCH   1  22
HETATM   22  N1  UNL     1       0.658   4.295   0.365  1.00  0.00    -0.379 N 
HETATM   23  H1  UNL     1       1.068   4.814  -0.425  1.00  0.00     0.163 HD
HETATM   24  H2  UNL     1       0.223   4.879   1.108  1.00  0.00     0.163 HD
ENDBRANCH   1  22
TORSDOF 1
