REMARK  8 active torsions:
REMARK  status: ('A' for Active; 'I' for Inactive)
REMARK    1  A    between atoms: N1_1  and  C1_2 
REMARK    2  A    between atoms: C1_2  and  C2_3 
REMARK    3  A    between atoms: C1_2  and  C12_16 
REMARK    4  A    between atoms: C5_6  and  N2_7 
REMARK    5  A    between atoms: N2_7  and  C6_8 
REMARK    6  A    between atoms: N2_7  and  C8_11 
REMARK    7  A    between atoms: C6_8  and  C7_9 
REMARK    8  A    between atoms: C8_11  and  C9_12 
ROOT
HETATM    1  C2  UNL     1      -0.942  -0.541   0.732  1.00  0.00    -0.025 A 
HETATM    2  C3  UNL     1      -0.085  -1.501   0.235  1.00  0.00     0.011 A 
HETATM    3  C4  UNL     1       1.215  -1.139  -0.046  1.00  0.00     0.030 A 
HETATM    4  C5  UNL     1       1.761   0.113   0.124  1.00  0.00     0.030 A 
HETATM    5  C10 UNL     1       0.857   1.022   0.622  1.00  0.00     0.030 A 
HETATM    6  C11 UNL     1      -0.457   0.737   0.926  1.00  0.00     0.011 A 
ENDROOT
BRANCH   1   7
HETATM    7  C1  UNL     1      -2.368  -0.866   1.040  1.00  0.00     0.262 C 
BRANCH   7   8
HETATM    8  N1  UNL     1      -2.465  -2.141   1.714  1.00  0.00     0.088 N 
HETATM    9  H1  UNL     1      -1.653  -2.326   2.348  1.00  0.00     0.313 HD
HETATM   10  H2  UNL     1      -2.636  -2.914   1.022  1.00  0.00     0.313 HD
ENDBRANCH   7   8
BRANCH   7  11
HETATM   11  C12 UNL     1      -3.210  -0.913  -0.201  1.00  0.00     0.092 C 
HETATM   12  C13 UNL     1      -4.640  -1.185   0.190  1.00  0.00     0.015 C 
HETATM   13  C14 UNL     1      -5.314   0.170   0.236  1.00  0.00     0.008 C 
HETATM   14  C15 UNL     1      -4.211   1.136  -0.090  1.00  0.00     0.079 C 
HETATM   15  C16 UNL     1      -3.219   0.386  -0.927  1.00  0.00     0.133 C 
HETATM   16  O1  UNL     1      -2.665   0.877  -1.913  1.00  0.00    -0.298 OA
ENDBRANCH   7  11
ENDBRANCH   1   7
BRANCH   4  17
HETATM   17  N2  UNL     1       3.102   0.442  -0.179  1.00  0.00    -0.379 N 
BRANCH  17  18
HETATM   18  C6  UNL     1       4.057  -0.505  -0.690  1.00  0.00     0.138 C 
BRANCH  18  19
HETATM   19  C7  UNL     1       5.148  -0.779   0.345  1.00  0.00     0.134 C 
HETATM   20 CL1  UNL     1       6.262  -1.963  -0.380  1.00  0.00    -0.129 Cl
ENDBRANCH  18  19
ENDBRANCH  17  18
BRANCH  17  21
HETATM   21  C8  UNL     1       3.644   1.755  -0.016  1.00  0.00     0.138 C 
BRANCH  21  22
HETATM   22  C9  UNL     1       3.921   2.358  -1.371  1.00  0.00     0.134 C 
HETATM   23 CL2  UNL     1       4.575   4.010  -1.115  1.00  0.00    -0.129 Cl
ENDBRANCH  21  22
ENDBRANCH  17  21
ENDBRANCH   4  17
TORSDOF 8
