REMARK  7 active torsions:
REMARK  status: ('A' for Active; 'I' for Inactive)
REMARK    1  A    between atoms: C1_2  and  C2_3 
REMARK    2  A    between atoms: C1_2  and  C12_16 
REMARK    3  A    between atoms: C5_6  and  N1_7 
REMARK    4  A    between atoms: N1_7  and  C6_8 
REMARK    5  A    between atoms: N1_7  and  C8_11 
REMARK    6  A    between atoms: C6_8  and  C7_9 
REMARK    7  A    between atoms: C8_11  and  C9_12 
ROOT
HETATM    1  C2  UNL     1       1.081   0.735   0.129  1.00  0.00     0.010 A 
HETATM    2  C3  UNL     1       0.487   0.342  -1.049  1.00  0.00     0.017 A 
HETATM    3  C4  UNL     1      -0.886   0.324  -1.121  1.00  0.00     0.030 A 
HETATM    4  C5  UNL     1      -1.769   0.664  -0.123  1.00  0.00     0.030 A 
HETATM    5  C10 UNL     1      -1.105   1.044   1.023  1.00  0.00     0.030 A 
HETATM    6  C11 UNL     1       0.259   1.090   1.177  1.00  0.00     0.017 A 
ENDROOT
BRANCH   1   7
HETATM    7  C1  UNL     1       2.520   0.765   0.266  1.00  0.00     0.163 C 
HETATM    8  O1  UNL     1       3.028   1.183   1.344  1.00  0.00    -0.292 OA
BRANCH   7   9
HETATM    9  C12 UNL     1       3.423   0.328  -0.802  1.00  0.00     0.060 C 
HETATM   10  C13 UNL     1       3.359  -1.143  -1.112  1.00  0.00     0.012 C 
HETATM   11  C14 UNL     1       4.517  -1.781  -0.392  1.00  0.00     0.001 C 
HETATM   12  C15 UNL     1       5.296  -0.679   0.288  1.00  0.00     0.001 C 
HETATM   13  C16 UNL     1       4.869   0.550  -0.439  1.00  0.00     0.012 C 
ENDBRANCH   7   9
ENDBRANCH   1   7
BRANCH   4  14
HETATM   14  N1  UNL     1      -3.206   0.637  -0.228  1.00  0.00    -0.379 N 
BRANCH  14  15
HETATM   15  C6  UNL     1      -3.947   1.019   0.946  1.00  0.00     0.138 C 
BRANCH  15  16
HETATM   16  C7  UNL     1      -4.651  -0.052   1.695  1.00  0.00     0.134 C 
HETATM   17 CL1  UNL     1      -5.408   0.779   3.122  1.00  0.00    -0.129 Cl
ENDBRANCH  15  16
ENDBRANCH  14  15
BRANCH  14  18
HETATM   18  C8  UNL     1      -3.752   0.207  -1.494  1.00  0.00     0.138 C 
BRANCH  18  19
HETATM   19  C9  UNL     1      -4.380  -1.145  -1.523  1.00  0.00     0.134 C 
HETATM   20 CL2  UNL     1      -4.948  -1.529  -3.199  1.00  0.00    -0.129 Cl
ENDBRANCH  18  19
ENDBRANCH  14  18
ENDBRANCH   4  14
TORSDOF 7
