REMARK  7 active torsions:
REMARK  status: ('A' for Active; 'I' for Inactive)
REMARK       I    between atoms: C1_2  and  N1_3 
REMARK    1  A    between atoms: C1_2  and  C11_13 
REMARK    2  A    between atoms: N1_3  and  C2_4 
REMARK    3  A    between atoms: C14_16  and  N2_17 
REMARK    4  A    between atoms: N2_17  and  C15_18 
REMARK    5  A    between atoms: N2_17  and  C17_21 
REMARK    6  A    between atoms: C15_18  and  C16_19 
REMARK    7  A    between atoms: C17_21  and  C18_22 
ROOT
HETATM    1  C11 UNL     1       0.147   0.097  -0.803  1.00  0.00     0.032 A 
HETATM    2  C12 UNL     1      -0.583  -0.426  -1.851  1.00  0.00     0.019 A 
HETATM    3  C13 UNL     1      -1.937  -0.267  -1.830  1.00  0.00     0.030 A 
HETATM    4  C14 UNL     1      -2.696   0.360  -0.883  1.00  0.00     0.030 A 
HETATM    5  C19 UNL     1      -1.899   0.846   0.114  1.00  0.00     0.030 A 
HETATM    6  C20 UNL     1      -0.532   0.748   0.202  1.00  0.00     0.019 A 
ENDROOT
BRANCH   1   7
HETATM    7  C1  UNL     1       1.592  -0.070  -0.792  1.00  0.00     0.251 C 
HETATM    8  O1  UNL     1       2.165  -0.723  -1.711  1.00  0.00    -0.268 OA
HETATM    9  N1  UNL     1       2.475   0.439   0.182  1.00  0.00    -0.353 N 
HETATM   10  H1  UNL     1       2.098   0.988   0.968  1.00  0.00     0.163 HD
BRANCH   9  11
HETATM   11  C2  UNL     1       3.874   0.251   0.166  1.00  0.00     0.080 A 
HETATM   12  C3  UNL     1       4.605   1.546   0.506  1.00  0.00     0.001 A 
HETATM   13  C4  UNL     1       4.489   0.362   1.074  1.00  0.00     0.047 A 
HETATM   14  C5  UNL     1       4.470  -1.109   1.748  1.00  0.00    -0.015 A 
HETATM   15  C8  UNL     1       5.979  -0.497   0.919  1.00  0.00     0.005 A 
HETATM   16  C6  UNL     1       5.638  -1.758   1.796  1.00  0.00     0.034 A 
HETATM   17  C10 UNL     1       3.238  -0.911   2.010  1.00  0.00     0.013 A 
HETATM   18  C9  UNL     1       4.455  -0.587   1.440  1.00  0.00    -0.009 A 
HETATM   19  C7  UNL     1       6.894  -1.661   1.349  1.00  0.00    -0.017 A 
ENDBRANCH   9  11
ENDBRANCH   1   7
BRANCH   4  20
HETATM   20  N2  UNL     1      -4.124   0.484  -0.850  1.00  0.00    -0.379 N 
BRANCH  20  21
HETATM   21  C15 UNL     1      -5.174  -0.012  -1.651  1.00  0.00     0.138 C 
BRANCH  21  22
HETATM   22  C16 UNL     1      -4.881  -0.775  -2.894  1.00  0.00     0.134 C 
HETATM   23 CL1  UNL     1      -6.515  -1.206  -3.592  1.00  0.00    -0.129 Cl
ENDBRANCH  21  22
ENDBRANCH  20  21
BRANCH  20  24
HETATM   24  C17 UNL     1      -4.599   1.304   0.239  1.00  0.00     0.138 C 
BRANCH  24  25
HETATM   25  C18 UNL     1      -5.282   0.643   1.368  1.00  0.00     0.134 C 
HETATM   26 CL2  UNL     1      -6.782  -0.191   1.066  1.00  0.00    -0.129 Cl
ENDBRANCH  24  25
ENDBRANCH  20  24
ENDBRANCH   4  20
TORSDOF 7
