REMARK  7 active torsions:
REMARK  status: ('A' for Active; 'I' for Inactive)
REMARK    1  A    between atoms: C8_8  and  N1_9 
REMARK    2  A    between atoms: N1_9  and  C9_10 
REMARK    3  A    between atoms: C11_13  and  O1_14 
REMARK    4  A    between atoms: C14_17  and  C15_18 
REMARK    5  A    between atoms: C15_18  and  C16_19 
REMARK    6  A    between atoms: C16_19  and  O2_20 
REMARK    7  A    between atoms: C20_25  and  O4_26 
ROOT
HETATM    1  C1  UNL     1      -1.345  -2.927  -3.642  1.00  0.00     0.018 C 
HETATM    2  C2  UNL     1      -1.779  -2.356  -2.665  1.00  0.00    -0.078 C 
HETATM    3  C3  UNL     1      -2.312  -1.687  -1.517  1.00  0.00     0.019 A 
HETATM    4  C4  UNL     1      -3.623  -1.327  -1.507  1.00  0.00     0.021 A 
HETATM    5  C5  UNL     1      -4.138  -0.693  -0.427  1.00  0.00     0.010 A 
HETATM    6  C6  UNL     1      -3.334  -0.429   0.630  1.00  0.00    -0.035 A 
HETATM    7  C7  UNL     1      -3.940   0.267   1.805  1.00  0.00     0.050 C 
HETATM    8  C8  UNL     1      -1.970  -0.773   0.688  1.00  0.00     0.040 A 
HETATM    9  C22 UNL     1      -1.528  -1.411  -0.446  1.00  0.00     0.050 A 
ENDROOT
BRANCH   8  10
HETATM   10  N1  UNL     1      -1.127  -0.456   1.860  1.00  0.00    -0.353 N 
HETATM   11  H7  UNL     1      -1.730   0.034   2.607  1.00  0.00     0.166 HD
BRANCH  10  12
HETATM   12  C9  UNL     1       0.202  -0.960   1.720  1.00  0.00     0.074 C 
HETATM   13  C10 UNL     1       0.579  -2.252   1.804  1.00  0.00     0.113 C 
HETATM   14  N2  UNL     1       1.571  -2.599   1.015  1.00  0.00    -0.240 NA
HETATM   15  C11 UNL     1       2.704  -1.721   0.754  1.00  0.00     0.201 C 
HETATM   16  C12 UNL     1       2.583  -0.697   1.859  1.00  0.00     0.052 C 
HETATM   17  C20 UNL     1       2.706  -1.068  -0.592  1.00  0.00     0.206 C 
HETATM   18  C13 UNL     1       1.392  -0.139   1.444  1.00  0.00     0.002 C 
HETATM   19  C14 UNL     1       0.854   1.105   0.745  1.00  0.00    -0.022 C 
HETATM   20  C18 UNL     1       1.480   1.617  -0.352  1.00  0.00     0.142 C 
HETATM   21  O3  UNL     1       2.821   1.392  -0.850  1.00  0.00    -0.360 OA
HETATM   22  C19 UNL     1       3.576   0.145  -0.742  1.00  0.00     0.211 C 
BRANCH  15  23
HETATM   23  O1  UNL     1       3.854  -2.469   0.884  1.00  0.00    -0.364 OA
HETATM   24  H8  UNL     1       3.723  -3.351   0.440  1.00  0.00     0.213 HD
ENDBRANCH  15  23
BRANCH  19  25
HETATM   25  C15 UNL     1      -0.244   1.460   1.584  1.00  0.00     0.067 C 
BRANCH  25  26
HETATM   26  C16 UNL     1      -0.103   3.006   1.584  1.00  0.00     0.171 C 
BRANCH  26  27
HETATM   27  O2  UNL     1      -0.293   3.600   0.390  1.00  0.00    -0.396 OA
HETATM   28  C17 UNL     1      -0.194   4.952   0.392  1.00  0.00     0.201 C 
ENDBRANCH  26  27
ENDBRANCH  25  26
ENDBRANCH  19  25
BRANCH  17  29
HETATM   29  O4  UNL     1       3.069  -2.047  -1.517  1.00  0.00    -0.383 OA
HETATM   30  C21 UNL     1       2.045  -2.324  -2.413  1.00  0.00     0.202 C 
ENDBRANCH  17  29
ENDBRANCH  10  12
ENDBRANCH   8  10
TORSDOF 7
