REMARK  3 active torsions:
REMARK  status: ('A' for Active; 'I' for Inactive)
REMARK    1  A    between atoms: N1_2  and  C2_4 
REMARK    2  A    between atoms: C5_7  and  C6_8 
REMARK       I    between atoms: C6_8  and  N2_10 
REMARK    3  A    between atoms: N2_10  and  C7_11 
ROOT
HETATM    1  C6  UNL     1       0.161   0.273   0.610  1.00  0.00     0.256 C 
HETATM    2  O1  UNL     1      -0.184  -0.242   1.692  1.00  0.00    -0.267 OA
HETATM    3  N2  UNL     1      -0.787   0.990  -0.174  1.00  0.00    -0.322 N 
HETATM    4  H6  UNL     1      -0.497   1.420  -1.079  1.00  0.00     0.169 HD
ENDROOT
BRANCH   3   5
HETATM    5  C7  UNL     1      -2.146   1.189   0.161  1.00  0.00     0.046 A 
HETATM    6  C8  UNL     1      -2.656   2.246   0.889  1.00  0.00     0.030 A 
HETATM    7  C9  UNL     1      -3.978   2.407   1.195  1.00  0.00     0.003 A 
HETATM    8  C10 UNL     1      -4.864   1.467   0.758  1.00  0.00     0.012 A 
HETATM    9  C11 UNL     1      -4.425   0.375   0.020  1.00  0.00    -0.024 A 
HETATM   10  C12 UNL     1      -5.343  -0.563  -0.410  1.00  0.00     0.012 A 
HETATM   11  C16 UNL     1      -3.077   0.243  -0.272  1.00  0.00     0.001 A 
HETATM   12  C13 UNL     1      -4.890  -1.640  -1.141  1.00  0.00     0.001 A 
HETATM   13  C14 UNL     1      -3.545  -1.811  -1.457  1.00  0.00     0.001 A 
HETATM   14  C15 UNL     1      -2.676  -0.841  -0.999  1.00  0.00     0.014 A 
ENDBRANCH   3   5
BRANCH   1  15
HETATM   15  C5  UNL     1       1.555   0.102   0.208  1.00  0.00     0.032 A 
HETATM   16  C4  UNL     1       2.395  -0.599   1.018  1.00  0.00     0.019 A 
HETATM   17  C3  UNL     1       3.732  -0.808   0.711  1.00  0.00     0.031 A 
HETATM   18  C2  UNL     1       4.275  -0.306  -0.447  1.00  0.00     0.045 A 
HETATM   19  C18 UNL     1       3.423   0.400  -1.261  1.00  0.00     0.031 A 
HETATM   20  C17 UNL     1       2.094   0.608  -0.957  1.00  0.00     0.019 A 
BRANCH  18  21
HETATM   21  N1  UNL     1       5.622  -0.490  -0.805  1.00  0.00    -0.295 N 
HETATM   22  C1  UNL     1       6.535  -1.232   0.043  1.00  0.00     0.171 C 
HETATM   23 CL1  UNL     1       6.232   0.173  -2.281  1.00  0.00     0.013 Cl
ENDBRANCH  18  21
ENDBRANCH   1  15
TORSDOF 3
