REMARK  5 active torsions:
REMARK  status: ('A' for Active; 'I' for Inactive)
REMARK    1  A    between atoms: C8_9  and  O1_10 
REMARK    2  A    between atoms: O1_10  and  C9_11 
REMARK    3  A    between atoms: C9_11  and  C10_12 
REMARK    4  A    between atoms: C10_12  and  O2_13 
REMARK    5  A    between atoms: C18_23  and  N3_24 
ROOT
HETATM    1  C1  UNL     1      -5.016   2.719   0.411  1.00  0.00     0.018 C 
HETATM    2  C2  UNL     1      -4.418   1.671   0.185  1.00  0.00    -0.078 C 
HETATM    3  C3  UNL     1      -3.728   0.411  -0.080  1.00  0.00     0.020 C 
HETATM    4  C4  UNL     1      -2.735   0.569  -0.938  1.00  0.00     0.040 C 
HETATM    5  C5  UNL     1      -2.326   1.781  -1.575  1.00  0.00     0.118 C 
HETATM    6  N1  UNL     1      -1.256   1.523  -2.251  1.00  0.00    -0.265 NA
HETATM    7  C6  UNL     1      -0.677   0.221  -2.269  1.00  0.00     0.039 C 
HETATM    8  C7  UNL     1       0.395   0.771  -1.647  1.00  0.00     0.064 C 
HETATM    9  C8  UNL     1       0.886  -0.073  -0.534  1.00  0.00     0.075 C 
HETATM   10  C12 UNL     1       0.429  -1.257  -0.084  1.00  0.00    -0.012 C 
HETATM   11  C13 UNL     1       0.425  -1.717   1.299  1.00  0.00     0.065 C 
HETATM   12  C14 UNL     1       0.038  -0.824   2.393  1.00  0.00     0.174 C 
HETATM   13  O3  UNL     1      -1.223  -0.513   2.725  1.00  0.00    -0.370 OA
HETATM   14  C15 UNL     1      -2.075  -0.011   1.745  1.00  0.00     0.317 C 
HETATM   15  N2  UNL     1      -2.141  -1.193   0.899  1.00  0.00    -0.262 NA
HETATM   16  C16 UNL     1      -3.328  -1.695   0.820  1.00  0.00     0.083 C 
HETATM   17  C17 UNL     1      -4.245  -0.764   0.605  1.00  0.00     0.054 C 
HETATM   18  C18 UNL     1       0.014  -1.995  -1.299  1.00  0.00     0.255 C 
HETATM   19  C19 UNL     1      -0.431  -1.203  -2.467  1.00  0.00     0.099 C 
ENDROOT
BRANCH   9  20
HETATM   20  O1  UNL     1       1.983   0.213   0.314  1.00  0.00    -0.349 OA
BRANCH  20  21
HETATM   21  C9  UNL     1       2.473   1.523   0.459  1.00  0.00     0.201 C 
BRANCH  21  22
HETATM   22  C10 UNL     1       3.630   1.484   1.422  1.00  0.00     0.193 C 
BRANCH  22  23
HETATM   23  O2  UNL     1       4.630   0.668   0.965  1.00  0.00    -0.394 OA
HETATM   24  C11 UNL     1       5.198   1.016  -0.241  1.00  0.00     0.201 C 
ENDBRANCH  22  23
ENDBRANCH  21  22
ENDBRANCH  20  21
ENDBRANCH   9  20
BRANCH  18  25
HETATM   25  N3  UNL     1       1.153  -2.863  -1.614  1.00  0.00     0.087 N 
HETATM   26  H20 UNL     1       1.073  -3.286  -2.548  1.00  0.00     0.313 HD
HETATM   27  H21 UNL     1       2.061  -2.414  -1.420  1.00  0.00     0.313 HD
ENDBRANCH  18  25
TORSDOF 5
