REMARK  2 active torsions:
REMARK  status: ('A' for Active; 'I' for Inactive)
REMARK    1  A    between atoms: C2_2  and  C3_3 
REMARK    2  A    between atoms: C12_14  and  C13_15 
ROOT
HETATM    1  C3  UNL     1      -2.503   0.052  -1.608  1.00  0.00     0.162 C 
HETATM    2  O1  UNL     1      -1.181   0.202  -1.362  1.00  0.00    -0.363 OA
HETATM    3  C4  UNL     1      -0.570  -0.535  -0.414  1.00  0.00     0.120 C 
HETATM    4  C5  UNL     1       0.304   0.422   0.367  1.00  0.00     0.030 C 
HETATM    5  C6  UNL     1       0.874   0.621   1.556  1.00  0.00     0.082 C 
HETATM    6  N1  UNL     1       1.658   1.265   2.588  1.00  0.00    -0.398 N 
HETATM    7  C7  UNL     1       3.072   0.781   2.805  1.00  0.00     0.130 C 
HETATM    8  C8  UNL     1       3.680   0.781   1.409  1.00  0.00    -0.005 A 
HETATM    9  C9  UNL     1       3.838   0.500   0.066  1.00  0.00     0.009 A 
HETATM   10  C10 UNL     1       3.250  -0.404  -0.754  1.00  0.00     0.041 A 
HETATM   11  C11 UNL     1       2.570  -1.360  -1.428  1.00  0.00     0.244 A 
HETATM   12  C12 UNL     1       2.287  -1.233  -0.013  1.00  0.00     0.043 A 
HETATM   13  C13 UNL     1       2.956  -0.244   0.738  1.00  0.00     0.011 A 
HETATM   14  N2  UNL     1       1.445  -2.269  -1.437  1.00  0.00     0.329 N 
HETATM   15  C14 UNL     1       0.292  -1.659  -0.970  1.00  0.00     0.340 C 
HETATM   16  C15 UNL     1      -1.528  -1.156   0.563  1.00  0.00     0.073 C 
HETATM   17  C16 UNL     1      -2.615  -1.815  -0.209  1.00  0.00    -0.006 C 
HETATM   18  C17 UNL     1      -3.117  -1.235  -1.292  1.00  0.00     0.014 C 
HETATM   19 BR1  UNL     1      -4.512  -2.115  -2.255  1.00  0.00    -0.053 Br
HETATM   20  H9  UNL     1       1.030   1.998   3.009  1.00  0.00     0.158 HD
ENDROOT
BRANCH   1  21
HETATM   21  C2  UNL     1      -3.362   1.158  -0.996  1.00  0.00     0.033 C 
HETATM   22  C1  UNL     1      -2.977   2.517  -1.535  1.00  0.00     0.008 C 
ENDBRANCH   1  21
TORSDOF 2
