REMARK  9 active torsions:
REMARK  status: ('A' for Active; 'I' for Inactive)
REMARK    1  A    between atoms: O1_1  and  C1_2 
REMARK    2  A    between atoms: C3_4  and  C4_5 
REMARK    3  A    between atoms: C4_5  and  N1_6 
REMARK    4  A    between atoms: N1_6  and  C5_7 
REMARK    5  A    between atoms: C15_17  and  N2_18 
REMARK    6  A    between atoms: N2_18  and  C16_19 
REMARK    7  A    between atoms: N2_18  and  C18_22 
REMARK    8  A    between atoms: C16_19  and  C17_20 
REMARK    9  A    between atoms: C18_22  and  C19_23 
ROOT
HETATM    1  C1  UNL     1      -1.725   1.061  -2.313  1.00  0.00     0.093 A 
HETATM    2  C2  UNL     1      -0.724   1.850  -1.961  1.00  0.00     0.050 A 
HETATM    3  C3  UNL     1      -0.920   1.523  -0.550  1.00  0.00    -0.009 A 
HETATM    4  C15 UNL     1      -1.916   0.741  -0.918  1.00  0.00     0.072 A 
ENDROOT
BRANCH   3   5
HETATM    5  C4  UNL     1      -0.077   2.079   0.555  1.00  0.00     0.161 C 
BRANCH   5   6
HETATM    6  N1  UNL     1       1.308   1.749   0.346  1.00  0.00    -0.385 N 
HETATM    7  H5  UNL     1       1.916   2.584   0.213  1.00  0.00     0.160 HD
BRANCH   6   8
HETATM    8  C5  UNL     1       1.842   0.451   0.316  1.00  0.00     0.039 A 
HETATM    9  C6  UNL     1       1.089  -0.688   0.504  1.00  0.00     0.030 A 
HETATM   10  C7  UNL     1       1.557  -1.984   0.491  1.00  0.00     0.003 A 
HETATM   11  C8  UNL     1       2.901  -2.194   0.274  1.00  0.00     0.012 A 
HETATM   12  C9  UNL     1       3.706  -1.103   0.080  1.00  0.00    -0.024 A 
HETATM   13  C10 UNL     1       5.051  -1.317  -0.137  1.00  0.00     0.012 A 
HETATM   14  C14 UNL     1       3.174   0.168   0.104  1.00  0.00     0.001 A 
HETATM   15  C11 UNL     1       5.935  -0.291  -0.341  1.00  0.00     0.001 A 
HETATM   16  C12 UNL     1       5.423   0.995  -0.321  1.00  0.00     0.001 A 
HETATM   17  C13 UNL     1       4.076   1.185  -0.102  1.00  0.00     0.014 A 
ENDBRANCH   6   8
ENDBRANCH   5   6
ENDBRANCH   3   5
BRANCH   4  18
HETATM   18  N2  UNL     1      -2.745  -0.040  -0.051  1.00  0.00    -0.376 N 
BRANCH  18  19
HETATM   19  C16 UNL     1      -3.776   0.679   0.681  1.00  0.00     0.138 C 
BRANCH  19  20
HETATM   20  C17 UNL     1      -3.527   0.728   2.167  1.00  0.00     0.134 C 
HETATM   21 CL1  UNL     1      -4.848   1.635   2.959  1.00  0.00    -0.129 Cl
ENDBRANCH  19  20
ENDBRANCH  18  19
BRANCH  18  22
HETATM   22  C18 UNL     1      -2.678  -1.479   0.181  1.00  0.00     0.138 C 
BRANCH  22  23
HETATM   23  C19 UNL     1      -3.915  -2.117  -0.402  1.00  0.00     0.134 C 
HETATM   24 CL2  UNL     1      -3.859  -3.881  -0.131  1.00  0.00    -0.129 Cl
ENDBRANCH  22  23
ENDBRANCH  18  22
ENDBRANCH   4  18
BRANCH   1  25
HETATM   25  O1  UNL     1      -2.406   0.630  -3.445  1.00  0.00    -0.358 OA
HETATM   26  H1  UNL     1      -2.810  -0.287  -3.511  1.00  0.00     0.217 HD
ENDBRANCH   1  25
TORSDOF 9
