REMARK  9 active torsions:
REMARK  status: ('A' for Active; 'I' for Inactive)
REMARK    1  A    between atoms: C2_2  and  C4_4 
REMARK    2  A    between atoms: C7_7  and  N1_8 
REMARK       I    between atoms: N1_8  and  C8_9 
REMARK    3  A    between atoms: C8_9  and  C9_11 
REMARK    4  A    between atoms: C12_14  and  C13_15 
REMARK    5  A    between atoms: C13_15  and  N2_16 
REMARK    6  A    between atoms: N2_16  and  C14_17 
REMARK    7  A    between atoms: N2_16  and  C16_20 
REMARK    8  A    between atoms: C14_17  and  C15_18 
REMARK    9  A    between atoms: C16_20  and  C17_21 
ROOT
HETATM    1  C9  UNL     1      -0.401  -0.713   0.574  1.00  0.00    -0.037 C 
HETATM    2  C10 UNL     1      -1.263  -0.629  -0.390  1.00  0.00    -0.022 C 
HETATM    3  C11 UNL     1      -2.695  -0.896  -0.486  1.00  0.00     0.062 C 
HETATM    4  C12 UNL     1      -3.435  -0.872   0.792  1.00  0.00    -0.054 C 
HETATM    5  C18 UNL     1      -2.980  -0.617   2.011  1.00  0.00    -0.100 C 
HETATM    6  B1  UNL     1      -1.194  -1.291   2.116  1.00  0.00     0.231 B 
ENDROOT
BRANCH   1   7
HETATM    7  C8  UNL     1       1.023  -0.435   0.627  1.00  0.00     0.240 C 
HETATM    8  N1  UNL     1       1.714   0.019  -0.524  1.00  0.00    -0.324 N 
HETATM    9  H10 UNL     1       1.212   0.162  -1.426  1.00  0.00     0.169 HD
HETATM   10  O1  UNL     1       1.658  -0.595   1.692  1.00  0.00    -0.269 OA
BRANCH   8  11
HETATM   11  C7  UNL     1       3.106   0.248  -0.315  1.00  0.00     0.035 A 
HETATM   12  C6  UNL     1       3.629   1.449   0.095  1.00  0.00     0.030 A 
HETATM   13  C5  UNL     1       4.957   1.714   0.307  1.00  0.00     0.010 A 
HETATM   14  C4  UNL     1       5.856   0.671   0.088  1.00  0.00    -0.055 A 
HETATM   15  C20 UNL     1       5.370  -0.541  -0.321  1.00  0.00     0.010 A 
HETATM   16  C19 UNL     1       4.026  -0.775  -0.526  1.00  0.00     0.030 A 
BRANCH  14  17
HETATM   17  C2  UNL     1       7.331   0.809   0.282  1.00  0.00     0.010 C 
HETATM   18  C1  UNL     1       7.838  -0.320   1.145  1.00  0.00     0.015 C 
HETATM   19  C3  UNL     1       7.949   0.755  -1.109  1.00  0.00     0.015 C 
ENDBRANCH  14  17
ENDBRANCH   8  11
ENDBRANCH   1   7
BRANCH   4  20
HETATM   20  C13 UNL     1      -4.890  -1.173   0.711  1.00  0.00     0.306 C 
BRANCH  20  21
HETATM   21  N2  UNL     1      -5.542  -0.198  -0.159  1.00  0.00     0.094 N 
BRANCH  21  22
HETATM   22  C14 UNL     1      -6.962  -0.477  -0.245  1.00  0.00     0.287 C 
BRANCH  22  23
HETATM   23  C15 UNL     1      -7.239  -1.767  -0.979  1.00  0.00     0.144 C 
HETATM   24 CL1  UNL     1      -6.597  -1.653  -2.613  1.00  0.00    -0.129 Cl
ENDBRANCH  22  23
ENDBRANCH  21  22
BRANCH  21  25
HETATM   25  C16 UNL     1      -5.295   1.091   0.451  1.00  0.00     0.287 C 
BRANCH  25  26
HETATM   26  C17 UNL     1      -5.891   2.247  -0.312  1.00  0.00     0.144 C 
HETATM   27 CL2  UNL     1      -5.243   2.338  -1.953  1.00  0.00    -0.129 Cl
ENDBRANCH  25  26
ENDBRANCH  21  25
ENDBRANCH  20  21
ENDBRANCH   4  20
TORSDOF 9
