REMARK  4 active torsions:
REMARK  status: ('A' for Active; 'I' for Inactive)
REMARK    1  A    between atoms: C17_20  and  O2_21 
REMARK    2  A    between atoms: C19_23  and  C20_24 
REMARK    3  A    between atoms: C20_24  and  C21_25 
REMARK    4  A    between atoms: C21_25  and  O3_26 
ROOT
HETATM    1  C1  UNL     1      -2.702   6.431   0.615  1.00  0.00     0.018 C 
HETATM    2  C2  UNL     1      -2.415   5.270   0.505  1.00  0.00    -0.078 C 
HETATM    3  C3  UNL     1      -2.097   3.889   0.378  1.00  0.00     0.019 A 
HETATM    4  C4  UNL     1      -2.954   2.829   0.256  1.00  0.00     0.021 A 
HETATM    5  C5  UNL     1      -2.689   1.490   0.131  1.00  0.00     0.011 A 
HETATM    6  C6  UNL     1      -1.360   1.139   0.126  1.00  0.00    -0.025 A 
HETATM    7  C7  UNL     1      -0.430   2.144   0.243  1.00  0.00     0.041 A 
HETATM    8  C8  UNL     1      -0.760   3.473   0.367  1.00  0.00     0.050 A 
HETATM    9  N1  UNL     1       0.923   1.841   0.216  1.00  0.00    -0.351 N 
HETATM   10  C9  UNL     1       2.279   1.573  -0.030  1.00  0.00     0.201 C 
HETATM   11  N2  UNL     1       2.786   0.625  -0.828  1.00  0.00    -0.284 NA
HETATM   12  C10 UNL     1       4.218   0.642  -0.832  1.00  0.00     0.153 C 
HETATM   13  C11 UNL     1       4.929  -0.660  -0.800  1.00  0.00     0.049 C 
HETATM   14  C12 UNL     1       4.452  -1.645   0.172  1.00  0.00    -0.025 C 
HETATM   15  C13 UNL     1       3.555  -1.951   1.020  1.00  0.00    -0.002 C 
HETATM   16  C14 UNL     1       2.551  -2.369   2.019  1.00  0.00     0.024 C 
HETATM   17  C15 UNL     1       1.430  -2.046   2.588  1.00  0.00     0.134 C 
HETATM   18  O1  UNL     1       0.769  -0.864   2.219  1.00  0.00    -0.360 OA
HETATM   19  C16 UNL     1      -0.654  -0.864   2.448  1.00  0.00     0.207 C 
HETATM   20  C17 UNL     1      -1.322  -1.153   1.146  1.00  0.00     0.153 C 
HETATM   21  C19 UNL     1      -0.984  -0.277  -0.003  1.00  0.00     0.054 C 
HETATM   22  H5  UNL     1       0.880   1.714   1.276  1.00  0.00     0.166 HD
ENDROOT
BRANCH  21  23
HETATM   23  C20 UNL     1      -1.659  -0.896  -1.231  1.00  0.00     0.038 C 
BRANCH  23  24
HETATM   24  C21 UNL     1      -1.242  -0.181  -2.494  1.00  0.00     0.167 C 
BRANCH  24  25
HETATM   25  O3  UNL     1      -1.880  -0.761  -3.570  1.00  0.00    -0.396 OA
HETATM   26  C22 UNL     1      -1.622  -2.108  -3.754  1.00  0.00     0.201 C 
ENDBRANCH  24  25
ENDBRANCH  23  24
ENDBRANCH  21  23
BRANCH  20  27
HETATM   27  O2  UNL     1      -2.723  -1.213   1.350  1.00  0.00    -0.388 OA
HETATM   28  C18 UNL     1      -3.203  -2.497   1.136  1.00  0.00     0.202 C 
ENDBRANCH  20  27
TORSDOF 4
