REMARK  7 active torsions:
REMARK  status: ('A' for Active; 'I' for Inactive)
REMARK    1  A    between atoms: C7_7  and  N1_8 
REMARK    2  A    between atoms: N1_8  and  C8_9 
REMARK    3  A    between atoms: C12_15  and  O1_16 
REMARK    4  A    between atoms: C13_17  and  O2_18 
REMARK    5  A    between atoms: O2_18  and  C14_19 
REMARK    6  A    between atoms: C14_19  and  C15_20 
REMARK    7  A    between atoms: C15_20  and  O3_21 
ROOT
HETATM    1  C1  UNL     1       5.148   3.864  -1.491  1.00  0.00     0.018 C 
HETATM    2  C2  UNL     1       4.613   3.011  -0.821  1.00  0.00    -0.078 C 
HETATM    3  C3  UNL     1       3.995   1.988  -0.022  1.00  0.00     0.019 A 
HETATM    4  C4  UNL     1       3.987   2.057   1.376  1.00  0.00     0.021 A 
HETATM    5  C5  UNL     1       3.381   1.051   2.135  1.00  0.00     0.004 A 
HETATM    6  C6  UNL     1       2.774  -0.037   1.500  1.00  0.00     0.029 A 
HETATM    7  C7  UNL     1       2.823  -0.034   0.121  1.00  0.00     0.035 A 
HETATM    8  C19 UNL     1       3.399   0.917  -0.697  1.00  0.00     0.050 A 
ENDROOT
BRANCH   7   9
HETATM    9  N1  UNL     1       2.212  -1.130  -0.545  1.00  0.00    -0.340 N 
HETATM   10  H5  UNL     1       2.172  -1.259  -1.580  1.00  0.00     0.167 HD
BRANCH   9  11
HETATM   11  C8  UNL     1       1.554  -2.237   0.012  1.00  0.00     0.142 A 
HETATM   12  N2  UNL     1       2.264  -3.349   0.310  1.00  0.00    -0.224 NA
HETATM   13  C9  UNL     1       1.654  -4.439   0.852  1.00  0.00     0.236 A 
HETATM   14  N3  UNL     1       0.328  -4.519   1.137  1.00  0.00    -0.241 NA
HETATM   15  C10 UNL     1      -0.402  -3.418   0.847  1.00  0.00     0.075 A 
HETATM   16  C11 UNL     1      -1.761  -3.372   1.089  1.00  0.00     0.072 A 
HETATM   17  C18 UNL     1       0.191  -2.286   0.292  1.00  0.00     0.042 A 
HETATM   18  C12 UNL     1      -2.487  -2.228   0.783  1.00  0.00     0.101 A 
HETATM   19  C13 UNL     1      -1.889  -1.106   0.230  1.00  0.00     0.102 A 
HETATM   20  C17 UNL     1      -0.531  -1.158  -0.009  1.00  0.00     0.057 A 
BRANCH  18  21
HETATM   21  O1  UNL     1      -3.860  -2.306   1.076  1.00  0.00    -0.358 OA
HETATM   22  H8  UNL     1      -4.484  -2.625   0.357  1.00  0.00     0.217 HD
ENDBRANCH  18  21
BRANCH  19  23
HETATM   23  O2  UNL     1      -2.747  -0.065  -0.011  1.00  0.00    -0.346 OA
BRANCH  23  24
HETATM   24  C14 UNL     1      -2.217   1.122  -0.575  1.00  0.00     0.201 C 
BRANCH  24  25
HETATM   25  C15 UNL     1      -3.283   2.170  -0.780  1.00  0.00     0.193 C 
BRANCH  25  26
HETATM   26  O3  UNL     1      -4.240   1.667  -1.631  1.00  0.00    -0.394 OA
HETATM   27  C16 UNL     1      -5.257   2.592  -1.861  1.00  0.00     0.201 C 
ENDBRANCH  25  26
ENDBRANCH  24  25
ENDBRANCH  23  24
ENDBRANCH  19  23
ENDBRANCH   9  11
ENDBRANCH   7   9
TORSDOF 7
