REMARK  9 active torsions:
REMARK  status: ('A' for Active; 'I' for Inactive)
REMARK    1  A    between atoms: O1_2  and  C2_3 
REMARK    2  A    between atoms: C2_3  and  C3_4 
REMARK    3  A    between atoms: C3_4  and  O2_5 
REMARK    4  A    between atoms: O2_5  and  C4_6 
REMARK    5  A    between atoms: C8_12  and  N3_13 
REMARK    6  A    between atoms: C18_23  and  O3_24 
REMARK    7  A    between atoms: O3_24  and  C19_25 
REMARK    8  A    between atoms: C19_25  and  C20_26 
REMARK    9  A    between atoms: C20_26  and  O4_27 
ROOT
HETATM    1  C4  UNL     1       1.724   0.108  -1.509  1.00  0.00     0.104 A 
HETATM    2  C5  UNL     1       0.993  -0.723  -2.326  1.00  0.00     0.072 A 
HETATM    3  C6  UNL     1      -0.278  -1.113  -2.065  1.00  0.00     0.075 A 
HETATM    4  N1  UNL     1      -0.941  -1.929  -2.899  1.00  0.00    -0.241 NA
HETATM    5  C7  UNL     1      -2.222  -2.318  -2.624  1.00  0.00     0.236 A 
HETATM    6  N2  UNL     1      -2.811  -1.867  -1.498  1.00  0.00    -0.224 NA
HETATM    7  C8  UNL     1      -2.167  -1.058  -0.662  1.00  0.00     0.140 A 
HETATM    8  C16 UNL     1      -0.874  -0.655  -0.922  1.00  0.00     0.041 A 
HETATM    9  C17 UNL     1      -0.239   0.178  -0.035  1.00  0.00     0.057 A 
HETATM   10  C18 UNL     1       1.054   0.540  -0.356  1.00  0.00     0.103 A 
ENDROOT
BRANCH   7  11
HETATM   11  N3  UNL     1      -2.929  -0.648   0.494  1.00  0.00    -0.358 N 
HETATM   12  C9  UNL     1      -3.254   0.777   0.631  1.00  0.00     0.152 C 
HETATM   13  C10 UNL     1      -4.745   0.990   0.552  1.00  0.00    -0.007 C 
HETATM   14  C11 UNL     1      -5.680   0.343   1.229  1.00  0.00    -0.002 C 
HETATM   15  C12 UNL     1      -5.481  -0.723   2.206  1.00  0.00     0.004 C 
HETATM   16  C13 UNL     1      -4.451  -1.554   2.192  1.00  0.00    -0.066 C 
HETATM   17  C14 UNL     1      -4.453  -2.562   3.285  1.00  0.00     0.045 C 
HETATM   18  C15 UNL     1      -3.250  -1.769   1.355  1.00  0.00     0.158 C 
ENDBRANCH   7  11
BRANCH  10  19
HETATM   19  O3  UNL     1       1.650   1.395   0.594  1.00  0.00    -0.346 OA
BRANCH  19  20
HETATM   20  C19 UNL     1       0.985   1.823   1.737  1.00  0.00     0.201 C 
BRANCH  20  21
HETATM   21  C20 UNL     1       1.967   2.725   2.493  1.00  0.00     0.193 C 
BRANCH  21  22
HETATM   22  O4  UNL     1       2.350   3.808   1.741  1.00  0.00    -0.394 OA
HETATM   23  C21 UNL     1       3.237   4.668   2.357  1.00  0.00     0.201 C 
ENDBRANCH  21  22
ENDBRANCH  20  21
ENDBRANCH  19  20
ENDBRANCH  10  19
BRANCH   1  24
HETATM   24  O2  UNL     1       2.988   0.612  -1.580  1.00  0.00    -0.346 OA
BRANCH  24  25
HETATM   25  C3  UNL     1       3.997   0.459  -2.496  1.00  0.00     0.201 C 
BRANCH  25  26
HETATM   26  C2  UNL     1       4.542  -0.911  -2.710  1.00  0.00     0.193 C 
BRANCH  26  27
HETATM   27  O1  UNL     1       5.556  -0.826  -3.679  1.00  0.00    -0.394 OA
HETATM   28  C1  UNL     1       6.026  -2.145  -3.835  1.00  0.00     0.201 C 
ENDBRANCH  26  27
ENDBRANCH  25  26
ENDBRANCH  24  25
ENDBRANCH   1  24
TORSDOF 9
