REMARK  6 active torsions:
REMARK  status: ('A' for Active; 'I' for Inactive)
REMARK    1  A    between atoms: O1_2  and  C2_3 
REMARK    2  A    between atoms: C10_12  and  C11_13 
REMARK    3  A    between atoms: C16_20  and  N2_21 
REMARK    4  A    between atoms: C17_22  and  O3_23 
REMARK    5  A    between atoms: O3_23  and  C18_24 
REMARK    6  A    between atoms: C18_24  and  O5_26 
ROOT
HETATM    1  C2  UNL     1      -2.863  -1.134   0.391  1.00  0.00     0.076 C 
HETATM    2  C3  UNL     1      -2.339  -1.656   1.470  1.00  0.00     0.010 C 
HETATM    3  C4  UNL     1      -1.056  -1.443   2.188  1.00  0.00     0.067 C 
HETATM    4  C5  UNL     1       0.001  -0.991   1.208  1.00  0.00     0.248 A 
HETATM    5  C6  UNL     1      -0.386  -1.554  -0.143  1.00  0.00     0.159 A 
HETATM    6  S1  UNL     1       1.111  -2.037  -1.023  1.00  0.00    -0.118 SA
HETATM    7  C7  UNL     1       2.371  -0.825  -0.606  1.00  0.00     0.007 A 
HETATM    8  C8  UNL     1       3.497  -1.625  -0.710  1.00  0.00     0.020 A 
HETATM    9  C9  UNL     1       4.758  -1.078  -0.462  1.00  0.00     0.016 A 
HETATM   10  C10 UNL     1       4.940   0.239  -0.112  1.00  0.00     0.002 A 
HETATM   11  C12 UNL     1       3.795   1.004  -0.018  1.00  0.00     0.023 A 
HETATM   12  C13 UNL     1       2.503   0.518  -0.254  1.00  0.00    -0.039 A 
HETATM   13  C14 UNL     1       1.563   1.631  -0.054  1.00  0.00     0.070 C 
HETATM   14  C15 UNL     1       0.476   1.360   0.918  1.00  0.00     0.281 C 
HETATM   15  N1  UNL     1      -0.373   0.298   0.733  1.00  0.00     0.139 N 
HETATM   16  C16 UNL     1      -0.818  -0.128  -0.516  1.00  0.00     0.395 A 
HETATM   17  C17 UNL     1      -2.352  -0.068  -0.514  1.00  0.00     0.262 C 
ENDROOT
BRANCH  17  18
HETATM   18  O3  UNL     1      -2.659   1.175   0.095  1.00  0.00    -0.281 OA
BRANCH  18  19
HETATM   19  C18 UNL     1      -3.380   2.163  -0.556  1.00  0.00     0.299 C 
HETATM   20  O4  UNL     1      -3.800   2.003  -1.731  1.00  0.00    -0.626 OA
BRANCH  19  21
HETATM   21  O5  UNL     1      -3.715   3.399  -0.021  1.00  0.00    -0.754 OA
HETATM   22  H20 UNL     1      -4.670   3.725  -0.180  1.00  0.00     0.170 HD
ENDBRANCH  19  21
ENDBRANCH  18  19
ENDBRANCH  17  18
BRANCH   1  23
HETATM   23  O1  UNL     1      -4.097  -1.684   0.065  1.00  0.00    -0.358 OA
HETATM   24  C1  UNL     1      -5.047  -1.117  -0.782  1.00  0.00     0.209 C 
ENDBRANCH   1  23
BRANCH  16  25
HETATM   25  N2  UNL     1      -0.171   0.265  -1.711  1.00  0.00     0.123 N 
HETATM   26  H17 UNL     1       0.205  -0.529  -2.262  1.00  0.00     0.316 HD
HETATM   27  H18 UNL     1      -0.651   0.981  -2.274  1.00  0.00     0.316 HD
ENDBRANCH  16  25
BRANCH  10  28
HETATM   28  C11 UNL     1       6.226   0.837   0.152  1.00  0.00     0.269 C 
HETATM   29  O2  UNL     1       6.350   2.063   0.474  1.00  0.00    -0.301 OA
ENDBRANCH  10  28
TORSDOF 6
