REMARK  2 active torsions:
REMARK  status: ('A' for Active; 'I' for Inactive)
REMARK    1  A    between atoms: C15_15  and  C16_16 
REMARK    2  A    between atoms: C16_16  and  O1_17 
ROOT
HETATM    1  C1  UNL     1      -5.013  -1.292  -0.863  1.00  0.00     0.048 C 
HETATM    2  C2  UNL     1      -3.694  -0.723  -0.404  1.00  0.00    -0.063 C 
HETATM    3  C3  UNL     1      -2.923  -1.566   0.229  1.00  0.00     0.015 C 
HETATM    4  C4  UNL     1      -1.627  -1.723   0.878  1.00  0.00     0.167 C 
HETATM    5  C5  UNL     1      -1.194  -0.444   1.451  1.00  0.00     0.005 C 
HETATM    6  C6  UNL     1      -1.409   0.861   1.553  1.00  0.00    -0.019 C 
HETATM    7  C7  UNL     1      -2.067   2.052   0.975  1.00  0.00     0.034 C 
HETATM    8  C8  UNL     1      -2.918   1.654  -0.164  1.00  0.00    -0.017 C 
HETATM    9  C9  UNL     1      -3.561   0.674  -0.773  1.00  0.00     0.003 C 
HETATM   10  C10 UNL     1      -1.062   3.096   0.528  1.00  0.00     0.039 C 
HETATM   11  C11 UNL     1       0.026   2.586  -0.297  1.00  0.00    -0.029 C 
HETATM   12  C12 UNL     1       1.344   2.464  -0.393  1.00  0.00    -0.027 C 
HETATM   13  C13 UNL     1       2.626   2.769   0.284  1.00  0.00     0.054 C 
HETATM   14  C14 UNL     1       3.328   1.519   0.574  1.00  0.00    -0.016 C 
HETATM   15  C15 UNL     1       3.409   0.195   0.596  1.00  0.00    -0.037 C 
HETATM   16  C17 UNL     1       2.293  -0.753   0.158  1.00  0.00     0.203 C 
HETATM   17  O2  UNL     1       2.687  -1.546  -0.864  1.00  0.00    -0.387 OA
HETATM   18  C18 UNL     1       1.881  -2.501  -1.329  1.00  0.00     0.170 C 
HETATM   19  C19 UNL     1       0.565  -2.252  -1.943  1.00  0.00     0.052 C 
HETATM   20  C20 UNL     1      -0.501  -1.602  -1.149  1.00  0.00     0.171 C 
HETATM   21  O3  UNL     1      -0.674  -2.282   0.040  1.00  0.00    -0.378 OA
ENDROOT
BRANCH  15  22
HETATM   22  C16 UNL     1       4.512  -0.728   1.057  1.00  0.00     0.200 C 
BRANCH  22  23
HETATM   23  O1  UNL     1       5.538   0.110   1.501  1.00  0.00    -0.397 OA
HETATM   24  H20 UNL     1       6.201  -0.377   2.064  1.00  0.00     0.209 HD
ENDBRANCH  22  23
ENDBRANCH  15  22
TORSDOF 2
