REMARK  3 active torsions:
REMARK  status: ('A' for Active; 'I' for Inactive)
REMARK    1  A    between atoms: C9_11  and  N2_12 
REMARK    2  A    between atoms: N2_12  and  C10_13 
REMARK    3  A    between atoms: C10_13  and  C11_14 
ROOT
HETATM    1 BR1  UNL     1      -6.120   3.345  -1.243  1.00  0.00    -0.051 Br
HETATM    2  C1  UNL     1      -4.993   1.862  -0.897  1.00  0.00     0.011 A 
HETATM    3  C2  UNL     1      -5.537   0.592  -1.019  1.00  0.00     0.022 A 
HETATM    4  C3  UNL     1      -4.738  -0.506  -0.772  1.00  0.00     0.039 A 
HETATM    5  C4  UNL     1      -3.419  -0.327  -0.410  1.00  0.00     0.086 A 
HETATM    6  C5  UNL     1      -2.828   0.908  -0.274  1.00  0.00    -0.005 A 
HETATM    7  C6  UNL     1      -3.665   1.998  -0.531  1.00  0.00     0.030 A 
HETATM    8  C7  UNL     1      -1.501   1.436   0.082  1.00  0.00     0.161 C 
HETATM    9  N1  UNL     1      -0.406   0.540  -0.312  1.00  0.00    -0.379 N 
HETATM   10  C8  UNL     1      -0.320  -0.862  -0.057  1.00  0.00     0.128 A 
HETATM   11  C9  UNL     1       0.991  -1.241   0.144  1.00  0.00     0.156 A 
HETATM   12  N3  UNL     1       1.207  -2.545   0.385  1.00  0.00    -0.222 NA
HETATM   13  C15 UNL     1       0.212  -3.443   0.431  1.00  0.00     0.238 A 
HETATM   14  N4  UNL     1      -1.089  -3.079   0.234  1.00  0.00    -0.215 NA
HETATM   15  C16 UNL     1      -1.385  -1.768  -0.017  1.00  0.00     0.202 A 
HETATM   16  O1  UNL     1      -2.750  -1.545  -0.196  1.00  0.00    -0.289 OA
HETATM   17  H6  UNL     1       0.447   0.860  -0.840  1.00  0.00     0.160 HD
ENDROOT
BRANCH  11  18
HETATM   18  N2  UNL     1       2.095  -0.342   0.124  1.00  0.00    -0.369 N 
HETATM   19  H7  UNL     1       2.170   0.677  -0.017  1.00  0.00     0.161 HD
BRANCH  18  20
HETATM   20  C10 UNL     1       3.407  -0.900   0.347  1.00  0.00     0.160 C 
BRANCH  20  21
HETATM   21  C11 UNL     1       4.496   0.077   0.312  1.00  0.00    -0.041 A 
HETATM   22  C12 UNL     1       4.626   1.384   0.127  1.00  0.00     0.009 A 
HETATM   23  C13 UNL     1       6.068   1.206   0.306  1.00  0.00     0.001 A 
HETATM   24  C14 UNL     1       5.916  -0.113   0.491  1.00  0.00     0.009 A 
ENDBRANCH  20  21
ENDBRANCH  18  20
ENDBRANCH  11  18
TORSDOF 3
