REMARK  0 active torsions:
REMARK  status: ('A' for Active; 'I' for Inactive)
ROOT
HETATM    1  C1  UNL     1      -5.965   0.672  -1.521  1.00  0.00     0.043 C 
HETATM    2  C2  UNL     1      -4.770  -0.044  -0.998  1.00  0.00    -0.081 C 
HETATM    3  C3  UNL     1      -3.731   0.661  -0.572  1.00  0.00     0.041 C 
HETATM    4  C4  UNL     1      -2.442   0.235  -0.014  1.00  0.00     0.098 C 
HETATM    5  C5  UNL     1      -1.955  -0.990   0.063  1.00  0.00     0.080 C 
HETATM    6  C6  UNL     1      -2.569  -2.258  -0.385  1.00  0.00     0.068 C 
HETATM    7  C7  UNL     1      -3.487  -2.012  -1.543  1.00  0.00     0.011 C 
HETATM    8  C8  UNL     1      -4.840  -1.538  -0.994  1.00  0.00     0.034 C 
HETATM    9  O1  UNL     1      -0.694  -0.971   0.658  1.00  0.00    -0.346 OA
HETATM   10  C9  UNL     1       0.334  -1.860   0.220  1.00  0.00     0.239 C 
HETATM   11  C10 UNL     1       1.571  -1.003   0.220  1.00  0.00     0.071 C 
HETATM   12  C11 UNL     1       1.717   0.281   0.547  1.00  0.00     0.041 C 
HETATM   13  C12 UNL     1       2.595   1.470   0.698  1.00  0.00    -0.054 C 
HETATM   14  C13 UNL     1       2.074   2.655   1.151  1.00  0.00    -0.013 C 
HETATM   15  C14 UNL     1       0.612   2.410   1.406  1.00  0.00     0.044 C 
HETATM   16  C15 UNL     1      -0.215   3.400   1.869  1.00  0.00    -0.017 C 
HETATM   17  C16 UNL     1      -1.643   3.096   2.106  1.00  0.00     0.028 C 
HETATM   18  C17 UNL     1      -1.980   1.664   1.797  1.00  0.00     0.176 C 
HETATM   19  O2  UNL     1      -1.823   1.414   0.431  1.00  0.00    -0.349 OA
HETATM   20  C18 UNL     1       3.916   0.949   0.350  1.00  0.00     0.057 C 
HETATM   21  C19 UNL     1       5.266   1.141   0.246  1.00  0.00    -0.001 C 
HETATM   22  C20 UNL     1       6.007  -0.039  -0.270  1.00  0.00     0.122 C 
HETATM   23  N1  UNL     1       5.016  -1.110  -0.494  1.00  0.00    -0.377 N 
HETATM   24  C21 UNL     1       4.531  -2.358  -1.087  1.00  0.00     0.116 C 
HETATM   25  N2  UNL     1       5.727  -2.806  -0.940  1.00  0.00    -0.286 NA
HETATM   26  C22 UNL     1       3.026  -2.171  -1.414  1.00  0.00     0.253 C 
HETATM   27  O3  UNL     1       2.511  -1.827  -0.177  1.00  0.00    -0.346 OA
HETATM   28  H25 UNL     1       4.248  -0.915   0.182  1.00  0.00     0.160 HD
HETATM   29  H26 UNL     1       6.000  -3.779  -1.232  1.00  0.00     0.188 HD
ENDROOT
TORSDOF 0
