REMARK  8 active torsions:
REMARK  status: ('A' for Active; 'I' for Inactive)
REMARK    1  A    between atoms: O1_2  and  C2_3 
REMARK    2  A    between atoms: C7_8  and  O2_9 
REMARK    3  A    between atoms: O2_9  and  C8_10 
REMARK    4  A    between atoms: C15_17  and  C16_18 
REMARK    5  A    between atoms: C16_18  and  C17_19 
REMARK    6  A    between atoms: C17_19  and  C18_20 
REMARK    7  A    between atoms: C18_20  and  C19_21 
REMARK    8  A    between atoms: C19_21  and  C20_22 
ROOT
HETATM    1  C8  UNL     1      -1.474  -1.496  -0.383  1.00  0.00     0.159 C 
HETATM    2  C9  UNL     1      -1.530  -2.151  -1.746  1.00  0.00     0.041 C 
HETATM    3  C10 UNL     1      -1.753  -3.638  -1.659  1.00  0.00     0.030 C 
HETATM    4  C11 UNL     1      -0.671  -4.350  -0.982  1.00  0.00    -0.026 C 
HETATM    5  C12 UNL     1       0.341  -3.917  -0.252  1.00  0.00     0.003 C 
HETATM    6  C13 UNL     1       0.636  -2.532   0.072  1.00  0.00    -0.057 C 
HETATM    7  C14 UNL     1       2.016  -2.218   0.538  1.00  0.00     0.048 C 
HETATM    8  C15 UNL     1      -0.025  -1.395   0.068  1.00  0.00    -0.034 C 
ENDROOT
BRANCH   8   9
HETATM    9  C16 UNL     1       0.249  -0.028   0.390  1.00  0.00     0.131 C 
BRANCH   9  10
HETATM   10  C17 UNL     1       1.525   0.388   0.858  1.00  0.00    -0.098 C 
BRANCH  10  11
HETATM   11  C18 UNL     1       2.609   0.763   1.261  1.00  0.00    -0.077 C 
BRANCH  11  12
HETATM   12  C19 UNL     1       3.876   1.212   1.754  1.00  0.00     0.089 C 
BRANCH  12  13
HETATM   13  C20 UNL     1       4.791   1.791   1.005  1.00  0.00     0.084 C 
HETATM   14  S1  UNL     1       6.404   2.383   1.547  1.00  0.00    -0.046 SA
HETATM   15  C21 UNL     1       7.089   2.544  -0.124  1.00  0.00     0.167 C 
HETATM   16  N1  UNL     1       8.327   2.676  -0.447  1.00  0.00    -0.278 NA
HETATM   17  N2  UNL     1       5.967   2.493  -0.997  1.00  0.00    -0.301 N 
HETATM   18  H21 UNL     1       9.038   2.695   0.316  1.00  0.00     0.189 HD
HETATM   19  C22 UNL     1       4.746   2.098  -0.422  1.00  0.00     0.265 C 
HETATM   20  H22 UNL     1       6.080   2.741  -2.005  1.00  0.00     0.171 HD
HETATM   21  O3  UNL     1       3.656   1.998  -1.044  1.00  0.00    -0.267 OA
ENDBRANCH  12  13
ENDBRANCH  11  12
ENDBRANCH  10  11
ENDBRANCH   9  10
ENDBRANCH   8   9
BRANCH   1  22
HETATM   22  O2  UNL     1      -2.021  -0.217  -0.517  1.00  0.00    -0.339 OA
BRANCH  22  23
HETATM   23  C7  UNL     1      -3.116   0.221   0.176  1.00  0.00     0.102 A 
HETATM   24  C2  UNL     1      -3.440   1.543  -0.158  1.00  0.00     0.101 A 
HETATM   25  C3  UNL     1      -4.539   2.153   0.459  1.00  0.00     0.039 A 
HETATM   26  C4  UNL     1      -5.337   1.500   1.403  1.00  0.00     0.003 A 
HETATM   27  C5  UNL     1      -4.993   0.204   1.709  1.00  0.00     0.003 A 
HETATM   28  C6  UNL     1      -3.917  -0.380   1.099  1.00  0.00     0.040 A 
BRANCH  24  29
HETATM   29  O1  UNL     1      -2.722   2.315  -1.092  1.00  0.00    -0.353 OA
HETATM   30  C1  UNL     1      -3.169   3.621  -1.319  1.00  0.00     0.210 C 
ENDBRANCH  24  29
ENDBRANCH  22  23
ENDBRANCH   1  22
TORSDOF 8
