REMARK  6 active torsions:
REMARK  status: ('A' for Active; 'I' for Inactive)
REMARK    1  A    between atoms: O1_2  and  C2_3 
REMARK    2  A    between atoms: C7_8  and  O2_9 
REMARK    3  A    between atoms: O2_9  and  C8_10 
REMARK    4  A    between atoms: C8_10  and  C9_11 
REMARK    5  A    between atoms: C9_11  and  C10_12 
REMARK    6  A    between atoms: C14_16  and  C15_17 
ROOT
HETATM    1  C10 UNL     1      -0.218   0.063  -1.293  1.00  0.00     0.044 C 
HETATM    2  C11 UNL     1       0.583   0.944  -1.882  1.00  0.00     0.005 C 
HETATM    3  C12 UNL     1       1.675   1.852  -1.392  1.00  0.00     0.030 C 
HETATM    4  C13 UNL     1       1.490   2.134   0.091  1.00  0.00     0.012 C 
HETATM    5  C14 UNL     1       2.376   1.221   0.926  1.00  0.00     0.012 C 
HETATM    6  C19 UNL     1       2.020  -0.213   0.710  1.00  0.00     0.035 C 
HETATM    7  C20 UNL     1       0.592  -0.474   1.135  1.00  0.00     0.176 C 
HETATM    8  O4  UNL     1      -0.311  -0.329   0.057  1.00  0.00    -0.356 OA
ENDROOT
BRANCH   1   9
HETATM    9  C9  UNL     1      -1.203  -0.667  -2.129  1.00  0.00     0.091 C 
BRANCH   9  10
HETATM   10  C8  UNL     1      -2.624  -0.383  -1.673  1.00  0.00     0.182 C 
BRANCH  10  11
HETATM   11  O2  UNL     1      -2.729  -0.807  -0.329  1.00  0.00    -0.348 OA
BRANCH  11  12
HETATM   12  C7  UNL     1      -3.958  -0.649   0.329  1.00  0.00     0.102 A 
HETATM   13  C2  UNL     1      -4.134  -1.037   1.639  1.00  0.00     0.101 A 
HETATM   14  C3  UNL     1      -5.362  -0.856   2.231  1.00  0.00     0.039 A 
HETATM   15  C4  UNL     1      -6.414  -0.291   1.524  1.00  0.00     0.003 A 
HETATM   16  C5  UNL     1      -6.291   0.118   0.204  1.00  0.00     0.003 A 
HETATM   17  C6  UNL     1      -5.037  -0.092  -0.326  1.00  0.00     0.039 A 
BRANCH  13  18
HETATM   18  O1  UNL     1      -3.067  -1.593   2.302  1.00  0.00    -0.353 OA
HETATM   19  C1  UNL     1      -3.082  -2.037   3.634  1.00  0.00     0.210 C 
ENDBRANCH  13  18
ENDBRANCH  11  12
ENDBRANCH  10  11
ENDBRANCH   9  10
ENDBRANCH   1   9
BRANCH   5  20
HETATM   20  C15 UNL     1       3.772   1.526   0.647  1.00  0.00     0.003 C 
HETATM   21  C16 UNL     1       4.739   0.736   0.235  1.00  0.00     0.073 C 
HETATM   22  S1  UNL     1       4.814  -1.010  -0.165  1.00  0.00    -0.047 SA
HETATM   23  C18 UNL     1       6.107   1.179  -0.012  1.00  0.00     0.264 C 
HETATM   24  C17 UNL     1       6.201  -0.855  -1.326  1.00  0.00     0.167 C 
HETATM   25  N1  UNL     1       6.589  -1.544  -2.336  1.00  0.00    -0.278 NA
HETATM   26  N2  UNL     1       6.840   0.322  -0.832  1.00  0.00    -0.301 N 
HETATM   27  H19 UNL     1       6.021  -2.403  -2.604  1.00  0.00     0.189 HD
HETATM   28  H20 UNL     1       7.856   0.519  -1.099  1.00  0.00     0.171 HD
HETATM   29  O3  UNL     1       6.574   2.261   0.489  1.00  0.00    -0.267 OA
ENDBRANCH   5  20
TORSDOF 6
