REMARK  2 active torsions:
REMARK  status: ('A' for Active; 'I' for Inactive)
REMARK    1  A    between atoms: O1_2  and  C2_3 
REMARK    2  A    between atoms: C16_19  and  N2_20 
ROOT
HETATM    1  C2  UNL     1       2.558   0.884   0.787  1.00  0.00     0.102 A 
HETATM    2  C3  UNL     1       3.032  -0.275   0.261  1.00  0.00     0.047 A 
HETATM    3  C4  UNL     1       2.349  -1.460   0.225  1.00  0.00    -0.047 A 
HETATM    4  C5  UNL     1       1.387  -0.677   0.861  1.00  0.00     0.010 A 
HETATM    5  C6  UNL     1       0.416   0.042   1.484  1.00  0.00     0.040 A 
HETATM    6  C7  UNL     1       1.343   1.052   1.359  1.00  0.00     0.102 A 
HETATM    7  O2  UNL     1       0.959   2.306   1.867  1.00  0.00    -0.348 OA
HETATM    8  C8  UNL     1       0.277   3.192   0.907  1.00  0.00     0.176 C 
HETATM    9  C9  UNL     1      -0.898   2.413   0.439  1.00  0.00     0.027 C 
HETATM   10  C10 UNL     1      -1.789   3.096  -0.581  1.00  0.00     0.006 C 
HETATM   11  C11 UNL     1      -2.868   2.043  -0.918  1.00  0.00     0.027 C 
HETATM   12  C12 UNL     1      -2.310   0.821  -1.508  1.00  0.00    -0.023 C 
HETATM   13  C13 UNL     1      -2.347  -0.452  -1.037  1.00  0.00    -0.070 C 
HETATM   14  C14 UNL     1      -3.005  -0.844   0.239  1.00  0.00     0.044 C 
HETATM   15  C15 UNL     1      -1.758  -1.651  -1.687  1.00  0.00     0.161 C 
HETATM   16  N1  UNL     1      -0.758  -2.324  -0.887  1.00  0.00    -0.322 N 
HETATM   17  C16 UNL     1      -1.296  -3.303   0.036  1.00  0.00     0.285 A 
HETATM   18  C17 UNL     1       0.393  -2.808  -0.245  1.00  0.00     0.193 A 
HETATM   19  O3  UNL     1       0.738  -1.877  -1.077  1.00  0.00    -0.279 OA
HETATM   20  C18 UNL     1       1.869  -2.862   0.032  1.00  0.00     0.136 C 
ENDROOT
BRANCH   1  21
HETATM   21  O1  UNL     1       3.555   1.826   0.618  1.00  0.00    -0.353 OA
HETATM   22  C1  UNL     1       4.742   1.352  -0.017  1.00  0.00     0.210 C 
ENDBRANCH   1  21
BRANCH  17  23
HETATM   23  N2  UNL     1      -0.892  -4.472  -0.221  1.00  0.00    -0.306 NA
HETATM   24  H22 UNL     1      -0.257  -4.752  -0.983  1.00  0.00     0.182 HD
ENDBRANCH  17  23
TORSDOF 2
