REMARK  8 active torsions:
REMARK  status: ('A' for Active; 'I' for Inactive)
REMARK    1  A    between atoms: O1_2  and  C2_3 
REMARK    2  A    between atoms: C4_5  and  C5_6 
REMARK    3  A    between atoms: C8_10  and  O2_11 
REMARK    4  A    between atoms: O2_11  and  O3_12 
REMARK    5  A    between atoms: C11_16  and  O4_17 
REMARK    6  A    between atoms: O4_17  and  C12_18 
REMARK    7  A    between atoms: C12_18  and  C13_19 
REMARK    8  A    between atoms: C13_19  and  O6_21 
ROOT
HETATM    1  C2  UNL     1       1.595  -1.193   0.896  1.00  0.00     0.102 A 
HETATM    2  C3  UNL     1       0.209  -1.009   0.955  1.00  0.00     0.055 A 
HETATM    3  C4  UNL     1      -0.463  -0.225   0.017  1.00  0.00     0.012 A 
HETATM    4  C9  UNL     1       0.284   0.370  -0.979  1.00  0.00     0.018 A 
HETATM    5  C10 UNL     1       1.651   0.211  -1.069  1.00  0.00     0.040 A 
HETATM    6  C11 UNL     1       2.300  -0.569  -0.132  1.00  0.00     0.102 A 
ENDROOT
BRANCH   3   7
HETATM    7  C5  UNL     1      -1.909  -0.081   0.145  1.00  0.00     0.135 A 
HETATM    8  N1  UNL     1      -2.572  -1.067   0.673  1.00  0.00    -0.243 NA
HETATM    9  C6  UNL     1      -3.983  -1.045   0.851  1.00  0.00     0.119 A 
HETATM   10  C7  UNL     1      -4.668   0.041   0.458  1.00  0.00     0.048 A 
HETATM   11  C8  UNL     1      -4.022   1.243  -0.163  1.00  0.00     0.285 A 
HETATM   12  N2  UNL     1      -2.606   1.085  -0.281  1.00  0.00    -0.342 N 
HETATM   13  H9  UNL     1      -2.087   1.883  -0.705  1.00  0.00     0.164 HD
BRANCH  11  14
HETATM   14  O2  UNL     1      -4.585   1.393  -1.416  1.00  0.00    -0.213 OA
BRANCH  14  15
HETATM   15  O3  UNL     1      -5.296   2.498  -1.500  1.00  0.00    -0.248 OA
HETATM   16  H8  UNL     1      -5.208   3.078  -0.702  1.00  0.00     0.253 HD
ENDBRANCH  14  15
ENDBRANCH  11  14
ENDBRANCH   3   7
BRANCH   1  17
HETATM   17  O1  UNL     1       2.238  -1.980   1.843  1.00  0.00    -0.353 OA
HETATM   18  C1  UNL     1       1.438  -2.571   2.846  1.00  0.00     0.210 C 
ENDBRANCH   1  17
BRANCH   6  19
HETATM   19  O4  UNL     1       3.670  -0.796  -0.127  1.00  0.00    -0.338 OA
BRANCH  19  20
HETATM   20  C12 UNL     1       4.588  -0.286  -1.044  1.00  0.00     0.285 C 
BRANCH  20  21
HETATM   21  C13 UNL     1       4.655   1.187  -1.105  1.00  0.00     0.164 C 
HETATM   22  O5  UNL     1       5.483   1.615  -1.932  1.00  0.00    -0.648 OA
BRANCH  21  23
HETATM   23  O6  UNL     1       4.025   2.245  -0.471  1.00  0.00    -0.775 OA
HETATM   24  H14 UNL     1       4.500   3.050  -0.105  1.00  0.00     0.167 HD
ENDBRANCH  21  23
ENDBRANCH  20  21
ENDBRANCH  19  20
ENDBRANCH   6  19
TORSDOF 8
