REMARK  9 active torsions:
REMARK  status: ('A' for Active; 'I' for Inactive)
REMARK    1  A    between atoms: C1_2  and  C2_3 
REMARK    2  A    between atoms: C1_2  and  O3_13 
REMARK    3  A    between atoms: C2_3  and  O2_4 
REMARK    4  A    between atoms: O2_4  and  C3_5 
REMARK    5  A    between atoms: O3_13  and  N2_14 
REMARK    6  A    between atoms: N2_14  and  C10_15 
REMARK    7  A    between atoms: C10_15  and  C11_16 
REMARK    8  A    between atoms: C11_16  and  C12_17 
REMARK    9  A    between atoms: C16_21  and  O4_22 
ROOT
HETATM    1  O3  UNL     1      -0.035  -0.602  -0.912  1.00  0.00    -0.225 OA
ENDROOT
BRANCH   1   2
HETATM    2  C1  UNL     1      -1.318  -0.184  -1.237  1.00  0.00     0.300 C 
HETATM    3  O1  UNL     1      -1.641   0.671  -2.105  1.00  0.00    -0.261 OA
BRANCH   2   4
HETATM    4  C2  UNL     1      -2.461  -0.805  -0.487  1.00  0.00     0.288 C 
BRANCH   4   5
HETATM    5  O2  UNL     1      -3.693  -0.302  -0.905  1.00  0.00    -0.341 OA
BRANCH   5   6
HETATM    6  C3  UNL     1      -4.855  -0.769  -0.313  1.00  0.00     0.082 A 
HETATM    7  C4  UNL     1      -5.352  -1.961  -0.059  1.00  0.00     0.040 A 
HETATM    8  C5  UNL     1      -6.661  -1.886   0.607  1.00  0.00     0.035 A 
HETATM    9  C6  UNL     1      -6.998  -0.606   0.778  1.00  0.00     0.069 A 
HETATM   10  N1  UNL     1      -7.959   0.324   1.266  1.00  0.00    -0.260 NA
HETATM   11  C9  UNL     1      -5.881   0.159   0.209  1.00  0.00     0.027 A 
HETATM   12  C7  UNL     1      -7.484   1.521   1.024  1.00  0.00     0.118 A 
HETATM   13  C8  UNL     1      -6.187   1.454   0.363  1.00  0.00     0.036 A 
ENDBRANCH   5   6
ENDBRANCH   4   5
ENDBRANCH   2   4
ENDBRANCH   1   2
BRANCH   1  14
HETATM   14  N2  UNL     1       1.026  -0.023  -1.611  1.00  0.00    -0.196 NA
HETATM   15  H7  UNL     1       0.764   0.986  -1.670  1.00  0.00     0.154 HD
BRANCH  14  16
HETATM   16  C10 UNL     1       2.237  -0.165  -0.789  1.00  0.00     0.122 C 
BRANCH  16  17
HETATM   17  C11 UNL     1       3.451   0.434  -1.463  1.00  0.00     0.055 C 
BRANCH  17  18
HETATM   18  C12 UNL     1       4.641   0.248  -0.560  1.00  0.00    -0.054 A 
HETATM   19  C13 UNL     1       5.466  -0.852  -0.597  1.00  0.00     0.007 A 
HETATM   20  C14 UNL     1       6.536  -0.941   0.269  1.00  0.00     0.003 A 
HETATM   21  C15 UNL     1       6.820   0.049   1.192  1.00  0.00     0.036 A 
HETATM   22  C16 UNL     1       5.983   1.152   1.222  1.00  0.00     0.066 A 
HETATM   23  C17 UNL     1       4.913   1.241   0.356  1.00  0.00     0.043 A 
BRANCH  22  24
HETATM   24  O4  UNL     1       6.288   2.132   2.156  1.00  0.00    -0.361 OA
HETATM   25  H15 UNL     1       6.775   2.960   1.862  1.00  0.00     0.217 HD
ENDBRANCH  22  24
ENDBRANCH  17  18
ENDBRANCH  16  17
ENDBRANCH  14  16
ENDBRANCH   1  14
TORSDOF 9
