REMARK  9 active torsions:
REMARK  status: ('A' for Active; 'I' for Inactive)
REMARK    1  A    between atoms: N1_1  and  C1_2 
REMARK    2  A    between atoms: C1_2  and  C2_3 
REMARK    3  A    between atoms: C2_3  and  C3_4 
REMARK    4  A    between atoms: C18_20  and  C19_21 
REMARK    5  A    between atoms: C19_21  and  O1_22 
REMARK    6  A    between atoms: O1_22  and  C20_23 
REMARK    7  A    between atoms: C20_23  and  C21_24 
REMARK    8  A    between atoms: C21_24  and  C22_25 
REMARK    9  A    between atoms: C25_28  and  O2_29 
ROOT
HETATM    1  C3  UNL     1      -1.788   1.035  -0.506  1.00  0.00    -0.041 C 
HETATM    2  C4  UNL     1      -0.866   0.199  -1.086  1.00  0.00     0.093 C 
HETATM    3  N2  UNL     1      -0.764  -1.217  -0.742  1.00  0.00    -0.382 N 
HETATM    4  C5  UNL     1      -1.342  -2.379  -1.520  1.00  0.00     0.138 C 
HETATM    5  C6  UNL     1      -2.720  -2.513  -0.886  1.00  0.00     0.018 A 
HETATM    6  C7  UNL     1      -3.351  -1.438  -1.424  1.00  0.00     0.040 A 
HETATM    7  C8  UNL     1      -4.534  -0.917  -0.983  1.00  0.00    -0.028 A 
HETATM    8  C9  UNL     1      -4.242  -1.974  -0.194  1.00  0.00     0.014 A 
HETATM    9  C10 UNL     1      -3.946  -3.025   0.584  1.00  0.00    -0.012 A 
HETATM   10  C11 UNL     1      -2.758  -3.478   0.070  1.00  0.00    -0.016 A 
HETATM   11  C12 UNL     1      -5.141  -1.507   0.919  1.00  0.00    -0.009 C 
HETATM   12  C13 UNL     1      -4.341  -0.653   1.624  1.00  0.00     0.004 C 
HETATM   13  C14 UNL     1      -2.931  -0.131   1.495  1.00  0.00    -0.058 C 
HETATM   14  C15 UNL     1      -2.618   0.976   0.749  1.00  0.00     0.015 C 
HETATM   15  C16 UNL     1      -1.832  -0.871   2.231  1.00  0.00     0.041 C 
HETATM   16  C17 UNL     1      -0.476  -0.719   1.669  1.00  0.00     0.032 C 
HETATM   17  C18 UNL     1      -0.085  -1.587   0.522  1.00  0.00     0.107 C 
ENDROOT
BRANCH  17  18
HETATM   18  C19 UNL     1       1.399  -1.271   0.242  1.00  0.00     0.192 C 
BRANCH  18  19
HETATM   19  O1  UNL     1       1.555   0.062  -0.057  1.00  0.00    -0.389 OA
BRANCH  19  20
HETATM   20  C20 UNL     1       2.818   0.486  -0.352  1.00  0.00     0.172 C 
BRANCH  20  21
HETATM   21  C21 UNL     1       3.742   0.245   0.809  1.00  0.00     0.064 C 
BRANCH  21  22
HETATM   22  C22 UNL     1       5.109   0.745   0.447  1.00  0.00    -0.056 A 
HETATM   23  C23 UNL     1       6.085  -0.008  -0.157  1.00  0.00     0.010 A 
HETATM   24  C24 UNL     1       7.291   0.567  -0.436  1.00  0.00     0.037 A 
HETATM   25  C25 UNL     1       7.618   1.885  -0.151  1.00  0.00     0.065 A 
HETATM   26  C26 UNL     1       6.603   2.624   0.464  1.00  0.00     0.037 A 
HETATM   27  C27 UNL     1       5.379   2.079   0.759  1.00  0.00     0.010 A 
BRANCH  25  28
HETATM   28  O2  UNL     1       8.859   2.432  -0.452  1.00  0.00    -0.361 OA
HETATM   29  H30 UNL     1       9.487   1.849  -0.971  1.00  0.00     0.217 HD
ENDBRANCH  25  28
ENDBRANCH  21  22
ENDBRANCH  20  21
ENDBRANCH  19  20
ENDBRANCH  18  19
ENDBRANCH  17  18
BRANCH   1  30
HETATM   30  C2  UNL     1      -2.024   2.254  -1.268  1.00  0.00     0.069 C 
BRANCH  30  31
HETATM   31  C1  UNL     1      -3.419   2.493  -1.754  1.00  0.00     0.271 C 
BRANCH  31  32
HETATM   32  N1  UNL     1      -4.428   2.585  -0.757  1.00  0.00     0.078 N 
HETATM   33  H1  UNL     1      -5.343   2.233  -1.127  1.00  0.00     0.312 HD
HETATM   34  H2  UNL     1      -4.536   3.529  -0.321  1.00  0.00     0.312 HD
ENDBRANCH  31  32
ENDBRANCH  30  31
ENDBRANCH   1  30
TORSDOF 9
