REMARK  3 active torsions:
REMARK  status: ('A' for Active; 'I' for Inactive)
REMARK    1  A    between atoms: N1_1  and  C1_2 
REMARK    2  A    between atoms: C1_2  and  C2_3 
REMARK    3  A    between atoms: C2_3  and  N2_4 
ROOT
HETATM    1  N2  UNL     1       1.914  -0.105  -0.576  1.00  0.00    -0.366 N 
HETATM    2  C3  UNL     1       1.919  -1.044  -1.664  1.00  0.00     0.102 C 
HETATM    3  C4  UNL     1       2.522  -2.144  -1.201  1.00  0.00     0.015 C 
HETATM    4  P1  UNL     1       1.553  -3.047  -0.165  1.00  0.00     0.049 P 
HETATM    5  C5  UNL     1      -0.048  -2.325   0.086  1.00  0.00    -0.035 C 
HETATM    6  C6  UNL     1      -1.089  -1.852   0.228  1.00  0.00     0.059 C 
HETATM    7  O1  UNL     1      -2.202  -1.328   0.367  1.00  0.00    -0.303 OA
HETATM    8  C7  UNL     1      -3.479  -1.538  -0.111  1.00  0.00     0.192 C 
HETATM    9  C8  UNL     1      -4.176  -0.212   0.501  1.00  0.00     0.066 C 
HETATM   10  C9  UNL     1      -2.930   0.671   0.267  1.00  0.00    -0.056 A 
HETATM   11  C10 UNL     1      -2.609   0.715  -1.057  1.00  0.00     0.010 A 
HETATM   12  C11 UNL     1      -1.328   1.177  -1.256  1.00  0.00     0.037 A 
HETATM   13  C12 UNL     1      -0.644   1.494  -0.109  1.00  0.00     0.071 A 
HETATM   14  C13 UNL     1      -1.123   1.397   1.161  1.00  0.00     0.037 A 
HETATM   15  C14 UNL     1      -2.378   0.952   1.479  1.00  0.00     0.010 A 
HETATM   16  O2  UNL     1       0.631   1.934  -0.254  1.00  0.00    -0.332 OA
HETATM   17  C15 UNL     1       1.585   1.252  -0.996  1.00  0.00     0.300 C 
ENDROOT
BRANCH   1  18
HETATM   18  C2  UNL     1       2.210  -0.089   0.834  1.00  0.00     0.154 C 
BRANCH  18  19
HETATM   19  C1  UNL     1       3.516   0.692   1.101  1.00  0.00     0.286 C 
BRANCH  19  20
HETATM   20  N1  UNL     1       4.639   0.123   0.422  1.00  0.00     0.079 N 
HETATM   21  H1  UNL     1       4.672   0.263  -0.596  1.00  0.00     0.312 HD
HETATM   22  H2  UNL     1       4.760  -0.869   0.678  1.00  0.00     0.312 HD
ENDBRANCH  19  20
ENDBRANCH  18  19
ENDBRANCH   1  18
TORSDOF 3
