REMARK  7 active torsions:
REMARK  status: ('A' for Active; 'I' for Inactive)
REMARK    1  A    between atoms: S1_2  and  C2_3 
REMARK    2  A    between atoms: C2_3  and  C3_4 
REMARK    3  A    between atoms: C8_10  and  O1_11 
REMARK    4  A    between atoms: O1_11  and  C9_12 
REMARK    5  A    between atoms: C9_12  and  C10_13 
REMARK    6  A    between atoms: C10_13  and  C11_14 
REMARK    7  A    between atoms: C14_17  and  O2_18 
ROOT
HETATM    1  C3  UNL     1       5.000  -0.951  -0.138  1.00  0.00     0.036 A 
HETATM    2  C4  UNL     1       4.968   0.330   0.191  1.00  0.00     0.123 A 
HETATM    3  N1  UNL     1       3.606   0.649   0.531  1.00  0.00    -0.317 N 
HETATM    4  C5  UNL     1       3.072   1.901   0.948  1.00  0.00     0.099 A 
HETATM    5  C6  UNL     1       1.783   2.010   1.222  1.00  0.00     0.031 A 
HETATM    6  C7  UNL     1       0.918   0.849   1.095  1.00  0.00    -0.009 A 
HETATM    7  C8  UNL     1      -0.372   0.938   1.364  1.00  0.00     0.146 C 
HETATM    8  C17 UNL     1       1.498  -0.418   0.664  1.00  0.00     0.062 A 
HETATM    9  C18 UNL     1       2.792  -0.520   0.392  1.00  0.00     0.112 A 
HETATM   10  N2  UNL     1       3.710  -1.539  -0.040  1.00  0.00    -0.344 N 
HETATM   11  H20 UNL     1       3.360  -2.504  -0.215  1.00  0.00     0.167 HD
ENDROOT
BRANCH   7  12
HETATM   12  O1  UNL     1      -1.377  -0.016   1.316  1.00  0.00    -0.362 OA
BRANCH  12  13
HETATM   13  C9  UNL     1      -2.642   0.304   0.715  1.00  0.00     0.179 C 
BRANCH  13  14
HETATM   14  C10 UNL     1      -3.509  -0.930   0.835  1.00  0.00     0.065 C 
BRANCH  14  15
HETATM   15  C11 UNL     1      -4.849  -0.639   0.217  1.00  0.00    -0.056 A 
HETATM   16  C12 UNL     1      -5.041  -0.906  -1.132  1.00  0.00     0.010 A 
HETATM   17  C13 UNL     1      -6.283  -0.636  -1.720  1.00  0.00     0.037 A 
HETATM   18  C14 UNL     1      -7.318  -0.107  -0.968  1.00  0.00     0.065 A 
HETATM   19  C15 UNL     1      -7.130   0.156   0.359  1.00  0.00     0.037 A 
HETATM   20  C16 UNL     1      -5.897  -0.111   0.946  1.00  0.00     0.010 A 
BRANCH  18  21
HETATM   21  O2  UNL     1      -8.576   0.173  -1.534  1.00  0.00    -0.361 OA
HETATM   22  H16 UNL     1      -8.860   1.157  -1.504  1.00  0.00     0.217 HD
ENDBRANCH  18  21
ENDBRANCH  14  15
ENDBRANCH  13  14
ENDBRANCH  12  13
ENDBRANCH   7  12
BRANCH   1  23
HETATM   23  C2  UNL     1       6.203  -1.704  -0.555  1.00  0.00     0.132 C 
BRANCH  23  24
HETATM   24  S1  UNL     1       7.682  -0.676  -0.579  1.00  0.00    -0.167 SA
HETATM   25  C1  UNL     1       7.624   0.608  -1.833  1.00  0.00     0.090 C 
ENDBRANCH  23  24
ENDBRANCH   1  23
TORSDOF 7
