REMARK  10 active torsions:
REMARK  status: ('A' for Active; 'I' for Inactive)
REMARK    1  A    between atoms: C5_5  and  C6_6 
REMARK    2  A    between atoms: C6_6  and  N1_7 
REMARK    3  A    between atoms: C8_9  and  C9_10 
REMARK    4  A    between atoms: C9_10  and  C10_11 
REMARK    5  A    between atoms: C10_11  and  N2_12 
REMARK    6  A    between atoms: C13_15  and  O1_16 
REMARK    7  A    between atoms: O1_16  and  C14_17 
REMARK    8  A    between atoms: C14_17  and  C15_18 
REMARK    9  A    between atoms: C15_18  and  C16_19 
REMARK   10  A    between atoms: C19_22  and  O2_23 
ROOT
HETATM    1  N1  UNL     1      -2.731  -0.979   0.640  1.00  0.00    -0.351 N 
HETATM    2  C7  UNL     1      -2.973  -1.874  -0.358  1.00  0.00     0.099 A 
HETATM    3  C8  UNL     1      -1.774  -2.138  -0.972  1.00  0.00    -0.028 A 
HETATM    4  C11 UNL     1      -0.772  -1.411  -0.364  1.00  0.00     0.001 A 
HETATM    5  C12 UNL     1       0.608  -1.246  -0.517  1.00  0.00     0.051 A 
HETATM    6  C13 UNL     1       1.323  -0.385   0.323  1.00  0.00     0.069 A 
HETATM    7  C21 UNL     1       0.663   0.312   1.313  1.00  0.00     0.039 A 
HETATM    8  C22 UNL     1      -0.698   0.143   1.457  1.00  0.00     0.033 A 
HETATM    9  C23 UNL     1      -1.420  -0.700   0.640  1.00  0.00     0.045 A 
ENDROOT
BRANCH   6  10
HETATM   10  O1  UNL     1       2.661  -0.408  -0.041  1.00  0.00    -0.351 OA
BRANCH  10  11
HETATM   11  C14 UNL     1       3.636   0.367   0.630  1.00  0.00     0.180 C 
BRANCH  11  12
HETATM   12  C15 UNL     1       4.953   0.071  -0.049  1.00  0.00     0.061 C 
BRANCH  12  13
HETATM   13  C16 UNL     1       6.098   0.792   0.516  1.00  0.00    -0.072 A 
HETATM   14  C17 UNL     1       6.260   1.656   1.496  1.00  0.00     0.006 A 
HETATM   15  C18 UNL     1       7.675   2.000   1.547  1.00  0.00     0.032 A 
HETATM   16  C19 UNL     1       8.340   1.344   0.607  1.00  0.00     0.047 A 
HETATM   17  C20 UNL     1       7.413   0.504  -0.154  1.00  0.00     0.098 A 
BRANCH  16  18
HETATM   18  O2  UNL     1       9.695   1.365   0.292  1.00  0.00    -0.365 OA
HETATM   19  H22 UNL     1      10.004   1.407  -0.670  1.00  0.00     0.217 HD
ENDBRANCH  16  18
ENDBRANCH  12  13
ENDBRANCH  11  12
ENDBRANCH  10  11
ENDBRANCH   6  10
BRANCH   3  20
HETATM   20  C9  UNL     1      -1.541  -3.060  -2.123  1.00  0.00     0.070 C 
BRANCH  20  21
HETATM   21  C10 UNL     1      -0.901  -4.329  -1.574  1.00  0.00     0.271 C 
BRANCH  21  22
HETATM   22  N2  UNL     1      -1.826  -4.916  -0.607  1.00  0.00     0.078 N 
HETATM   23  H13 UNL     1      -2.750  -5.033  -1.074  1.00  0.00     0.312 HD
HETATM   24  H14 UNL     1      -1.505  -5.855  -0.303  1.00  0.00     0.312 HD
ENDBRANCH  21  22
ENDBRANCH  20  21
ENDBRANCH   3  20
BRANCH   1  25
HETATM   25  C6  UNL     1      -3.802  -0.488   1.490  1.00  0.00     0.167 C 
BRANCH  25  26
HETATM   26  C5  UNL     1      -4.447   0.737   0.954  1.00  0.00    -0.040 A 
HETATM   27  C4  UNL     1      -4.022   2.029   1.259  1.00  0.00     0.009 A 
HETATM   28  C3  UNL     1      -4.683   3.134   0.712  1.00  0.00     0.007 A 
HETATM   29  C2  UNL     1      -5.763   2.949  -0.133  1.00  0.00    -0.062 A 
HETATM   30  C1  UNL     1      -6.459   4.130  -0.707  1.00  0.00     0.048 C 
HETATM   31  C25 UNL     1      -6.178   1.669  -0.429  1.00  0.00     0.007 A 
HETATM   32  C24 UNL     1      -5.532   0.550   0.104  1.00  0.00     0.009 A 
ENDBRANCH  25  26
ENDBRANCH   1  25
TORSDOF 10
