REMARK  3 active torsions:
REMARK  status: ('A' for Active; 'I' for Inactive)
REMARK    1  A    between atoms: C2_2  and  C3_3 
REMARK    2  A    between atoms: C3_3  and  C4_4 
REMARK    3  A    between atoms: C12_13  and  C13_14 
ROOT
HETATM    1  C4  UNL     1       0.019   0.927   0.669  1.00  0.00    -0.035 C 
HETATM    2  C5  UNL     1       0.661   2.119   0.511  1.00  0.00     0.074 C 
HETATM    3  C6  UNL     1       1.928   1.843   0.070  1.00  0.00    -0.055 C 
HETATM    4  C7  UNL     1       2.984   1.592  -0.304  1.00  0.00     0.011 C 
HETATM    5  N1  UNL     1       4.228   1.272  -0.753  1.00  0.00    -0.345 N 
HETATM    6  C8  UNL     1       4.207   0.145   0.164  1.00  0.00     0.186 C 
HETATM    7  C9  UNL     1       3.103  -0.748  -0.193  1.00  0.00     0.028 C 
HETATM    8  C10 UNL     1       2.151  -0.848   0.773  1.00  0.00     0.039 C 
HETATM    9  C11 UNL     1       0.820  -0.299   0.381  1.00  0.00    -0.016 C 
HETATM   10  C12 UNL     1       0.052  -0.966  -0.445  1.00  0.00    -0.014 C 
HETATM   11  C19 UNL     1       0.559  -1.610  -1.707  1.00  0.00     0.030 C 
HETATM   12  C20 UNL     1       1.831  -1.845  -2.105  1.00  0.00     0.089 C 
HETATM   13  N2  UNL     1       3.039  -1.421  -1.440  1.00  0.00    -0.368 N 
HETATM   14  H7  UNL     1       4.697   1.843  -1.477  1.00  0.00     0.170 HD
HETATM   15  H18 UNL     1       3.988  -1.554  -1.793  1.00  0.00     0.165 HD
ENDROOT
BRANCH  10  16
HETATM   16  C13 UNL     1      -1.371  -1.190  -0.184  1.00  0.00    -0.025 A 
HETATM   17  C14 UNL     1      -2.095  -0.904  -1.389  1.00  0.00     0.012 A 
HETATM   18  C15 UNL     1      -3.475  -1.160  -1.454  1.00  0.00     0.001 A 
HETATM   19  C16 UNL     1      -4.124  -1.685  -0.360  1.00  0.00     0.000 A 
HETATM   20  C17 UNL     1      -3.441  -1.965   0.801  1.00  0.00     0.001 A 
HETATM   21  C18 UNL     1      -2.091  -1.737   0.929  1.00  0.00     0.012 A 
ENDBRANCH  10  16
BRANCH   1  22
HETATM   22  C3  UNL     1      -1.325   0.884   1.116  1.00  0.00     0.066 C 
BRANCH  22  23
HETATM   23  C2  UNL     1      -1.548   2.406   1.359  1.00  0.00    -0.032 C 
HETATM   24  C1  UNL     1      -2.408   3.199   0.756  1.00  0.00     0.007 C 
ENDBRANCH  22  23
ENDBRANCH   1  22
TORSDOF 3
