REMARK  4 active torsions:
REMARK  status: ('A' for Active; 'I' for Inactive)
REMARK    1  A    between atoms: O1_1  and  C1_2 
REMARK    2  A    between atoms: C4_5  and  C5_6 
REMARK    3  A    between atoms: C5_6  and  C6_7 
REMARK    4  A    between atoms: C6_7  and  O2_8 
ROOT
HETATM    1  O2  UNL     1       2.762  -1.164   0.481  1.00  0.00     0.000 OA
HETATM    2  C7  UNL     1       2.662   0.171   0.441  1.00  0.00     0.039 A 
HETATM    3  C8  UNL     1       1.553  -0.593   0.514  1.00  0.00    -0.026 A 
HETATM    4  C9  UNL     1       0.603  -1.260   0.558  1.00  0.00    -0.018 A 
HETATM    5  C10 UNL     1      -0.380  -1.972   0.590  1.00  0.00    -0.042 A 
HETATM    6  C11 UNL     1      -0.601  -1.220   1.749  1.00  0.00     0.148 A 
HETATM    7  N1  UNL     1      -0.919   0.087   2.012  1.00  0.00    -0.373 N 
HETATM    8  C12 UNL     1       0.091   0.986   2.005  1.00  0.00     0.086 C 
HETATM    9  C13 UNL     1       0.810   1.857   1.204  1.00  0.00     0.014 C 
HETATM   10  C14 UNL     1       1.812   1.260   0.449  1.00  0.00    -0.008 C 
HETATM   11  C15 UNL     1      -2.066   0.918   2.317  1.00  0.00     0.161 C 
HETATM   12  C16 UNL     1      -2.690   1.434   1.051  1.00  0.00    -0.044 A 
HETATM   13  C17 UNL     1      -3.849   2.055   0.952  1.00  0.00    -0.009 A 
HETATM   14  C18 UNL     1      -4.142   2.413  -0.437  1.00  0.00     0.035 A 
HETATM   15  C19 UNL     1      -2.955   1.882  -1.159  1.00  0.00    -0.017 A 
HETATM   16  C20 UNL     1      -2.115   1.322  -0.308  1.00  0.00     0.005 A 
HETATM   17  C21 UNL     1      -5.330   1.685  -1.028  1.00  0.00     0.039 C 
HETATM   18  C22 UNL     1      -5.250   0.211  -0.691  1.00  0.00    -0.028 C 
HETATM   19  C23 UNL     1      -5.175  -1.118  -0.977  1.00  0.00    -0.001 C 
HETATM   20  C24 UNL     1      -5.127  -2.110   0.158  1.00  0.00     0.296 C 
HETATM   21  N2  UNL     1      -3.975  -2.944   0.164  1.00  0.00     0.087 N 
HETATM   22  C25 UNL     1      -2.824  -2.096   0.387  1.00  0.00     0.274 C 
HETATM   23  C26 UNL     1      -1.552  -2.820   0.630  1.00  0.00     0.067 C 
HETATM   24  H24 UNL     1      -3.876  -3.507  -0.700  1.00  0.00     0.316 HD
ENDROOT
BRANCH   1  25
HETATM   25  C6  UNL     1       3.867  -1.959   0.443  1.00  0.00     0.005 C 
BRANCH  25  26
HETATM   26  C5  UNL     1       4.648  -1.850  -0.821  1.00  0.00     0.038 C 
BRANCH  26  27
HETATM   27  C4  UNL     1       5.187  -0.540  -1.149  1.00  0.00    -0.058 A 
HETATM   28  C3  UNL     1       6.432  -0.261  -0.672  1.00  0.00     0.010 A 
HETATM   29  C2  UNL     1       7.063   0.935  -0.904  1.00  0.00     0.037 A 
HETATM   30  C1  UNL     1       6.500   1.945  -1.630  1.00  0.00     0.065 A 
HETATM   31  C28 UNL     1       5.227   1.683  -2.126  1.00  0.00     0.037 A 
HETATM   32  C27 UNL     1       4.568   0.466  -1.899  1.00  0.00     0.010 A 
BRANCH  30  33
HETATM   33  O1  UNL     1       7.067   3.195  -1.919  1.00  0.00    -0.361 OA
HETATM   34  H1  UNL     1       7.660   3.671  -1.230  1.00  0.00     0.217 HD
ENDBRANCH  30  33
ENDBRANCH  26  27
ENDBRANCH  25  26
ENDBRANCH   1  25
TORSDOF 4
