REMARK  8 active torsions:
REMARK  status: ('A' for Active; 'I' for Inactive)
REMARK    1  A    between atoms: C5_5  and  O1_6 
REMARK    2  A    between atoms: O1_6  and  C6_7 
REMARK    3  A    between atoms: C6_7  and  C7_8 
REMARK    4  A    between atoms: C7_8  and  C8_9 
REMARK    5  A    between atoms: C11_12  and  O2_13 
REMARK    6  A    between atoms: N2_19  and  C16_20 
REMARK    7  A    between atoms: C16_20  and  C17_21 
REMARK    8  A    between atoms: C17_21  and  N3_22 
ROOT
HETATM    1  C1  UNL     1      -3.444   1.581   2.138  1.00  0.00     0.064 C 
HETATM    2  C2  UNL     1      -3.099   0.863   1.089  1.00  0.00     0.025 A 
HETATM    3  C3  UNL     1      -1.835   0.243   0.725  1.00  0.00     0.019 A 
HETATM    4  C4  UNL     1      -0.494  -0.097   0.889  1.00  0.00     0.073 A 
HETATM    5  C5  UNL     1       0.191  -0.856  -0.034  1.00  0.00     0.164 A 
HETATM    6  N1  UNL     1      -0.495  -1.265  -1.123  1.00  0.00    -0.235 NA
HETATM    7  C14 UNL     1      -1.789  -0.967  -1.331  1.00  0.00     0.150 A 
HETATM    8  C15 UNL     1      -2.489  -0.205  -0.410  1.00  0.00     0.065 A 
HETATM    9  N2  UNL     1      -3.758   0.399  -0.076  1.00  0.00    -0.346 N 
ENDROOT
BRANCH   5  10
HETATM   10  O1  UNL     1       1.548  -1.193   0.146  1.00  0.00    -0.334 OA
BRANCH  10  11
HETATM   11  C6  UNL     1       2.146  -1.981  -0.879  1.00  0.00     0.182 C 
BRANCH  11  12
HETATM   12  C7  UNL     1       3.575  -2.238  -0.497  1.00  0.00     0.065 C 
BRANCH  12  13
HETATM   13  C8  UNL     1       4.277  -0.951  -0.367  1.00  0.00    -0.056 A 
HETATM   14  C9  UNL     1       4.307  -0.283   0.852  1.00  0.00     0.010 A 
HETATM   15  C10 UNL     1       4.978   0.939   0.975  1.00  0.00     0.037 A 
HETATM   16  C11 UNL     1       5.589   1.426  -0.153  1.00  0.00     0.065 A 
HETATM   17  C12 UNL     1       5.593   0.810  -1.386  1.00  0.00     0.037 A 
HETATM   18  C13 UNL     1       4.924  -0.376  -1.447  1.00  0.00     0.010 A 
BRANCH  16  19
HETATM   19  O2  UNL     1       6.246   2.640   0.001  1.00  0.00    -0.361 OA
HETATM   20  H10 UNL     1       7.273   2.560  -0.002  1.00  0.00     0.217 HD
ENDBRANCH  16  19
ENDBRANCH  12  13
ENDBRANCH  11  12
ENDBRANCH  10  11
ENDBRANCH   5  10
BRANCH   9  21
HETATM   21  C16 UNL     1      -5.044   0.437  -0.719  1.00  0.00     0.159 C 
BRANCH  21  22
HETATM   22  C17 UNL     1      -6.082  -0.354   0.054  1.00  0.00     0.286 C 
BRANCH  22  23
HETATM   23  N3  UNL     1      -6.199   0.226   1.370  1.00  0.00     0.079 N 
HETATM   24  H18 UNL     1      -6.806  -0.339   2.005  1.00  0.00     0.312 HD
HETATM   25  H19 UNL     1      -6.419   1.229   1.357  1.00  0.00     0.312 HD
ENDBRANCH  22  23
ENDBRANCH  21  22
ENDBRANCH   9  21
TORSDOF 8
