REMARK  5 active torsions:
REMARK  status: ('A' for Active; 'I' for Inactive)
REMARK    1  A    between atoms: C4_4  and  C5_5 
REMARK    2  A    between atoms: C5_5  and  N1_6 
REMARK    3  A    between atoms: C8_10  and  C9_11 
REMARK    4  A    between atoms: C9_11  and  C10_12 
REMARK    5  A    between atoms: C13_15  and  O2_16 
ROOT
HETATM    1  C1  UNL     1      -0.913  -1.106   3.023  1.00  0.00     0.049 C 
HETATM    2  C2  UNL     1      -1.637  -0.797   1.753  1.00  0.00    -0.051 A 
HETATM    3  C3  UNL     1      -2.909  -0.458   1.609  1.00  0.00     0.017 A 
HETATM    4  C4  UNL     1      -3.170  -0.253   0.190  1.00  0.00    -0.021 A 
HETATM    5  C6  UNL     1      -2.072  -0.465  -0.511  1.00  0.00    -0.016 A 
HETATM    6  C7  UNL     1      -1.747  -0.406  -1.959  1.00  0.00     0.208 C 
HETATM    7  O1  UNL     1      -0.677  -1.232  -2.287  1.00  0.00    -0.377 OA
HETATM    8  C8  UNL     1       0.449  -1.011  -1.511  1.00  0.00     0.149 C 
HETATM    9  C16 UNL     1       0.203  -1.089  -0.066  1.00  0.00     0.017 C 
HETATM   10  C17 UNL     1      -1.004  -0.830   0.439  1.00  0.00    -0.022 A 
ENDROOT
BRANCH   8  11
HETATM   11  C9  UNL     1       1.196   0.237  -1.840  1.00  0.00     0.074 C 
BRANCH  11  12
HETATM   12  C10 UNL     1       2.401   0.476  -1.011  1.00  0.00    -0.055 A 
HETATM   13  C11 UNL     1       3.604  -0.055  -1.485  1.00  0.00     0.010 A 
HETATM   14  C12 UNL     1       4.769   0.143  -0.739  1.00  0.00     0.037 A 
HETATM   15  C13 UNL     1       4.716   0.857   0.452  1.00  0.00     0.065 A 
HETATM   16  C14 UNL     1       3.527   1.381   0.918  1.00  0.00     0.037 A 
HETATM   17  C15 UNL     1       2.365   1.186   0.178  1.00  0.00     0.010 A 
BRANCH  15  18
HETATM   18  O2  UNL     1       5.925   1.017   1.150  1.00  0.00    -0.361 OA
HETATM   19  H16 UNL     1       6.727   1.463   0.704  1.00  0.00     0.217 HD
ENDBRANCH  15  18
ENDBRANCH  11  12
ENDBRANCH   8  11
BRANCH   4  20
HETATM   20  C5  UNL     1      -4.508   0.139  -0.328  1.00  0.00     0.306 C 
BRANCH  20  21
HETATM   21  N1  UNL     1      -4.952   1.402   0.217  1.00  0.00     0.082 N 
HETATM   22  H7  UNL     1      -5.604   1.909  -0.413  1.00  0.00     0.313 HD
HETATM   23  H8  UNL     1      -5.296   1.329   1.196  1.00  0.00     0.313 HD
ENDBRANCH  20  21
ENDBRANCH   4  20
TORSDOF 5
