REMARK  3 active torsions:
REMARK  status: ('A' for Active; 'I' for Inactive)
REMARK    1  A    between atoms: C6_7  and  C7_8 
REMARK    2  A    between atoms: C9_10  and  N1_11 
REMARK    3  A    between atoms: N1_11  and  C10_12 
ROOT
HETATM    1  C7  UNL     1      -1.532   1.197  -0.086  1.00  0.00     0.065 A 
HETATM    2  C8  UNL     1      -0.431   1.784   0.261  1.00  0.00     0.083 A 
HETATM    3  C9  UNL     1       0.736   1.773   0.938  1.00  0.00     0.145 A 
HETATM    4  N2  UNL     1       1.613   2.792   0.929  1.00  0.00    -0.223 NA
HETATM    5  C16 UNL     1       1.321   3.913   0.200  1.00  0.00     0.237 A 
HETATM    6  N3  UNL     1       0.148   3.911  -0.472  1.00  0.00    -0.221 NA
HETATM    7  C17 UNL     1      -0.726   2.903  -0.469  1.00  0.00     0.167 A 
HETATM    8  N4  UNL     1      -1.842   2.363  -0.847  1.00  0.00    -0.231 NA
ENDROOT
BRANCH   3   9
HETATM    9  N1  UNL     1       1.225   0.742   1.745  1.00  0.00    -0.340 N 
HETATM   10  H10 UNL     1       0.936   0.458   2.706  1.00  0.00     0.167 HD
BRANCH   9  11
HETATM   11  C10 UNL     1       2.252   0.020   1.054  1.00  0.00     0.035 A 
HETATM   12  C11 UNL     1       3.291  -0.322   1.935  1.00  0.00     0.029 A 
HETATM   13  C12 UNL     1       4.389  -1.032   1.510  1.00  0.00     0.004 A 
HETATM   14  C13 UNL     1       4.452  -1.407   0.181  1.00  0.00     0.024 A 
HETATM   15  C14 UNL     1       3.431  -1.079  -0.711  1.00  0.00     0.036 A 
HETATM   16 CL1  UNL     1       3.430  -1.521  -2.403  1.00  0.00    -0.084 Cl
HETATM   17  C15 UNL     1       2.338  -0.363  -0.256  1.00  0.00     0.053 A 
ENDBRANCH   9  11
ENDBRANCH   3   9
BRANCH   1  18
HETATM   18  C6  UNL     1      -2.287  -0.023   0.076  1.00  0.00     0.090 C 
HETATM   19  C2  UNL     1      -2.610  -0.660  -1.291  1.00  0.00     0.131 C 
HETATM   20  C1  UNL     1      -3.016   0.399  -2.247  1.00  0.00     0.040 C 
HETATM   21  O1  UNL     1      -3.698  -1.524  -1.017  1.00  0.00    -0.382 OA
HETATM   22  C3  UNL     1      -3.081  -2.668  -0.467  1.00  0.00     0.195 C 
HETATM   23  C4  UNL     1      -2.168  -2.262   0.652  1.00  0.00    -0.004 C 
HETATM   24  C5  UNL     1      -1.741  -1.033   0.982  1.00  0.00    -0.015 C 
ENDBRANCH   1  18
TORSDOF 3
