REMARK  8 active torsions:
REMARK  status: ('A' for Active; 'I' for Inactive)
REMARK    1  A    between atoms: N1_1  and  C1_2 
REMARK    2  A    between atoms: N2_9  and  C8_10 
REMARK    3  A    between atoms: C8_10  and  C9_11 
REMARK    4  A    between atoms: C9_11  and  C10_12 
REMARK    5  A    between atoms: C10_12  and  C11_13 
REMARK    6  A    between atoms: C11_13  and  C12_14 
REMARK    7  A    between atoms: C12_14  and  C13_15 
REMARK    8  A    between atoms: C16_18  and  C17_19 
ROOT
HETATM    1  C9  UNL     1      -0.227   0.777  -0.358  1.00  0.00     0.020 C 
ENDROOT
BRANCH   1   2
HETATM    2  C8  UNL     1       0.833   1.247   0.623  1.00  0.00     0.123 C 
BRANCH   2   3
HETATM    3  N2  UNL     1       1.981   0.378   0.428  1.00  0.00    -0.380 N 
HETATM    4  C4  UNL     1       3.280   0.586  -0.092  1.00  0.00     0.011 A 
HETATM    5  C3  UNL     1       4.339   1.439  -0.687  1.00  0.00     0.059 C 
HETATM    6  C5  UNL     1       3.530  -0.704   0.144  1.00  0.00    -0.038 A 
HETATM    7  C2  UNL     1       5.662   0.849  -0.237  1.00  0.00     0.041 C 
HETATM    8  C1  UNL     1       5.760  -0.543  -0.821  1.00  0.00     0.222 C 
HETATM    9  C6  UNL     1       4.786  -1.432  -0.124  1.00  0.00     0.073 C 
HETATM   10  C7  UNL     1       2.183  -1.020   0.705  1.00  0.00     0.159 A 
BRANCH   8  11
HETATM   11  N1  UNL     1       7.139  -0.962  -0.616  1.00  0.00     0.083 N 
HETATM   12  H1  UNL     1       7.792  -0.136  -0.536  1.00  0.00     0.313 HD
HETATM   13  H2  UNL     1       7.248  -1.523   0.257  1.00  0.00     0.313 HD
ENDBRANCH   8  11
ENDBRANCH   2   3
ENDBRANCH   1   2
BRANCH   1  14
HETATM   14  C10 UNL     1      -1.438   1.636  -0.206  1.00  0.00     0.002 C 
BRANCH  14  15
HETATM   15  C11 UNL     1      -2.031   1.584   1.153  1.00  0.00     0.005 C 
BRANCH  15  16
HETATM   16  C12 UNL     1      -2.485   0.207   1.492  1.00  0.00     0.038 C 
BRANCH  16  17
HETATM   17  C13 UNL     1      -3.542  -0.313   0.584  1.00  0.00    -0.058 A 
HETATM   18  C14 UNL     1      -3.496  -1.044  -0.582  1.00  0.00     0.008 A 
HETATM   19  C15 UNL     1      -4.662  -1.388  -1.229  1.00  0.00     0.017 A 
HETATM   20  C16 UNL     1      -5.919  -1.042  -0.780  1.00  0.00     0.047 A 
HETATM   21  C18 UNL     1      -5.983  -0.309   0.387  1.00  0.00     0.017 A 
HETATM   22  C19 UNL     1      -4.821   0.040   1.042  1.00  0.00     0.008 A 
BRANCH  20  23
HETATM   23  C17 UNL     1      -7.143  -1.440  -1.523  1.00  0.00     0.417 C 
HETATM   24  F1  UNL     1      -7.682  -0.373  -2.218  1.00  0.00    -0.166 F 
HETATM   25  F2  UNL     1      -6.822  -2.466  -2.400  1.00  0.00    -0.166 F 
HETATM   26  F3  UNL     1      -8.128  -1.955  -0.703  1.00  0.00    -0.166 F 
ENDBRANCH  20  23
ENDBRANCH  16  17
ENDBRANCH  15  16
ENDBRANCH  14  15
ENDBRANCH   1  14
TORSDOF 8
