REMARK  5 active torsions:
REMARK  status: ('A' for Active; 'I' for Inactive)
REMARK    1  A    between atoms: N1_1  and  C1_2 
REMARK    2  A    between atoms: N2_11  and  C10_12 
REMARK    3  A    between atoms: C10_12  and  C11_13 
REMARK    4  A    between atoms: C11_13  and  C12_14 
REMARK    5  A    between atoms: C12_14  and  C13_15 
ROOT
HETATM    1  C1  UNL     1      -3.953   0.599   0.484  1.00  0.00     0.296 C 
HETATM    2  C2  UNL     1      -3.098   0.345   1.579  1.00  0.00    -0.065 C 
HETATM    3  C3  UNL     1      -2.415   0.145   2.421  1.00  0.00    -0.061 C 
HETATM    4  C4  UNL     1      -1.566  -0.097   3.428  1.00  0.00     0.056 C 
HETATM    5  C5  UNL     1      -1.379  -0.412   4.623  1.00  0.00     0.009 C 
HETATM    6  C6  UNL     1      -0.239  -0.213   5.194  1.00  0.00    -0.012 C 
HETATM    7  C7  UNL     1       0.797   0.201   4.480  1.00  0.00     0.015 C 
HETATM    8  C8  UNL     1       0.594   0.361   3.020  1.00  0.00     0.032 C 
HETATM    9  C9  UNL     1      -0.575   0.234   2.356  1.00  0.00     0.050 C 
HETATM   10  N2  UNL     1      -0.304   0.489   0.936  1.00  0.00    -0.380 N 
HETATM   11  C19 UNL     1      -1.034   1.533   0.337  1.00  0.00     0.123 C 
HETATM   12  C20 UNL     1      -1.947   1.379  -0.788  1.00  0.00     0.023 C 
HETATM   13  C21 UNL     1      -3.064   0.418  -0.791  1.00  0.00     0.050 C 
ENDROOT
BRANCH  10  14
HETATM   14  C10 UNL     1       0.731  -0.341   0.380  1.00  0.00     0.123 C 
BRANCH  14  15
HETATM   15  C11 UNL     1       0.238  -1.310  -0.671  1.00  0.00     0.024 C 
BRANCH  15  16
HETATM   16  C12 UNL     1       1.349  -2.148  -1.208  1.00  0.00     0.040 C 
BRANCH  16  17
HETATM   17  C13 UNL     1       2.451  -1.448  -1.853  1.00  0.00    -0.058 A 
HETATM   18  C14 UNL     1       3.632  -0.985  -1.271  1.00  0.00     0.007 A 
HETATM   19  C15 UNL     1       4.524  -0.341  -2.139  1.00  0.00     0.001 A 
HETATM   20  C16 UNL     1       4.304  -0.149  -3.480  1.00  0.00     0.000 A 
HETATM   21  C17 UNL     1       3.132  -0.612  -4.041  1.00  0.00     0.001 A 
HETATM   22  C18 UNL     1       2.237  -1.250  -3.209  1.00  0.00     0.007 A 
ENDBRANCH  16  17
ENDBRANCH  15  16
ENDBRANCH  14  15
ENDBRANCH  10  14
BRANCH   1  23
HETATM   23  N1  UNL     1      -4.455   1.950   0.400  1.00  0.00     0.094 N 
HETATM   24  H1  UNL     1      -4.180   2.473   1.258  1.00  0.00     0.314 HD
HETATM   25  H2  UNL     1      -5.490   1.891   0.287  1.00  0.00     0.314 HD
ENDBRANCH   1  23
TORSDOF 5
