REMARK  6 active torsions:
REMARK  status: ('A' for Active; 'I' for Inactive)
REMARK    1  A    between atoms: C2_2  and  C3_3 
REMARK    2  A    between atoms: C4_4  and  C5_5 
REMARK    3  A    between atoms: C5_5  and  C6_6 
REMARK    4  A    between atoms: C6_6  and  N1_7 
REMARK    5  A    between atoms: C10_12  and  C11_13 
REMARK    6  A    between atoms: N3_15  and  C12_16 
ROOT
HETATM    1  N1  UNL     1       0.506  -0.626  -0.259  1.00  0.00    -0.357 N 
HETATM    2  C7  UNL     1       0.685  -0.392   1.132  1.00  0.00     0.200 C 
HETATM    3  N2  UNL     1       0.717  -0.129   2.386  1.00  0.00    -0.281 NA
HETATM    4  C8  UNL     1      -0.447   0.478   3.093  1.00  0.00     0.186 C 
HETATM    5  C9  UNL     1      -1.621   0.181   2.181  1.00  0.00    -0.034 C 
HETATM    6  C10 UNL     1      -2.238   1.223   1.654  1.00  0.00     0.045 C 
HETATM    7  C14 UNL     1      -1.624  -1.314   1.986  1.00  0.00     0.210 C 
HETATM    8  O1  UNL     1      -2.472  -1.615   0.942  1.00  0.00    -0.356 OA
HETATM    9  C15 UNL     1      -2.554  -2.742   0.159  1.00  0.00     0.168 C 
HETATM   10  C16 UNL     1      -2.608  -2.191  -1.054  1.00  0.00     0.105 C 
HETATM   11  N4  UNL     1      -1.588  -1.405  -1.279  1.00  0.00    -0.266 NA
HETATM   12  C17 UNL     1      -0.353  -1.730  -0.650  1.00  0.00     0.274 C 
ENDROOT
BRANCH   1  13
HETATM   13  C6  UNL     1       1.326   0.447  -0.745  1.00  0.00     0.129 C 
BRANCH  13  14
HETATM   14  C5  UNL     1       2.523  -0.228  -1.436  1.00  0.00     0.047 C 
BRANCH  14  15
HETATM   15  C4  UNL     1       3.385   0.854  -1.947  1.00  0.00    -0.029 C 
HETATM   16  C3  UNL     1       4.649   1.062  -1.605  1.00  0.00    -0.031 C 
BRANCH  16  17
HETATM   17  C2  UNL     1       5.500   0.297  -0.657  1.00  0.00     0.022 C 
HETATM   18  C1  UNL     1       6.006   1.137   0.491  1.00  0.00     0.009 C 
ENDBRANCH  16  17
ENDBRANCH  14  15
ENDBRANCH  13  14
ENDBRANCH   1  13
BRANCH   6  19
HETATM   19  C11 UNL     1      -3.395   1.368   0.740  1.00  0.00     0.097 C 
HETATM   20 BR1  UNL     1      -4.026   3.068   0.161  1.00  0.00    -0.030 Br
HETATM   21  N3  UNL     1      -4.078   0.394   0.254  1.00  0.00    -0.283 NA
BRANCH  21  22
HETATM   22  C12 UNL     1      -5.195   0.465  -0.625  1.00  0.00     0.145 C 
HETATM   23  C13 UNL     1      -4.711   0.761  -2.028  1.00  0.00     0.028 C 
ENDBRANCH  21  22
ENDBRANCH   6  19
TORSDOF 6
