REMARK  1 active torsions:
REMARK  status: ('A' for Active; 'I' for Inactive)
REMARK    1  A    between atoms: O1_2  and  C2_3 
ROOT
HETATM    1  C2  UNL     1      -0.285   2.960   0.741  1.00  0.00     0.069 A 
HETATM    2  C3  UNL     1      -1.652   3.013   0.581  1.00  0.00     0.037 A 
HETATM    3  C4  UNL     1      -2.353   1.972   0.003  1.00  0.00     0.011 A 
HETATM    4  C5  UNL     1      -1.790   0.799  -0.466  1.00  0.00    -0.047 A 
HETATM    5  C6  UNL     1      -0.430   0.748  -0.303  1.00  0.00    -0.019 A 
HETATM    6  C7  UNL     1       0.289   1.775   0.270  1.00  0.00     0.049 A 
HETATM    7  C8  UNL     1       0.532  -0.303  -0.622  1.00  0.00    -0.025 C 
HETATM    8  C9  UNL     1       0.743  -1.581  -0.384  1.00  0.00     0.012 C 
HETATM    9  C10 UNL     1       1.716  -2.601  -0.718  1.00  0.00     0.057 C 
HETATM   10  C11 UNL     1       3.059  -2.038  -1.107  1.00  0.00     0.010 C 
HETATM   11  C12 UNL     1       2.990  -0.562  -0.913  1.00  0.00    -0.014 C 
HETATM   12  C13 UNL     1       4.144   0.199  -1.519  1.00  0.00     0.010 C 
HETATM   13  C14 UNL     1       1.715   0.001  -1.463  1.00  0.00     0.045 C 
HETATM   14  N1  UNL     1      -0.413  -1.772   0.413  1.00  0.00    -0.393 N 
HETATM   15  C15 UNL     1      -1.061  -1.300   1.616  1.00  0.00     0.119 C 
HETATM   16  C16 UNL     1      -2.402  -1.905   1.788  1.00  0.00     0.020 C 
HETATM   17  C17 UNL     1      -3.315  -1.971   0.631  1.00  0.00     0.002 C 
HETATM   18  C18 UNL     1      -3.734  -0.817  -0.142  1.00  0.00     0.005 C 
HETATM   19  C19 UNL     1      -2.817  -0.057  -1.032  1.00  0.00     0.039 C 
HETATM   20  H17 UNL     1      -0.883  -2.535  -0.158  1.00  0.00     0.159 HD
ENDROOT
BRANCH   1  21
HETATM   21  O1  UNL     1       0.413   4.007   1.321  1.00  0.00    -0.356 OA
HETATM   22  C1  UNL     1       1.797   4.050   1.529  1.00  0.00     0.210 C 
ENDBRANCH   1  21
TORSDOF 1
