REMARK  8 active torsions:
REMARK  status: ('A' for Active; 'I' for Inactive)
REMARK    1  A    between atoms: N1_1  and  C1_2 
REMARK    2  A    between atoms: C1_2  and  C2_3 
REMARK    3  A    between atoms: C2_3  and  C3_4 
REMARK    4  A    between atoms: C8_10  and  O1_11 
REMARK    5  A    between atoms: O1_11  and  C9_12 
REMARK    6  A    between atoms: C9_12  and  C10_13 
REMARK    7  A    between atoms: C10_13  and  C11_14 
REMARK    8  A    between atoms: C14_17  and  O2_18 
ROOT
HETATM    1  C3  UNL     1       5.114   0.795  -0.700  1.00  0.00     0.023 C 
HETATM    2  C4  UNL     1       3.935   0.202  -0.596  1.00  0.00     0.102 A 
HETATM    3  N2  UNL     1       3.671  -1.194  -0.642  1.00  0.00    -0.341 N 
HETATM    4  C5  UNL     1       2.269  -1.389  -0.490  1.00  0.00     0.060 A 
HETATM    5  C6  UNL     1       1.476  -2.520  -0.460  1.00  0.00     0.035 A 
HETATM    6  C7  UNL     1       0.095  -2.373  -0.291  1.00  0.00     0.039 A 
HETATM    7  C8  UNL     1      -0.484  -1.106  -0.154  1.00  0.00     0.071 A 
HETATM    8  C17 UNL     1       0.332   0.007  -0.187  1.00  0.00     0.068 A 
HETATM    9  C18 UNL     1       1.698  -0.129  -0.354  1.00  0.00     0.063 A 
HETATM   10  N3  UNL     1       2.699   0.881  -0.415  1.00  0.00    -0.341 N 
HETATM   11  H8  UNL     1       4.340  -1.982  -0.764  1.00  0.00     0.167 HD
HETATM   12  H21 UNL     1       2.568   1.910  -0.343  1.00  0.00     0.167 HD
ENDROOT
BRANCH   7  13
HETATM   13  O1  UNL     1      -1.844  -1.203  -0.001  1.00  0.00    -0.351 OA
BRANCH  13  14
HETATM   14  C9  UNL     1      -2.744  -0.133   0.163  1.00  0.00     0.180 C 
BRANCH  14  15
HETATM   15  C10 UNL     1      -4.119  -0.746   0.290  1.00  0.00     0.065 C 
BRANCH  15  16
HETATM   16  C11 UNL     1      -5.202   0.223   0.469  1.00  0.00    -0.056 A 
HETATM   17  C12 UNL     1      -5.829   0.724  -0.651  1.00  0.00     0.010 A 
HETATM   18  C13 UNL     1      -6.852   1.638  -0.495  1.00  0.00     0.037 A 
HETATM   19  C14 UNL     1      -7.276   2.074   0.749  1.00  0.00     0.065 A 
HETATM   20  C15 UNL     1      -6.594   1.522   1.832  1.00  0.00     0.037 A 
HETATM   21  C16 UNL     1      -5.563   0.604   1.744  1.00  0.00     0.010 A 
BRANCH  19  22
HETATM   22  O2  UNL     1      -8.289   2.980   0.931  1.00  0.00    -0.361 OA
HETATM   23  H17 UNL     1      -8.679   3.420   0.094  1.00  0.00     0.217 HD
ENDBRANCH  19  22
ENDBRANCH  15  16
ENDBRANCH  14  15
ENDBRANCH  13  14
ENDBRANCH   7  13
BRANCH   1  24
HETATM   24  C2  UNL     1       6.363   0.010  -0.888  1.00  0.00     0.060 C 
BRANCH  24  25
HETATM   25  C1  UNL     1       7.356   0.234   0.232  1.00  0.00     0.270 C 
BRANCH  25  26
HETATM   26  N1  UNL     1       8.515  -0.584  -0.077  1.00  0.00     0.078 N 
HETATM   27  H1  UNL     1       8.199  -1.560  -0.266  1.00  0.00     0.312 HD
HETATM   28  H2  UNL     1       9.211  -0.603   0.701  1.00  0.00     0.312 HD
ENDBRANCH  25  26
ENDBRANCH  24  25
ENDBRANCH   1  24
TORSDOF 8
