REMARK  4 active torsions:
REMARK  status: ('A' for Active; 'I' for Inactive)
REMARK    1  A    between atoms: N1_1  and  C1_2 
REMARK    2  A    between atoms: C9_11  and  C10_12 
REMARK    3  A    between atoms: C10_12  and  C11_13 
REMARK    4  A    between atoms: C14_16  and  O2_17 
ROOT
HETATM    1  C1  UNL     1      -4.966   1.119   0.493  1.00  0.00     0.222 C 
HETATM    2  C2  UNL     1      -4.467   1.346  -0.927  1.00  0.00     0.041 C 
HETATM    3  C3  UNL     1      -3.782   0.088  -1.374  1.00  0.00     0.062 C 
HETATM    4  C4  UNL     1      -2.413   0.064  -0.771  1.00  0.00     0.040 C 
HETATM    5  C5  UNL     1      -2.646   0.341   0.519  1.00  0.00    -0.032 C 
HETATM    6  C6  UNL     1      -1.304   0.294   1.002  1.00  0.00     0.007 C 
HETATM    7  C7  UNL     1      -0.367  -0.595   1.059  1.00  0.00    -0.000 C 
HETATM    8  C8  UNL     1       0.885  -1.411   1.255  1.00  0.00     0.196 C 
HETATM    9  O1  UNL     1       1.156  -1.750  -0.125  1.00  0.00    -0.377 OA
HETATM   10  C9  UNL     1       1.157  -0.514  -0.805  1.00  0.00     0.166 C 
HETATM   11  C17 UNL     1      -0.162  -0.401  -1.568  1.00  0.00     0.122 C 
HETATM   12  N2  UNL     1      -1.394  -0.216  -1.666  1.00  0.00    -0.266 NA
HETATM   13  C18 UNL     1      -3.801   0.627   1.349  1.00  0.00     0.075 C 
ENDROOT
BRANCH  10  14
HETATM   14  C10 UNL     1       2.319  -0.463  -1.722  1.00  0.00     0.076 C 
BRANCH  14  15
HETATM   15  C11 UNL     1       3.569  -0.599  -0.959  1.00  0.00    -0.055 A 
HETATM   16  C12 UNL     1       4.172  -1.804  -0.686  1.00  0.00     0.010 A 
HETATM   17  C13 UNL     1       5.354  -1.742   0.051  1.00  0.00     0.037 A 
HETATM   18  C14 UNL     1       5.896  -0.552   0.486  1.00  0.00     0.065 A 
HETATM   19  C15 UNL     1       5.271   0.642   0.198  1.00  0.00     0.037 A 
HETATM   20  C16 UNL     1       4.107   0.595  -0.527  1.00  0.00     0.010 A 
BRANCH  18  21
HETATM   21  O2  UNL     1       7.076  -0.550   1.217  1.00  0.00    -0.361 OA
HETATM   22  H17 UNL     1       7.655   0.262   1.334  1.00  0.00     0.217 HD
ENDBRANCH  18  21
ENDBRANCH  14  15
ENDBRANCH  10  14
BRANCH   1  23
HETATM   23  N1  UNL     1      -5.470   2.369   1.020  1.00  0.00     0.083 N 
HETATM   24  H1  UNL     1      -6.305   2.661   0.476  1.00  0.00     0.313 HD
HETATM   25  H2  UNL     1      -5.791   2.219   2.008  1.00  0.00     0.313 HD
ENDBRANCH   1  23
TORSDOF 4
