REMARK  6 active torsions:
REMARK  status: ('A' for Active; 'I' for Inactive)
REMARK    1  A    between atoms: C2_2  and  C3_3 
REMARK    2  A    between atoms: C3_3  and  C4_4 
REMARK    3  A    between atoms: N2_12  and  C10_13 
REMARK    4  A    between atoms: C10_13  and  C11_14 
REMARK    5  A    between atoms: C11_14  and  C12_15 
REMARK    6  A    between atoms: C12_15  and  C13_16 
ROOT
HETATM    1  C4  UNL     1      -1.604   0.304  -0.493  1.00  0.00     0.302 C 
HETATM    2  C5  UNL     1      -2.115   1.616  -0.303  1.00  0.00    -0.049 C 
HETATM    3  C6  UNL     1      -2.497   2.639  -0.141  1.00  0.00    -0.008 C 
HETATM    4  N1  UNL     1      -2.915   3.807   0.062  1.00  0.00    -0.404 N 
HETATM    5  B1  UNL     1      -2.023   4.207   1.595  1.00  0.00     0.289 B 
HETATM    6  C7  UNL     1      -1.706   2.724   2.669  1.00  0.00    -0.056 C 
HETATM    7  C8  UNL     1      -1.514   1.606   1.969  1.00  0.00     0.037 C 
HETATM    8  C9  UNL     1      -0.439   1.740   0.970  1.00  0.00     0.279 C 
HETATM    9  N2  UNL     1      -0.259   0.535   0.124  1.00  0.00     0.104 N 
HETATM   10  H9  UNL     1      -3.420   3.598  -0.794  1.00  0.00     0.148 HD
ENDROOT
BRANCH   9  11
HETATM   11  C10 UNL     1       0.164  -0.490   0.990  1.00  0.00     0.274 C 
BRANCH  11  12
HETATM   12  C11 UNL     1       0.392  -1.818   0.343  1.00  0.00     0.035 C 
BRANCH  12  13
HETATM   13  C12 UNL     1       1.458  -1.758  -0.730  1.00  0.00     0.040 C 
BRANCH  13  14
HETATM   14  C13 UNL     1       2.769  -1.311  -0.138  1.00  0.00    -0.058 A 
HETATM   15  C14 UNL     1       3.662  -2.263   0.357  1.00  0.00     0.007 A 
HETATM   16  C15 UNL     1       4.880  -1.953   0.915  1.00  0.00     0.001 A 
HETATM   17  C16 UNL     1       5.238  -0.620   0.988  1.00  0.00     0.000 A 
HETATM   18  C17 UNL     1       4.382   0.348   0.509  1.00  0.00     0.001 A 
HETATM   19  C18 UNL     1       3.165   0.013  -0.046  1.00  0.00     0.007 A 
ENDBRANCH  13  14
ENDBRANCH  12  13
ENDBRANCH  11  12
ENDBRANCH   9  11
BRANCH   1  20
HETATM   20  C3  UNL     1      -1.563  -0.126  -1.889  1.00  0.00     0.049 C 
BRANCH  20  21
HETATM   21  C2  UNL     1      -3.009  -0.084  -2.412  1.00  0.00    -0.002 C 
HETATM   22  C1  UNL     1      -3.837  -1.025  -1.567  1.00  0.00     0.005 C 
ENDBRANCH  20  21
ENDBRANCH   1  20
TORSDOF 6
