REMARK  2 active torsions:
REMARK  status: ('A' for Active; 'I' for Inactive)
REMARK    1  A    between atoms: N1_1  and  C1_2 
REMARK    2  A    between atoms: C14_16  and  O2_17 
ROOT
HETATM    1  C1  UNL     1       3.188  -0.095   0.842  1.00  0.00     0.222 C 
HETATM    2  C2  UNL     1       2.214  -0.784   1.796  1.00  0.00     0.040 C 
HETATM    3  C3  UNL     1       1.185  -1.544   0.968  1.00  0.00     0.042 C 
HETATM    4  C4  UNL     1       0.475  -0.676   0.031  1.00  0.00    -0.044 C 
HETATM    5  C5  UNL     1       1.285   0.013  -0.806  1.00  0.00    -0.065 C 
HETATM    6  C6  UNL     1       0.574   0.869  -1.733  1.00  0.00     0.030 C 
HETATM    7  C7  UNL     1       0.506   1.688  -2.746  1.00  0.00     0.025 C 
HETATM    8  C8  UNL     1      -1.003   1.853  -2.650  1.00  0.00     0.173 C 
HETATM    9  O1  UNL     1      -1.304   1.073  -1.509  1.00  0.00    -0.390 OA
HETATM   10  C9  UNL     1      -1.051   1.978  -0.443  1.00  0.00     0.172 C 
HETATM   11  C10 UNL     1      -1.004   1.297   0.891  1.00  0.00     0.065 C 
HETATM   12  C11 UNL     1      -1.920   0.114   0.808  1.00  0.00    -0.045 A 
HETATM   13  C12 UNL     1      -3.220  -0.197   1.036  1.00  0.00     0.011 A 
HETATM   14  C13 UNL     1      -3.597  -1.486   0.745  1.00  0.00     0.037 A 
HETATM   15  C14 UNL     1      -2.739  -2.431   0.252  1.00  0.00     0.066 A 
HETATM   16  C15 UNL     1      -1.395  -2.131   0.012  1.00  0.00     0.049 A 
HETATM   17  C16 UNL     1      -0.985  -0.817   0.301  1.00  0.00    -0.021 A 
HETATM   18  C17 UNL     1       2.725  -0.299  -0.575  1.00  0.00     0.070 C 
ENDROOT
BRANCH   1  19
HETATM   19  N1  UNL     1       3.318   1.266   1.257  1.00  0.00     0.083 N 
HETATM   20  H1  UNL     1       2.988   1.973   0.600  1.00  0.00     0.313 HD
HETATM   21  H2  UNL     1       2.975   1.462   2.215  1.00  0.00     0.313 HD
ENDBRANCH   1  19
BRANCH  15  22
HETATM   22  O2  UNL     1      -3.233  -3.696  -0.004  1.00  0.00    -0.361 OA
HETATM   23  H18 UNL     1      -3.930  -4.148   0.597  1.00  0.00     0.217 HD
ENDBRANCH  15  22
TORSDOF 2
