REMARK  8 active torsions:
REMARK  status: ('A' for Active; 'I' for Inactive)
REMARK    1  A    between atoms: N1_1  and  C1_2 
REMARK    2  A    between atoms: N2_5  and  C4_6 
REMARK    3  A    between atoms: C4_6  and  C5_7 
REMARK    4  A    between atoms: C5_7  and  C6_8 
REMARK    5  A    between atoms: C6_8  and  C7_9 
REMARK    6  A    between atoms: C19_21  and  C20_22 
REMARK    7  A    between atoms: C20_22  and  C21_23 
REMARK    8  A    between atoms: C24_26  and  O1_27 
ROOT
HETATM    1  C1  UNL     1       0.968  -0.164   2.641  1.00  0.00     0.162 A 
HETATM    2  C2  UNL     1       0.146  -1.188   1.945  1.00  0.00     0.005 A 
HETATM    3  C3  UNL     1       0.616   0.050   1.189  1.00  0.00     0.050 A 
HETATM    4  N2  UNL     1       0.265   0.262  -0.255  1.00  0.00    -0.328 N 
HETATM    5  C13 UNL     1      -0.706  -0.692  -0.931  1.00  0.00     0.145 C 
HETATM    6  C14 UNL     1      -0.315  -1.713  -1.843  1.00  0.00     0.056 C 
HETATM    7  C15 UNL     1       0.057  -2.991  -1.047  1.00  0.00     0.005 C 
HETATM    8  C16 UNL     1      -0.109  -3.392   0.295  1.00  0.00     0.012 C 
HETATM    9  C17 UNL     1      -0.719  -2.254   1.197  1.00  0.00    -0.027 C 
HETATM   10  C18 UNL     1      -2.124  -2.217   1.225  1.00  0.00     0.017 C 
HETATM   11  C19 UNL     1      -2.965  -1.388   0.258  1.00  0.00     0.158 C 
HETATM   12  O2  UNL     1      -2.171  -0.630  -0.668  1.00  0.00    -0.326 OA
ENDROOT
BRANCH   4  13
HETATM   13  C4  UNL     1       0.993   1.425  -0.744  1.00  0.00     0.131 C 
BRANCH  13  14
HETATM   14  C5  UNL     1       2.453   1.238  -0.956  1.00  0.00     0.025 C 
BRANCH  14  15
HETATM   15  C6  UNL     1       3.278   0.814   0.200  1.00  0.00     0.040 C 
BRANCH  15  16
HETATM   16  C7  UNL     1       4.725   0.718  -0.220  1.00  0.00    -0.058 A 
HETATM   17  C8  UNL     1       5.136  -0.521  -0.718  1.00  0.00     0.007 A 
HETATM   18  C9  UNL     1       6.440  -0.723  -1.119  1.00  0.00     0.001 A 
HETATM   19  C10 UNL     1       7.392   0.268  -1.054  1.00  0.00     0.000 A 
HETATM   20  C11 UNL     1       6.981   1.490  -0.564  1.00  0.00     0.001 A 
HETATM   21  C12 UNL     1       5.686   1.716  -0.158  1.00  0.00     0.007 A 
ENDBRANCH  15  16
ENDBRANCH  14  15
ENDBRANCH  13  14
ENDBRANCH   4  13
BRANCH   1  22
HETATM   22  N1  UNL     1       2.279  -0.447   3.080  1.00  0.00    -0.417 N 
HETATM   23  H1  UNL     1       2.697  -1.346   2.820  1.00  0.00     0.150 HD
HETATM   24  H2  UNL     1       2.912   0.351   3.039  1.00  0.00     0.150 HD
ENDBRANCH   1  22
BRANCH  11  25
HETATM   25  C20 UNL     1      -3.654  -0.406   1.172  1.00  0.00     0.075 C 
BRANCH  25  26
HETATM   26  C21 UNL     1      -4.573   0.502   0.475  1.00  0.00    -0.055 A 
HETATM   27  C22 UNL     1      -5.888  -0.010   0.450  1.00  0.00     0.010 A 
HETATM   28  C23 UNL     1      -6.962   0.638  -0.124  1.00  0.00     0.037 A 
HETATM   29  C24 UNL     1      -6.746   1.849  -0.707  1.00  0.00     0.065 A 
HETATM   30  C25 UNL     1      -5.471   2.370  -0.695  1.00  0.00     0.037 A 
HETATM   31  C26 UNL     1      -4.399   1.728  -0.124  1.00  0.00     0.010 A 
BRANCH  29  32
HETATM   32  O1  UNL     1      -7.813   2.524  -1.296  1.00  0.00    -0.361 OA
HETATM   33  H24 UNL     1      -8.713   2.522  -0.775  1.00  0.00     0.217 HD
ENDBRANCH  29  32
ENDBRANCH  25  26
ENDBRANCH  11  25
TORSDOF 8
