REMARK  3 active torsions:
REMARK  status: ('A' for Active; 'I' for Inactive)
REMARK    1  A    between atoms: N1_1  and  C1_2 
REMARK    2  A    between atoms: C6_8  and  C7_9 
REMARK    3  A    between atoms: C10_12  and  O1_13 
ROOT
HETATM    1  C1  UNL     1      -4.513  -0.364   0.095  1.00  0.00     0.221 C 
HETATM    2  C2  UNL     1      -3.888  -1.637  -0.385  1.00  0.00     0.065 C 
HETATM    3  C3  UNL     1      -2.535  -1.905   0.238  1.00  0.00     0.276 C 
HETATM    4  N2  UNL     1      -1.584  -0.886  -0.086  1.00  0.00     0.104 N 
HETATM    5  C4  UNL     1      -0.467  -0.914   0.834  1.00  0.00     0.249 C 
HETATM    6  C5  UNL     1       0.853  -0.756   0.125  1.00  0.00     0.018 C 
HETATM    7  C6  UNL     1       1.606   0.325   0.005  1.00  0.00    -0.026 C 
HETATM    8  C13 UNL     1       1.080   1.713   0.024  1.00  0.00     0.207 C 
HETATM    9  O2  UNL     1      -0.255   1.776  -0.227  1.00  0.00    -0.379 OA
HETATM   10  C14 UNL     1      -1.137   1.309   0.681  1.00  0.00     0.157 C 
HETATM   11  C15 UNL     1      -0.686   0.328   1.692  1.00  0.00     0.074 C 
HETATM   12  C16 UNL     1      -2.140   0.437  -0.096  1.00  0.00     0.254 C 
HETATM   13  C17 UNL     1      -3.459   0.577   0.588  1.00  0.00     0.073 C 
ENDROOT
BRANCH   7  14
HETATM   14  C7  UNL     1       3.047   0.182  -0.155  1.00  0.00    -0.028 A 
HETATM   15  C8  UNL     1       3.861   1.286  -0.282  1.00  0.00     0.014 A 
HETATM   16  C9  UNL     1       5.229   1.222  -0.436  1.00  0.00     0.037 A 
HETATM   17  C10 UNL     1       5.861  -0.004  -0.468  1.00  0.00     0.065 A 
HETATM   18  C11 UNL     1       5.099  -1.129  -0.346  1.00  0.00     0.037 A 
HETATM   19  C12 UNL     1       3.735  -1.008  -0.195  1.00  0.00     0.014 A 
BRANCH  17  20
HETATM   20  O1  UNL     1       7.230  -0.108  -0.621  1.00  0.00    -0.361 OA
HETATM   21  H12 UNL     1       7.831   0.294   0.095  1.00  0.00     0.217 HD
ENDBRANCH  17  20
ENDBRANCH   7  14
BRANCH   1  22
HETATM   22  N1  UNL     1      -5.304   0.210  -0.965  1.00  0.00     0.083 N 
HETATM   23  H1  UNL     1      -5.894   0.988  -0.591  1.00  0.00     0.313 HD
HETATM   24  H2  UNL     1      -4.724   0.530  -1.760  1.00  0.00     0.313 HD
ENDBRANCH   1  22
TORSDOF 3
