REMARK  5 active torsions:
REMARK  status: ('A' for Active; 'I' for Inactive)
REMARK    1  A    between atoms: N1_6  and  C6_7 
REMARK    2  A    between atoms: C6_7  and  C7_8 
REMARK    3  A    between atoms: C7_8  and  C8_9 
REMARK    4  A    between atoms: C8_9  and  C9_10 
REMARK    5  A    between atoms: C9_10  and  C10_11 
ROOT
HETATM    1  C1  UNL     1      -1.891  -1.352  -3.118  1.00  0.00     0.000 A 
HETATM    2  C2  UNL     1      -1.535  -0.481  -2.192  1.00  0.00     0.008 A 
HETATM    3  C3  UNL     1      -2.466   0.349  -1.452  1.00  0.00    -0.043 A 
HETATM    4  C4  UNL     1      -1.946   1.112  -0.493  1.00  0.00    -0.038 C 
HETATM    5  C5  UNL     1      -0.465   1.074  -0.230  1.00  0.00     0.153 C 
HETATM    6  N1  UNL     1      -0.136   0.248   0.840  1.00  0.00    -0.403 N 
HETATM    7  C16 UNL     1      -0.793   0.214   2.056  1.00  0.00     0.173 C 
HETATM    8  C17 UNL     1      -2.303   0.056   2.010  1.00  0.00     0.024 C 
HETATM    9  C18 UNL     1      -2.969  -1.075   2.466  1.00  0.00     0.033 C 
HETATM   10  C19 UNL     1      -4.306  -0.914   1.731  1.00  0.00     0.164 C 
HETATM   11  C20 UNL     1      -4.491   0.560   2.256  1.00  0.00     0.159 C 
HETATM   12  N2  UNL     1      -3.299   1.020   1.476  1.00  0.00    -0.376 N 
HETATM   13  C21 UNL     1      -2.843   1.959   0.418  1.00  0.00     0.159 C 
HETATM   14  O1  UNL     1      -3.884  -0.797   0.400  1.00  0.00    -0.379 OA
HETATM   15  C22 UNL     1      -4.674  -0.048  -0.418  1.00  0.00     0.182 C 
HETATM   16  C23 UNL     1      -3.921   0.265  -1.727  1.00  0.00     0.065 A 
HETATM   17  C24 UNL     1      -4.151  -0.748  -2.769  1.00  0.00    -0.015 A 
HETATM   18  C25 UNL     1      -3.323  -1.520  -3.451  1.00  0.00    -0.003 A 
ENDROOT
BRANCH   6  19
HETATM   19  C6  UNL     1       1.005  -0.530   0.726  1.00  0.00     0.117 C 
BRANCH  19  20
HETATM   20  C7  UNL     1       2.355   0.077   0.739  1.00  0.00     0.020 C 
BRANCH  20  21
HETATM   21  C8  UNL     1       2.684   1.061  -0.336  1.00  0.00     0.006 C 
BRANCH  21  22
HETATM   22  C9  UNL     1       4.124   1.525  -0.130  1.00  0.00     0.038 C 
BRANCH  22  23
HETATM   23  C10 UNL     1       5.100   0.416  -0.192  1.00  0.00    -0.058 A 
HETATM   24  C11 UNL     1       5.509  -0.322   0.921  1.00  0.00     0.007 A 
HETATM   25  C12 UNL     1       6.428  -1.356   0.820  1.00  0.00     0.001 A 
HETATM   26  C13 UNL     1       6.966  -1.678  -0.420  1.00  0.00     0.000 A 
HETATM   27  C14 UNL     1       6.577  -0.962  -1.539  1.00  0.00     0.001 A 
HETATM   28  C15 UNL     1       5.673   0.043  -1.389  1.00  0.00     0.007 A 
ENDBRANCH  22  23
ENDBRANCH  21  22
ENDBRANCH  20  21
ENDBRANCH  19  20
ENDBRANCH   6  19
TORSDOF 5
