REMARK  4 active torsions:
REMARK  status: ('A' for Active; 'I' for Inactive)
REMARK    1  A    between atoms: P1_11  and  C9_12 
REMARK    2  A    between atoms: C9_12  and  N2_13 
REMARK    3  A    between atoms: N2_13  and  C10_14 
REMARK    4  A    between atoms: C13_17  and  C14_18 
ROOT
HETATM    1  F1  UNL     1       5.244  -1.022  -4.151  1.00  0.00    -0.206 F 
HETATM    2  C1  UNL     1       4.784  -0.339  -3.077  1.00  0.00     0.117 A 
HETATM    3  C2  UNL     1       5.474   0.744  -2.596  1.00  0.00     0.045 A 
HETATM    4  C3  UNL     1       5.003   1.439  -1.503  1.00  0.00     0.041 A 
HETATM    5  C4  UNL     1       3.834   1.093  -0.843  1.00  0.00     0.086 A 
HETATM    6  C5  UNL     1       3.121  -0.013  -1.328  1.00  0.00    -0.004 A 
HETATM    7  C6  UNL     1       3.602  -0.700  -2.421  1.00  0.00     0.054 A 
HETATM    8  C7  UNL     1       1.844  -0.610  -0.827  1.00  0.00     0.161 C 
HETATM    9  N1  UNL     1       1.823  -0.447   0.624  1.00  0.00    -0.380 N 
HETATM   10  C8  UNL     1       1.744   0.680   1.477  1.00  0.00     0.111 A 
HETATM   11  P1  UNL     1       0.564   0.547   2.723  1.00  0.00     0.102 P 
HETATM   12  N3  UNL     1       0.737   2.056   3.601  1.00  0.00    -0.246 NA
HETATM   13  C21 UNL     1       1.636   2.833   3.125  1.00  0.00     0.235 A 
HETATM   14  N4  UNL     1       2.569   2.842   2.062  1.00  0.00    -0.216 NA
HETATM   15  C22 UNL     1       2.673   1.830   1.226  1.00  0.00     0.200 A 
HETATM   16  O1  UNL     1       3.657   2.014   0.221  1.00  0.00    -0.289 OA
HETATM   17  H6  UNL     1       1.945  -1.336   1.122  1.00  0.00     0.160 HD
ENDROOT
BRANCH  11  18
HETATM   18  C9  UNL     1       0.645  -0.983   3.199  1.00  0.00     0.648 C 
BRANCH  18  19
HETATM   19  N2  UNL     1       0.390  -1.922   2.064  1.00  0.00    -0.082 N 
HETATM   20  H8  UNL     1       0.303  -2.681   1.244  1.00  0.00     0.267 HD
BRANCH  19  21
HETATM   21  C10 UNL     1      -0.909  -1.499   1.427  1.00  0.00     0.100 A 
HETATM   22  C11 UNL     1      -1.996  -1.660   2.213  1.00  0.00     0.032 A 
HETATM   23  C12 UNL     1      -3.293  -1.254   1.625  1.00  0.00     0.010 A 
HETATM   24  C13 UNL     1      -2.883  -0.835   0.417  1.00  0.00    -0.042 A 
HETATM   25  C20 UNL     1      -1.433  -0.913   0.137  1.00  0.00     0.103 A 
BRANCH  24  26
HETATM   26  C14 UNL     1      -3.732  -0.304  -0.648  1.00  0.00    -0.030 A 
HETATM   27  C15 UNL     1      -3.352   0.137  -1.897  1.00  0.00     0.012 A 
HETATM   28  C16 UNL     1      -4.213   0.626  -2.852  1.00  0.00     0.001 A 
HETATM   29  C17 UNL     1      -5.560   0.693  -2.570  1.00  0.00     0.000 A 
HETATM   30  C18 UNL     1      -5.973   0.260  -1.328  1.00  0.00     0.001 A 
HETATM   31  C19 UNL     1      -5.097  -0.226  -0.386  1.00  0.00     0.012 A 
ENDBRANCH  24  26
ENDBRANCH  19  21
ENDBRANCH  18  19
ENDBRANCH  11  18
TORSDOF 4
