REMARK  9 active torsions:
REMARK  status: ('A' for Active; 'I' for Inactive)
REMARK    1  A    between atoms: C2_2  and  C4_4 
REMARK    2  A    between atoms: C4_4  and  C5_5 
REMARK    3  A    between atoms: C5_5  and  C6_6 
REMARK    4  A    between atoms: C10_10  and  C11_11 
REMARK    5  A    between atoms: C12_12  and  O1_13 
REMARK    6  A    between atoms: O1_13  and  C13_14 
REMARK    7  A    between atoms: C13_14  and  C14_15 
REMARK    8  A    between atoms: C14_15  and  C15_16 
REMARK    9  A    between atoms: C18_19  and  O2_20 
ROOT
HETATM    1  C11 UNL     1       0.536  -0.923  -0.456  1.00  0.00     0.026 C 
HETATM    2  C12 UNL     1       1.837  -1.127  -0.333  1.00  0.00     0.134 C 
ENDROOT
BRANCH   1   3
HETATM    3  C10 UNL     1      -0.406  -1.627   0.406  1.00  0.00     0.027 C 
HETATM    4  C9  UNL     1      -1.677  -1.371   0.222  1.00  0.00     0.013 A 
HETATM    5  C8  UNL     1      -1.971  -0.378  -0.863  1.00  0.00     0.086 A 
HETATM    6  N1  UNL     1      -2.927  -1.762   0.765  1.00  0.00    -0.363 N 
HETATM    7  C7  UNL     1      -3.450  -0.366  -0.790  1.00  0.00     0.004 A 
HETATM    8  C6  UNL     1      -4.037  -1.120   0.116  1.00  0.00     0.006 A 
HETATM    9  H27 UNL     1      -2.747  -2.464   1.551  1.00  0.00     0.165 HD
BRANCH   8  10
HETATM   10  C5  UNL     1      -5.289  -1.554   0.694  1.00  0.00     0.057 C 
BRANCH  10  11
HETATM   11  C4  UNL     1      -6.539  -0.864   0.355  1.00  0.00     0.010 C 
BRANCH  11  12
HETATM   12  C2  UNL     1      -6.797   0.514   0.836  1.00  0.00    -0.023 C 
HETATM   13  C1  UNL     1      -5.806   1.518   0.367  1.00  0.00     0.009 C 
HETATM   14  C3  UNL     1      -8.142   0.931   0.209  1.00  0.00     0.009 C 
ENDBRANCH  11  12
ENDBRANCH  10  11
ENDBRANCH   8  10
ENDBRANCH   1   3
BRANCH   2  15
HETATM   15  O1  UNL     1       2.786  -0.473  -1.139  1.00  0.00    -0.363 OA
BRANCH  15  16
HETATM   16  C13 UNL     1       4.050  -0.235  -0.556  1.00  0.00     0.179 C 
BRANCH  16  17
HETATM   17  C14 UNL     1       4.960   0.478  -1.531  1.00  0.00     0.065 C 
BRANCH  17  18
HETATM   18  C15 UNL     1       6.291   0.725  -0.909  1.00  0.00    -0.056 A 
HETATM   19  C16 UNL     1       6.613   1.859  -0.195  1.00  0.00     0.010 A 
HETATM   20  C17 UNL     1       7.869   2.015   0.351  1.00  0.00     0.037 A 
HETATM   21  C18 UNL     1       8.855   1.045   0.207  1.00  0.00     0.065 A 
HETATM   22  C19 UNL     1       8.524  -0.093  -0.513  1.00  0.00     0.037 A 
HETATM   23  C20 UNL     1       7.269  -0.252  -1.059  1.00  0.00     0.010 A 
BRANCH  21  24
HETATM   24  O2  UNL     1      10.115   1.192   0.750  1.00  0.00    -0.361 OA
HETATM   25  H24 UNL     1      10.501   2.106   0.874  1.00  0.00     0.217 HD
ENDBRANCH  21  24
ENDBRANCH  17  18
ENDBRANCH  16  17
ENDBRANCH  15  16
ENDBRANCH   2  15
TORSDOF 9
