REMARK  8 active torsions:
REMARK  status: ('A' for Active; 'I' for Inactive)
REMARK    1  A    between atoms: C2_2  and  C3_3 
REMARK    2  A    between atoms: C5_5  and  C6_6 
REMARK    3  A    between atoms: C6_6  and  C7_7 
REMARK    4  A    between atoms: C7_7  and  C8_8 
REMARK    5  A    between atoms: C8_8  and  C9_9 
REMARK    6  A    between atoms: C12_12  and  O1_13 
REMARK    7  A    between atoms: C15_16  and  C16_17 
REMARK    8  A    between atoms: C16_17  and  C17_18 
ROOT
HETATM    1  C3  UNL     1      -1.864   2.272   1.152  1.00  0.00     0.016 A 
HETATM    2  C4  UNL     1      -0.469   2.263   0.728  1.00  0.00    -0.018 A 
HETATM    3  C5  UNL     1      -0.511   1.024   0.368  1.00  0.00    -0.078 A 
HETATM    4  C15 UNL     1      -1.918   0.912   0.701  1.00  0.00     0.027 A 
ENDROOT
BRANCH   3   5
HETATM    5  C6  UNL     1       0.506   0.104  -0.212  1.00  0.00     0.034 C 
BRANCH   5   6
HETATM    6  C7  UNL     1       0.654  -1.020   0.815  1.00  0.00     0.009 C 
BRANCH   6   7
HETATM    7  C8  UNL     1       1.647  -2.017   0.331  1.00  0.00     0.039 C 
BRANCH   7   8
HETATM    8  C9  UNL     1       2.987  -1.481   0.101  1.00  0.00    -0.058 A 
HETATM    9  C10 UNL     1       3.900  -1.500   1.160  1.00  0.00     0.010 A 
HETATM   10  C11 UNL     1       5.188  -1.011   1.019  1.00  0.00     0.037 A 
HETATM   11  C12 UNL     1       5.580  -0.491  -0.199  1.00  0.00     0.065 A 
HETATM   12  C13 UNL     1       4.697  -0.460  -1.265  1.00  0.00     0.037 A 
HETATM   13  C14 UNL     1       3.416  -0.954  -1.100  1.00  0.00     0.010 A 
BRANCH  11  14
HETATM   14  O1  UNL     1       6.877   0.003  -0.347  1.00  0.00    -0.361 OA
HETATM   15  H16 UNL     1       7.361   0.388   0.473  1.00  0.00     0.217 HD
ENDBRANCH  11  14
ENDBRANCH   7   8
ENDBRANCH   6   7
ENDBRANCH   5   6
ENDBRANCH   3   5
BRANCH   4  16
HETATM   16  C16 UNL     1      -2.871   0.487  -0.364  1.00  0.00     0.068 C 
BRANCH  16  17
HETATM   17  C17 UNL     1      -2.750  -0.961  -0.655  1.00  0.00     0.032 A 
HETATM   18  C18 UNL     1      -3.342  -2.162  -0.674  1.00  0.00     0.028 A 
HETATM   19  C19 UNL     1      -4.533  -3.019  -0.438  1.00  0.00     0.070 C 
HETATM   20  N1  UNL     1      -2.005  -2.115  -1.109  1.00  0.00    -0.360 N 
HETATM   21  H25 UNL     1      -1.131  -2.557  -1.478  1.00  0.00     0.165 HD
ENDBRANCH  16  17
ENDBRANCH   4  16
BRANCH   1  22
HETATM   22  C2  UNL     1      -2.568   3.424   0.530  1.00  0.00     0.005 C 
HETATM   23  C1  UNL     1      -2.630   3.520  -0.935  1.00  0.00     0.006 C 
ENDBRANCH   1  22
TORSDOF 8
