REMARK  7 active torsions:
REMARK  status: ('A' for Active; 'I' for Inactive)
REMARK    1  A    between atoms: N1_2  and  C2_3 
REMARK    2  A    between atoms: C8_9  and  B1_10 
REMARK    3  A    between atoms: B1_10  and  C9_11 
REMARK    4  A    between atoms: C10_12  and  O1_14 
REMARK    5  A    between atoms: O1_14  and  C12_15 
REMARK    6  A    between atoms: C12_15  and  C13_16 
REMARK    7  A    between atoms: C13_16  and  C14_17 
ROOT
HETATM    1  B1  UNL     1      -0.577  -0.689   1.690  1.00  0.00     0.213 B 
HETATM    2  H11 UNL     1      -0.645  -0.817   2.872  1.00  0.00    -0.017 HD
ENDROOT
BRANCH   1   3
HETATM    3  C8  UNL     1      -1.943  -0.680   0.944  1.00  0.00    -0.039 C 
HETATM    4  C7  UNL     1      -2.590   0.427   0.621  1.00  0.00     0.095 A 
HETATM    5  C6  UNL     1      -3.862   0.575  -0.069  1.00  0.00     0.034 A 
HETATM    6  O2  UNL     1      -2.139   1.706   0.902  1.00  0.00    -0.239 OA
HETATM    7  C2  UNL     1      -4.963  -0.187  -0.690  1.00  0.00     0.258 C 
HETATM    8  C5  UNL     1      -4.096   1.887  -0.162  1.00  0.00     0.044 A 
HETATM    9  C3  UNL     1      -6.116   0.803  -0.481  1.00  0.00     0.047 C 
HETATM   10  C4  UNL     1      -5.403   2.100  -0.869  1.00  0.00     0.062 C 
HETATM   11  N2  UNL     1      -3.044   2.627   0.432  1.00  0.00    -0.264 N 
HETATM   12  H25 UNL     1      -2.994   3.670   0.488  1.00  0.00     0.194 HD
BRANCH   7  13
HETATM   13  N1  UNL     1      -5.232  -1.431   0.002  1.00  0.00     0.088 N 
HETATM   14  C1  UNL     1      -6.442  -2.021  -0.498  1.00  0.00     0.307 C 
HETATM   15  H4  UNL     1      -5.199  -1.332   1.028  1.00  0.00     0.316 HD
ENDBRANCH   7  13
ENDBRANCH   1   3
BRANCH   1  16
HETATM   16  C9  UNL     1       0.766  -1.132   1.041  1.00  0.00    -0.047 C 
HETATM   17  C10 UNL     1       1.547  -0.272   0.407  1.00  0.00     0.028 C 
HETATM   18  C11 UNL     1       1.130   1.151   0.315  1.00  0.00     0.074 C 
BRANCH  17  19
HETATM   19  O1  UNL     1       2.731  -0.741  -0.148  1.00  0.00    -0.357 OA
BRANCH  19  20
HETATM   20  C12 UNL     1       3.134  -0.232  -1.381  1.00  0.00     0.179 C 
BRANCH  20  21
HETATM   21  C13 UNL     1       4.428  -0.812  -1.881  1.00  0.00     0.065 C 
BRANCH  21  22
HETATM   22  C14 UNL     1       5.561  -0.567  -0.970  1.00  0.00    -0.056 A 
HETATM   23  C15 UNL     1       5.883  -1.457   0.043  1.00  0.00     0.007 A 
HETATM   24  C16 UNL     1       6.943  -1.234   0.900  1.00  0.00     0.001 A 
HETATM   25  C17 UNL     1       7.668  -0.077   0.698  1.00  0.00     0.000 A 
HETATM   26  C18 UNL     1       7.370   0.829  -0.304  1.00  0.00     0.001 A 
HETATM   27  C19 UNL     1       6.311   0.593  -1.150  1.00  0.00     0.007 A 
ENDBRANCH  21  22
ENDBRANCH  20  21
ENDBRANCH  19  20
ENDBRANCH  17  19
ENDBRANCH   1  16
TORSDOF 7
