REMARK  8 active torsions:
REMARK  status: ('A' for Active; 'I' for Inactive)
REMARK    1  A    between atoms: C3_3  and  O1_4 
REMARK    2  A    between atoms: C12_14  and  C13_15 
REMARK    3  A    between atoms: C13_15  and  C14_16 
REMARK    4  A    between atoms: C14_16  and  N1_17 
REMARK    5  A    between atoms: N2_20  and  C17_21 
REMARK    6  A    between atoms: C17_21  and  C18_22 
REMARK    7  A    between atoms: C18_22  and  C19_23 
REMARK    8  A    between atoms: C19_23  and  C20_24 
ROOT
HETATM    1  C1  UNL     1      -0.282  -4.443   0.875  1.00  0.00     0.022 C 
HETATM    2  C2  UNL     1      -0.630  -3.331   0.273  1.00  0.00    -0.022 C 
HETATM    3  C3  UNL     1      -0.025  -2.009   0.353  1.00  0.00     0.098 C 
HETATM    4  C4  UNL     1      -0.004  -1.069  -0.612  1.00  0.00     0.068 C 
HETATM    5  C5  UNL     1      -0.637  -1.355  -1.886  1.00  0.00     0.029 C 
HETATM    6  C6  UNL     1      -1.193  -2.552  -1.960  1.00  0.00    -0.013 C 
HETATM    7  C7  UNL     1      -1.769  -3.077  -0.701  1.00  0.00     0.067 C 
HETATM    8  C8  UNL     1      -2.904  -2.408  -0.091  1.00  0.00     0.182 C 
HETATM    9  O2  UNL     1      -3.332  -1.181  -0.304  1.00  0.00    -0.377 OA
HETATM   10  C9  UNL     1      -2.711  -0.040  -0.132  1.00  0.00     0.168 C 
HETATM   11  C10 UNL     1      -3.614   1.007   0.520  1.00  0.00     0.005 C 
HETATM   12  C11 UNL     1      -2.738   1.982   0.930  1.00  0.00    -0.017 C 
HETATM   13  C12 UNL     1      -1.308   2.148   0.465  1.00  0.00     0.059 C 
HETATM   14  C15 UNL     1      -0.614   0.832   0.316  1.00  0.00     0.018 C 
HETATM   15  C16 UNL     1      -1.560  -0.002   0.844  1.00  0.00     0.034 C 
HETATM   16  N2  UNL     1       0.591   0.140  -0.150  1.00  0.00    -0.348 N 
ENDROOT
BRANCH  13  17
HETATM   17  C13 UNL     1      -1.260   3.041  -0.709  1.00  0.00     0.044 C 
BRANCH  17  18
HETATM   18  C14 UNL     1      -1.828   4.403  -0.328  1.00  0.00     0.267 C 
BRANCH  18  19
HETATM   19  N1  UNL     1      -3.191   4.368   0.097  1.00  0.00     0.078 N 
HETATM   20  H17 UNL     1      -3.296   5.003   0.929  1.00  0.00     0.312 HD
HETATM   21  H18 UNL     1      -3.861   4.754  -0.635  1.00  0.00     0.312 HD
ENDBRANCH  18  19
ENDBRANCH  17  18
ENDBRANCH  13  17
BRANCH  16  22
HETATM   22  C17 UNL     1       1.729   0.984   0.081  1.00  0.00     0.129 C 
BRANCH  22  23
HETATM   23  C18 UNL     1       3.035   0.456  -0.392  1.00  0.00     0.020 C 
BRANCH  23  24
HETATM   24  C19 UNL     1       3.411  -0.839   0.273  1.00  0.00     0.001 C 
BRANCH  24  25
HETATM   25  C20 UNL     1       4.773  -1.228  -0.291  1.00  0.00    -0.004 C 
HETATM   26  C21 UNL     1       5.730  -0.097   0.064  1.00  0.00     0.005 C 
ENDBRANCH  24  25
ENDBRANCH  23  24
ENDBRANCH  22  23
ENDBRANCH  16  22
BRANCH   3  27
HETATM   27  O1  UNL     1       0.535  -1.890   1.616  1.00  0.00    -0.358 OA
HETATM   28  H3  UNL     1       1.386  -2.416   1.830  1.00  0.00     0.217 HD
ENDBRANCH   3  27
TORSDOF 8
