REMARK  9 active torsions:
REMARK  status: ('A' for Active; 'I' for Inactive)
REMARK    1  A    between atoms: O1_2  and  C2_3 
REMARK    2  A    between atoms: C5_6  and  C6_7 
REMARK    3  A    between atoms: C6_7  and  C7_8 
REMARK    4  A    between atoms: C7_8  and  C8_9 
REMARK    5  A    between atoms: C8_9  and  C9_10 
REMARK    6  A    between atoms: C9_10  and  C10_11 
REMARK    7  A    between atoms: C10_11  and  N1_12 
REMARK    8  A    between atoms: C13_15  and  C14_16 
REMARK    9  A    between atoms: C14_16  and  N2_17 
ROOT
HETATM    1  C8  UNL     1      -0.153  -1.730  -0.523  1.00  0.00     0.002 C 
ENDROOT
BRANCH   1   2
HETATM    2  C7  UNL     1       1.240  -1.169  -0.530  1.00  0.00     0.005 C 
BRANCH   2   3
HETATM    3  C6  UNL     1       1.586  -0.302   0.630  1.00  0.00     0.038 C 
BRANCH   3   4
HETATM    4  C5  UNL     1       2.994   0.150   0.441  1.00  0.00    -0.058 A 
HETATM    5  C4  UNL     1       4.022  -0.635   0.975  1.00  0.00     0.010 A 
HETATM    6  C3  UNL     1       5.295  -0.188   0.780  1.00  0.00     0.037 A 
HETATM    7  C2  UNL     1       5.639   0.962   0.107  1.00  0.00     0.068 A 
HETATM    8  C17 UNL     1       4.616   1.749  -0.428  1.00  0.00     0.037 A 
HETATM    9  C16 UNL     1       3.304   1.309  -0.240  1.00  0.00     0.010 A 
BRANCH   7  10
HETATM   10  O1  UNL     1       6.930   1.404  -0.084  1.00  0.00    -0.356 OA
HETATM   11  C1  UNL     1       8.018   0.683   0.415  1.00  0.00     0.210 C 
ENDBRANCH   7  10
ENDBRANCH   3   4
ENDBRANCH   2   3
ENDBRANCH   1   2
BRANCH   1  12
HETATM   12  C9  UNL     1      -1.224  -0.679  -0.522  1.00  0.00     0.020 C 
BRANCH  12  13
HETATM   13  C10 UNL     1      -2.542  -1.428  -0.515  1.00  0.00     0.128 C 
BRANCH  13  14
HETATM   14  N1  UNL     1      -3.693  -0.579  -0.514  1.00  0.00    -0.366 N 
HETATM   15  C11 UNL     1      -4.288  -0.148  -1.663  1.00  0.00     0.091 A 
HETATM   16  C12 UNL     1      -5.375   0.655  -1.365  1.00  0.00     0.027 A 
HETATM   17  C13 UNL     1      -5.447   0.718   0.014  1.00  0.00    -0.014 A 
HETATM   18  C15 UNL     1      -4.418  -0.038   0.483  1.00  0.00     0.099 A 
BRANCH  17  19
HETATM   19  C14 UNL     1      -6.480   1.484   0.765  1.00  0.00     0.306 C 
BRANCH  19  20
HETATM   20  N2  UNL     1      -7.657   0.652   1.037  1.00  0.00     0.082 N 
HETATM   21  H20 UNL     1      -7.785   0.678   2.080  1.00  0.00     0.313 HD
HETATM   22  H21 UNL     1      -7.437  -0.308   0.693  1.00  0.00     0.313 HD
ENDBRANCH  19  20
ENDBRANCH  17  19
ENDBRANCH  13  14
ENDBRANCH  12  13
ENDBRANCH   1  12
TORSDOF 9
