REMARK  12 active torsions:
REMARK  status: ('A' for Active; 'I' for Inactive)
REMARK    1  A    between atoms: O1_2  and  C2_3 
REMARK    2  A    between atoms: C5_6  and  C6_7 
REMARK    3  A    between atoms: C6_7  and  C7_8 
REMARK    4  A    between atoms: C7_8  and  C8_9 
REMARK    5  A    between atoms: C8_9  and  N1_10 
REMARK    6  A    between atoms: C11_13  and  C12_14 
REMARK    7  A    between atoms: C12_14  and  C13_15 
REMARK    8  A    between atoms: C13_15  and  O2_16 
REMARK    9  A    between atoms: O2_16  and  C14_17 
REMARK   10  A    between atoms: C14_17  and  C15_18 
REMARK   11  A    between atoms: C15_18  and  C16_19 
REMARK   12  A    between atoms: C19_22  and  O3_23 
ROOT
HETATM    1  N1  UNL     1       1.330  -1.729  -0.477  1.00  0.00    -0.380 N 
HETATM    2  C9  UNL     1       0.564  -0.969  -1.208  1.00  0.00     0.073 A 
HETATM    3  C10 UNL     1      -0.168  -0.942   0.046  1.00  0.00     0.035 A 
HETATM    4  C11 UNL     1      -0.902  -0.802   0.978  1.00  0.00     0.020 A 
HETATM    5  C22 UNL     1       0.270  -1.377   0.462  1.00  0.00     0.048 A 
HETATM    6  C23 UNL     1       0.780  -2.068   1.578  1.00  0.00    -0.019 A 
HETATM    7  C24 UNL     1       0.467  -0.625   1.568  1.00  0.00     0.071 A 
ENDROOT
BRANCH   4   8
HETATM    8  C12 UNL     1      -2.111  -0.380   0.352  1.00  0.00     0.030 C 
BRANCH   8   9
HETATM    9  C13 UNL     1      -3.099   0.012  -0.656  1.00  0.00     0.173 C 
BRANCH   9  10
HETATM   10  O2  UNL     1      -4.112  -0.897  -0.817  1.00  0.00    -0.390 OA
BRANCH  10  11
HETATM   11  C14 UNL     1      -4.870  -1.193   0.268  1.00  0.00     0.172 C 
BRANCH  11  12
HETATM   12  C15 UNL     1      -5.637  -0.098   0.912  1.00  0.00     0.064 C 
BRANCH  12  13
HETATM   13  C16 UNL     1      -6.633   0.571   0.073  1.00  0.00    -0.056 A 
HETATM   14  C17 UNL     1      -6.458   1.691  -0.717  1.00  0.00     0.010 A 
HETATM   15  C18 UNL     1      -7.486   2.223  -1.458  1.00  0.00     0.037 A 
HETATM   16  C19 UNL     1      -8.751   1.685  -1.466  1.00  0.00     0.065 A 
HETATM   17  C20 UNL     1      -8.971   0.566  -0.691  1.00  0.00     0.037 A 
HETATM   18  C21 UNL     1      -7.929   0.043   0.047  1.00  0.00     0.010 A 
BRANCH  16  19
HETATM   19  O3  UNL     1      -9.779   2.235  -2.219  1.00  0.00    -0.361 OA
HETATM   20  H22 UNL     1     -10.728   2.112  -1.881  1.00  0.00     0.217 HD
ENDBRANCH  16  19
ENDBRANCH  12  13
ENDBRANCH  11  12
ENDBRANCH  10  11
ENDBRANCH   9  10
ENDBRANCH   8   9
ENDBRANCH   4   8
BRANCH   1  21
HETATM   21  C8  UNL     1       2.503  -2.282  -1.080  1.00  0.00     0.123 C 
BRANCH  21  22
HETATM   22  C7  UNL     1       3.659  -1.331  -0.906  1.00  0.00     0.024 C 
BRANCH  22  23
HETATM   23  C6  UNL     1       4.066  -1.138   0.504  1.00  0.00     0.040 C 
BRANCH  23  24
HETATM   24  C5  UNL     1       5.233  -0.169   0.468  1.00  0.00    -0.058 A 
HETATM   25  C4  UNL     1       5.031   1.185   0.579  1.00  0.00     0.010 A 
HETATM   26  C3  UNL     1       6.069   2.097   0.536  1.00  0.00     0.037 A 
HETATM   27  C2  UNL     1       7.360   1.590   0.373  1.00  0.00     0.068 A 
HETATM   28  C26 UNL     1       7.514   0.237   0.268  1.00  0.00     0.037 A 
HETATM   29  C25 UNL     1       6.514  -0.709   0.304  1.00  0.00     0.010 A 
BRANCH  27  30
HETATM   30  O1  UNL     1       8.355   2.551   0.337  1.00  0.00    -0.356 OA
HETATM   31  C1  UNL     1       9.688   2.129   0.173  1.00  0.00     0.210 C 
ENDBRANCH  27  30
ENDBRANCH  23  24
ENDBRANCH  22  23
ENDBRANCH  21  22
ENDBRANCH   1  21
TORSDOF 12
