REMARK  12 active torsions:
REMARK  status: ('A' for Active; 'I' for Inactive)
REMARK    1  A    between atoms: N1_2  and  C2_3 
REMARK    2  A    between atoms: C2_3  and  C3_4 
REMARK    3  A    between atoms: C3_4  and  C4_5 
REMARK    4  A    between atoms: N2_11  and  C10_12 
REMARK    5  A    between atoms: C10_12  and  C11_13 
REMARK    6  A    between atoms: C11_13  and  C12_14 
REMARK    7  A    between atoms: C12_14  and  C13_15 
REMARK    8  A    between atoms: C13_15  and  C14_16 
REMARK    9  A    between atoms: C19_21  and  O1_22 
REMARK   10  A    between atoms: O1_22  and  C20_23 
REMARK   11  A    between atoms: C20_23  and  C21_24 
REMARK   12  A    between atoms: C24_27  and  O2_28 
ROOT
HETATM    1  C14 UNL     1       1.610   0.806   1.482  1.00  0.00    -0.025 A 
HETATM    2  C15 UNL     1       1.345   1.696   2.520  1.00  0.00     0.010 A 
HETATM    3  C16 UNL     1       2.120   2.804   2.762  1.00  0.00     0.001 A 
HETATM    4  C17 UNL     1       3.204   3.056   1.955  1.00  0.00     0.003 A 
HETATM    5  C18 UNL     1       3.447   2.165   0.937  1.00  0.00     0.037 A 
HETATM    6  C19 UNL     1       2.714   1.040   0.640  1.00  0.00     0.075 A 
ENDROOT
BRANCH   1   7
HETATM    7  C13 UNL     1       0.673  -0.363   1.345  1.00  0.00     0.041 C 
BRANCH   7   8
HETATM    8  C12 UNL     1      -0.272  -0.195   0.202  1.00  0.00     0.006 C 
BRANCH   8   9
HETATM    9  C11 UNL     1      -1.188  -1.412   0.138  1.00  0.00     0.020 C 
BRANCH   9  10
HETATM   10  C10 UNL     1      -2.162  -1.274  -1.028  1.00  0.00     0.124 C 
BRANCH  10  11
HETATM   11  N2  UNL     1      -2.927  -0.056  -0.777  1.00  0.00    -0.371 N 
HETATM   12  C4  UNL     1      -3.907   0.367   0.209  1.00  0.00     0.121 A 
HETATM   13  C5  UNL     1      -3.947   1.655  -0.514  1.00  0.00    -0.013 A 
HETATM   14  C6  UNL     1      -4.225   2.912  -0.920  1.00  0.00    -0.011 A 
HETATM   15  C9  UNL     1      -2.958   1.207  -1.484  1.00  0.00     0.035 A 
HETATM   16  C7  UNL     1      -3.435   3.301  -2.138  1.00  0.00     0.057 A 
HETATM   17  C8  UNL     1      -2.622   2.098  -2.437  1.00  0.00     0.007 A 
BRANCH  12  18
HETATM   18  C3  UNL     1      -5.195  -0.376   0.270  1.00  0.00     0.060 C 
BRANCH  18  19
HETATM   19  C2  UNL     1      -5.052  -1.640   1.052  1.00  0.00     0.271 C 
BRANCH  19  20
HETATM   20  N1  UNL     1      -6.321  -2.382   1.116  1.00  0.00     0.079 N 
HETATM   21  C1  UNL     1      -6.700  -2.907  -0.176  1.00  0.00     0.306 C 
HETATM   22  H4  UNL     1      -6.072  -3.232   1.705  1.00  0.00     0.315 HD
ENDBRANCH  19  20
ENDBRANCH  18  19
ENDBRANCH  12  18
ENDBRANCH  10  11
ENDBRANCH   9  10
ENDBRANCH   8   9
ENDBRANCH   7   8
ENDBRANCH   1   7
BRANCH   6  23
HETATM   23  O1  UNL     1       2.811   0.081  -0.301  1.00  0.00    -0.346 OA
BRANCH  23  24
HETATM   24  C20 UNL     1       3.670  -0.171  -1.337  1.00  0.00     0.214 C 
BRANCH  24  25
HETATM   25  C21 UNL     1       5.080  -0.394  -1.034  1.00  0.00    -0.034 A 
HETATM   26  C22 UNL     1       6.138   0.520  -1.026  1.00  0.00     0.012 A 
HETATM   27  C23 UNL     1       7.406   0.074  -0.695  1.00  0.00     0.037 A 
HETATM   28  C24 UNL     1       7.695  -1.232  -0.367  1.00  0.00     0.065 A 
HETATM   29  C25 UNL     1       6.673  -2.182  -0.360  1.00  0.00     0.037 A 
HETATM   30  C26 UNL     1       5.411  -1.696  -0.699  1.00  0.00     0.012 A 
BRANCH  28  31
HETATM   31  O2  UNL     1       9.013  -1.579  -0.046  1.00  0.00    -0.361 OA
HETATM   32  H30 UNL     1       9.166  -2.472   0.402  1.00  0.00     0.217 HD
ENDBRANCH  28  31
ENDBRANCH  24  25
ENDBRANCH  23  24
ENDBRANCH   6  23
TORSDOF 12
