REMARK  3 active torsions:
REMARK  status: ('A' for Active; 'I' for Inactive)
REMARK    1  A    between atoms: O1_1  and  C1_2 
REMARK    2  A    between atoms: C3_4  and  O2_5 
REMARK    3  A    between atoms: O2_5  and  C4_6 
ROOT
HETATM    1  C4  UNL     1       0.295   0.028  -0.395  1.00  0.00     0.072 C 
HETATM    2  C5  UNL     1      -0.404  -1.136  -0.359  1.00  0.00     0.082 C 
HETATM    3  C6  UNL     1      -0.031  -2.568  -0.560  1.00  0.00     0.002 C 
HETATM    4  C7  UNL     1      -1.240  -3.154  -0.386  1.00  0.00     0.079 C 
HETATM    5  N1  UNL     1      -2.223  -2.166  -0.118  1.00  0.00    -0.399 N 
HETATM    6  C8  UNL     1      -3.150  -1.212   0.451  1.00  0.00     0.119 C 
HETATM    7  C9  UNL     1      -3.869  -0.412  -0.646  1.00  0.00     0.024 C 
HETATM    8  C10 UNL     1      -2.791   0.317  -1.474  1.00  0.00     0.041 C 
HETATM    9  C11 UNL     1      -2.018   1.192  -0.545  1.00  0.00    -0.045 A 
HETATM   10  C12 UNL     1      -2.775   2.242  -0.102  1.00  0.00     0.008 A 
HETATM   11  C13 UNL     1      -2.367   3.208   0.777  1.00  0.00     0.001 A 
HETATM   12  C14 UNL     1      -1.092   3.153   1.282  1.00  0.00     0.001 A 
HETATM   13  C15 UNL     1      -0.341   2.071   0.812  1.00  0.00     0.014 A 
HETATM   14  C16 UNL     1      -0.703   1.052  -0.087  1.00  0.00     0.001 A 
HETATM   15  H5  UNL     1      -2.377  -2.154  -1.181  1.00  0.00     0.158 HD
ENDROOT
BRANCH   1  16
HETATM   16  O2  UNL     1       1.541   0.722  -0.585  1.00  0.00    -0.317 OA
BRANCH  16  17
HETATM   17  C3  UNL     1       2.665   0.272   0.108  1.00  0.00     0.070 C 
HETATM   18  C2  UNL     1       3.050  -0.914  -0.309  1.00  0.00     0.043 C 
HETATM   19  C1  UNL     1       4.321  -1.243  -0.236  1.00  0.00     0.079 C 
HETATM   20  C19 UNL     1       5.305  -0.502   0.516  1.00  0.00     0.034 C 
HETATM   21  C18 UNL     1       4.840   0.557   1.197  1.00  0.00    -0.017 C 
HETATM   22  C17 UNL     1       3.404   0.953   1.185  1.00  0.00     0.093 C 
BRANCH  19  23
HETATM   23  O1  UNL     1       4.743  -2.369  -0.923  1.00  0.00    -0.360 OA
HETATM   24  H1  UNL     1       5.202  -2.274  -1.823  1.00  0.00     0.217 HD
ENDBRANCH  19  23
ENDBRANCH  16  17
ENDBRANCH   1  16
TORSDOF 3
