REMARK  8 active torsions:
REMARK  status: ('A' for Active; 'I' for Inactive)
REMARK    1  A    between atoms: C3_4  and  S1_5 
REMARK    2  A    between atoms: S1_5  and  C4_6 
REMARK    3  A    between atoms: C4_6  and  C5_7 
REMARK    4  A    between atoms: C11_14  and  C12_15 
REMARK    5  A    between atoms: C15_18  and  O1_19 
REMARK    6  A    between atoms: C17_21  and  O2_22 
REMARK    7  A    between atoms: C18_23  and  C19_24 
REMARK    8  A    between atoms: C19_24  and  N3_25 
ROOT
HETATM    1  C1  UNL     1      -0.921  -2.780   0.620  1.00  0.00     0.066 C 
HETATM    2  C2  UNL     1      -0.592  -1.369   0.312  1.00  0.00     0.019 A 
HETATM    3  N1  UNL     1       0.551  -1.167  -0.245  1.00  0.00    -0.232 NA
HETATM    4  C3  UNL     1       0.932   0.155  -0.570  1.00  0.00     0.184 A 
HETATM    5  N2  UNL     1       0.083   1.034  -0.273  1.00  0.00    -0.254 NA
HETATM    6  C11 UNL     1      -1.197   0.985   0.327  1.00  0.00     0.158 A 
HETATM    7  C18 UNL     1      -1.617  -0.386   0.701  1.00  0.00     0.085 A 
ENDROOT
BRANCH   6   8
HETATM    8  C12 UNL     1      -2.207   1.667  -0.548  1.00  0.00     0.001 A 
HETATM    9  C13 UNL     1      -2.044   1.472  -1.925  1.00  0.00     0.015 A 
HETATM   10  C14 UNL     1      -2.891   2.031  -2.859  1.00  0.00     0.037 A 
HETATM   11  C15 UNL     1      -3.926   2.807  -2.377  1.00  0.00     0.068 A 
HETATM   12  C16 UNL     1      -4.120   3.023  -1.029  1.00  0.00     0.073 A 
HETATM   13  C17 UNL     1      -3.255   2.449  -0.113  1.00  0.00     0.076 A 
BRANCH  11  14
HETATM   14  O1  UNL     1      -4.799   3.385  -3.300  1.00  0.00    -0.361 OA
HETATM   15  H14 UNL     1      -5.766   3.593  -3.026  1.00  0.00     0.217 HD
ENDBRANCH  11  14
BRANCH  13  16
HETATM   16  O2  UNL     1      -3.380   2.618   1.259  1.00  0.00    -0.360 OA
HETATM   17  H16 UNL     1      -4.273   2.977   1.618  1.00  0.00     0.217 HD
ENDBRANCH  13  16
ENDBRANCH   6   8
BRANCH   7  18
HETATM   18  C19 UNL     1      -1.968  -0.512   2.171  1.00  0.00     0.195 C 
BRANCH  18  19
HETATM   19  N3  UNL     1      -2.472  -1.822   2.405  1.00  0.00    -0.140 NA
HETATM   20  O3  UNL     1      -3.650  -1.995   2.368  1.00  0.00    -0.067 OA
ENDBRANCH  18  19
ENDBRANCH   7  18
BRANCH   4  21
HETATM   21  S1  UNL     1       2.364   0.877  -1.317  1.00  0.00    -0.086 SA
BRANCH  21  22
HETATM   22  C4  UNL     1       3.576  -0.396  -1.710  1.00  0.00     0.121 C 
BRANCH  22  23
HETATM   23  C5  UNL     1       4.100  -0.961  -0.448  1.00  0.00    -0.049 A 
HETATM   24  C6  UNL     1       3.714  -2.063   0.279  1.00  0.00     0.008 A 
HETATM   25  C7  UNL     1       4.338  -2.403   1.440  1.00  0.00     0.001 A 
HETATM   26  C8  UNL     1       5.371  -1.691   1.961  1.00  0.00     0.000 A 
HETATM   27  C9  UNL     1       5.793  -0.582   1.270  1.00  0.00     0.001 A 
HETATM   28  C10 UNL     1       5.163  -0.226   0.084  1.00  0.00     0.008 A 
ENDBRANCH  22  23
ENDBRANCH  21  22
ENDBRANCH   4  21
TORSDOF 8
