REMARK  5 active torsions:
REMARK  status: ('A' for Active; 'I' for Inactive)
REMARK    1  A    between atoms: N1_1  and  C1_2 
REMARK    2  A    between atoms: C6_7  and  S1_8 
REMARK    3  A    between atoms: S1_8  and  C7_9 
REMARK    4  A    between atoms: C11_14  and  O1_15 
REMARK    5  A    between atoms: C17_21  and  N3_22 
ROOT
HETATM    1  C7  UNL     1       0.131   0.017   0.457  1.00  0.00     0.116 C 
HETATM    2  C8  UNL     1      -0.503  -1.347   0.404  1.00  0.00     0.099 C 
HETATM    3  C9  UNL     1      -1.040  -0.802  -0.857  1.00  0.00     0.014 C 
HETATM    4  N2  UNL     1       0.066  -0.125  -0.963  1.00  0.00    -0.275 NA
HETATM    5  C10 UNL     1      -2.291  -0.933  -1.684  1.00  0.00     0.090 C 
HETATM    6  C11 UNL     1      -3.454  -0.160  -1.048  1.00  0.00     0.154 C 
HETATM    7  C12 UNL     1      -2.848   0.610   0.071  1.00  0.00    -0.018 C 
HETATM    8  C13 UNL     1      -3.447   0.221   1.180  1.00  0.00     0.007 C 
HETATM    9  C14 UNL     1      -2.602   0.248   2.395  1.00  0.00    -0.003 C 
HETATM   10  C15 UNL     1      -1.345   0.645   2.296  1.00  0.00    -0.016 C 
HETATM   11  C16 UNL     1      -0.706   1.094   1.034  1.00  0.00     0.086 C 
HETATM   12  C17 UNL     1      -1.772   1.642   0.112  1.00  0.00     0.260 C 
ENDROOT
BRANCH   1  13
HETATM   13  S1  UNL     1       1.746  -0.065   1.223  1.00  0.00    -0.120 SA
BRANCH  13  14
HETATM   14  C6  UNL     1       2.967  -0.992   0.273  1.00  0.00     0.122 C 
HETATM   15  C1  UNL     1       3.211  -0.220  -0.978  1.00  0.00     0.031 C 
HETATM   16  C2  UNL     1       3.791   0.945  -0.922  1.00  0.00    -0.000 C 
HETATM   17  C3  UNL     1       4.644   1.181   0.035  1.00  0.00     0.014 C 
HETATM   18  C4  UNL     1       5.071   0.111   0.930  1.00  0.00    -0.002 C 
HETATM   19  C5  UNL     1       4.250  -0.927   1.031  1.00  0.00    -0.005 C 
BRANCH  15  20
HETATM   20  N1  UNL     1       2.828  -0.715  -2.257  1.00  0.00    -0.400 N 
HETATM   21  H1  UNL     1       2.399  -1.041  -3.150  1.00  0.00     0.156 HD
HETATM   22  H2  UNL     1       3.691  -1.033  -2.759  1.00  0.00     0.156 HD
ENDBRANCH  15  20
ENDBRANCH  13  14
ENDBRANCH   1  13
BRANCH  12  23
HETATM   23  N3  UNL     1      -1.276   1.971  -1.184  1.00  0.00     0.087 N 
HETATM   24  H18 UNL     1      -2.028   1.845  -1.925  1.00  0.00     0.313 HD
HETATM   25  H19 UNL     1      -1.062   3.011  -1.231  1.00  0.00     0.313 HD
ENDBRANCH  12  23
BRANCH   6  26
HETATM   26  O1  UNL     1      -4.406  -1.048  -0.526  1.00  0.00    -0.391 OA
HETATM   27  H12 UNL     1      -3.976  -1.765   0.012  1.00  0.00     0.210 HD
ENDBRANCH   6  26
TORSDOF 5
