REMARK  9 active torsions:
REMARK  status: ('A' for Active; 'I' for Inactive)
REMARK    1  A    between atoms: C5_5  and  N1_6 
REMARK       I    between atoms: N1_6  and  C6_7 
REMARK    2  A    between atoms: C6_7  and  C7_9 
REMARK    3  A    between atoms: C7_9  and  C8_10 
REMARK    4  A    between atoms: C7_9  and  C18_22 
REMARK    5  A    between atoms: N2_11  and  C9_12 
REMARK    6  A    between atoms: C9_12  and  S1_14 
REMARK    7  A    between atoms: S1_14  and  C11_15 
REMARK    8  A    between atoms: C11_15  and  C12_16 
REMARK    9  A    between atoms: C18_22  and  C19_23 
ROOT
HETATM    1  C7  UNL     1      -1.042   1.147   0.655  1.00  0.00     0.124 C 
ENDROOT
BRANCH   1   2
HETATM    2  C6  UNL     1      -1.562  -0.286   0.556  1.00  0.00     0.231 C 
HETATM    3  N1  UNL     1      -2.413  -0.667  -0.476  1.00  0.00    -0.327 N 
HETATM    4  H6  UNL     1      -2.636  -0.118  -1.334  1.00  0.00     0.169 HD
HETATM    5  O1  UNL     1      -1.355  -1.286   1.311  1.00  0.00    -0.272 OA
BRANCH   3   6
HETATM    6  C5  UNL     1      -2.879  -1.988  -0.190  1.00  0.00     0.034 A 
HETATM    7  C4  UNL     1      -2.731  -3.319  -0.179  1.00  0.00     0.030 A 
HETATM    8  C3  UNL     1      -3.707  -4.198   0.150  1.00  0.00     0.009 A 
HETATM    9  C2  UNL     1      -4.936  -3.811   0.497  1.00  0.00    -0.062 A 
HETATM   10  C1  UNL     1      -5.964  -4.907   0.837  1.00  0.00     0.048 C 
HETATM   11  C25 UNL     1      -5.257  -2.500   0.549  1.00  0.00     0.009 A 
HETATM   12  C24 UNL     1      -4.221  -1.572   0.214  1.00  0.00     0.030 A 
ENDBRANCH   3   6
ENDBRANCH   1   2
BRANCH   1  13
HETATM   13  C8  UNL     1       0.126   1.349  -0.178  1.00  0.00     0.099 C 
HETATM   14  N2  UNL     1       1.290   1.587   0.453  1.00  0.00    -0.290 NA
BRANCH  14  15
HETATM   15  C9  UNL     1       2.467   1.773  -0.381  1.00  0.00     0.164 C 
HETATM   16  C10 UNL     1       3.593   2.239   0.492  1.00  0.00     0.046 C 
BRANCH  15  17
HETATM   17  S1  UNL     1       2.805   0.235  -1.246  1.00  0.00    -0.138 SA
BRANCH  17  18
HETATM   18  C11 UNL     1       3.358  -1.080  -0.103  1.00  0.00     0.114 C 
BRANCH  18  19
HETATM   19  C12 UNL     1       4.793  -1.144  -0.080  1.00  0.00    -0.049 A 
HETATM   20  C13 UNL     1       5.801  -0.250  -0.435  1.00  0.00     0.008 A 
HETATM   21  C14 UNL     1       7.167  -0.403  -0.426  1.00  0.00     0.001 A 
HETATM   22  C15 UNL     1       7.644  -1.608  -0.016  1.00  0.00     0.000 A 
HETATM   23  C16 UNL     1       6.737  -2.580   0.369  1.00  0.00     0.001 A 
HETATM   24  C17 UNL     1       5.401  -2.349   0.340  1.00  0.00     0.008 A 
ENDBRANCH  18  19
ENDBRANCH  17  18
ENDBRANCH  15  17
ENDBRANCH  14  15
ENDBRANCH   1  13
BRANCH   1  25
HETATM   25  C18 UNL     1      -2.236   1.931   0.046  1.00  0.00     0.084 C 
BRANCH  25  26
HETATM   26  C19 UNL     1      -2.160   3.354   0.370  1.00  0.00     0.054 C 
HETATM   27  C20 UNL     1      -3.160   4.120   0.119  1.00  0.00    -0.015 A 
HETATM   28  C21 UNL     1      -4.221   5.054  -0.124  1.00  0.00     0.002 A 
HETATM   29  C22 UNL     1      -3.000   5.643   0.196  1.00  0.00     0.047 A 
HETATM   30  C23 UNL     1      -1.560   5.478   0.625  1.00  0.00     0.195 C 
HETATM   31  O2  UNL     1      -1.342   4.224   0.914  1.00  0.00    -0.353 OA
ENDBRANCH  25  26
ENDBRANCH   1  25
TORSDOF 9
