REMARK  5 active torsions:
REMARK  status: ('A' for Active; 'I' for Inactive)
REMARK    1  A    between atoms: C1_2  and  C2_3 
REMARK    2  A    between atoms: C3_5  and  C4_6 
REMARK    3  A    between atoms: C10_12  and  C11_13 
REMARK    4  A    between atoms: C14_16  and  O2_17 
REMARK    5  A    between atoms: C16_19  and  O3_20 
ROOT
HETATM    1  C2  UNL     1       0.895   3.185   0.488  1.00  0.00     0.073 A 
HETATM    2  N1  UNL     1       1.597   2.106   0.468  1.00  0.00    -0.249 NA
HETATM    3  C3  UNL     1       0.862   0.890   0.267  1.00  0.00     0.074 A 
HETATM    4  C10 UNL     1      -0.445   0.970   0.122  1.00  0.00    -0.015 A 
HETATM    5  C17 UNL     1      -1.330   2.166   0.140  1.00  0.00     0.048 A 
HETATM    6  C18 UNL     1      -0.563   3.445   0.349  1.00  0.00     0.067 A 
ENDROOT
BRANCH   4   7
HETATM    7  C11 UNL     1      -1.289  -0.191  -0.093  1.00  0.00     0.006 A 
HETATM    8  C12 UNL     1      -2.437  -0.466   0.647  1.00  0.00     0.017 A 
HETATM    9  C13 UNL     1      -3.249  -1.549   0.423  1.00  0.00     0.037 A 
HETATM   10  C14 UNL     1      -2.944  -2.441  -0.582  1.00  0.00     0.068 A 
HETATM   11  C15 UNL     1      -1.808  -2.213  -1.351  1.00  0.00     0.073 A 
HETATM   12  C16 UNL     1      -1.018  -1.090  -1.077  1.00  0.00     0.079 A 
BRANCH  10  13
HETATM   13  O2  UNL     1      -3.765  -3.534  -0.802  1.00  0.00    -0.361 OA
HETATM   14  H9  UNL     1      -4.441  -3.853  -0.142  1.00  0.00     0.217 HD
ENDBRANCH  10  13
BRANCH  12  15
HETATM   15  O3  UNL     1       0.061  -1.027  -1.945  1.00  0.00    -0.360 OA
HETATM   16  H11 UNL     1       0.003  -1.127  -2.948  1.00  0.00     0.217 HD
ENDBRANCH  12  15
ENDBRANCH   4   7
BRANCH   3  17
HETATM   17  C4  UNL     1       1.610  -0.353   0.295  1.00  0.00    -0.007 A 
HETATM   18  C5  UNL     1       1.212  -1.523   0.961  1.00  0.00     0.014 A 
HETATM   19  C6  UNL     1       2.075  -2.610   0.870  1.00  0.00     0.001 A 
HETATM   20  C7  UNL     1       3.266  -2.571   0.170  1.00  0.00     0.000 A 
HETATM   21  C8  UNL     1       3.635  -1.434  -0.468  1.00  0.00     0.001 A 
HETATM   22  C9  UNL     1       2.818  -0.309  -0.417  1.00  0.00     0.014 A 
ENDBRANCH   3  17
BRANCH   1  23
HETATM   23  C1  UNL     1       1.604   4.423   0.688  1.00  0.00     0.285 C 
HETATM   24  O1  UNL     1       2.714   4.920   0.859  1.00  0.00    -0.300 OA
ENDBRANCH   1  23
TORSDOF 5
