REMARK  6 active torsions:
REMARK  status: ('A' for Active; 'I' for Inactive)
REMARK       I    between atoms: N1_6  and  C6_7 
REMARK    1  A    between atoms: C6_7  and  C7_9 
REMARK    2  A    between atoms: C7_9  and  C8_10 
REMARK    3  A    between atoms: N2_12  and  C10_13 
REMARK    4  A    between atoms: C10_13  and  C11_14 
REMARK    5  A    between atoms: C11_14  and  C12_15 
REMARK    6  A    between atoms: C18_21  and  N3_22 
ROOT
HETATM    1  C1  UNL     1       6.168  -0.045   0.281  1.00  0.00     0.048 C 
HETATM    2  C2  UNL     1       4.735  -0.310   0.582  1.00  0.00    -0.032 A 
HETATM    3  C3  UNL     1       4.458  -1.471   1.157  1.00  0.00     0.008 A 
HETATM    4  C4  UNL     1       3.048  -1.688   1.433  1.00  0.00     0.018 A 
HETATM    5  C5  UNL     1       2.123  -0.800   1.133  1.00  0.00     0.096 A 
HETATM    6  N1  UNL     1       2.469   0.413   0.524  1.00  0.00    -0.293 N 
HETATM    7  C6  UNL     1       1.439   1.371   0.199  1.00  0.00     0.231 C 
HETATM    8  O1  UNL     1       1.710   2.489  -0.359  1.00  0.00    -0.273 OA
HETATM    9  C18 UNL     1       3.829   0.783   0.187  1.00  0.00     0.355 A 
ENDROOT
BRANCH   7  10
HETATM   10  C7  UNL     1       0.008   1.165   0.469  1.00  0.00     0.157 C 
BRANCH  10  11
HETATM   11  C8  UNL     1      -0.754   0.676  -0.724  1.00  0.00     0.011 C 
HETATM   12  C9  UNL     1      -0.774   1.522  -1.947  1.00  0.00     0.065 C 
HETATM   13  N2  UNL     1      -1.446  -0.374  -0.967  1.00  0.00    -0.298 NA
BRANCH  13  14
HETATM   14  C10 UNL     1      -1.580  -1.358   0.070  1.00  0.00     0.153 C 
BRANCH  14  15
HETATM   15  C11 UNL     1      -2.896  -2.084  -0.233  1.00  0.00     0.060 C 
BRANCH  15  16
HETATM   16  C12 UNL     1      -3.937  -0.997  -0.177  1.00  0.00    -0.057 A 
HETATM   17  C13 UNL     1      -4.533  -0.758   1.050  1.00  0.00     0.007 A 
HETATM   18  C14 UNL     1      -5.491   0.222   1.165  1.00  0.00     0.001 A 
HETATM   19  C15 UNL     1      -5.877   0.980   0.075  1.00  0.00     0.000 A 
HETATM   20  C16 UNL     1      -5.256   0.708  -1.134  1.00  0.00     0.001 A 
HETATM   21  C17 UNL     1      -4.290  -0.272  -1.275  1.00  0.00     0.007 A 
ENDBRANCH  15  16
ENDBRANCH  14  15
ENDBRANCH  13  14
ENDBRANCH  10  11
ENDBRANCH   7  10
BRANCH   9  22
HETATM   22  N3  UNL     1       3.931   1.107  -1.226  1.00  0.00     0.106 N 
HETATM   23  H22 UNL     1       4.573   0.443  -1.703  1.00  0.00     0.316 HD
HETATM   24  H23 UNL     1       3.032   1.121  -1.716  1.00  0.00     0.316 HD
ENDBRANCH   9  22
TORSDOF 6
