REMARK  5 active torsions:
REMARK  status: ('A' for Active; 'I' for Inactive)
REMARK    1  A    between atoms: C3_4  and  N2_5 
REMARK    2  A    between atoms: N2_5  and  C4_6 
REMARK    3  A    between atoms: C4_6  and  C5_7 
REMARK    4  A    between atoms: C6_10  and  C7_11 
REMARK       I    between atoms: C7_11  and  N4_13 
REMARK    5  A    between atoms: N4_13  and  C8_14 
ROOT
HETATM    1  C1  UNL     1      -2.500  -3.990   0.433  1.00  0.00     0.066 C 
HETATM    2  C2  UNL     1      -2.449  -2.518   0.239  1.00  0.00     0.030 A 
HETATM    3  N1  UNL     1      -3.430  -1.842   0.794  1.00  0.00    -0.073 NA
HETATM    4  C3  UNL     1      -3.387  -0.410   0.608  1.00  0.00     0.718 A 
HETATM    5  N3  UNL     1      -2.451   0.115  -0.052  1.00  0.00    -0.090 NA
HETATM    6  C6  UNL     1      -1.340  -0.475  -0.701  1.00  0.00     0.225 A 
HETATM    7  C15 UNL     1      -1.324  -1.961  -0.538  1.00  0.00     0.092 A 
ENDROOT
BRANCH   6   8
HETATM    8  C7  UNL     1      -0.038   0.137  -0.260  1.00  0.00     0.248 C 
HETATM    9  O1  UNL     1      -0.075   1.023   0.594  1.00  0.00    -0.271 OA
HETATM   10  N4  UNL     1       1.199  -0.283  -0.804  1.00  0.00    -0.325 N 
HETATM   11  H10 UNL     1       1.088  -1.040  -1.511  1.00  0.00     0.169 HD
BRANCH  10  12
HETATM   12  C8  UNL     1       2.483   0.179  -0.511  1.00  0.00     0.034 A 
HETATM   13  C9  UNL     1       3.569  -0.360  -1.166  1.00  0.00     0.030 A 
HETATM   14  C10 UNL     1       4.857   0.027  -0.955  1.00  0.00     0.009 A 
HETATM   15  C11 UNL     1       5.168   1.006  -0.051  1.00  0.00    -0.062 A 
HETATM   16  C12 UNL     1       6.539   1.461   0.209  1.00  0.00     0.048 C 
HETATM   17  C13 UNL     1       4.117   1.586   0.641  1.00  0.00     0.009 A 
HETATM   18  C14 UNL     1       2.836   1.157   0.388  1.00  0.00     0.030 A 
ENDBRANCH  10  12
ENDBRANCH   6   8
BRANCH   4  19
HETATM   19  N2  UNL     1      -4.420   0.414   1.174  1.00  0.00    -0.222 N 
HETATM   20  H4  UNL     1      -4.756   0.151   2.152  1.00  0.00     0.177 HD
BRANCH  19  21
HETATM   21  C4  UNL     1      -4.929   1.517   0.402  1.00  0.00     0.153 C 
BRANCH  21  22
HETATM   22  C5  UNL     1      -3.972   2.642   0.187  1.00  0.00     0.135 C 
HETATM   23 CL1  UNL     1      -3.391   3.416   1.653  1.00  0.00    -0.129 Cl
ENDBRANCH  21  22
ENDBRANCH  19  21
ENDBRANCH   4  19
TORSDOF 5
