REMARK  1 active torsions:
REMARK  status: ('A' for Active; 'I' for Inactive)
REMARK    1  A    between atoms: C18_21  and  O2_22 
ROOT
HETATM    1  O1  UNL     1      -1.445  -1.186   0.617  1.00  0.00    -0.272 OA
HETATM    2  C1  UNL     1      -2.662  -1.412   0.844  1.00  0.00     0.231 C 
HETATM    3  N1  UNL     1      -2.221  -2.751   0.824  1.00  0.00    -0.327 N 
HETATM    4  C2  UNL     1      -0.795  -2.800   0.575  1.00  0.00     0.034 A 
HETATM    5  C3  UNL     1      -0.315  -2.936  -0.710  1.00  0.00     0.030 A 
HETATM    6  C4  UNL     1       1.043  -2.967  -0.933  1.00  0.00     0.011 A 
HETATM    7  C5  UNL     1       1.914  -2.862   0.126  1.00  0.00    -0.030 A 
HETATM    8  C6  UNL     1       1.399  -2.727   1.416  1.00  0.00     0.011 A 
HETATM    9  C7  UNL     1       0.044  -2.693   1.666  1.00  0.00     0.030 A 
HETATM   10  C8  UNL     1       3.386  -2.875   0.003  1.00  0.00     0.308 C 
HETATM   11  N2  UNL     1       3.888  -2.288  -1.198  1.00  0.00     0.091 N 
HETATM   12  C9  UNL     1       3.491  -0.941  -1.431  1.00  0.00     0.309 C 
HETATM   13  C10 UNL     1       3.875   0.043  -0.416  1.00  0.00    -0.024 A 
HETATM   14  C11 UNL     1       4.879  -0.010   0.524  1.00  0.00     0.009 A 
HETATM   15  C12 UNL     1       5.162   0.965   1.454  1.00  0.00     0.001 A 
HETATM   16  C13 UNL     1       4.384   2.104   1.463  1.00  0.00     0.001 A 
HETATM   17  C14 UNL     1       3.366   2.199   0.537  1.00  0.00     0.008 A 
HETATM   18  C15 UNL     1       3.082   1.204  -0.409  1.00  0.00    -0.047 A 
HETATM   19  C16 UNL     1       1.984   1.544  -1.301  1.00  0.00     0.068 C 
HETATM   20  C17 UNL     1       0.626   1.474  -0.807  1.00  0.00     0.012 C 
HETATM   21  C18 UNL     1      -0.158   2.556  -0.742  1.00  0.00     0.063 C 
HETATM   22  C19 UNL     1      -1.429   3.202  -0.425  1.00  0.00     0.231 C 
HETATM   23  O3  UNL     1      -2.412   2.313   0.077  1.00  0.00    -0.384 OA
HETATM   24  C20 UNL     1      -2.719   1.345  -0.846  1.00  0.00     0.175 C 
HETATM   25  C21 UNL     1      -3.791   0.368  -0.394  1.00  0.00     0.047 C 
HETATM   26  C22 UNL     1      -5.100   0.982  -0.682  1.00  0.00     0.158 C 
HETATM   27  N3  UNL     1      -5.630   1.906   0.268  1.00  0.00    -0.282 NA
HETATM   28  C23 UNL     1      -5.934   1.601   1.508  1.00  0.00     0.225 C 
HETATM   29  N4  UNL     1      -5.746   0.278   2.003  1.00  0.00    -0.258 NA
HETATM   30  C24 UNL     1      -4.734  -0.489   1.772  1.00  0.00     0.105 C 
HETATM   31  C25 UNL     1      -3.534  -0.186   0.945  1.00  0.00     0.126 C 
HETATM   32  H1  UNL     1      -2.860  -3.564   0.971  1.00  0.00     0.169 HD
HETATM   33  H8  UNL     1       4.890  -2.495  -1.357  1.00  0.00     0.316 HD
ENDROOT
BRANCH  21  34
HETATM   34  O2  UNL     1       0.677   3.584  -1.234  1.00  0.00    -0.363 OA
HETATM   35  H18 UNL     1       0.648   3.844  -2.215  1.00  0.00     0.217 HD
ENDBRANCH  21  34
TORSDOF 1
