REMARK  6 active torsions:
REMARK  status: ('A' for Active; 'I' for Inactive)
REMARK    1  A    between atoms: O1_2  and  C2_3 
REMARK    2  A    between atoms: C3_5  and  N2_6 
REMARK    3  A    between atoms: N2_6  and  C4_7 
REMARK    4  A    between atoms: C4_7  and  C5_8 
REMARK    5  A    between atoms: C12_16  and  C13_17 
REMARK       I    between atoms: C13_17  and  N4_19 
REMARK    6  A    between atoms: N4_19  and  C14_20 
ROOT
HETATM    1  C2  UNL     1       0.162  -1.716  -1.341  1.00  0.00     0.173 A 
HETATM    2  N1  UNL     1      -1.037  -1.619  -0.820  1.00  0.00    -0.042 NA
HETATM    3  C3  UNL     1      -1.776  -0.428  -0.901  1.00  0.00     0.720 A 
HETATM    4  N3  UNL     1      -1.311   0.600  -1.482  1.00  0.00    -0.104 NA
HETATM    5  C11 UNL     1      -0.017   0.625  -2.091  1.00  0.00     0.191 A 
HETATM    6  C12 UNL     1       0.804  -0.604  -2.034  1.00  0.00     0.176 A 
ENDROOT
BRANCH   6   7
HETATM    7  C13 UNL     1       2.121  -0.239  -1.431  1.00  0.00     0.235 C 
HETATM    8  O2  UNL     1       3.236  -0.270  -2.055  1.00  0.00    -0.272 OA
HETATM    9  N4  UNL     1       2.275   0.187  -0.081  1.00  0.00    -0.326 N 
HETATM   10  H15 UNL     1       1.432   0.252   0.529  1.00  0.00     0.169 HD
BRANCH   9  11
HETATM   11  C14 UNL     1       3.665   0.459   0.175  1.00  0.00     0.034 A 
HETATM   12  C15 UNL     1       4.465  -0.565   0.637  1.00  0.00     0.030 A 
HETATM   13  C16 UNL     1       5.800  -0.222   0.861  1.00  0.00     0.009 A 
HETATM   14  C17 UNL     1       6.266   1.059   0.630  1.00  0.00    -0.062 A 
HETATM   15  C18 UNL     1       7.705   1.274   0.912  1.00  0.00     0.048 C 
HETATM   16  C19 UNL     1       5.427   2.050   0.167  1.00  0.00     0.009 A 
HETATM   17  C20 UNL     1       4.094   1.745  -0.066  1.00  0.00     0.030 A 
ENDBRANCH   9  11
ENDBRANCH   6   7
BRANCH   1  18
HETATM   18  O1  UNL     1       0.776  -2.937  -1.192  1.00  0.00    -0.342 OA
HETATM   19  C1  UNL     1       0.175  -3.984  -0.419  1.00  0.00     0.211 C 
ENDBRANCH   1  18
BRANCH   3  20
HETATM   20  N2  UNL     1      -3.076  -0.330  -0.333  1.00  0.00    -0.218 N 
HETATM   21  H4  UNL     1      -3.606  -1.226  -0.122  1.00  0.00     0.178 HD
BRANCH  20  22
HETATM   22  C4  UNL     1      -3.726   0.924  -0.023  1.00  0.00     0.176 C 
BRANCH  22  23
HETATM   23  C5  UNL     1      -5.066   0.761   0.557  1.00  0.00    -0.040 A 
HETATM   24  C6  UNL     1      -5.410   0.645   1.888  1.00  0.00     0.009 A 
HETATM   25  C7  UNL     1      -6.713   0.498   2.274  1.00  0.00     0.001 A 
HETATM   26  C8  UNL     1      -7.740   0.461   1.325  1.00  0.00     0.000 A 
HETATM   27  C9  UNL     1      -7.406   0.578  -0.026  1.00  0.00     0.001 A 
HETATM   28  C10 UNL     1      -6.081   0.724  -0.374  1.00  0.00     0.009 A 
ENDBRANCH  22  23
ENDBRANCH  20  22
ENDBRANCH   3  20
TORSDOF 6
