REMARK  1 active torsions:
REMARK  status: ('A' for Active; 'I' for Inactive)
REMARK    1  A    between atoms: C13_18  and  C14_19 
ROOT
HETATM    1  C1  UNL     1      -4.618  -1.639   1.257  1.00  0.00     0.067 C 
HETATM    2  C2  UNL     1      -3.494  -1.099   0.455  1.00  0.00     0.050 C 
HETATM    3  N1  UNL     1      -2.315  -0.917   0.896  1.00  0.00    -0.071 NA
HETATM    4  C3  UNL     1      -1.163  -1.359   0.126  1.00  0.00     0.726 C 
HETATM    5  N2  UNL     1      -1.481  -1.933  -0.986  1.00  0.00    -0.025 NA
HETATM    6  C4  UNL     1      -2.750  -1.846  -1.614  1.00  0.00     0.279 C 
HETATM    7  O1  UNL     1      -2.682  -2.802  -2.458  1.00  0.00    -0.269 OA
HETATM    8  C5  UNL     1      -3.570  -0.683  -1.002  1.00  0.00     0.220 C 
HETATM    9  C6  UNL     1      -2.685   0.454  -1.322  1.00  0.00     0.241 C 
HETATM   10  O2  UNL     1      -2.364   0.753  -2.475  1.00  0.00    -0.272 OA
HETATM   11  N3  UNL     1      -1.955   1.458  -0.806  1.00  0.00    -0.326 N 
HETATM   12  C7  UNL     1      -1.221   2.468  -0.290  1.00  0.00     0.035 A 
HETATM   13  C8  UNL     1      -0.585   3.523   0.176  1.00  0.00     0.029 A 
HETATM   14  C9  UNL     1       0.612   3.516   0.857  1.00  0.00     0.003 A 
HETATM   15  C10 UNL     1       1.340   2.387   1.164  1.00  0.00     0.010 A 
HETATM   16  C11 UNL     1       0.939   1.126   0.814  1.00  0.00    -0.028 A 
HETATM   17  C12 UNL     1      -0.246   1.513   0.171  1.00  0.00     0.039 A 
HETATM   18  C13 UNL     1       1.278  -0.306   0.984  1.00  0.00     0.166 C 
HETATM   19  N4  UNL     1       0.255  -1.166   0.363  1.00  0.00    -0.210 N 
HETATM   20  H5  UNL     1      -2.484   1.246   0.113  1.00  0.00     0.169 HD
HETATM   21  H16 UNL     1       0.789  -1.984  -0.076  1.00  0.00     0.179 HD
ENDROOT
BRANCH  18  22
HETATM   22  C14 UNL     1       2.597  -0.491   0.350  1.00  0.00    -0.030 A 
HETATM   23  C15 UNL     1       3.737  -0.621   1.120  1.00  0.00     0.009 A 
HETATM   24  C16 UNL     1       4.970  -0.793   0.515  1.00  0.00     0.001 A 
HETATM   25  C17 UNL     1       5.136  -0.844  -0.838  1.00  0.00     0.000 A 
HETATM   26  C18 UNL     1       3.994  -0.714  -1.627  1.00  0.00     0.001 A 
HETATM   27  C19 UNL     1       2.768  -0.543  -1.017  1.00  0.00     0.009 A 
ENDBRANCH  18  22
TORSDOF 1
