REMARK  5 active torsions:
REMARK  status: ('A' for Active; 'I' for Inactive)
REMARK    1  A    between atoms: C1_2  and  C2_3 
REMARK       I    between atoms: C1_2  and  N1_10 
REMARK    2  A    between atoms: C2_3  and  C3_4 
REMARK    3  A    between atoms: N1_10  and  C9_11 
REMARK    4  A    between atoms: C15_17  and  C16_18 
REMARK    5  A    between atoms: C16_18  and  N2_19 
ROOT
HETATM    1  C9  UNL     1      -0.632   0.155  -0.799  1.00  0.00     0.044 A 
HETATM    2  C10 UNL     1      -0.188   0.793  -1.934  1.00  0.00     0.030 A 
HETATM    3  C11 UNL     1      -1.054   1.295  -2.911  1.00  0.00     0.003 A 
HETATM    4  C12 UNL     1      -2.431   1.129  -2.704  1.00  0.00     0.012 A 
HETATM    5  C13 UNL     1      -2.801   0.481  -1.545  1.00  0.00    -0.023 A 
HETATM    6  C14 UNL     1      -1.974  -0.020  -0.564  1.00  0.00     0.003 A 
HETATM    7  C15 UNL     1      -2.423  -0.631   0.707  1.00  0.00     0.141 C 
HETATM    8  N3  UNL     1      -3.875  -0.908   0.550  1.00  0.00    -0.340 N 
HETATM    9  C17 UNL     1      -4.473  -1.636   1.582  1.00  0.00     0.100 A 
HETATM   10  C18 UNL     1      -5.774  -1.820   1.516  1.00  0.00     0.069 A 
HETATM   11  S1  UNL     1      -6.396  -1.001   0.016  1.00  0.00    -0.083 SA
HETATM   12  C19 UNL     1      -4.740  -0.452  -0.478  1.00  0.00     0.077 A 
HETATM   13  C20 UNL     1      -4.236   0.240  -1.474  1.00  0.00     0.049 C 
ENDROOT
BRANCH   1  14
HETATM   14  N1  UNL     1       0.326  -0.362   0.102  1.00  0.00    -0.326 N 
HETATM   15  C1  UNL     1       1.716  -0.191   0.151  1.00  0.00     0.226 C 
HETATM   16  O1  UNL     1       2.326   0.501  -0.670  1.00  0.00    -0.273 OA
HETATM   17  H8  UNL     1       0.103  -1.022   0.898  1.00  0.00     0.169 HD
BRANCH  15  18
HETATM   18  C2  UNL     1       2.710  -0.742   1.102  1.00  0.00     0.141 C 
BRANCH  18  19
HETATM   19  C3  UNL     1       4.041  -0.246   0.695  1.00  0.00    -0.050 A 
HETATM   20  C4  UNL     1       4.650   0.928   1.127  1.00  0.00     0.007 A 
HETATM   21  C5  UNL     1       5.902   1.285   0.673  1.00  0.00     0.001 A 
HETATM   22  C6  UNL     1       6.599   0.488  -0.229  1.00  0.00     0.000 A 
HETATM   23  C7  UNL     1       6.033  -0.676  -0.679  1.00  0.00     0.001 A 
HETATM   24  C8  UNL     1       4.773  -1.008  -0.204  1.00  0.00     0.007 A 
ENDBRANCH  18  19
ENDBRANCH  15  18
ENDBRANCH   1  14
BRANCH   7  25
HETATM   25  C16 UNL     1      -2.400   0.477   1.793  1.00  0.00     0.153 C 
BRANCH  25  26
HETATM   26  N2  UNL     1      -1.150   1.075   2.035  1.00  0.00    -0.161 NA
HETATM   27  F1  UNL     1      -1.286   2.123   2.930  1.00  0.00    -0.136 F 
HETATM   28  H15 UNL     1      -0.573   0.388   2.628  1.00  0.00     0.159 HD
ENDBRANCH  25  26
ENDBRANCH   7  25
TORSDOF 5
