REMARK  3 active torsions:
REMARK  status: ('A' for Active; 'I' for Inactive)
REMARK    1  A    between atoms: N1_6  and  C6_7 
REMARK    2  A    between atoms: C10_12  and  C11_13 
REMARK    3  A    between atoms: C16_20  and  N3_21 
ROOT
HETATM    1  C1  UNL     1       6.623  -0.719  -1.801  1.00  0.00     0.018 C 
HETATM    2  C2  UNL     1       5.536  -0.553  -1.321  1.00  0.00    -0.078 C 
HETATM    3  C3  UNL     1       4.238  -0.357  -0.740  1.00  0.00     0.021 A 
HETATM    4  C4  UNL     1       3.485   0.778  -0.878  1.00  0.00     0.038 A 
HETATM    5  C5  UNL     1       2.248   0.824  -0.259  1.00  0.00     0.095 A 
HETATM    6  N1  UNL     1       1.725  -0.183   0.481  1.00  0.00    -0.331 N 
HETATM    7  C16 UNL     1       2.485  -1.292   0.603  1.00  0.00     0.124 A 
HETATM    8  C17 UNL     1       3.711  -1.386   0.012  1.00  0.00     0.070 A 
ENDROOT
BRANCH   7   9
HETATM    9  N3  UNL     1       1.929  -2.222   1.324  1.00  0.00    -0.284 NA
HETATM   10  H16 UNL     1       2.397  -3.124   1.502  1.00  0.00     0.188 HD
ENDBRANCH   7   9
BRANCH   6  11
HETATM   11  C6  UNL     1       0.403   0.015   1.073  1.00  0.00     0.145 A 
HETATM   12  C7  UNL     1       0.684   0.946   2.226  1.00  0.00     0.115 A 
HETATM   13  N2  UNL     1       0.300   2.133   2.553  1.00  0.00    -0.275 NA
HETATM   14  C8  UNL     1      -0.603   2.766   1.654  1.00  0.00     0.112 A 
HETATM   15  C9  UNL     1      -0.899   2.014   0.623  1.00  0.00     0.006 A 
HETATM   16  C10 UNL     1      -0.531   0.643   0.135  1.00  0.00     0.094 A 
BRANCH  16  17
HETATM   17  C11 UNL     1      -1.805  -0.023  -0.136  1.00  0.00     0.054 C 
HETATM   18  C12 UNL     1      -2.363  -1.136   0.288  1.00  0.00     0.032 C 
HETATM   19  C13 UNL     1      -3.598  -1.902   0.105  1.00  0.00     0.197 C 
HETATM   20  O1  UNL     1      -4.507  -1.320  -0.749  1.00  0.00    -0.385 OA
HETATM   21  C14 UNL     1      -4.669   0.030  -0.603  1.00  0.00     0.194 C 
HETATM   22  C15 UNL     1      -3.770   0.703  -1.648  1.00  0.00     0.201 C 
HETATM   23  O2  UNL     1      -2.463   0.821  -1.063  1.00  0.00    -0.353 OA
ENDBRANCH  16  17
ENDBRANCH   6  11
TORSDOF 3
