REMARK  5 active torsions:
REMARK  status: ('A' for Active; 'I' for Inactive)
REMARK    1  A    between atoms: C3_3  and  C5_5 
REMARK    2  A    between atoms: C6_6  and  N1_7 
REMARK    3  A    between atoms: C7_8  and  O1_9 
REMARK    4  A    between atoms: C12_14  and  C13_15 
REMARK    5  A    between atoms: C13_15  and  O2_16 
ROOT
HETATM    1  N1  UNL     1      -1.136   1.200   0.409  1.00  0.00    -0.318 N 
HETATM    2  C7  UNL     1      -1.035   1.355   1.816  1.00  0.00     0.138 A 
HETATM    3  C9  UNL     1       0.237   0.909   1.808  1.00  0.00     0.117 A 
HETATM    4  C10 UNL     1       1.450   0.392   1.098  1.00  0.00     0.109 A 
HETATM    5  C11 UNL     1       2.722   0.650   1.028  1.00  0.00     0.020 C 
HETATM    6  C12 UNL     1       3.881   0.154   0.346  1.00  0.00    -0.014 C 
HETATM    7  C15 UNL     1       3.753  -0.857  -0.476  1.00  0.00     0.144 C 
HETATM    8  O3  UNL     1       2.423  -1.230  -0.476  1.00  0.00    -0.359 OA
HETATM    9  C16 UNL     1       2.059  -2.537  -0.879  1.00  0.00     0.203 C 
HETATM   10  C17 UNL     1       0.682  -2.860  -0.507  1.00  0.00     0.016 C 
HETATM   11  C18 UNL     1       0.121  -1.848   0.117  1.00  0.00     0.087 C 
HETATM   12  N2  UNL     1       0.581  -0.568   0.477  1.00  0.00    -0.350 N 
HETATM   13  C19 UNL     1       0.246   0.801   0.329  1.00  0.00     0.208 A 
ENDROOT
BRANCH   1  14
HETATM   14  C6  UNL     1      -2.206   1.382  -0.491  1.00  0.00     0.095 C 
HETATM   15  C5  UNL     1      -3.165   0.484  -0.632  1.00  0.00     0.024 C 
BRANCH  15  16
HETATM   16  C3  UNL     1      -4.299   0.616  -1.548  1.00  0.00    -0.065 C 
HETATM   17  C2  UNL     1      -5.218  -0.319  -1.636  1.00  0.00    -0.024 C 
HETATM   18  C1  UNL     1      -6.341  -0.093  -2.603  1.00  0.00     0.036 C 
HETATM   19  C4  UNL     1      -4.339   1.857  -2.356  1.00  0.00     0.048 C 
ENDBRANCH  15  16
ENDBRANCH   1  14
BRANCH   2  20
HETATM   20  O1  UNL     1      -1.762   1.758   2.919  1.00  0.00    -0.343 OA
HETATM   21  C8  UNL     1      -1.835   0.996   4.086  1.00  0.00     0.211 C 
ENDBRANCH   2  20
BRANCH   6  22
HETATM   22  C13 UNL     1       5.200   0.755   0.601  1.00  0.00     0.207 C 
BRANCH  22  23
HETATM   23  O2  UNL     1       6.276   0.231  -0.007  1.00  0.00    -0.391 OA
HETATM   24  C14 UNL     1       6.732  -1.003   0.395  1.00  0.00     0.201 C 
ENDBRANCH  22  23
ENDBRANCH   6  22
TORSDOF 5
