REMARK  8 active torsions:
REMARK  status: ('A' for Active; 'I' for Inactive)
REMARK    1  A    between atoms: C4_7  and  C5_8 
REMARK    2  A    between atoms: C5_8  and  C6_9 
REMARK    3  A    between atoms: C7_10  and  C8_11 
REMARK    4  A    between atoms: C11_14  and  C12_15 
REMARK    5  A    between atoms: C12_15  and  N3_16 
REMARK    6  A    between atoms: N3_16  and  C13_17 
REMARK    7  A    between atoms: C13_17  and  C14_18 
REMARK    8  A    between atoms: C14_18  and  S1_19 
ROOT
HETATM    1  C8  UNL     1      -0.339   0.782  -0.929  1.00  0.00     0.075 A 
HETATM    2  C9  UNL     1       0.102   1.031   0.352  1.00  0.00     0.040 A 
HETATM    3  C10 UNL     1       1.446   1.365   0.149  1.00  0.00     0.037 A 
HETATM    4  C11 UNL     1       1.731   1.297  -1.218  1.00  0.00     0.081 A 
HETATM    5  O3  UNL     1       0.611   0.941  -1.801  1.00  0.00    -0.313 OA
ENDROOT
BRANCH   1   6
HETATM    6  C7  UNL     1      -1.682   0.389  -1.302  1.00  0.00     0.037 C 
HETATM    7  C6  UNL     1      -2.557   0.257  -0.343  1.00  0.00     0.005 C 
BRANCH   7   8
HETATM    8  C5  UNL     1      -3.970  -0.121  -0.394  1.00  0.00     0.031 C 
BRANCH   8   9
HETATM    9  C4  UNL     1      -4.891  -0.264   0.577  1.00  0.00     0.056 A 
HETATM   10  C2  UNL     1      -6.212  -0.653   0.187  1.00  0.00     0.050 A 
HETATM   11  C1  UNL     1      -6.524  -0.885  -1.264  1.00  0.00     0.072 C 
HETATM   12  N1  UNL     1      -7.094  -0.795   1.069  1.00  0.00    -0.300 NA
HETATM   13  C3  UNL     1      -7.088  -0.648   2.468  1.00  0.00     0.119 A 
HETATM   14  B1  UNL     1      -5.602  -0.179   3.213  1.00  0.00     0.328 B 
HETATM   15  N2  UNL     1      -4.262   0.027   1.787  1.00  0.00    -0.360 NA
ENDBRANCH   8   9
ENDBRANCH   7   8
ENDBRANCH   1   6
BRANCH   4  16
HETATM   16  C12 UNL     1       3.020   1.564  -1.905  1.00  0.00     0.334 C 
BRANCH  16  17
HETATM   17  N3  UNL     1       3.832   0.383  -2.030  1.00  0.00     0.090 N 
HETATM   18  H13 UNL     1       4.594   0.535  -2.723  1.00  0.00     0.316 HD
BRANCH  17  19
HETATM   19  C13 UNL     1       4.211  -0.247  -0.817  1.00  0.00     0.284 C 
BRANCH  19  20
HETATM   20  C14 UNL     1       5.174   0.547   0.026  1.00  0.00     0.169 C 
BRANCH  20  21
HETATM   21  S1  UNL     1       5.548  -0.374   1.501  1.00  0.00     0.142 S 
HETATM   22  C15 UNL     1       6.279  -1.934   1.155  1.00  0.00     0.161 C 
HETATM   23  O1  UNL     1       6.534   0.463   2.299  1.00  0.00    -0.228 OA
HETATM   24  O2  UNL     1       4.322  -0.601   2.349  1.00  0.00    -0.228 OA
ENDBRANCH  20  21
ENDBRANCH  19  20
ENDBRANCH  17  19
ENDBRANCH  16  17
ENDBRANCH   4  16
TORSDOF 8
