REMARK  11 active torsions:
REMARK  status: ('A' for Active; 'I' for Inactive)
REMARK    1  A    between atoms: O1_2  and  C2_3 
REMARK    2  A    between atoms: C2_3  and  C3_4 
REMARK    3  A    between atoms: C3_4  and  O2_5 
REMARK    4  A    between atoms: O2_5  and  C4_6 
REMARK    5  A    between atoms: C8_12  and  C9_13 
REMARK    6  A    between atoms: C13_17  and  C14_18 
REMARK    7  A    between atoms: C14_18  and  N3_19 
REMARK    8  A    between atoms: C17_22  and  O3_23 
REMARK    9  A    between atoms: O3_23  and  C18_24 
REMARK   10  A    between atoms: C18_24  and  C19_25 
REMARK   11  A    between atoms: C19_25  and  O4_26 
ROOT
HETATM    1  C4  UNL     1      -1.545  -0.885   0.841  1.00  0.00     0.104 A 
HETATM    2  C5  UNL     1      -0.737  -1.664   1.676  1.00  0.00     0.072 A 
HETATM    3  C6  UNL     1       0.621  -1.384   1.868  1.00  0.00     0.073 A 
HETATM    4  N1  UNL     1       1.423  -2.092   2.647  1.00  0.00    -0.241 NA
HETATM    5  C7  UNL     1       2.728  -1.699   2.736  1.00  0.00     0.234 A 
HETATM    6  N2  UNL     1       3.217  -0.618   2.058  1.00  0.00    -0.245 NA
HETATM    7  C8  UNL     1       2.394   0.118   1.251  1.00  0.00     0.060 A 
HETATM    8  C15 UNL     1       1.081  -0.287   1.169  1.00  0.00     0.021 A 
HETATM    9  C16 UNL     1       0.324   0.495   0.347  1.00  0.00     0.055 A 
HETATM   10  C17 UNL     1      -1.010   0.216   0.161  1.00  0.00     0.103 A 
ENDROOT
BRANCH   7  11
HETATM   11  C9  UNL     1       3.117   1.222   0.628  1.00  0.00     0.092 A 
HETATM   12  C10 UNL     1       3.996   1.953   1.581  1.00  0.00    -0.011 A 
HETATM   13  C11 UNL     1       5.258   1.766   1.223  1.00  0.00    -0.003 A 
HETATM   14  C12 UNL     1       5.358   0.928   0.045  1.00  0.00     0.005 A 
HETATM   15  C13 UNL     1       4.122   0.605  -0.311  1.00  0.00    -0.039 A 
BRANCH  15  16
HETATM   16  C14 UNL     1       3.693  -0.243  -1.461  1.00  0.00     0.302 C 
BRANCH  16  17
HETATM   17  N3  UNL     1       4.865  -0.700  -2.190  1.00  0.00     0.082 N 
HETATM   18  H16 UNL     1       5.650  -0.963  -1.557  1.00  0.00     0.313 HD
HETATM   19  H17 UNL     1       4.625  -1.434  -2.868  1.00  0.00     0.313 HD
ENDBRANCH  16  17
ENDBRANCH  15  16
ENDBRANCH   7  11
BRANCH  10  20
HETATM   20  O3  UNL     1      -1.871   0.908  -0.623  1.00  0.00    -0.346 OA
BRANCH  20  21
HETATM   21  C18 UNL     1      -1.567   2.047  -1.401  1.00  0.00     0.201 C 
BRANCH  21  22
HETATM   22  C19 UNL     1      -2.857   2.438  -2.083  1.00  0.00     0.193 C 
BRANCH  22  23
HETATM   23  O4  UNL     1      -2.789   3.527  -2.899  1.00  0.00    -0.394 OA
HETATM   24  C20 UNL     1      -2.404   4.694  -2.263  1.00  0.00     0.201 C 
ENDBRANCH  22  23
ENDBRANCH  21  22
ENDBRANCH  20  21
ENDBRANCH  10  20
BRANCH   1  25
HETATM   25  O2  UNL     1      -2.902  -1.221   0.693  1.00  0.00    -0.346 OA
BRANCH  25  26
HETATM   26  C3  UNL     1      -3.340  -2.352   1.424  1.00  0.00     0.201 C 
BRANCH  26  27
HETATM   27  C2  UNL     1      -4.792  -2.574   1.160  1.00  0.00     0.193 C 
BRANCH  27  28
HETATM   28  O1  UNL     1      -5.031  -2.794  -0.175  1.00  0.00    -0.394 OA
HETATM   29  C1  UNL     1      -4.387  -3.891  -0.706  1.00  0.00     0.201 C 
ENDBRANCH  27  28
ENDBRANCH  26  27
ENDBRANCH  25  26
ENDBRANCH   1  25
TORSDOF 11
