REMARK  5 active torsions:
REMARK  status: ('A' for Active; 'I' for Inactive)
REMARK    1  A    between atoms: O1_2  and  C2_3 
REMARK    2  A    between atoms: C2_3  and  C3_4 
REMARK    3  A    between atoms: C3_4  and  O2_5 
REMARK    4  A    between atoms: C12_18  and  N3_19 
REMARK    5  A    between atoms: N3_19  and  C13_20 
ROOT
HETATM    1  O2  UNL     1      -1.797  -0.533   0.308  1.00  0.00     0.000 OA
HETATM    2  C4  UNL     1      -1.186   0.672   0.670  1.00  0.00     0.036 A 
HETATM    3  C5  UNL     1      -2.256   0.397   1.311  1.00  0.00     0.166 A 
HETATM    4  O3  UNL     1      -2.652   1.358   2.282  1.00  0.00    -0.380 OA
HETATM    5  C6  UNL     1      -3.475   2.430   1.879  1.00  0.00     0.194 C 
HETATM    6  C7  UNL     1      -3.029   3.790   2.330  1.00  0.00     0.194 C 
HETATM    7  O4  UNL     1      -1.783   4.129   1.882  1.00  0.00    -0.385 OA
HETATM    8  C8  UNL     1      -0.707   3.450   2.349  1.00  0.00     0.197 C 
HETATM    9  C9  UNL     1       0.543   3.753   1.578  1.00  0.00     0.032 C 
HETATM   10  C10 UNL     1       1.079   3.004   0.599  1.00  0.00     0.070 A 
HETATM   11  N1  UNL     1       2.172   3.693   0.240  1.00  0.00    -0.241 NA
HETATM   12  C11 UNL     1       3.070   3.389  -0.692  1.00  0.00     0.235 A 
HETATM   13  N2  UNL     1       2.869   2.255  -1.363  1.00  0.00    -0.224 NA
HETATM   14  C12 UNL     1       1.777   1.546  -1.018  1.00  0.00     0.141 A 
HETATM   15  C20 UNL     1       0.811   1.848  -0.035  1.00  0.00     0.036 A 
HETATM   16  C21 UNL     1      -0.018   0.808  -0.146  1.00  0.00     0.006 C 
ENDROOT
BRANCH  14  17
HETATM   17  N3  UNL     1       1.865   0.402  -1.914  1.00  0.00    -0.340 N 
HETATM   18  H17 UNL     1       1.458   0.259  -2.862  1.00  0.00     0.167 HD
BRANCH  17  19
HETATM   19  C13 UNL     1       2.649  -0.667  -1.346  1.00  0.00     0.034 A 
HETATM   20  C14 UNL     1       3.293  -0.545  -0.136  1.00  0.00     0.029 A 
HETATM   21  C15 UNL     1       4.044  -1.597   0.392  1.00  0.00     0.003 A 
HETATM   22  C16 UNL     1       4.167  -2.793  -0.275  1.00  0.00     0.007 A 
HETATM   23  C17 UNL     1       3.521  -2.915  -1.487  1.00  0.00    -0.060 A 
HETATM   24  C18 UNL     1       3.582  -4.172  -2.293  1.00  0.00     0.048 C 
HETATM   25  C19 UNL     1       2.778  -1.874  -2.011  1.00  0.00     0.036 A 
ENDBRANCH  17  19
ENDBRANCH  14  17
BRANCH   1  26
HETATM   26  C3  UNL     1      -2.088  -1.000  -0.964  1.00  0.00     0.028 C 
BRANCH  26  27
HETATM   27  C2  UNL     1      -3.077  -2.156  -0.950  1.00  0.00     0.167 C 
BRANCH  27  28
HETATM   28  O1  UNL     1      -2.611  -3.255  -0.231  1.00  0.00    -0.396 OA
HETATM   29  C1  UNL     1      -3.624  -4.240  -0.294  1.00  0.00     0.201 C 
ENDBRANCH  27  28
ENDBRANCH  26  27
ENDBRANCH   1  26
TORSDOF 5
