REMARK  0 active torsions:
REMARK  status: ('A' for Active; 'I' for Inactive)
ROOT
HETATM    1 CL1  UNL     1       4.930  -1.063  -2.123  1.00  0.00    -0.081 Cl
HETATM    2  C1  UNL     1       4.478  -0.057  -0.764  1.00  0.00     0.069 A 
HETATM    3  C2  UNL     1       4.785   1.281  -0.813  1.00  0.00     0.056 A 
HETATM    4  C3  UNL     1       4.504   2.211   0.164  1.00  0.00     0.034 A 
HETATM    5  C4  UNL     1       3.857   1.677   1.258  1.00  0.00     0.032 A 
HETATM    6  C5  UNL     1       3.526   0.343   1.358  1.00  0.00     0.041 A 
HETATM    7  C6  UNL     1       3.832  -0.567   0.337  1.00  0.00     0.090 A 
HETATM    8  O1  UNL     1       3.390  -1.826   0.692  1.00  0.00    -0.346 OA
HETATM    9  C7  UNL     1       3.046  -2.750  -0.313  1.00  0.00     0.203 C 
HETATM   10  C8  UNL     1       2.542  -4.056   0.277  1.00  0.00    -0.004 C 
HETATM   11  C9  UNL     1       1.306  -4.489  -0.003  1.00  0.00    -0.018 C 
HETATM   12  C10 UNL     1       0.254  -5.544   0.187  1.00  0.00     0.100 C 
HETATM   13  S1  UNL     1      -1.187  -4.776   0.931  1.00  0.00    -0.164 SA
HETATM   14  C11 UNL     1      -1.887  -3.557  -0.209  1.00  0.00     0.104 C 
HETATM   15  C12 UNL     1      -3.151  -2.912   0.358  1.00  0.00     0.279 C 
HETATM   16  N1  UNL     1      -3.614  -1.933  -0.591  1.00  0.00     0.086 N 
HETATM   17  C13 UNL     1      -4.835  -1.301  -0.209  1.00  0.00     0.295 C 
HETATM   18  C14 UNL     1      -4.628  -0.440   0.999  1.00  0.00     0.198 C 
HETATM   19  O2  UNL     1      -3.682   0.521   0.760  1.00  0.00    -0.386 OA
HETATM   20  C15 UNL     1      -3.946   1.385  -0.265  1.00  0.00     0.195 C 
HETATM   21  C16 UNL     1      -2.809   2.386  -0.312  1.00  0.00    -0.001 C 
HETATM   22  C17 UNL     1      -3.012   3.673  -0.160  1.00  0.00    -0.001 C 
HETATM   23  C18 UNL     1      -1.950   4.635  -0.200  1.00  0.00     0.019 C 
HETATM   24  C19 UNL     1      -0.715   4.208  -0.397  1.00  0.00     0.118 C 
HETATM   25  N2  UNL     1       0.692   4.221  -0.573  1.00  0.00    -0.254 NA
HETATM   26  C20 UNL     1       1.445   5.153  -0.081  1.00  0.00     0.233 C 
HETATM   27  N3  UNL     1       2.527   4.423  -0.684  1.00  0.00    -0.237 NA
HETATM   28  C21 UNL     1       3.554   4.206   0.092  1.00  0.00     0.208 C 
HETATM   29  N4  UNL     1       4.846   3.568   0.031  1.00  0.00    -0.351 N 
HETATM   30  H14 UNL     1      -3.559  -2.247  -1.569  1.00  0.00     0.315 HD
HETATM   31  H27 UNL     1       5.742   4.116  -0.088  1.00  0.00     0.166 HD
ENDROOT
TORSDOF 0
