REMARK  6 active torsions:
REMARK  status: ('A' for Active; 'I' for Inactive)
REMARK    1  A    between atoms: C3_4  and  C4_5 
REMARK    2  A    between atoms: C14_15  and  C15_16 
REMARK    3  A    between atoms: C15_16  and  C16_17 
REMARK    4  A    between atoms: C17_19  and  C18_20 
REMARK    5  A    between atoms: C20_22  and  O1_23 
REMARK    6  A    between atoms: C24_29  and  N5_30 
ROOT
HETATM    1  C16 UNL     1      -2.133   0.836  -0.164  1.00  0.00     0.071 A 
HETATM    2  N2  UNL     1      -3.219   0.323  -0.799  1.00  0.00    -0.236 NA
HETATM    3  C17 UNL     1      -4.203   0.145   0.100  1.00  0.00     0.115 A 
HETATM    4  N3  UNL     1      -3.746   0.543   1.309  1.00  0.00    -0.303 N 
HETATM    5  C22 UNL     1      -4.289   0.587   2.537  1.00  0.00     0.118 A 
HETATM    6  C23 UNL     1      -3.668   1.030   3.676  1.00  0.00     0.136 A 
HETATM    7  N4  UNL     1      -2.394   1.455   3.508  1.00  0.00    -0.240 NA
HETATM    8  C24 UNL     1      -1.791   1.435   2.296  1.00  0.00     0.150 A 
HETATM    9  C25 UNL     1      -2.481   0.970   1.170  1.00  0.00     0.111 A 
ENDROOT
BRANCH   1  10
HETATM   10  C15 UNL     1      -0.787   1.201  -0.745  1.00  0.00     0.090 C 
BRANCH  10  11
HETATM   11  C14 UNL     1       0.245   0.215  -0.457  1.00  0.00    -0.007 C 
HETATM   12  C13 UNL     1       1.543   0.061  -0.416  1.00  0.00    -0.009 A 
HETATM   13  C2  UNL     1       2.119  -1.165  -0.054  1.00  0.00     0.046 A 
HETATM   14  C11 UNL     1       2.404   1.117  -0.733  1.00  0.00    -0.048 A 
HETATM   15  C1  UNL     1       1.361  -2.187   0.251  1.00  0.00     0.066 C 
HETATM   16  N1  UNL     1       3.450  -1.289  -0.021  1.00  0.00    -0.252 NA
HETATM   17  C3  UNL     1       4.298  -0.302  -0.317  1.00  0.00     0.068 A 
HETATM   18  C10 UNL     1       3.771   0.912  -0.676  1.00  0.00     0.040 A 
HETATM   19  C12 UNL     1       1.940   2.458  -1.143  1.00  0.00     0.049 C 
BRANCH  17  20
HETATM   20  C4  UNL     1       5.721  -0.597  -0.235  1.00  0.00    -0.007 A 
HETATM   21  C5  UNL     1       6.127  -1.861   0.138  1.00  0.00     0.014 A 
HETATM   22  C6  UNL     1       7.447  -2.220   0.239  1.00  0.00     0.001 A 
HETATM   23  C7  UNL     1       8.430  -1.311  -0.033  1.00  0.00     0.000 A 
HETATM   24  C8  UNL     1       8.023  -0.041  -0.408  1.00  0.00     0.001 A 
HETATM   25  C9  UNL     1       6.683   0.350  -0.519  1.00  0.00     0.014 A 
ENDBRANCH  17  20
ENDBRANCH  10  11
ENDBRANCH   1  10
BRANCH   3  26
HETATM   26  C18 UNL     1      -5.545  -0.401  -0.190  1.00  0.00     0.060 C 
HETATM   27  C19 UNL     1      -5.501  -1.791  -0.845  1.00  0.00     0.044 C 
HETATM   28  C20 UNL     1      -6.733  -1.355  -1.612  1.00  0.00     0.119 C 
HETATM   29  C21 UNL     1      -6.208   0.077  -1.439  1.00  0.00     0.044 C 
BRANCH  28  30
HETATM   30  O1  UNL     1      -6.769  -1.772  -2.938  1.00  0.00    -0.396 OA
HETATM   31  H19 UNL     1      -7.480  -2.487  -2.977  1.00  0.00     0.210 HD
ENDBRANCH  28  30
ENDBRANCH   3  26
BRANCH   8  32
HETATM   32  N5  UNL     1      -0.442   1.891   2.156  1.00  0.00    -0.382 N 
HETATM   33  H24 UNL     1       0.146   1.031   2.342  1.00  0.00     0.157 HD
HETATM   34  H25 UNL     1      -0.088   2.843   1.925  1.00  0.00     0.157 HD
ENDBRANCH   8  32
TORSDOF 6
