REMARK  0 active torsions:
REMARK  status: ('A' for Active; 'I' for Inactive)
ROOT
HETATM    1  C1  UNL     1       4.697   2.748   0.005  1.00  0.00     0.039 C 
HETATM    2  C2  UNL     1       3.787   1.644  -0.435  1.00  0.00     0.119 C 
HETATM    3  C3  UNL     1       4.278   0.304   0.130  1.00  0.00     0.039 C 
HETATM    4  C4  UNL     1       3.311  -0.743  -0.313  1.00  0.00     0.083 C 
HETATM    5  C5  UNL     1       3.636  -2.086   0.168  1.00  0.00     0.131 A 
HETATM    6  N1  UNL     1       4.432  -3.034  -0.326  1.00  0.00    -0.135 NA
HETATM    7  N2  UNL     1       4.392  -4.080   0.468  1.00  0.00    -0.143 NA
HETATM    8  C6  UNL     1       3.564  -3.825   1.497  1.00  0.00     0.237 A 
HETATM    9  N3  UNL     1       3.084  -2.561   1.308  1.00  0.00    -0.308 N 
HETATM   10  C7  UNL     1       2.167  -1.844   2.151  1.00  0.00     0.282 C 
HETATM   11  N4  UNL     1       0.844  -1.822   1.634  1.00  0.00    -0.265 NA
HETATM   12  C8  UNL     1       0.170  -2.799   1.152  1.00  0.00     0.198 C 
HETATM   13  N5  UNL     1      -1.132  -2.345   0.739  1.00  0.00    -0.381 N 
HETATM   14  C9  UNL     1      -1.046  -1.404  -0.356  1.00  0.00     0.155 C 
HETATM   15  C10 UNL     1      -2.363  -0.903  -0.823  1.00  0.00    -0.054 C 
HETATM   16  C11 UNL     1      -3.268  -1.883  -0.722  1.00  0.00    -0.018 C 
HETATM   17  C12 UNL     1      -4.673  -1.694  -1.111  1.00  0.00     0.054 C 
HETATM   18  C13 UNL     1      -4.828  -0.681  -2.188  1.00  0.00    -0.026 C 
HETATM   19  C14 UNL     1      -3.928   0.276  -2.270  1.00  0.00    -0.017 C 
HETATM   20  C15 UNL     1      -2.741   0.418  -1.341  1.00  0.00     0.072 C 
HETATM   21  C16 UNL     1      -3.000   1.460  -0.330  1.00  0.00    -0.028 A 
HETATM   22  C17 UNL     1      -4.292   1.600   0.130  1.00  0.00     0.009 A 
HETATM   23  C18 UNL     1      -4.509   2.583   1.063  1.00  0.00     0.001 A 
HETATM   24  C19 UNL     1      -3.604   3.462   1.613  1.00  0.00     0.002 A 
HETATM   25  C20 UNL     1      -2.318   3.305   1.139  1.00  0.00     0.021 A 
HETATM   26  C21 UNL     1      -2.076   2.329   0.206  1.00  0.00     0.025 A 
HETATM   27  C22 UNL     1      -0.766   2.223  -0.235  1.00  0.00    -0.064 C 
HETATM   28  C23 UNL     1       0.315   2.117  -0.590  1.00  0.00    -0.075 C 
HETATM   29  C24 UNL     1       1.648   1.964  -1.016  1.00  0.00     0.262 C 
HETATM   30  O1  UNL     1       2.529   1.843   0.087  1.00  0.00    -0.374 OA
HETATM   31  H13 UNL     1      -1.907  -2.768   1.292  1.00  0.00     0.160 HD
ENDROOT
TORSDOF 0
