REMARK  6 active torsions:
REMARK  status: ('A' for Active; 'I' for Inactive)
REMARK    1  A    between atoms: C2_2  and  O1_3 
REMARK    2  A    between atoms: C4_5  and  C5_6 
REMARK    3  A    between atoms: C6_8  and  C7_9 
REMARK    4  A    between atoms: C7_9  and  C8_10 
REMARK    5  A    between atoms: C13_15  and  C14_16 
REMARK    6  A    between atoms: C18_22  and  N2_23 
ROOT
HETATM    1  C5  UNL     1       2.265   0.219  -0.677  1.00  0.00     0.115 A 
HETATM    2  N1  UNL     1       1.175   0.035  -1.482  1.00  0.00    -0.236 NA
HETATM    3  C6  UNL     1       0.283  -0.781  -0.898  1.00  0.00     0.071 A 
HETATM    4  C17 UNL     1       0.860  -1.093   0.292  1.00  0.00     0.111 A 
HETATM    5  C18 UNL     1       0.434  -1.892   1.329  1.00  0.00     0.150 A 
HETATM    6  N3  UNL     1       1.138  -2.105   2.463  1.00  0.00    -0.240 NA
HETATM    7  C19 UNL     1       2.349  -1.503   2.618  1.00  0.00     0.136 A 
HETATM    8  C20 UNL     1       2.755  -0.713   1.578  1.00  0.00     0.118 A 
HETATM    9  N4  UNL     1       2.057  -0.503   0.453  1.00  0.00    -0.303 N 
ENDROOT
BRANCH   3  10
HETATM   10  C7  UNL     1      -1.003  -1.173  -1.492  1.00  0.00     0.089 C 
BRANCH  10  11
HETATM   11  C8  UNL     1      -2.078  -0.370  -0.861  1.00  0.00    -0.012 C 
HETATM   12  C9  UNL     1      -3.202  -0.614  -0.139  1.00  0.00    -0.039 C 
HETATM   13  C10 UNL     1      -4.209  -1.429   0.544  1.00  0.00    -0.046 C 
HETATM   14  C13 UNL     1      -4.036   0.547   0.306  1.00  0.00     0.039 C 
HETATM   15  C11 UNL     1      -4.121  -1.181   1.854  1.00  0.00    -0.017 C 
HETATM   16  C16 UNL     1      -5.194  -2.328  -0.230  1.00  0.00     0.103 C 
HETATM   17  C12 UNL     1      -3.984   0.334   1.802  1.00  0.00     0.049 C 
HETATM   18  S1  UNL     1      -6.153  -0.898  -0.950  1.00  0.00    -0.205 SA
HETATM   19  C15 UNL     1      -5.411   0.422  -0.255  1.00  0.00     0.022 C 
HETATM   20  H17 UNL     1      -5.822  -0.852  -2.301  1.00  0.00     0.095 HD
BRANCH  14  21
HETATM   21  C14 UNL     1      -3.424   1.883  -0.075  1.00  0.00     0.241 C 
HETATM   22  F1  UNL     1      -4.288   2.863   0.392  1.00  0.00    -0.254 F 
ENDBRANCH  14  21
ENDBRANCH  10  11
ENDBRANCH   3  10
BRANCH   1  23
HETATM   23  C4  UNL     1       3.436   1.046  -0.989  1.00  0.00     0.061 C 
HETATM   24  C3  UNL     1       3.843   2.093  -0.029  1.00  0.00     0.049 C 
HETATM   25  C2  UNL     1       5.276   1.664  -0.229  1.00  0.00     0.056 C 
HETATM   26  C1  UNL     1       5.989   2.555  -1.230  1.00  0.00     0.045 C 
HETATM   27  C21 UNL     1       4.775   0.423  -0.926  1.00  0.00     0.049 C 
BRANCH  25  28
HETATM   28  O1  UNL     1       5.991   1.439   0.938  1.00  0.00    -0.390 OA
HETATM   29  H4  UNL     1       6.844   1.032   0.718  1.00  0.00     0.210 HD
ENDBRANCH  25  28
ENDBRANCH   1  23
BRANCH   5  30
HETATM   30  N2  UNL     1      -0.809  -2.568   1.254  1.00  0.00    -0.382 N 
HETATM   31  H20 UNL     1      -1.752  -2.790   1.584  1.00  0.00     0.157 HD
HETATM   32  H21 UNL     1      -1.444  -3.241   0.785  1.00  0.00     0.157 HD
ENDBRANCH   5  30
TORSDOF 6
