REMARK  4 active torsions:
REMARK  status: ('A' for Active; 'I' for Inactive)
REMARK    1  A    between atoms: C5_5  and  C6_6 
REMARK    2  A    between atoms: C7_8  and  C8_9 
REMARK    3  A    between atoms: C10_11  and  O1_13 
REMARK    4  A    between atoms: C18_23  and  C19_24 
ROOT
HETATM    1  C6  UNL     1       0.981   0.348   0.965  1.00  0.00     0.084 A 
HETATM    2  N1  UNL     1       2.050   1.126   0.713  1.00  0.00    -0.233 NA
HETATM    3  C7  UNL     1       3.153   0.390   0.498  1.00  0.00     0.113 A 
HETATM    4  N2  UNL     1       2.826  -0.897   0.605  1.00  0.00    -0.314 N 
HETATM    5  C13 UNL     1       1.509  -0.923   0.888  1.00  0.00     0.065 A 
HETATM    6  C14 UNL     1       0.979  -2.313   1.061  1.00  0.00     0.232 C 
HETATM    7  N3  UNL     1       1.924  -3.119   1.758  1.00  0.00    -0.190 NA
HETATM    8  N4  UNL     1       3.113  -3.033   1.493  1.00  0.00    -0.177 NA
HETATM    9  C15 UNL     1       3.565  -2.116   0.476  1.00  0.00     0.304 C 
ENDROOT
BRANCH   1  10
HETATM   10  C5  UNL     1      -0.378   0.738   1.266  1.00  0.00     0.041 C 
HETATM   11  C4  UNL     1      -1.533   0.315   0.810  1.00  0.00    -0.050 C 
HETATM   12  C3  UNL     1      -1.571  -0.758  -0.207  1.00  0.00     0.097 C 
HETATM   13  C16 UNL     1      -2.670   0.994   1.408  1.00  0.00     0.010 C 
HETATM   14  C2  UNL     1      -2.695  -0.609  -1.181  1.00  0.00     0.030 C 
HETATM   15  C1  UNL     1      -2.355  -0.839  -2.438  1.00  0.00     0.040 C 
HETATM   16  N5  UNL     1      -4.044  -0.264  -0.956  1.00  0.00    -0.253 NA
HETATM   17  C18 UNL     1      -4.603   0.433  -0.017  1.00  0.00     0.067 C 
HETATM   18  C17 UNL     1      -3.952   1.076   1.109  1.00  0.00     0.033 C 
BRANCH  17  19
HETATM   19  C19 UNL     1      -6.043   0.541  -0.178  1.00  0.00    -0.007 A 
HETATM   20  C20 UNL     1      -6.652  -0.065  -1.251  1.00  0.00     0.014 A 
HETATM   21  C21 UNL     1      -8.003  -0.026  -1.496  1.00  0.00     0.001 A 
HETATM   22  C22 UNL     1      -8.819   0.654  -0.633  1.00  0.00     0.000 A 
HETATM   23  C23 UNL     1      -8.248   1.277   0.457  1.00  0.00     0.001 A 
HETATM   24  C24 UNL     1      -6.893   1.202   0.648  1.00  0.00     0.014 A 
ENDBRANCH  17  19
ENDBRANCH   1  10
BRANCH   3  25
HETATM   25  C8  UNL     1       4.454   1.011   0.199  1.00  0.00     0.061 C 
HETATM   26  C9  UNL     1       5.329   0.424  -0.820  1.00  0.00     0.049 C 
HETATM   27  C10 UNL     1       6.498   0.444   0.142  1.00  0.00     0.056 C 
HETATM   28  C11 UNL     1       7.516   1.533  -0.134  1.00  0.00     0.045 C 
HETATM   29  C12 UNL     1       5.534   0.762   1.251  1.00  0.00     0.049 C 
BRANCH  27  30
HETATM   30  O1  UNL     1       7.130  -0.761   0.374  1.00  0.00    -0.390 OA
HETATM   31  H12 UNL     1       7.777  -1.042  -0.303  1.00  0.00     0.210 HD
ENDBRANCH  27  30
ENDBRANCH   3  25
TORSDOF 4
