REMARK  6 active torsions:
REMARK  status: ('A' for Active; 'I' for Inactive)
REMARK    1  A    between atoms: C2_2  and  C15_16 
REMARK    2  A    between atoms: C3_3  and  C4_4 
REMARK    3  A    between atoms: C8_8  and  C9_9 
REMARK    4  A    between atoms: C16_18  and  C17_19 
REMARK    5  A    between atoms: C19_21  and  O1_23 
REMARK    6  A    between atoms: C24_29  and  N5_30 
ROOT
HETATM    1  C15 UNL     1      -1.336  -1.832  -0.061  1.00  0.00     0.096 A 
HETATM    2  N2  UNL     1      -1.437  -0.486  -0.122  1.00  0.00    -0.232 NA
HETATM    3  C16 UNL     1      -2.763  -0.144  -0.212  1.00  0.00     0.116 A 
HETATM    4  N3  UNL     1      -3.514  -1.246  -0.209  1.00  0.00    -0.303 N 
HETATM    5  C22 UNL     1      -4.827  -1.519  -0.265  1.00  0.00     0.118 A 
HETATM    6  C23 UNL     1      -5.271  -2.843  -0.227  1.00  0.00     0.136 A 
HETATM    7  N4  UNL     1      -4.345  -3.830  -0.132  1.00  0.00    -0.240 NA
HETATM    8  C24 UNL     1      -3.046  -3.525  -0.078  1.00  0.00     0.150 A 
HETATM    9  C25 UNL     1      -2.640  -2.241  -0.117  1.00  0.00     0.115 A 
ENDROOT
BRANCH   1  10
HETATM   10  C2  UNL     1      -0.010  -2.403   0.046  1.00  0.00    -0.031 C 
HETATM   11  C1  UNL     1       0.551  -3.764   0.029  1.00  0.00     0.050 C 
HETATM   12  C3  UNL     1       0.935  -1.458   0.178  1.00  0.00     0.011 C 
BRANCH  12  13
HETATM   13  C4  UNL     1       2.342  -1.663   0.296  1.00  0.00     0.032 C 
HETATM   14  C5  UNL     1       3.161  -0.637   0.421  1.00  0.00     0.057 A 
HETATM   15  C6  UNL     1       2.658   0.754   0.442  1.00  0.00     0.034 A 
HETATM   16  N1  UNL     1       4.541  -0.427   0.558  1.00  0.00    -0.248 NA
HETATM   17  C7  UNL     1       3.666   1.625   0.578  1.00  0.00     0.035 A 
HETATM   18  C8  UNL     1       4.856   0.816   0.648  1.00  0.00     0.067 A 
BRANCH  18  19
HETATM   19  C9  UNL     1       6.245   1.262   0.798  1.00  0.00    -0.007 A 
HETATM   20  C10 UNL     1       6.497   2.615   0.888  1.00  0.00     0.014 A 
HETATM   21  C11 UNL     1       7.766   3.127   1.030  1.00  0.00     0.001 A 
HETATM   22  C12 UNL     1       8.843   2.246   1.087  1.00  0.00     0.000 A 
HETATM   23  C13 UNL     1       8.572   0.905   0.996  1.00  0.00     0.001 A 
HETATM   24  C14 UNL     1       7.308   0.389   0.854  1.00  0.00     0.014 A 
ENDBRANCH  18  19
ENDBRANCH  12  13
ENDBRANCH   1  10
BRANCH   3  25
HETATM   25  C17 UNL     1      -3.228   1.245  -0.296  1.00  0.00     0.061 C 
HETATM   26  C18 UNL     1      -4.220   1.716   0.697  1.00  0.00     0.049 C 
HETATM   27  C19 UNL     1      -4.874   2.502  -0.424  1.00  0.00     0.056 C 
HETATM   28  C20 UNL     1      -6.361   2.440  -0.503  1.00  0.00     0.045 C 
HETATM   29  C21 UNL     1      -4.120   1.648  -1.410  1.00  0.00     0.049 C 
BRANCH  27  30
HETATM   30  O1  UNL     1      -4.470   3.856  -0.460  1.00  0.00    -0.390 OA
HETATM   31  H19 UNL     1      -5.030   4.369   0.154  1.00  0.00     0.210 HD
ENDBRANCH  27  30
ENDBRANCH   3  25
BRANCH   8  32
HETATM   32  N5  UNL     1      -2.201  -4.644   0.037  1.00  0.00    -0.382 N 
HETATM   33  H24 UNL     1      -2.097  -4.964  -0.969  1.00  0.00     0.157 HD
HETATM   34  H25 UNL     1      -2.068  -4.636   1.092  1.00  0.00     0.157 HD
ENDBRANCH   8  32
TORSDOF 6
