REMARK  4 active torsions:
REMARK  status: ('A' for Active; 'I' for Inactive)
REMARK    1  A    between atoms: C2_2  and  O1_3 
REMARK    2  A    between atoms: C4_5  and  C5_6 
REMARK    3  A    between atoms: C6_8  and  S1_9 
REMARK    4  A    between atoms: C22_25  and  N2_26 
ROOT
HETATM    1  C5  UNL     1       2.923   0.351  -0.402  1.00  0.00     0.116 A 
HETATM    2  N1  UNL     1       1.685   0.303   0.161  1.00  0.00    -0.226 NA
HETATM    3  C6  UNL     1       0.815  -0.284  -0.680  1.00  0.00     0.120 A 
HETATM    4  C21 UNL     1       1.544  -0.618  -1.822  1.00  0.00     0.121 A 
HETATM    5  C22 UNL     1       1.325  -1.213  -3.048  1.00  0.00     0.151 A 
HETATM    6  N3  UNL     1       2.338  -1.358  -3.935  1.00  0.00    -0.240 NA
HETATM    7  C23 UNL     1       3.593  -0.941  -3.686  1.00  0.00     0.136 A 
HETATM    8  C24 UNL     1       3.823  -0.342  -2.459  1.00  0.00     0.118 A 
HETATM    9  N4  UNL     1       2.803  -0.212  -1.600  1.00  0.00    -0.303 N 
ENDROOT
BRANCH   3  10
HETATM   10  S1  UNL     1      -0.910  -0.675  -0.615  1.00  0.00    -0.141 SA
HETATM   11  C7  UNL     1      -1.970   0.567  -0.959  1.00  0.00     0.053 C 
HETATM   12  C8  UNL     1      -3.446   0.680  -0.655  1.00  0.00    -0.023 C 
HETATM   13  C9  UNL     1      -4.010  -0.498  -0.478  1.00  0.00    -0.032 A 
HETATM   14  C18 UNL     1      -3.849   2.053  -0.622  1.00  0.00     0.008 C 
HETATM   15  C10 UNL     1      -4.918  -1.458  -1.150  1.00  0.00     0.007 A 
HETATM   16  C12 UNL     1      -3.871  -1.417   0.639  1.00  0.00     0.024 A 
HETATM   17  C11 UNL     1      -4.793  -2.319  -0.121  1.00  0.00    -0.008 A 
HETATM   18  C13 UNL     1      -4.594  -0.781   1.814  1.00  0.00    -0.012 C 
HETATM   19  C19 UNL     1      -2.570  -1.925   1.053  1.00  0.00     0.033 C 
HETATM   20  C14 UNL     1      -5.125   0.308   2.419  1.00  0.00    -0.023 C 
HETATM   21  C15 UNL     1      -4.850   1.384   1.435  1.00  0.00     0.051 C 
HETATM   22  C16 UNL     1      -5.129   2.705   1.383  1.00  0.00     0.003 C 
HETATM   23  C17 UNL     1      -4.497   3.000   0.084  1.00  0.00    -0.025 C 
HETATM   24  C20 UNL     1      -1.544  -2.289   0.041  1.00  0.00     0.076 C 
ENDBRANCH   3  10
BRANCH   1  25
HETATM   25  C4  UNL     1       3.906   0.984   0.465  1.00  0.00     0.061 C 
HETATM   26  C3  UNL     1       4.136   0.098   1.729  1.00  0.00     0.049 C 
HETATM   27  C2  UNL     1       5.525   0.772   1.747  1.00  0.00     0.056 C 
HETATM   28  C1  UNL     1       5.391   2.139   2.358  1.00  0.00     0.045 C 
HETATM   29  C25 UNL     1       5.367   0.769   0.204  1.00  0.00     0.049 C 
BRANCH  27  30
HETATM   30  O1  UNL     1       6.547  -0.030   2.205  1.00  0.00    -0.390 OA
HETATM   31  H4  UNL     1       6.258  -0.976   2.297  1.00  0.00     0.210 HD
ENDBRANCH  27  30
ENDBRANCH   1  25
BRANCH   5  32
HETATM   32  N2  UNL     1      -0.011  -1.656  -3.312  1.00  0.00    -0.382 N 
HETATM   33  H21 UNL     1      -0.492  -2.594  -3.250  1.00  0.00     0.157 HD
HETATM   34  H22 UNL     1      -0.580  -0.820  -3.630  1.00  0.00     0.157 HD
ENDBRANCH   5  32
TORSDOF 4
