REMARK  3 active torsions:
REMARK  status: ('A' for Active; 'I' for Inactive)
REMARK    1  A    between atoms: C2_2  and  N1_3 
REMARK    2  A    between atoms: C16_21  and  C17_22 
REMARK    3  A    between atoms: C18_23  and  C19_24 
ROOT
HETATM    1  C19 UNL     1       1.886   1.698  -2.820  1.00  0.00     0.007 C 
HETATM    2  C20 UNL     1       2.519   1.768  -3.960  1.00  0.00     0.093 C 
HETATM    3  C21 UNL     1       1.713   1.320  -5.079  1.00  0.00     0.087 C 
HETATM    4  N6  UNL     1       1.062   0.977  -5.986  1.00  0.00    -0.192 NA
ENDROOT
BRANCH   1   5
HETATM    5  C18 UNL     1       0.485   1.204  -2.730  1.00  0.00    -0.016 C 
HETATM    6  C17 UNL     1       0.302   1.330  -1.394  1.00  0.00     0.051 C 
BRANCH   6   7
HETATM    7  C16 UNL     1      -0.738   1.102  -0.433  1.00  0.00    -0.045 C 
HETATM    8  C15 UNL     1      -1.942   0.754   0.087  1.00  0.00     0.038 C 
HETATM    9  C14 UNL     1      -3.052   0.234  -0.776  1.00  0.00     0.077 A 
HETATM   10  C13 UNL     1      -4.096   0.643  -1.568  1.00  0.00     0.052 A 
HETATM   11  N5  UNL     1      -2.914  -1.032  -0.693  1.00  0.00    -0.063 NA
HETATM   12  C12 UNL     1      -4.797  -0.390  -2.121  1.00  0.00     0.139 A 
HETATM   13  N4  UNL     1      -4.535  -1.697  -1.944  1.00  0.00    -0.075 NA
HETATM   14  C11 UNL     1      -3.502  -2.067  -1.162  1.00  0.00     0.727 A 
HETATM   15  N3  UNL     1      -2.816  -3.281  -0.655  1.00  0.00    -0.188 N 
HETATM   16  C8  UNL     1      -1.777  -2.754   0.248  1.00  0.00     0.049 A 
HETATM   17  H14 UNL     1      -3.159  -4.210  -1.012  1.00  0.00     0.184 HD
HETATM   18  C7  UNL     1      -0.801  -2.537  -0.634  1.00  0.00     0.032 A 
HETATM   19  C9  UNL     1      -2.566  -2.663   1.354  1.00  0.00     0.032 A 
HETATM   20  C6  UNL     1      -0.235  -1.534   0.112  1.00  0.00     0.031 A 
HETATM   21  C5  UNL     1      -0.743  -1.123   1.315  1.00  0.00     0.030 A 
HETATM   22  N2  UNL     1      -0.132   0.100   1.753  1.00  0.00    -0.369 N 
HETATM   23  C10 UNL     1      -1.853  -1.645   1.941  1.00  0.00     0.031 A 
HETATM   24  C4  UNL     1       0.343   0.465   3.107  1.00  0.00     0.143 C 
HETATM   25  C22 UNL     1       0.088   1.257   0.831  1.00  0.00     0.132 C 
HETATM   26  C3  UNL     1       1.787   0.797   3.063  1.00  0.00     0.136 C 
HETATM   27  N1  UNL     1       2.335   0.986   1.779  1.00  0.00    -0.409 N 
HETATM   28  C23 UNL     1       1.546   1.335   0.671  1.00  0.00     0.146 C 
BRANCH  27  29
HETATM   29  C2  UNL     1       3.444   0.117   1.483  1.00  0.00     0.112 C 
HETATM   30  C1  UNL     1       4.667   0.343   2.304  1.00  0.00     0.026 C 
ENDBRANCH  27  29
ENDBRANCH   6   7
ENDBRANCH   1   5
TORSDOF 3
