REMARK  4 active torsions:
REMARK  status: ('A' for Active; 'I' for Inactive)
REMARK    1  A    between atoms: C1_2  and  C2_3 
REMARK       I    between atoms: C1_2  and  N1_10 
REMARK    2  A    between atoms: C2_3  and  C3_4 
REMARK    3  A    between atoms: N1_10  and  C9_11 
REMARK    4  A    between atoms: C13_15  and  C14_16 
ROOT
HETATM    1  C9  UNL     1       0.646   0.164   1.620  1.00  0.00     0.035 A 
HETATM    2  C10 UNL     1       0.796   0.543   2.940  1.00  0.00     0.029 A 
HETATM    3  C11 UNL     1       1.462   0.018   3.982  1.00  0.00     0.003 A 
HETATM    4  C12 UNL     1       2.104  -1.151   3.557  1.00  0.00     0.011 A 
HETATM    5  C13 UNL     1       2.089  -1.709   2.299  1.00  0.00    -0.012 A 
HETATM    6  C18 UNL     1       1.330  -0.997   1.346  1.00  0.00     0.040 A 
ENDROOT
BRANCH   1   7
HETATM    7  N1  UNL     1      -0.121   0.894   0.698  1.00  0.00    -0.327 N 
HETATM    8  C1  UNL     1      -1.384   1.029   0.081  1.00  0.00     0.226 C 
HETATM    9  O1  UNL     1      -2.315   0.229   0.354  1.00  0.00    -0.273 OA
HETATM   10  H8  UNL     1       0.723   1.518   0.492  1.00  0.00     0.169 HD
BRANCH   8  11
HETATM   11  C2  UNL     1      -1.351   2.214  -0.858  1.00  0.00     0.141 C 
BRANCH  11  12
HETATM   12  C3  UNL     1      -2.624   2.392  -1.535  1.00  0.00    -0.050 A 
HETATM   13  C4  UNL     1      -3.773   2.995  -1.133  1.00  0.00     0.007 A 
HETATM   14  C5  UNL     1      -4.988   3.226  -1.677  1.00  0.00     0.001 A 
HETATM   15  C6  UNL     1      -4.996   2.704  -2.936  1.00  0.00     0.000 A 
HETATM   16  C7  UNL     1      -3.985   2.027  -3.645  1.00  0.00     0.001 A 
HETATM   17  C8  UNL     1      -2.816   1.917  -2.849  1.00  0.00     0.007 A 
ENDBRANCH  11  12
ENDBRANCH   8  11
ENDBRANCH   1   7
BRANCH   5  18
HETATM   18  C14 UNL     1       2.840  -2.952   2.025  1.00  0.00     0.251 A 
HETATM   19  N2  UNL     1       4.273  -2.824   2.352  1.00  0.00    -0.235 NA
HETATM   20  C15 UNL     1       4.487  -3.124   1.118  1.00  0.00     0.172 A 
HETATM   21  S1  UNL     1       5.529  -3.454  -0.348  1.00  0.00    -0.063 SA
HETATM   22  N3  UNL     1       3.112  -3.300   0.681  1.00  0.00    -0.308 N 
HETATM   23  C16 UNL     1       4.091  -3.808  -1.404  1.00  0.00     0.070 A 
HETATM   24  C17 UNL     1       3.034  -3.664  -0.668  1.00  0.00     0.103 A 
ENDBRANCH   5  18
TORSDOF 4
