REMARK  3 active torsions:
REMARK  status: ('A' for Active; 'I' for Inactive)
REMARK    1  A    between atoms: C3_3  and  C4_4 
REMARK    2  A    between atoms: C5_6  and  C6_7 
REMARK    3  A    between atoms: C13_18  and  O1_19 
ROOT
HETATM    1  C6  UNL     1       0.793   0.815  -0.508  1.00  0.00     0.149 A 
HETATM    2  N1  UNL     1       1.860   1.450  -0.841  1.00  0.00    -0.223 NA
HETATM    3  C7  UNL     1       1.924   2.655  -1.575  1.00  0.00     0.255 A 
HETATM    4  N2  UNL     1       0.810   3.215  -1.975  1.00  0.00    -0.057 NA
HETATM    5  C8  UNL     1      -0.426   2.585  -1.655  1.00  0.00     0.711 A 
HETATM    6  N3  UNL     1      -1.599   2.991  -1.964  1.00  0.00    -0.179 NA
HETATM    7  B1  UNL     1      -2.638   2.023  -1.427  1.00  0.00     0.361 B 
HETATM    8  C9  UNL     1      -1.783   0.905  -0.698  1.00  0.00     0.085 A 
HETATM    9  C10 UNL     1      -2.192   0.964   0.733  1.00  0.00     0.000 C 
HETATM   10  C11 UNL     1      -2.984   0.289   1.550  1.00  0.00     0.001 C 
HETATM   11  C12 UNL     1      -3.779  -0.871   1.173  1.00  0.00     0.036 C 
HETATM   12  C13 UNL     1      -3.702  -1.599   0.070  1.00  0.00     0.065 C 
HETATM   13  C14 UNL     1      -2.814  -1.462  -1.079  1.00  0.00     0.034 C 
HETATM   14  C15 UNL     1      -2.058  -0.405  -1.328  1.00  0.00     0.003 C 
HETATM   15  N4  UNL     1      -0.453   1.373  -0.915  1.00  0.00    -0.155 N 
HETATM   16  H8  UNL     1      -3.790   2.052  -1.696  1.00  0.00     0.005 HD
ENDROOT
BRANCH   1  17
HETATM   17  C5  UNL     1       0.796  -0.424   0.250  1.00  0.00     0.075 C 
HETATM   18  C4  UNL     1       1.819  -1.104   0.719  1.00  0.00     0.037 C 
HETATM   19 CL1  UNL     1       1.654  -2.594   1.622  1.00  0.00    -0.084 Cl
BRANCH  18  20
HETATM   20  C3  UNL     1       3.251  -0.872   0.652  1.00  0.00     0.019 C 
HETATM   21  C2  UNL     1       4.356  -1.463   1.070  1.00  0.00    -0.029 C 
HETATM   22  C1  UNL     1       5.722  -0.947   0.825  1.00  0.00     0.036 C 
ENDBRANCH  18  20
ENDBRANCH   1  17
BRANCH  12  23
HETATM   23  O1  UNL     1      -4.579  -2.672  -0.064  1.00  0.00    -0.361 OA
HETATM   24  H12 UNL     1      -5.499  -2.700   0.332  1.00  0.00     0.217 HD
ENDBRANCH  12  23
TORSDOF 3
