REMARK  4 active torsions:
REMARK  status: ('A' for Active; 'I' for Inactive)
REMARK    1  A    between atoms: C7_7  and  N1_8 
REMARK    2  A    between atoms: N1_8  and  C8_9 
REMARK    3  A    between atoms: C14_16  and  O1_17 
REMARK    4  A    between atoms: C16_19  and  O2_20 
ROOT
HETATM    1  C1  UNL     1       6.514   0.784  -1.446  1.00  0.00     0.018 C 
HETATM    2  C2  UNL     1       5.506   0.158  -1.188  1.00  0.00    -0.078 C 
HETATM    3  C3  UNL     1       4.323  -0.585  -0.861  1.00  0.00     0.019 A 
HETATM    4  C4  UNL     1       4.395  -1.940  -0.581  1.00  0.00     0.021 A 
HETATM    5  C5  UNL     1       3.239  -2.633  -0.268  1.00  0.00     0.004 A 
HETATM    6  C6  UNL     1       2.014  -2.002  -0.230  1.00  0.00     0.029 A 
HETATM    7  C7  UNL     1       1.936  -0.650  -0.508  1.00  0.00     0.033 A 
HETATM    8  C18 UNL     1       3.100   0.055  -0.824  1.00  0.00     0.050 A 
ENDROOT
BRANCH   7   9
HETATM    9  N1  UNL     1       0.702   0.059  -0.484  1.00  0.00    -0.357 N 
HETATM   10  H5  UNL     1       0.339  -0.026  -1.470  1.00  0.00     0.166 HD
BRANCH   9  11
HETATM   11  C8  UNL     1       0.115   0.720   0.626  1.00  0.00     0.052 A 
HETATM   12  C9  UNL     1       0.812   1.723   1.139  1.00  0.00     0.047 A 
HETATM   13  C10 UNL     1      -0.047   2.168   2.230  1.00  0.00     0.114 A 
HETATM   14  N2  UNL     1      -1.146   1.514   2.371  1.00  0.00    -0.273 NA
HETATM   15  C11 UNL     1      -1.140   0.495   1.322  1.00  0.00     0.164 A 
HETATM   16  C12 UNL     1      -1.287  -0.864   1.893  1.00  0.00     0.022 A 
HETATM   17  C16 UNL     1      -2.354   0.606   0.478  1.00  0.00     0.119 A 
HETATM   18  C13 UNL     1      -2.398  -1.441   1.454  1.00  0.00     0.038 A 
HETATM   19  C14 UNL     1      -3.076  -0.503   0.553  1.00  0.00     0.100 A 
BRANCH  19  20
HETATM   20  O1  UNL     1      -4.265  -0.962   0.005  1.00  0.00    -0.353 OA
HETATM   21  C15 UNL     1      -5.444  -0.200  -0.093  1.00  0.00     0.210 C 
ENDBRANCH  19  20
BRANCH  17  22
HETATM   22  O2  UNL     1      -2.869   1.596  -0.342  1.00  0.00    -0.354 OA
HETATM   23  C17 UNL     1      -2.683   1.610  -1.744  1.00  0.00     0.209 C 
ENDBRANCH  17  22
ENDBRANCH   9  11
ENDBRANCH   7   9
TORSDOF 4
