REMARK  2 active torsions:
REMARK  status: ('A' for Active; 'I' for Inactive)
REMARK    1  A    between atoms: O1_2  and  C2_3 
REMARK    2  A    between atoms: N2_12  and  C10_13 
ROOT
HETATM    1  C2  UNL     1      -2.522   1.548  -1.049  1.00  0.00     0.065 C 
HETATM    2  C3  UNL     1      -3.114   1.032   0.045  1.00  0.00     0.010 C 
HETATM    3  C4  UNL     1      -2.348   0.010   0.772  1.00  0.00     0.036 C 
HETATM    4  C5  UNL     1      -2.889  -1.374   0.619  1.00  0.00     0.016 C 
HETATM    5  C6  UNL     1      -2.211  -2.325  -0.061  1.00  0.00     0.234 C 
HETATM    6  N1  UNL     1      -1.025  -2.544  -0.783  1.00  0.00    -0.313 NA
HETATM    7  C7  UNL     1      -0.730  -3.694  -1.232  1.00  0.00     0.050 C 
HETATM    8  C8  UNL     1       0.413  -2.918  -1.690  1.00  0.00     0.028 C 
HETATM    9  C9  UNL     1       0.868  -1.688  -1.641  1.00  0.00     0.097 C 
HETATM   10  N2  UNL     1       0.750  -0.312  -1.226  1.00  0.00    -0.333 N 
HETATM   11  C17 UNL     1      -0.139   0.671  -1.765  1.00  0.00     0.099 C 
HETATM   12  C18 UNL     1      -1.269   1.345  -1.743  1.00  0.00     0.054 C 
ENDROOT
BRANCH  10  13
HETATM   13  C10 UNL     1       1.589   0.152  -0.144  1.00  0.00     0.038 A 
HETATM   14  C11 UNL     1       1.525   1.409   0.373  1.00  0.00     0.030 A 
HETATM   15  C12 UNL     1       2.355   1.793   1.407  1.00  0.00     0.003 A 
HETATM   16  C13 UNL     1       3.267   0.909   1.937  1.00  0.00     0.007 A 
HETATM   17  C14 UNL     1       3.369  -0.362   1.453  1.00  0.00    -0.060 A 
HETATM   18  C15 UNL     1       4.301  -1.415   1.925  1.00  0.00     0.048 C 
HETATM   19  C16 UNL     1       2.527  -0.718   0.420  1.00  0.00     0.036 A 
ENDBRANCH  10  13
BRANCH   1  20
HETATM   20  O1  UNL     1      -3.399   2.486  -1.575  1.00  0.00    -0.356 OA
HETATM   21  C1  UNL     1      -3.348   3.802  -1.011  1.00  0.00     0.210 C 
ENDBRANCH   1  20
TORSDOF 2
