REMARK  1 active torsions:
REMARK  status: ('A' for Active; 'I' for Inactive)
REMARK    1  A    between atoms: C12_18  and  O1_19 
ROOT
HETATM    1  C1  UNL     1       2.122  -2.846  -0.845  1.00  0.00     0.075 C 
HETATM    2  C2  UNL     1       1.532  -1.619  -0.269  1.00  0.00     0.081 C 
HETATM    3  N1  UNL     1       0.463  -1.185   0.306  1.00  0.00    -0.180 NA
HETATM    4  N2  UNL     1      -0.605  -2.053   0.537  1.00  0.00    -0.284 N 
HETATM    5  C3  UNL     1      -1.840  -2.533  -0.020  1.00  0.00     0.172 C 
HETATM    6  C4  UNL     1      -1.706  -3.939  -0.411  1.00  0.00     0.098 C 
HETATM    7  N3  UNL     1      -1.616  -5.062  -0.724  1.00  0.00    -0.194 NA
HETATM    8  C5  UNL     1      -2.089  -1.783  -1.287  1.00  0.00     0.138 C 
HETATM    9  N4  UNL     1      -2.842  -0.746  -1.483  1.00  0.00    -0.266 NA
HETATM   10  C6  UNL     1      -2.753   0.579  -0.923  1.00  0.00     0.033 C 
HETATM   11  C7  UNL     1      -2.215   1.780  -0.883  1.00  0.00     0.002 C 
HETATM   12  C8  UNL     1      -1.835   3.183  -0.581  1.00  0.00     0.059 C 
HETATM   13  C9  UNL     1      -0.366   3.253  -0.177  1.00  0.00     0.273 C 
HETATM   14  N5  UNL     1      -0.090   2.450   0.972  1.00  0.00     0.085 N 
HETATM   15  C10 UNL     1       1.282   2.495   1.354  1.00  0.00     0.291 C 
HETATM   16  C11 UNL     1       2.212   1.819   0.331  1.00  0.00     0.179 C 
HETATM   17  N6  UNL     1       1.861   0.465   0.132  1.00  0.00    -0.283 NA
HETATM   18  C12 UNL     1       2.470  -0.506  -0.386  1.00  0.00     0.107 C 
HETATM   19  C15 UNL     1      -3.669   0.903   0.171  1.00  0.00     0.085 C 
HETATM   20  C16 UNL     1      -3.212   0.075   1.360  1.00  0.00    -0.025 C 
HETATM   21  C17 UNL     1      -3.020  -1.184   1.701  1.00  0.00    -0.026 C 
HETATM   22  C18 UNL     1      -3.006  -2.450   0.918  1.00  0.00     0.081 C 
HETATM   23  H4  UNL     1      -0.398  -2.499   1.458  1.00  0.00     0.185 HD
HETATM   24  H11 UNL     1      -0.348   1.454   0.781  1.00  0.00     0.315 HD
ENDROOT
BRANCH  18  25
HETATM   25  O1  UNL     1       3.744  -0.356  -0.900  1.00  0.00     0.000 OA
HETATM   26  C13 UNL     1       4.737   0.340  -0.181  1.00  0.00    -0.008 A 
HETATM   27  C14 UNL     1       5.379  -0.404  -1.087  1.00  0.00     0.258 A 
HETATM   28 CL1  UNL     1       7.122  -0.415  -1.238  1.00  0.00    -0.251 Cl
ENDBRANCH  18  25
TORSDOF 1
