REMARK  3 active torsions:
REMARK  status: ('A' for Active; 'I' for Inactive)
REMARK    1  A    between atoms: C8_9  and  N2_10 
REMARK    2  A    between atoms: N2_10  and  C9_11 
REMARK    3  A    between atoms: C13_15  and  C14_16 
ROOT
HETATM    1  C1  UNL     1      -7.729   2.162   0.210  1.00  0.00     0.017 C 
HETATM    2  C2  UNL     1      -7.144   1.315  -0.414  1.00  0.00    -0.087 C 
HETATM    3  C3  UNL     1      -6.437   0.324  -1.165  1.00  0.00     0.096 C 
HETATM    4  C4  UNL     1      -5.435  -0.429  -0.679  1.00  0.00     0.065 C 
HETATM    5  C5  UNL     1      -4.799  -1.411  -1.573  1.00  0.00     0.085 C 
HETATM    6  C6  UNL     1      -3.414  -1.009  -2.031  1.00  0.00     0.126 C 
HETATM    7  N1  UNL     1      -2.437  -0.962  -0.988  1.00  0.00    -0.383 N 
HETATM    8  C7  UNL     1      -2.496  -0.481   0.337  1.00  0.00     0.128 A 
HETATM    9  C8  UNL     1      -1.262  -0.329   0.874  1.00  0.00     0.160 A 
HETATM   10  N3  UNL     1      -1.198   0.106   2.137  1.00  0.00    -0.222 NA
HETATM   11  C21 UNL     1      -2.277   0.385   2.857  1.00  0.00     0.238 A 
HETATM   12  N4  UNL     1      -3.491   0.227   2.302  1.00  0.00    -0.215 NA
HETATM   13  C22 UNL     1      -3.659  -0.205   1.040  1.00  0.00     0.201 A 
HETATM   14  O1  UNL     1      -4.985  -0.310   0.627  1.00  0.00    -0.294 OA
HETATM   15  H7  UNL     1      -1.519  -1.364  -1.259  1.00  0.00     0.159 HD
ENDROOT
BRANCH   9  16
HETATM   16  N2  UNL     1      -0.038  -0.556   0.194  1.00  0.00    -0.339 N 
HETATM   17  H8  UNL     1       0.212  -0.778  -0.792  1.00  0.00     0.167 HD
BRANCH  16  18
HETATM   18  C9  UNL     1       1.232  -0.507   0.832  1.00  0.00     0.034 A 
HETATM   19  C10 UNL     1       1.322  -0.868   2.156  1.00  0.00     0.029 A 
HETATM   20  C11 UNL     1       2.536  -0.827   2.861  1.00  0.00     0.003 A 
HETATM   21  C12 UNL     1       3.689  -0.418   2.240  1.00  0.00     0.012 A 
HETATM   22  C13 UNL     1       3.635  -0.052   0.926  1.00  0.00    -0.024 A 
HETATM   23  C20 UNL     1       2.430  -0.107   0.275  1.00  0.00     0.041 A 
BRANCH  22  24
HETATM   24  C14 UNL     1       4.808   0.393   0.190  1.00  0.00    -0.026 A 
HETATM   25  C15 UNL     1       6.086  -0.048   0.413  1.00  0.00     0.012 A 
HETATM   26  C16 UNL     1       7.175   0.414  -0.316  1.00  0.00     0.001 A 
HETATM   27  C17 UNL     1       7.009   1.350  -1.309  1.00  0.00     0.000 A 
HETATM   28  C18 UNL     1       5.724   1.837  -1.580  1.00  0.00     0.001 A 
HETATM   29  C19 UNL     1       4.671   1.340  -0.820  1.00  0.00     0.012 A 
ENDBRANCH  22  24
ENDBRANCH  16  18
ENDBRANCH   9  16
TORSDOF 3
