REMARK  4 active torsions:
REMARK  status: ('A' for Active; 'I' for Inactive)
REMARK    1  A    between atoms: C7_7  and  S1_8 
REMARK    2  A    between atoms: S1_8  and  C8_9 
REMARK    3  A    between atoms: C13_15  and  O1_16 
REMARK    4  A    between atoms: C15_18  and  O2_19 
ROOT
HETATM    1  C1  UNL     1       6.897   0.270   1.958  1.00  0.00     0.018 C 
HETATM    2  C2  UNL     1       6.067   0.066   1.098  1.00  0.00    -0.078 C 
HETATM    3  C3  UNL     1       5.106  -0.179   0.079  1.00  0.00     0.018 A 
HETATM    4  C4  UNL     1       5.416  -0.926  -1.059  1.00  0.00     0.020 A 
HETATM    5  C5  UNL     1       4.466  -1.162  -2.057  1.00  0.00     0.003 A 
HETATM    6  C6  UNL     1       3.191  -0.623  -1.876  1.00  0.00     0.019 A 
HETATM    7  C7  UNL     1       2.883   0.120  -0.745  1.00  0.00     0.007 A 
HETATM    8  C19 UNL     1       3.834   0.342   0.229  1.00  0.00     0.039 A 
ENDROOT
BRANCH   7   9
HETATM    9  S1  UNL     1       1.207   0.705  -0.726  1.00  0.00    -0.090 SA
BRANCH   9  10
HETATM   10  C8  UNL     1       0.194  -0.527   0.077  1.00  0.00     0.019 A 
HETATM   11  C9  UNL     1       0.669  -1.737   0.594  1.00  0.00     0.039 A 
HETATM   12  C10 UNL     1      -0.228  -2.608   1.195  1.00  0.00     0.118 A 
HETATM   13  N1  UNL     1      -1.536  -2.294   1.281  1.00  0.00    -0.260 NA
HETATM   14  C11 UNL     1      -2.031  -1.128   0.790  1.00  0.00     0.070 A 
HETATM   15  C12 UNL     1      -3.383  -0.868   0.911  1.00  0.00     0.072 A 
HETATM   16  C18 UNL     1      -1.159  -0.242   0.185  1.00  0.00     0.013 A 
HETATM   17  C13 UNL     1      -3.913   0.310   0.420  1.00  0.00     0.103 A 
HETATM   18  C15 UNL     1      -3.030   1.184  -0.180  1.00  0.00     0.102 A 
HETATM   19  C17 UNL     1      -1.678   0.931  -0.304  1.00  0.00     0.054 A 
BRANCH  17  20
HETATM   20  O1  UNL     1      -5.242   0.698   0.473  1.00  0.00    -0.353 OA
HETATM   21  C14 UNL     1      -6.289  -0.035   1.033  1.00  0.00     0.210 C 
ENDBRANCH  17  20
BRANCH  18  22
HETATM   22  O2  UNL     1      -3.498   2.403  -0.703  1.00  0.00    -0.353 OA
HETATM   23  C16 UNL     1      -2.609   3.295  -1.314  1.00  0.00     0.210 C 
ENDBRANCH  18  22
ENDBRANCH   9  10
ENDBRANCH   7   9
TORSDOF 4
