REMARK  4 active torsions:
REMARK  status: ('A' for Active; 'I' for Inactive)
REMARK    1  A    between atoms: O1_2  and  C2_3 
REMARK    2  A    between atoms: C7_9  and  N2_10 
REMARK    3  A    between atoms: N2_10  and  C8_11 
REMARK    4  A    between atoms: C17_21  and  O2_22 
ROOT
HETATM    1  C8  UNL     1       2.562   0.397   0.572  1.00  0.00     0.034 A 
HETATM    2  C9  UNL     1       3.454   1.286   1.135  1.00  0.00     0.029 A 
HETATM    3  C10 UNL     1       4.173   2.072   0.261  1.00  0.00     0.004 A 
HETATM    4  C11 UNL     1       4.069   2.036  -1.117  1.00  0.00     0.023 A 
HETATM    5  C12 UNL     1       3.165   1.134  -1.655  1.00  0.00     0.046 A 
HETATM    6  C13 UNL     1       3.013   1.051  -3.086  1.00  0.00     0.099 C 
HETATM    7  N3  UNL     1       2.872   0.982  -4.234  1.00  0.00    -0.191 NA
HETATM    8  C14 UNL     1       2.441   0.343  -0.801  1.00  0.00     0.052 A 
ENDROOT
BRANCH   1   9
HETATM    9  N2  UNL     1       1.816  -0.429   1.436  1.00  0.00    -0.355 N 
HETATM   10  H7  UNL     1       1.984  -0.441   2.466  1.00  0.00     0.166 HD
BRANCH   9  11
HETATM   11  C7  UNL     1       0.764  -1.371   1.281  1.00  0.00     0.046 A 
HETATM   12  C6  UNL     1       0.925  -2.714   1.639  1.00  0.00     0.049 A 
HETATM   13  C5  UNL     1      -0.043  -3.685   1.520  1.00  0.00     0.119 A 
HETATM   14  N1  UNL     1      -1.224  -3.281   1.019  1.00  0.00    -0.260 NA
HETATM   15  C4  UNL     1      -1.488  -2.021   0.644  1.00  0.00     0.071 A 
HETATM   16  C3  UNL     1      -2.723  -1.667   0.140  1.00  0.00     0.072 A 
HETATM   17  C15 UNL     1      -0.487  -1.098   0.785  1.00  0.00     0.022 A 
HETATM   18  C2  UNL     1      -3.025  -0.381  -0.249  1.00  0.00     0.103 A 
HETATM   19  C17 UNL     1      -2.001   0.533  -0.098  1.00  0.00     0.102 A 
HETATM   20  C16 UNL     1      -0.768   0.196   0.402  1.00  0.00     0.055 A 
BRANCH  18  21
HETATM   21  O1  UNL     1      -4.236   0.021  -0.756  1.00  0.00    -0.353 OA
HETATM   22  C1  UNL     1      -5.280  -0.890  -0.914  1.00  0.00     0.210 C 
ENDBRANCH  18  21
BRANCH  19  23
HETATM   23  O2  UNL     1      -2.254   1.846  -0.476  1.00  0.00    -0.353 OA
HETATM   24  C18 UNL     1      -1.245   2.849  -0.350  1.00  0.00     0.210 C 
ENDBRANCH  19  23
ENDBRANCH   9  11
ENDBRANCH   1   9
TORSDOF 4
