REMARK  4 active torsions:
REMARK  status: ('A' for Active; 'I' for Inactive)
REMARK    1  A    between atoms: C7_7  and  N1_8 
REMARK    2  A    between atoms: N1_8  and  C8_9 
REMARK    3  A    between atoms: C13_15  and  O1_16 
REMARK    4  A    between atoms: C15_18  and  O2_19 
ROOT
HETATM    1  C1  UNL     1       6.653  -2.184  -0.016  1.00  0.00     0.018 C 
HETATM    2  C2  UNL     1       5.834  -1.300   0.040  1.00  0.00    -0.078 C 
HETATM    3  C3  UNL     1       4.854  -0.256   0.129  1.00  0.00     0.019 A 
HETATM    4  C4  UNL     1       5.213   1.072   0.175  1.00  0.00     0.021 A 
HETATM    5  C5  UNL     1       4.245   2.051   0.261  1.00  0.00     0.004 A 
HETATM    6  C6  UNL     1       2.922   1.668   0.299  1.00  0.00     0.029 A 
HETATM    7  C7  UNL     1       2.467   0.367   0.257  1.00  0.00     0.034 A 
HETATM    8  C18 UNL     1       3.513  -0.554   0.171  1.00  0.00     0.050 A 
ENDROOT
BRANCH   7   9
HETATM    9  N1  UNL     1       1.096   0.010   0.270  1.00  0.00    -0.355 N 
HETATM   10  H5  UNL     1       1.045  -0.835   0.867  1.00  0.00     0.166 HD
BRANCH   9  11
HETATM   11  C8  UNL     1      -0.021   0.577  -0.332  1.00  0.00     0.046 A 
HETATM   12  C9  UNL     1      -0.045   1.663  -1.170  1.00  0.00     0.049 A 
HETATM   13  C10 UNL     1      -1.144   2.236  -1.754  1.00  0.00     0.119 A 
HETATM   14  N2  UNL     1      -2.361   1.677  -1.484  1.00  0.00    -0.260 NA
HETATM   15  C11 UNL     1      -2.390   0.597  -0.657  1.00  0.00     0.071 A 
HETATM   16  C12 UNL     1      -3.658   0.105  -0.444  1.00  0.00     0.072 A 
HETATM   17  C17 UNL     1      -1.263   0.044  -0.084  1.00  0.00     0.022 A 
HETATM   18  C13 UNL     1      -3.870  -0.986   0.366  1.00  0.00     0.103 A 
HETATM   19  C15 UNL     1      -2.771  -1.569   0.959  1.00  0.00     0.100 A 
HETATM   20  C16 UNL     1      -1.520  -1.044   0.719  1.00  0.00     0.055 A 
BRANCH  18  21
HETATM   21  O1  UNL     1      -5.128  -1.491   0.590  1.00  0.00    -0.353 OA
HETATM   22  C14 UNL     1      -6.257  -0.892  -0.018  1.00  0.00     0.210 C 
ENDBRANCH  18  21
BRANCH  19  23
HETATM   23  O2  UNL     1      -2.946  -2.680   1.791  1.00  0.00    -0.358 OA
HETATM   24  H12 UNL     1      -3.130  -2.578   2.785  1.00  0.00     0.217 HD
ENDBRANCH  19  23
ENDBRANCH   9  11
ENDBRANCH   7   9
TORSDOF 4
