REMARK  6 active torsions:
REMARK  status: ('A' for Active; 'I' for Inactive)
REMARK    1  A    between atoms: C7_7  and  N1_8 
REMARK    2  A    between atoms: N1_8  and  C8_9 
REMARK    3  A    between atoms: C8_9  and  C9_10 
REMARK    4  A    between atoms: C16_18  and  B1_19 
REMARK    5  A    between atoms: B1_19  and  O1_20 
REMARK    6  A    between atoms: C17_21  and  O2_22 
ROOT
HETATM    1  C1  UNL     1       7.839  -1.987  -0.788  1.00  0.00     0.018 C 
HETATM    2  C2  UNL     1       6.871  -1.278  -0.671  1.00  0.00    -0.078 C 
HETATM    3  C3  UNL     1       5.700  -0.451  -0.531  1.00  0.00     0.019 A 
HETATM    4  C4  UNL     1       5.658   0.871  -0.934  1.00  0.00     0.021 A 
HETATM    5  C5  UNL     1       4.513   1.626  -0.780  1.00  0.00     0.004 A 
HETATM    6  C6  UNL     1       3.356   1.089  -0.212  1.00  0.00     0.029 A 
HETATM    7  C7  UNL     1       3.470  -0.232   0.166  1.00  0.00     0.033 A 
HETATM    8  C19 UNL     1       4.576  -1.045   0.043  1.00  0.00     0.050 A 
ENDROOT
BRANCH   7   9
HETATM    9  N1  UNL     1       2.324  -0.838   0.751  1.00  0.00    -0.365 N 
HETATM   10  H5  UNL     1       2.265  -1.821   1.082  1.00  0.00     0.165 HD
BRANCH   9  11
HETATM   11  C8  UNL     1       1.075  -0.202   0.979  1.00  0.00     0.102 C 
BRANCH  11  12
HETATM   12  C9  UNL     1       0.001  -0.532   0.289  1.00  0.00     0.008 A 
HETATM   13  C10 UNL     1       0.208  -1.524  -0.645  1.00  0.00     0.130 A 
HETATM   14  N2  UNL     1      -0.874  -1.899  -1.384  1.00  0.00    -0.271 NA
HETATM   15  C11 UNL     1      -2.083  -1.334  -1.215  1.00  0.00     0.131 A 
HETATM   16  C12 UNL     1      -2.255  -0.343  -0.271  1.00  0.00     0.025 A 
HETATM   17  C13 UNL     1      -1.202   0.097   0.524  1.00  0.00    -0.012 A 
HETATM   18  C17 UNL     1      -3.590   0.228  -0.137  1.00  0.00     0.074 A 
HETATM   19  C14 UNL     1      -1.358   1.034   1.419  1.00  0.00    -0.010 A 
HETATM   20  C15 UNL     1      -2.656   1.703   1.665  1.00  0.00     0.055 A 
HETATM   21  C16 UNL     1      -3.721   1.185   0.787  1.00  0.00    -0.054 A 
BRANCH  21  22
HETATM   22  B1  UNL     1      -5.051   1.911   1.079  1.00  0.00     0.342 B 
HETATM   23  H12 UNL     1      -5.676   2.428   0.221  1.00  0.00     0.013 HD
BRANCH  22  24
HETATM   24  O1  UNL     1      -5.715   1.732   2.369  1.00  0.00    -0.462 OA
HETATM   25  H13 UNL     1      -6.664   2.012   2.351  1.00  0.00     0.182 HD
ENDBRANCH  22  24
ENDBRANCH  21  22
BRANCH  18  26
HETATM   26  O2  UNL     1      -4.701  -0.135  -0.872  1.00  0.00    -0.356 OA
HETATM   27  C18 UNL     1      -5.501  -1.238  -0.533  1.00  0.00     0.210 C 
ENDBRANCH  18  26
ENDBRANCH  11  12
ENDBRANCH   9  11
ENDBRANCH   7   9
TORSDOF 6
