REMARK  10 active torsions:
REMARK  status: ('A' for Active; 'I' for Inactive)
REMARK    1  A    between atoms: C2_2  and  N1_3 
REMARK    2  A    between atoms: N1_3  and  C4_5 
REMARK    3  A    between atoms: C4_5  and  C5_6 
REMARK    4  A    between atoms: C5_6  and  C6_7 
REMARK       I    between atoms: C6_7  and  N2_9 
REMARK    5  A    between atoms: N2_9  and  C7_10 
REMARK    6  A    between atoms: C7_10  and  C8_11 
REMARK    7  A    between atoms: C7_10  and  C19_25 
REMARK    8  A    between atoms: C13_17  and  N4_18 
REMARK    9  A    between atoms: N4_18  and  C14_19 
REMARK   10  A    between atoms: C15_20  and  C16_22 
ROOT
HETATM    1  C8  UNL     1      -0.605  -1.923  -1.233  1.00  0.00     0.009 C 
HETATM    2  C9  UNL     1      -1.772  -2.431  -1.632  1.00  0.00    -0.013 A 
HETATM    3  C10 UNL     1      -1.882  -3.250  -2.861  1.00  0.00     0.189 A 
HETATM    4  N3  UNL     1      -3.233  -3.680  -3.058  1.00  0.00    -0.297 NA
HETATM    5  C11 UNL     1      -4.168  -3.370  -2.266  1.00  0.00     0.113 A 
HETATM    6  C12 UNL     1      -4.147  -2.574  -1.052  1.00  0.00     0.049 A 
HETATM    7  C13 UNL     1      -2.940  -2.125  -0.772  1.00  0.00     0.041 A 
ENDROOT
BRANCH   1   8
HETATM    8  C7  UNL     1       0.799  -1.838  -1.569  1.00  0.00     0.107 C 
BRANCH   8   9
HETATM    9  N2  UNL     1       1.357  -0.589  -1.083  1.00  0.00    -0.353 N 
HETATM   10  C6  UNL     1       2.274  -0.555   0.034  1.00  0.00     0.219 C 
HETATM   11  O1  UNL     1       2.623  -1.619   0.633  1.00  0.00    -0.274 OA
HETATM   12  H11 UNL     1       1.081   0.318  -1.564  1.00  0.00     0.163 HD
BRANCH  10  13
HETATM   13  C5  UNL     1       2.768   0.811   0.418  1.00  0.00     0.122 C 
BRANCH  13  14
HETATM   14  C4  UNL     1       3.699   0.697   1.609  1.00  0.00     0.131 C 
BRANCH  14  15
HETATM   15  N1  UNL     1       4.204   1.977   2.012  1.00  0.00    -0.395 N 
HETATM   16  C3  UNL     1       5.102   2.562   1.055  1.00  0.00     0.148 C 
BRANCH  15  17
HETATM   17  C2  UNL     1       3.844   2.591   3.238  1.00  0.00     0.075 C 
HETATM   18  C1  UNL     1       4.581   1.840   4.061  1.00  0.00     0.029 C 
ENDBRANCH  15  17
ENDBRANCH  14  15
ENDBRANCH  13  14
ENDBRANCH  10  13
ENDBRANCH   8   9
BRANCH   8  19
HETATM   19  C19 UNL     1       1.240  -2.192  -2.929  1.00  0.00     0.025 C 
HETATM   20  C20 UNL     1       0.897  -1.189  -4.002  1.00  0.00     0.007 C 
ENDBRANCH   8  19
ENDBRANCH   1   8
BRANCH   7  21
HETATM   21  N4  UNL     1      -2.884  -1.331   0.422  1.00  0.00    -0.364 N 
HETATM   22  H18 UNL     1      -2.244  -1.337   1.267  1.00  0.00     0.165 HD
BRANCH  21  23
HETATM   23  C14 UNL     1      -3.777  -0.275   0.723  1.00  0.00     0.107 C 
HETATM   24  C15 UNL     1      -3.549   0.944   1.156  1.00  0.00     0.026 C 
HETATM   25 BR1  UNL     1      -1.678   1.061   1.324  1.00  0.00    -0.050 Br
BRANCH  24  26
HETATM   26  C16 UNL     1      -4.648   1.854   1.391  1.00  0.00     0.016 C 
HETATM   27  C17 UNL     1      -4.522   3.091   1.824  1.00  0.00    -0.029 C 
HETATM   28  C18 UNL     1      -3.385   3.960   2.201  1.00  0.00     0.036 C 
ENDBRANCH  24  26
ENDBRANCH  21  23
ENDBRANCH   7  21
TORSDOF 10
