REMARK  7 active torsions:
REMARK  status: ('A' for Active; 'I' for Inactive)
REMARK    1  A    between atoms: C7_7  and  N1_8 
REMARK    2  A    between atoms: N1_8  and  C8_9 
REMARK    3  A    between atoms: C12_15  and  C13_16 
REMARK    4  A    between atoms: C13_16  and  O2_17 
REMARK    5  A    between atoms: O2_17  and  C14_18 
REMARK    6  A    between atoms: C14_18  and  C15_19 
REMARK    7  A    between atoms: C15_19  and  O3_20 
ROOT
HETATM    1  C1  UNL     1      -7.525  -1.390   0.809  1.00  0.00     0.018 C 
HETATM    2  C2  UNL     1      -6.699  -0.540   0.575  1.00  0.00    -0.078 C 
HETATM    3  C3  UNL     1      -5.723   0.487   0.301  1.00  0.00     0.019 A 
HETATM    4  C4  UNL     1      -6.245   1.660  -0.239  1.00  0.00     0.021 A 
HETATM    5  C5  UNL     1      -5.368   2.690  -0.532  1.00  0.00     0.004 A 
HETATM    6  C6  UNL     1      -4.012   2.551  -0.292  1.00  0.00     0.029 A 
HETATM    7  C7  UNL     1      -3.527   1.382   0.243  1.00  0.00     0.034 A 
HETATM    8  C20 UNL     1      -4.375   0.323   0.550  1.00  0.00     0.050 A 
ENDROOT
BRANCH   7   9
HETATM    9  N1  UNL     1      -2.135   1.240   0.485  1.00  0.00    -0.354 N 
HETATM   10  H5  UNL     1      -1.639   1.854   1.156  1.00  0.00     0.166 HD
BRANCH   9  11
HETATM   11  C8  UNL     1      -1.460   0.242  -0.222  1.00  0.00     0.060 A 
HETATM   12  C9  UNL     1      -1.822  -0.334  -1.353  1.00  0.00     0.033 A 
HETATM   13  C10 UNL     1      -1.217  -1.382  -2.196  1.00  0.00     0.231 A 
HETATM   14  O1  UNL     1      -0.038  -1.908  -1.715  1.00  0.00    -0.270 OA
HETATM   15  N2  UNL     1       0.338  -1.328  -0.574  1.00  0.00    -0.231 N 
HETATM   16  C11 UNL     1       1.593  -1.891  -0.117  1.00  0.00     0.132 A 
HETATM   17  C19 UNL     1      -0.202  -0.315   0.258  1.00  0.00     0.088 A 
HETATM   18  C12 UNL     1       2.198  -1.489   0.997  1.00  0.00    -0.001 A 
HETATM   19  C17 UNL     1       1.662  -0.450   1.890  1.00  0.00     0.228 A 
HETATM   20  F1  UNL     1       2.571   0.611   1.896  1.00  0.00    -0.240 F 
HETATM   21  C18 UNL     1       0.392   0.068   1.346  1.00  0.00     0.049 A 
BRANCH  18  22
HETATM   22  C13 UNL     1       3.486  -2.103   1.424  1.00  0.00     0.206 C 
BRANCH  22  23
HETATM   23  O2  UNL     1       4.540  -1.222   1.513  1.00  0.00    -0.385 OA
BRANCH  23  24
HETATM   24  C14 UNL     1       4.810  -0.687   0.224  1.00  0.00     0.194 C 
BRANCH  24  25
HETATM   25  C15 UNL     1       5.955   0.262   0.317  1.00  0.00     0.193 C 
BRANCH  25  26
HETATM   26  O3  UNL     1       6.327   0.857  -0.874  1.00  0.00    -0.394 OA
HETATM   27  C16 UNL     1       5.318   1.606  -1.438  1.00  0.00     0.201 C 
ENDBRANCH  25  26
ENDBRANCH  24  25
ENDBRANCH  23  24
ENDBRANCH  22  23
ENDBRANCH  18  22
ENDBRANCH   9  11
ENDBRANCH   7   9
TORSDOF 7
