REMARK  3 active torsions:
REMARK  status: ('A' for Active; 'I' for Inactive)
REMARK    1  A    between atoms: C11_15  and  N3_16 
REMARK    2  A    between atoms: N3_16  and  C12_17 
REMARK    3  A    between atoms: C16_21  and  C17_22 
ROOT
HETATM    1  C1  UNL     1       1.838   2.725  -2.618  1.00  0.00     0.180 C 
HETATM    2  N1  UNL     1       1.334   1.505  -1.999  1.00  0.00    -0.270 NA
HETATM    3  C2  UNL     1       2.160   0.869  -1.234  1.00  0.00     0.193 C 
HETATM    4  O1  UNL     1       3.453   1.339  -1.025  1.00  0.00    -0.290 OA
HETATM    5  C3  UNL     1       4.414   0.884  -0.128  1.00  0.00     0.086 A 
HETATM    6  C4  UNL     1       5.627   1.468  -0.489  1.00  0.00     0.041 A 
HETATM    7  C5  UNL     1       6.742   1.147   0.286  1.00  0.00     0.045 A 
HETATM    8  C6  UNL     1       6.608   0.274   1.369  1.00  0.00     0.117 A 
HETATM    9  F1  UNL     1       7.718  -0.012   2.096  1.00  0.00    -0.206 F 
HETATM   10  C7  UNL     1       5.382  -0.272   1.678  1.00  0.00     0.054 A 
HETATM   11  C8  UNL     1       4.241   0.019   0.933  1.00  0.00    -0.004 A 
HETATM   12  C9  UNL     1       3.076  -0.687   1.470  1.00  0.00     0.161 C 
HETATM   13  N2  UNL     1       2.062  -1.024   0.520  1.00  0.00    -0.381 N 
HETATM   14  C10 UNL     1       1.596  -0.352  -0.638  1.00  0.00     0.097 C 
HETATM   15  C11 UNL     1       0.553  -0.848  -1.267  1.00  0.00     0.122 C 
HETATM   16  H9  UNL     1       1.557  -1.938   0.698  1.00  0.00     0.160 HD
ENDROOT
BRANCH  15  17
HETATM   17  N3  UNL     1      -0.287  -1.976  -1.060  1.00  0.00    -0.364 N 
HETATM   18  H11 UNL     1       0.316  -2.779  -1.307  1.00  0.00     0.165 HD
BRANCH  17  19
HETATM   19  C12 UNL     1      -1.619  -2.120  -0.632  1.00  0.00     0.032 A 
HETATM   20  C13 UNL     1      -2.141  -3.409  -0.539  1.00  0.00     0.029 A 
HETATM   21  C14 UNL     1      -3.442  -3.503  -0.119  1.00  0.00     0.003 A 
HETATM   22  C15 UNL     1      -4.244  -2.430   0.209  1.00  0.00     0.012 A 
HETATM   23  C16 UNL     1      -3.697  -1.149   0.108  1.00  0.00    -0.024 A 
HETATM   24  C23 UNL     1      -2.374  -1.012  -0.317  1.00  0.00     0.041 A 
BRANCH  23  25
HETATM   25  C17 UNL     1      -4.416   0.079   0.418  1.00  0.00    -0.026 A 
HETATM   26  C18 UNL     1      -3.880   1.266   0.920  1.00  0.00     0.012 A 
HETATM   27  C19 UNL     1      -4.728   2.332   1.152  1.00  0.00     0.001 A 
HETATM   28  C20 UNL     1      -6.081   2.247   0.899  1.00  0.00     0.000 A 
HETATM   29  C21 UNL     1      -6.629   1.065   0.397  1.00  0.00     0.001 A 
HETATM   30  C22 UNL     1      -5.787  -0.022   0.156  1.00  0.00     0.012 A 
ENDBRANCH  23  25
ENDBRANCH  17  19
ENDBRANCH  15  17
TORSDOF 3
