REMARK  8 active torsions:
REMARK  status: ('A' for Active; 'I' for Inactive)
REMARK    1  A    between atoms: O1_2  and  C2_3 
REMARK    2  A    between atoms: C2_3  and  C3_4 
REMARK    3  A    between atoms: C3_4  and  O2_5 
REMARK    4  A    between atoms: O2_5  and  C4_6 
REMARK    5  A    between atoms: C4_6  and  O3_7 
REMARK    6  A    between atoms: O3_7  and  C5_8 
REMARK    7  A    between atoms: C5_8  and  C6_9 
REMARK    8  A    between atoms: C6_9  and  O4_10 
ROOT
HETATM    1  C4  UNL     1       0.990  -0.270  -0.796  1.00  0.00     0.216 C 
HETATM    2  C8  UNL     1       0.585  -1.129  -1.980  1.00  0.00     0.078 C 
HETATM    3  C9  UNL     1      -0.779  -1.192  -1.786  1.00  0.00     0.069 A 
HETATM    4  N1  UNL     1      -1.549  -1.828  -2.472  1.00  0.00    -0.262 N 
HETATM    5  C10 UNL     1      -2.282  -2.508  -3.221  1.00  0.00     0.203 A 
HETATM    6  N2  UNL     1      -2.897  -1.895  -2.324  1.00  0.00    -0.131 NA
HETATM    7  C11 UNL     1      -2.804  -1.078  -1.297  1.00  0.00     0.116 A 
HETATM    8  C12 UNL     1      -1.575  -0.635  -0.971  1.00  0.00     0.045 A 
HETATM    9  C13 UNL     1      -0.514   0.044  -0.408  1.00  0.00     0.029 C 
HETATM   10  C14 UNL     1      -0.910   1.203   0.368  1.00  0.00    -0.049 C 
HETATM   11  C15 UNL     1       0.272   2.096   0.688  1.00  0.00     0.049 C 
HETATM   12  C16 UNL     1      -2.049   1.748   0.794  1.00  0.00     0.007 C 
HETATM   13  C17 UNL     1      -3.374   2.112   1.119  1.00  0.00    -0.002 C 
HETATM   14  C18 UNL     1      -4.279   1.304   0.698  1.00  0.00    -0.007 C 
HETATM   15  C19 UNL     1      -4.948   0.144   0.049  1.00  0.00     0.148 C 
HETATM   16  N3  UNL     1      -3.892  -0.725  -0.505  1.00  0.00    -0.375 N 
HETATM   17  H25 UNL     1      -4.023  -1.659  -0.009  1.00  0.00     0.161 HD
ENDROOT
BRANCH   1  18
HETATM   18  O2  UNL     1       1.467  -1.106   0.061  1.00  0.00    -0.346 OA
BRANCH  18  19
HETATM   19  C3  UNL     1       1.912  -1.837   0.941  1.00  0.00     0.198 C 
BRANCH  19  20
HETATM   20  C2  UNL     1       0.759  -2.166   1.953  1.00  0.00     0.193 C 
BRANCH  20  21
HETATM   21  O1  UNL     1       1.156  -2.973   2.941  1.00  0.00    -0.394 OA
HETATM   22  C1  UNL     1       1.762  -4.169   2.643  1.00  0.00     0.201 C 
ENDBRANCH  20  21
ENDBRANCH  19  20
ENDBRANCH  18  19
ENDBRANCH   1  18
BRANCH   1  23
HETATM   23  O3  UNL     1       1.593   0.876  -1.055  1.00  0.00    -0.346 OA
BRANCH  23  24
HETATM   24  C5  UNL     1       2.813   0.951  -1.556  1.00  0.00     0.198 C 
BRANCH  24  25
HETATM   25  C6  UNL     1       3.217   2.525  -1.470  1.00  0.00     0.193 C 
BRANCH  25  26
HETATM   26  O4  UNL     1       3.213   2.895  -0.274  1.00  0.00    -0.394 OA
HETATM   27  C7  UNL     1       3.262   3.521   0.803  1.00  0.00     0.201 C 
ENDBRANCH  25  26
ENDBRANCH  24  25
ENDBRANCH  23  24
ENDBRANCH   1  23
TORSDOF 8
