REMARK  8 active torsions:
REMARK  status: ('A' for Active; 'I' for Inactive)
REMARK    1  A    between atoms: O1_2  and  C2_3 
REMARK    2  A    between atoms: C2_3  and  C3_4 
REMARK    3  A    between atoms: C3_4  and  O2_5 
REMARK    4  A    between atoms: O2_5  and  C4_6 
REMARK    5  A    between atoms: C9_11  and  O3_12 
REMARK    6  A    between atoms: O3_12  and  C10_13 
REMARK    7  A    between atoms: C10_13  and  C11_14 
REMARK    8  A    between atoms: C11_14  and  O4_15 
ROOT
HETATM    1  C4  UNL     1       1.768  -0.381   0.639  1.00  0.00     0.104 A 
HETATM    2  C5  UNL     1       0.953  -1.009   1.558  1.00  0.00     0.073 A 
HETATM    3  C6  UNL     1      -0.421  -0.926   1.460  1.00  0.00     0.085 A 
HETATM    4  C7  UNL     1      -1.073  -0.214   0.446  1.00  0.00     0.063 A 
HETATM    5  C8  UNL     1      -0.189   0.381  -0.429  1.00  0.00     0.071 A 
HETATM    6  C9  UNL     1       1.188   0.357  -0.417  1.00  0.00     0.104 A 
HETATM    7  N1  UNL     1      -2.398   0.154  -0.017  1.00  0.00    -0.364 N 
HETATM    8  C13 UNL     1      -1.942   1.314  -0.684  1.00  0.00     0.151 C 
HETATM    9  C14 UNL     1      -3.103   2.325  -0.470  1.00  0.00    -0.007 C 
HETATM   10  C15 UNL     1      -4.410   2.202  -0.681  1.00  0.00    -0.002 C 
HETATM   11  C16 UNL     1      -5.021   0.952  -1.201  1.00  0.00     0.004 C 
HETATM   12  C17 UNL     1      -4.671  -0.285  -0.806  1.00  0.00    -0.058 C 
HETATM   13  C18 UNL     1      -5.402  -1.394  -1.451  1.00  0.00     0.046 C 
HETATM   14  C19 UNL     1      -3.623  -0.543   0.234  1.00  0.00     0.137 C 
HETATM   15  C20 UNL     1      -3.592  -1.932   0.628  1.00  0.00     0.004 C 
HETATM   16  C21 UNL     1      -3.065  -2.817   1.462  1.00  0.00     0.017 C 
HETATM   17  C22 UNL     1      -2.067  -2.492   2.519  1.00  0.00     0.117 C 
HETATM   18  N2  UNL     1      -0.987  -1.723   2.531  1.00  0.00    -0.259 NA
ENDROOT
BRANCH   1  19
HETATM   19  O2  UNL     1       3.106  -0.463   0.733  1.00  0.00    -0.346 OA
BRANCH  19  20
HETATM   20  C3  UNL     1       3.992  -1.083   1.572  1.00  0.00     0.201 C 
BRANCH  20  21
HETATM   21  C2  UNL     1       3.947  -2.593   1.609  1.00  0.00     0.193 C 
BRANCH  21  22
HETATM   22  O1  UNL     1       4.879  -3.099   2.498  1.00  0.00    -0.394 OA
HETATM   23  C1  UNL     1       6.172  -2.762   2.192  1.00  0.00     0.201 C 
ENDBRANCH  21  22
ENDBRANCH  20  21
ENDBRANCH  19  20
ENDBRANCH   1  19
BRANCH   6  24
HETATM   24  O3  UNL     1       2.100   0.916  -1.234  1.00  0.00    -0.346 OA
BRANCH  24  25
HETATM   25  C10 UNL     1       1.926   1.722  -2.350  1.00  0.00     0.201 C 
BRANCH  25  26
HETATM   26  C11 UNL     1       1.256   3.049  -2.078  1.00  0.00     0.193 C 
BRANCH  26  27
HETATM   27  O4  UNL     1       1.996   3.780  -1.175  1.00  0.00    -0.394 OA
HETATM   28  C12 UNL     1       3.271   4.085  -1.565  1.00  0.00     0.201 C 
ENDBRANCH  26  27
ENDBRANCH  25  26
ENDBRANCH  24  25
ENDBRANCH   6  24
TORSDOF 8
