REMARK  9 active torsions:
REMARK  status: ('A' for Active; 'I' for Inactive)
REMARK    1  A    between atoms: C3_3  and  N1_4 
REMARK    2  A    between atoms: N1_4  and  C4_5 
REMARK    3  A    between atoms: C12_15  and  C13_16 
REMARK    4  A    between atoms: C13_16  and  C14_17 
REMARK    5  A    between atoms: C15_18  and  N3_19 
REMARK       I    between atoms: N3_19  and  C16_20 
REMARK    6  A    between atoms: C16_20  and  C17_22 
REMARK    7  A    between atoms: C17_22  and  C18_23 
REMARK    8  A    between atoms: C18_23  and  C19_24 
REMARK    9  A    between atoms: C19_24  and  N4_25 
ROOT
HETATM    1  C1  UNL     1      -2.774  -1.509  -0.600  1.00  0.00     0.048 C 
HETATM    2  C2  UNL     1      -2.775  -0.240  -0.335  1.00  0.00    -0.002 A 
HETATM    3  C3  UNL     1      -3.953   0.372   0.007  1.00  0.00     0.042 A 
HETATM    4  C10 UNL     1      -3.899   1.717   0.274  1.00  0.00     0.049 A 
HETATM    5  C11 UNL     1      -2.687   2.357   0.186  1.00  0.00     0.119 A 
HETATM    6  N2  UNL     1      -1.564   1.711  -0.153  1.00  0.00    -0.261 NA
HETATM    7  C12 UNL     1      -1.558   0.384  -0.429  1.00  0.00     0.065 A 
ENDROOT
BRANCH   7   8
HETATM    8  C13 UNL     1      -0.405  -0.164  -0.751  1.00  0.00     0.033 C 
BRANCH   8   9
HETATM    9  C14 UNL     1      -0.190  -1.562  -1.077  1.00  0.00     0.019 C 
HETATM   10  C15 UNL     1       1.031  -1.960  -1.384  1.00  0.00     0.091 C 
BRANCH  10  11
HETATM   11  N3  UNL     1       2.031  -0.948  -1.362  1.00  0.00    -0.337 N 
HETATM   12  C16 UNL     1       3.164  -0.956  -0.540  1.00  0.00     0.221 C 
HETATM   13  O1  UNL     1       3.542  -1.804   0.318  1.00  0.00    -0.273 OA
HETATM   14  H13 UNL     1       2.027  -0.079  -1.967  1.00  0.00     0.168 HD
BRANCH  12  15
HETATM   15  C17 UNL     1       4.256   0.035  -0.437  1.00  0.00     0.105 C 
BRANCH  15  16
HETATM   16  C18 UNL     1       5.245  -0.429   0.595  1.00  0.00     0.039 C 
BRANCH  16  17
HETATM   17  C19 UNL     1       6.372   0.573   0.716  1.00  0.00     0.271 C 
BRANCH  17  18
HETATM   18  N4  UNL     1       7.041   0.702  -0.566  1.00  0.00     0.080 N 
HETATM   19  C20 UNL     1       8.124   1.653  -0.483  1.00  0.00     0.309 C 
HETATM   20  C21 UNL     1       7.594  -0.565  -1.007  1.00  0.00     0.309 C 
ENDBRANCH  17  18
ENDBRANCH  16  17
ENDBRANCH  15  16
ENDBRANCH  12  15
ENDBRANCH  10  11
ENDBRANCH   8   9
ENDBRANCH   7   8
BRANCH   3  21
HETATM   21  N1  UNL     1      -5.119  -0.423   0.072  1.00  0.00    -0.356 N 
HETATM   22  H3  UNL     1      -5.079  -1.424  -0.184  1.00  0.00     0.166 HD
BRANCH  21  23
HETATM   23  C4  UNL     1      -6.443  -0.120   0.447  1.00  0.00     0.033 A 
HETATM   24  C5  UNL     1      -7.555  -0.646  -0.209  1.00  0.00     0.029 A 
HETATM   25  C6  UNL     1      -8.869  -0.411   0.111  1.00  0.00     0.004 A 
HETATM   26  C7  UNL     1      -9.111   0.423   1.180  1.00  0.00     0.019 A 
HETATM   27  C8  UNL     1      -8.091   0.988   1.890  1.00  0.00     0.013 A 
HETATM   28 BR1  UNL     1      -8.481   2.134   3.361  1.00  0.00    -0.051 Br
HETATM   29  C9  UNL     1      -6.800   0.697   1.499  1.00  0.00     0.048 A 
ENDBRANCH  21  23
ENDBRANCH   3  21
TORSDOF 9
