REMARK  9 active torsions:
REMARK  status: ('A' for Active; 'I' for Inactive)
REMARK    1  A    between atoms: N1_2  and  C3_4 
REMARK    2  A    between atoms: C3_4  and  C4_5 
REMARK    3  A    between atoms: C4_5  and  C5_6 
REMARK    4  A    between atoms: C5_6  and  C6_7 
REMARK       I    between atoms: C6_7  and  N2_9 
REMARK    5  A    between atoms: N2_9  and  C7_10 
REMARK    6  A    between atoms: C7_10  and  C8_11 
REMARK    7  A    between atoms: C10_13  and  N3_14 
REMARK    8  A    between atoms: N3_14  and  C11_15 
REMARK    9  A    between atoms: C11_15  and  C12_16 
ROOT
HETATM    1  C8  UNL     1       0.411  -0.702  -0.198  1.00  0.00    -0.044 A 
HETATM    2  C9  UNL     1       1.433  -1.214   0.476  1.00  0.00     0.023 A 
HETATM    3  C10 UNL     1       2.579  -0.750   1.082  1.00  0.00     0.042 A 
HETATM    4  C17 UNL     1       3.477  -1.592   1.699  1.00  0.00     0.049 A 
HETATM    5  C18 UNL     1       3.304  -2.952   1.759  1.00  0.00     0.119 A 
HETATM    6  N4  UNL     1       2.175  -3.437   1.167  1.00  0.00    -0.261 NA
HETATM    7  C19 UNL     1       1.330  -2.581   0.578  1.00  0.00     0.065 A 
HETATM    8  C20 UNL     1       0.245  -3.031  -0.009  1.00  0.00     0.010 A 
HETATM    9  C21 UNL     1      -0.462  -1.819  -0.562  1.00  0.00     0.066 A 
ENDROOT
BRANCH   1  10
HETATM   10  C7  UNL     1       0.211   0.704  -0.524  1.00  0.00     0.158 C 
BRANCH  10  11
HETATM   11  N2  UNL     1      -1.078   1.258  -0.124  1.00  0.00    -0.357 N 
HETATM   12  C6  UNL     1      -2.359   0.926  -0.606  1.00  0.00     0.217 C 
HETATM   13  O1  UNL     1      -2.355   0.053  -1.506  1.00  0.00    -0.274 OA
HETATM   14  H13 UNL     1      -1.085   2.014   0.633  1.00  0.00     0.162 HD
BRANCH  12  15
HETATM   15  C5  UNL     1      -3.561   1.581  -0.060  1.00  0.00     0.104 C 
BRANCH  15  16
HETATM   16  C4  UNL     1      -4.850   1.083  -0.616  1.00  0.00     0.039 C 
BRANCH  16  17
HETATM   17  C3  UNL     1      -5.041  -0.365  -0.332  1.00  0.00     0.271 C 
BRANCH  17  18
HETATM   18  N1  UNL     1      -6.287  -0.892  -0.850  1.00  0.00     0.080 N 
HETATM   19  C1  UNL     1      -6.365  -0.948  -2.274  1.00  0.00     0.309 C 
HETATM   20  C2  UNL     1      -7.460  -0.296  -0.292  1.00  0.00     0.309 C 
ENDBRANCH  17  18
ENDBRANCH  16  17
ENDBRANCH  15  16
ENDBRANCH  12  15
ENDBRANCH  10  11
ENDBRANCH   1  10
BRANCH   3  21
HETATM   21  N3  UNL     1       2.897   0.630   1.161  1.00  0.00    -0.386 N 
HETATM   22  H16 UNL     1       2.573   1.570   0.931  1.00  0.00     0.160 HD
BRANCH  21  23
HETATM   23  C11 UNL     1       4.107   1.124   1.765  1.00  0.00     0.142 C 
BRANCH  23  24
HETATM   24  C12 UNL     1       5.281   0.844   0.900  1.00  0.00    -0.103 C 
HETATM   25  C13 UNL     1       5.515   1.814  -0.065  1.00  0.00    -0.008 C 
HETATM   26  C14 UNL     1       6.681   2.278  -0.673  1.00  0.00    -0.001 C 
HETATM   27  C15 UNL     1       7.894   1.732  -0.316  1.00  0.00     0.002 C 
HETATM   28  C16 UNL     1       8.221   0.744   0.589  1.00  0.00    -0.056 C 
HETATM   29 BR1  UNL     1       9.920   0.738   1.447  1.00  0.00    -0.069 Br
HETATM   30  B1  UNL     1       6.620  -0.376   0.633  1.00  0.00     0.231 B 
ENDBRANCH  23  24
ENDBRANCH  21  23
ENDBRANCH   3  21
TORSDOF 9
