REMARK  9 active torsions:
REMARK  status: ('A' for Active; 'I' for Inactive)
REMARK    1  A    between atoms: C2_2  and  C3_4 
REMARK    2  A    between atoms: C3_4  and  C4_5 
REMARK    3  A    between atoms: C11_13  and  C12_14 
REMARK    4  A    between atoms: C12_14  and  C13_15 
REMARK    5  A    between atoms: C13_15  and  N2_16 
REMARK       I    between atoms: N2_16  and  C14_17 
REMARK    6  A    between atoms: C14_17  and  C15_19 
REMARK    7  A    between atoms: C15_19  and  C16_20 
REMARK    8  A    between atoms: C16_20  and  C17_21 
REMARK    9  A    between atoms: C17_21  and  N3_22 
ROOT
HETATM    1  C4  UNL     1      -3.836   1.755   0.134  1.00  0.00     0.049 C 
HETATM    2  C5  UNL     1      -2.679   2.832   0.324  1.00  0.00     0.019 C 
HETATM    3  C6  UNL     1      -2.704   2.477  -1.283  1.00  0.00     0.041 A 
HETATM    4  C7  UNL     1      -2.371   1.242  -2.047  1.00  0.00     0.182 A 
HETATM    5  N1  UNL     1      -3.028   0.230  -2.514  1.00  0.00    -0.025 N 
HETATM    6  C8  UNL     1      -4.131  -0.430  -2.611  1.00  0.00     0.260 A 
HETATM    7  C9  UNL     1      -4.129   0.729  -1.855  1.00  0.00     0.264 A 
HETATM    8  C10 UNL     1      -3.068   1.598  -1.602  1.00  0.00     0.180 A 
HETATM    9  C11 UNL     1      -1.553   2.120  -1.722  1.00  0.00     0.045 A 
ENDROOT
BRANCH   9  10
HETATM   10  C12 UNL     1      -0.442   1.398  -2.265  1.00  0.00     0.024 C 
BRANCH  10  11
HETATM   11  C13 UNL     1       0.711   2.213  -2.022  1.00  0.00     0.128 C 
BRANCH  11  12
HETATM   12  N2  UNL     1       1.800   1.513  -1.368  1.00  0.00    -0.361 N 
HETATM   13  C14 UNL     1       1.746   0.917  -0.080  1.00  0.00     0.217 C 
HETATM   14  O1  UNL     1       0.621   1.071   0.455  1.00  0.00    -0.274 OA
HETATM   15  H14 UNL     1       2.705   1.431  -1.891  1.00  0.00     0.162 HD
BRANCH  13  16
HETATM   16  C15 UNL     1       2.978   0.228   0.422  1.00  0.00     0.104 C 
BRANCH  16  17
HETATM   17  C16 UNL     1       2.710  -0.500   1.713  1.00  0.00     0.039 C 
BRANCH  17  18
HETATM   18  C17 UNL     1       3.956  -1.180   2.232  1.00  0.00     0.271 C 
BRANCH  18  19
HETATM   19  N3  UNL     1       4.407  -2.109   1.208  1.00  0.00     0.080 N 
HETATM   20  C18 UNL     1       5.632  -2.800   1.600  1.00  0.00     0.309 C 
HETATM   21  C19 UNL     1       3.374  -3.095   0.893  1.00  0.00     0.309 C 
ENDBRANCH  18  19
ENDBRANCH  17  18
ENDBRANCH  16  17
ENDBRANCH  13  16
ENDBRANCH  11  12
ENDBRANCH  10  11
ENDBRANCH   9  10
BRANCH   1  22
HETATM   22  C3  UNL     1      -3.713   0.569   0.711  1.00  0.00    -0.005 C 
BRANCH  22  23
HETATM   23  C2  UNL     1      -3.303  -0.630   1.076  1.00  0.00    -0.019 C 
HETATM   24  C1  UNL     1      -3.916  -1.593   2.081  1.00  0.00     0.056 C 
HETATM   25 BR1  UNL     1      -1.722  -1.382   0.241  1.00  0.00    -0.057 Br
ENDBRANCH  22  23
ENDBRANCH   1  22
TORSDOF 9
