REMARK  4 active torsions:
REMARK  status: ('A' for Active; 'I' for Inactive)
REMARK    1  A    between atoms: C6_9  and  N3_10 
REMARK    2  A    between atoms: N3_10  and  C7_11 
REMARK    3  A    between atoms: C11_15  and  C12_16 
REMARK    4  A    between atoms: C22_27  and  O2_28 
ROOT
HETATM    1  C1  UNL     1       6.909   1.425  -1.122  1.00  0.00     0.039 C 
HETATM    2  C2  UNL     1       6.021   0.267  -1.023  1.00  0.00     0.007 C 
HETATM    3  C3  UNL     1       5.017  -0.265  -0.372  1.00  0.00     0.083 C 
HETATM    4  O1  UNL     1       4.421  -1.524  -0.646  1.00  0.00    -0.290 OA
HETATM    5  C4  UNL     1       3.026  -1.754  -0.637  1.00  0.00     0.202 A 
HETATM    6  N1  UNL     1       2.757  -2.966  -1.158  1.00  0.00    -0.215 NA
HETATM    7  C5  UNL     1       1.458  -3.392  -1.244  1.00  0.00     0.238 A 
HETATM    8  N2  UNL     1       0.500  -2.579  -0.801  1.00  0.00    -0.222 NA
HETATM    9  C6  UNL     1       0.661  -1.369  -0.270  1.00  0.00     0.160 A 
HETATM   10  C19 UNL     1       1.974  -0.973  -0.201  1.00  0.00     0.129 A 
HETATM   11  N4  UNL     1       2.134   0.331   0.344  1.00  0.00    -0.379 N 
HETATM   12  C20 UNL     1       3.154   0.988   1.116  1.00  0.00     0.163 C 
HETATM   13  C21 UNL     1       4.518   0.584   0.731  1.00  0.00     0.018 C 
HETATM   14  C22 UNL     1       5.428   1.080   1.548  1.00  0.00     0.193 C 
HETATM   15  H16 UNL     1       1.292   0.937   0.101  1.00  0.00     0.160 HD
ENDROOT
BRANCH   9  16
HETATM   16  N3  UNL     1      -0.383  -0.565   0.183  1.00  0.00    -0.339 N 
HETATM   17  H6  UNL     1      -0.387   0.366   0.632  1.00  0.00     0.167 HD
BRANCH  16  18
HETATM   18  C7  UNL     1      -1.760  -0.891   0.139  1.00  0.00     0.034 A 
HETATM   19  C8  UNL     1      -2.131  -2.216   0.131  1.00  0.00     0.029 A 
HETATM   20  C9  UNL     1      -3.439  -2.623   0.067  1.00  0.00     0.003 A 
HETATM   21  C10 UNL     1      -4.482  -1.709   0.006  1.00  0.00     0.012 A 
HETATM   22  C11 UNL     1      -4.167  -0.369   0.011  1.00  0.00    -0.024 A 
HETATM   23  C18 UNL     1      -2.840  -0.016   0.077  1.00  0.00     0.041 A 
BRANCH  22  24
HETATM   24  C12 UNL     1      -5.181   0.699  -0.051  1.00  0.00    -0.026 A 
HETATM   25  C13 UNL     1      -5.154   1.965   0.491  1.00  0.00     0.012 A 
HETATM   26  C14 UNL     1      -6.228   2.799   0.299  1.00  0.00     0.001 A 
HETATM   27  C15 UNL     1      -7.346   2.448  -0.411  1.00  0.00     0.000 A 
HETATM   28  C16 UNL     1      -7.388   1.174  -0.964  1.00  0.00     0.001 A 
HETATM   29  C17 UNL     1      -6.310   0.316  -0.780  1.00  0.00     0.012 A 
ENDBRANCH  22  24
ENDBRANCH  16  18
ENDBRANCH   9  16
BRANCH  14  30
HETATM   30  O2  UNL     1       6.786   1.095   1.768  1.00  0.00    -0.167 OA
HETATM   31  F1  UNL     1       7.577  -0.006   1.660  1.00  0.00    -0.043 F 
ENDBRANCH  14  30
TORSDOF 4
