REMARK  8 active torsions:
REMARK  status: ('A' for Active; 'I' for Inactive)
REMARK    1  A    between atoms: N1_2  and  C3_4 
REMARK    2  A    between atoms: C3_4  and  C4_5 
REMARK    3  A    between atoms: C4_5  and  C5_6 
REMARK    4  A    between atoms: C5_6  and  C6_7 
REMARK       I    between atoms: C6_7  and  N2_9 
REMARK    5  A    between atoms: N2_9  and  C7_10 
REMARK    6  A    between atoms: C7_10  and  C8_11 
REMARK    7  A    between atoms: C7_10  and  C11_14 
REMARK    8  A    between atoms: C16_20  and  N4_21 
ROOT
HETATM    1  C11 UNL     1      -1.382   0.540  -0.827  1.00  0.00     0.013 C 
HETATM    2  C12 UNL     1      -1.677  -0.744  -0.972  1.00  0.00    -0.013 A 
HETATM    3  C13 UNL     1      -0.777  -1.602  -1.785  1.00  0.00     0.189 A 
HETATM    4  N3  UNL     1      -1.229  -2.970  -1.825  1.00  0.00    -0.297 NA
HETATM    5  C14 UNL     1      -2.285  -3.353  -1.220  1.00  0.00     0.113 A 
HETATM    6  C15 UNL     1      -3.187  -2.550  -0.422  1.00  0.00     0.048 A 
HETATM    7  C16 UNL     1      -2.869  -1.261  -0.312  1.00  0.00     0.040 A 
ENDROOT
BRANCH   1   8
HETATM    8  C7  UNL     1      -0.156   1.070  -1.487  1.00  0.00     0.131 C 
BRANCH   8   9
HETATM    9  N2  UNL     1       0.851   1.405  -0.464  1.00  0.00    -0.350 N 
HETATM   10  C6  UNL     1       2.068   0.683  -0.440  1.00  0.00     0.218 C 
HETATM   11  O1  UNL     1       2.642  -0.246  -1.062  1.00  0.00    -0.274 OA
HETATM   12  H13 UNL     1       0.717   2.142   0.242  1.00  0.00     0.163 HD
BRANCH  10  13
HETATM   13  C5  UNL     1       3.131   0.957   0.558  1.00  0.00     0.104 C 
BRANCH  13  14
HETATM   14  C4  UNL     1       4.285  -0.008   0.434  1.00  0.00     0.039 C 
BRANCH  14  15
HETATM   15  C3  UNL     1       5.316   0.332   1.472  1.00  0.00     0.271 C 
BRANCH  15  16
HETATM   16  N1  UNL     1       6.460  -0.539   1.447  1.00  0.00     0.080 N 
HETATM   17  C1  UNL     1       6.155  -1.885   1.862  1.00  0.00     0.309 C 
HETATM   18  C2  UNL     1       7.205  -0.480   0.219  1.00  0.00     0.309 C 
ENDBRANCH  15  16
ENDBRANCH  14  15
ENDBRANCH  13  14
ENDBRANCH  10  13
ENDBRANCH   8   9
BRANCH   8  19
HETATM   19  C8  UNL     1      -0.437   2.329  -2.212  1.00  0.00    -0.002 C 
HETATM   20  C9  UNL     1      -0.829   3.347  -1.422  1.00  0.00    -0.033 C 
HETATM   21  C10 UNL     1      -1.174   4.728  -1.906  1.00  0.00     0.036 C 
ENDBRANCH   8  19
ENDBRANCH   1   8
BRANCH   7  22
HETATM   22  N4  UNL     1      -3.761  -0.461   0.483  1.00  0.00    -0.373 N 
HETATM   23  C17 UNL     1      -3.455   0.129   1.779  1.00  0.00     0.150 C 
HETATM   24  C18 UNL     1      -4.465  -0.256   2.788  1.00  0.00    -0.006 C 
HETATM   25  C19 UNL     1      -5.591  -0.976   2.756  1.00  0.00     0.016 C 
HETATM   26  C20 UNL     1      -6.137  -1.621   1.574  1.00  0.00     0.008 C 
HETATM   27 BR1  UNL     1      -7.346  -3.048   1.978  1.00  0.00    -0.051 Br
HETATM   28  C21 UNL     1      -5.962  -1.416   0.261  1.00  0.00     0.012 C 
HETATM   29  C22 UNL     1      -5.040  -0.328  -0.213  1.00  0.00     0.152 C 
ENDBRANCH   7  22
TORSDOF 8
