REMARK  7 active torsions:
REMARK  status: ('A' for Active; 'I' for Inactive)
REMARK    1  A    between atoms: N1_2  and  C2_3 
REMARK    2  A    between atoms: C5_6  and  N2_7 
REMARK       I    between atoms: N2_7  and  C6_8 
REMARK    3  A    between atoms: C6_8  and  C7_10 
REMARK    4  A    between atoms: C10_13  and  C11_14 
REMARK    5  A    between atoms: C11_14  and  C12_16 
REMARK    6  A    between atoms: C12_16  and  N4_17 
REMARK    7  A    between atoms: N4_17  and  C13_18 
ROOT
HETATM    1  C2  UNL     1      -0.148   1.178  -0.065  1.00  0.00     0.068 A 
HETATM    2  C3  UNL     1      -1.089   1.806  -0.852  1.00  0.00     0.035 A 
HETATM    3  C4  UNL     1      -2.413   1.466  -0.705  1.00  0.00     0.032 A 
HETATM    4  C5  UNL     1      -2.748   0.508   0.227  1.00  0.00     0.035 A 
HETATM    5  C9  UNL     1      -1.753  -0.078   0.980  1.00  0.00     0.045 A 
HETATM    6  C10 UNL     1      -0.413   0.216   0.882  1.00  0.00     0.020 A 
ENDROOT
BRANCH   6   7
HETATM    7  C11 UNL     1       0.601  -0.425   1.707  1.00  0.00     0.056 C 
HETATM    8  N3  UNL     1       0.248  -1.305   2.574  1.00  0.00    -0.302 NA
HETATM    9  H12 UNL     1      -0.706  -1.632   2.772  1.00  0.00     0.186 HD
BRANCH   7  10
HETATM   10  C12 UNL     1       2.030  -0.137   1.599  1.00  0.00     0.179 C 
BRANCH  10  11
HETATM   11  N4  UNL     1       2.540  -0.599   0.297  1.00  0.00    -0.384 N 
HETATM   12  H15 UNL     1       1.948  -1.071  -0.444  1.00  0.00     0.160 HD
BRANCH  11  13
HETATM   13  C13 UNL     1       3.920  -0.427  -0.048  1.00  0.00     0.029 A 
HETATM   14  C14 UNL     1       4.461  -0.837  -1.250  1.00  0.00     0.029 A 
HETATM   15  C15 UNL     1       5.780  -0.675  -1.585  1.00  0.00     0.004 A 
HETATM   16  C16 UNL     1       6.641  -0.068  -0.684  1.00  0.00     0.019 A 
HETATM   17  C17 UNL     1       6.115   0.348   0.522  1.00  0.00     0.013 A 
HETATM   18 BR1  UNL     1       7.331   1.173   1.722  1.00  0.00    -0.051 Br
HETATM   19  C18 UNL     1       4.781   0.172   0.835  1.00  0.00     0.048 A 
ENDBRANCH  11  13
ENDBRANCH  10  11
ENDBRANCH   7  10
ENDBRANCH   6   7
BRANCH   1  20
HETATM   20  N1  UNL     1       1.181   1.616  -0.298  1.00  0.00    -0.271 NA
HETATM   21  C1  UNL     1       1.434   2.895  -0.299  1.00  0.00     0.149 C 
ENDBRANCH   1  20
BRANCH   4  22
HETATM   22  N2  UNL     1      -4.126   0.183   0.351  1.00  0.00    -0.327 N 
HETATM   23  C6  UNL     1      -4.684  -0.854  -0.439  1.00  0.00     0.221 C 
HETATM   24  O1  UNL     1      -3.850  -1.416  -1.219  1.00  0.00    -0.273 OA
HETATM   25  H5  UNL     1      -4.617   0.772   1.051  1.00  0.00     0.169 HD
BRANCH  23  26
HETATM   26  C7  UNL     1      -6.113  -1.114  -0.238  1.00  0.00     0.098 C 
HETATM   27  C8  UNL     1      -6.688  -2.204  -1.072  1.00  0.00     0.014 C 
ENDBRANCH  23  26
ENDBRANCH   4  22
TORSDOF 7
