REMARK  6 active torsions:
REMARK  status: ('A' for Active; 'I' for Inactive)
REMARK    1  A    between atoms: C2_2  and  C3_3 
REMARK    2  A    between atoms: C4_4  and  C5_5 
REMARK       I    between atoms: C5_5  and  N1_7 
REMARK    3  A    between atoms: N1_7  and  C6_8 
REMARK    4  A    between atoms: C6_8  and  C8_10 
REMARK    5  A    between atoms: C8_10  and  C9_11 
REMARK    6  A    between atoms: C11_16  and  C12_17 
ROOT
HETATM    1  C9  UNL     1      -2.034  -0.262   0.614  1.00  0.00    -0.047 A 
HETATM    2  B1  UNL     1      -1.075  -1.018   1.619  1.00  0.00     0.335 B 
HETATM    3  N2  UNL     1      -1.822  -1.984   2.568  1.00  0.00    -0.348 NA
HETATM    4  C10 UNL     1      -3.098  -2.002   2.372  1.00  0.00     0.209 A 
HETATM    5  N3  UNL     1      -3.908  -1.303   1.457  1.00  0.00    -0.244 NA
HETATM    6  C11 UNL     1      -3.467  -0.461   0.593  1.00  0.00     0.065 A 
HETATM    7  H14 UNL     1      -0.026  -1.369   1.148  1.00  0.00     0.007 HD
ENDROOT
BRANCH   1   8
HETATM    8  C8  UNL     1      -1.438   0.569  -0.186  1.00  0.00    -0.003 C 
BRANCH   8   9
HETATM    9  C6  UNL     1      -0.136   1.115  -0.543  1.00  0.00     0.103 C 
HETATM   10  C7  UNL     1      -0.121   2.638  -0.594  1.00  0.00     0.036 C 
BRANCH   9  11
HETATM   11  N1  UNL     1       0.931   0.667   0.367  1.00  0.00    -0.350 N 
HETATM   12  C5  UNL     1       2.125   0.016  -0.117  1.00  0.00     0.241 C 
HETATM   13  O1  UNL     1       2.194  -0.145  -1.360  1.00  0.00    -0.269 OA
HETATM   14  H8  UNL     1       0.756   0.863   1.382  1.00  0.00     0.163 HD
BRANCH  12  15
HETATM   15  C4  UNL     1       3.144  -0.404   0.832  1.00  0.00     0.070 C 
HETATM   16  C3  UNL     1       4.251  -0.998   0.494  1.00  0.00    -0.022 C 
BRANCH  16  17
HETATM   17  C2  UNL     1       4.882  -1.443  -0.757  1.00  0.00     0.023 C 
HETATM   18  C1  UNL     1       6.227  -0.758  -0.963  1.00  0.00     0.009 C 
ENDBRANCH  16  17
ENDBRANCH  12  15
ENDBRANCH   9  11
ENDBRANCH   8   9
ENDBRANCH   1   8
BRANCH   6  19
HETATM   19  C12 UNL     1      -4.379   0.209  -0.307  1.00  0.00    -0.005 A 
HETATM   20  C13 UNL     1      -4.467   1.064  -1.273  1.00  0.00     0.033 A 
HETATM   21  C14 UNL     1      -5.908   0.960  -1.398  1.00  0.00     0.012 A 
HETATM   22 BR1  UNL     1      -7.345   1.672  -2.432  1.00  0.00    -0.051 Br
HETATM   23  C15 UNL     1      -5.849   0.086  -0.414  1.00  0.00     0.033 A 
ENDBRANCH   6  19
TORSDOF 6
