REMARK  5 active torsions:
REMARK  status: ('A' for Active; 'I' for Inactive)
REMARK    1  A    between atoms: C2_2  and  C3_3 
REMARK       I    between atoms: C3_3  and  N1_5 
REMARK    2  A    between atoms: N1_5  and  C4_6 
REMARK    3  A    between atoms: C4_6  and  C5_7 
REMARK    4  A    between atoms: C9_13  and  N4_14 
REMARK    5  A    between atoms: N4_14  and  C10_15 
ROOT
HETATM    1  C5  UNL     1       0.735  -0.955   0.508  1.00  0.00     0.005 C 
HETATM    2  C6  UNL     1      -0.254  -1.561  -0.126  1.00  0.00     0.005 A 
HETATM    3  C7  UNL     1      -0.036  -2.994  -0.436  1.00  0.00     0.192 A 
HETATM    4  N2  UNL     1      -1.209  -3.496  -1.125  1.00  0.00    -0.278 NA
HETATM    5  C8  UNL     1      -2.251  -2.798  -1.409  1.00  0.00     0.229 A 
HETATM    6  N3  UNL     1      -2.395  -1.423  -1.081  1.00  0.00    -0.224 NA
HETATM    7  C9  UNL     1      -1.451  -0.804  -0.465  1.00  0.00     0.137 A 
ENDROOT
BRANCH   1   8
HETATM    8  C4  UNL     1       1.979  -1.667   0.881  1.00  0.00     0.150 C 
BRANCH   8   9
HETATM    9  N1  UNL     1       3.169  -1.067   0.265  1.00  0.00    -0.358 N 
HETATM   10  C3  UNL     1       3.545   0.274   0.505  1.00  0.00     0.217 C 
HETATM   11  O1  UNL     1       2.894   1.043   1.256  1.00  0.00    -0.274 OA
HETATM   12  H6  UNL     1       3.780  -1.639  -0.383  1.00  0.00     0.162 HD
BRANCH  10  13
HETATM   13  C2  UNL     1       4.779   0.811  -0.165  1.00  0.00     0.098 C 
HETATM   14  C1  UNL     1       4.985   2.256   0.235  1.00  0.00     0.014 C 
ENDBRANCH  10  13
ENDBRANCH   8   9
ENDBRANCH   1   8
BRANCH   7  15
HETATM   15  N4  UNL     1      -1.614   0.572  -0.145  1.00  0.00    -0.341 N 
HETATM   16  H13 UNL     1      -0.763   1.113   0.060  1.00  0.00     0.167 HD
BRANCH  15  17
HETATM   17  C10 UNL     1      -2.913   1.154  -0.115  1.00  0.00     0.031 A 
HETATM   18  C11 UNL     1      -3.412   2.049   0.735  1.00  0.00     0.008 A 
HETATM   19  C12 UNL     1      -4.823   2.426   0.449  1.00  0.00     0.075 A 
HETATM   20  C13 UNL     1      -5.078   1.565  -0.762  1.00  0.00    -0.006 A 
HETATM   21 BR1  UNL     1      -6.749   1.562  -1.661  1.00  0.00    -0.055 Br
HETATM   22  C14 UNL     1      -3.988   0.860  -1.057  1.00  0.00     0.044 A 
ENDBRANCH  15  17
ENDBRANCH   7  15
TORSDOF 5
