REMARK  2 active torsions:
REMARK  status: ('A' for Active; 'I' for Inactive)
REMARK    1  A    between atoms: C2_2  and  C3_3 
REMARK    2  A    between atoms: C3_3  and  C4_5 
ROOT
HETATM    1  C4  UNL     1      -1.467  -0.087   0.284  1.00  0.00     0.007 C 
HETATM    2  C5  UNL     1      -0.840  -1.269   0.158  1.00  0.00    -0.007 C 
HETATM    3  C6  UNL     1       0.159  -2.309  -0.044  1.00  0.00     0.069 C 
HETATM    4  C7  UNL     1       1.559  -1.891  -0.126  1.00  0.00    -0.028 A 
HETATM    5  C8  UNL     1       2.442  -2.910   0.234  1.00  0.00     0.011 A 
HETATM    6  C9  UNL     1       3.815  -2.819   0.257  1.00  0.00     0.020 A 
HETATM    7  C10 UNL     1       4.453  -1.657  -0.091  1.00  0.00     0.013 A 
HETATM    8 BR1  UNL     1       6.348  -1.522  -0.062  1.00  0.00    -0.051 Br
HETATM    9  C11 UNL     1       3.575  -0.628  -0.455  1.00  0.00     0.049 A 
HETATM   10  C12 UNL     1       2.204  -0.747  -0.468  1.00  0.00     0.040 A 
HETATM   11  N1  UNL     1       1.660   0.489  -0.876  1.00  0.00    -0.355 N 
HETATM   12  C13 UNL     1       1.112   1.769  -0.680  1.00  0.00     0.042 A 
HETATM   13  C14 UNL     1       2.074   2.652  -1.004  1.00  0.00     0.049 A 
HETATM   14  C15 UNL     1       1.848   4.090  -0.927  1.00  0.00     0.113 A 
HETATM   15  N2  UNL     1       0.691   4.451  -0.546  1.00  0.00    -0.297 NA
HETATM   16  C16 UNL     1      -0.428   3.666  -0.184  1.00  0.00     0.189 A 
HETATM   17  C17 UNL     1      -0.192   2.202  -0.211  1.00  0.00    -0.011 A 
HETATM   18  C18 UNL     1      -1.089   1.306   0.109  1.00  0.00     0.026 C 
HETATM   19  H12 UNL     1       1.726   0.328  -1.929  1.00  0.00     0.166 HD
ENDROOT
BRANCH   1  20
HETATM   20  C3  UNL     1      -2.910  -0.157   0.589  1.00  0.00     0.159 C 
HETATM   21  O1  UNL     1      -3.860   0.599   0.786  1.00  0.00    -0.292 OA
BRANCH  20  22
HETATM   22  C2  UNL     1      -3.861  -1.249   0.795  1.00  0.00     0.079 C 
HETATM   23  C1  UNL     1      -5.245  -0.704   1.083  1.00  0.00     0.013 C 
ENDBRANCH  20  22
ENDBRANCH   1  20
TORSDOF 2
