REMARK  3 active torsions:
REMARK  status: ('A' for Active; 'I' for Inactive)
REMARK    1  A    between atoms: C2_2  and  C3_3 
REMARK    2  A    between atoms: C8_10  and  N3_11 
REMARK    3  A    between atoms: C13_17  and  N4_18 
ROOT
HETATM    1  C3  UNL     1       2.643   0.469   0.191  1.00  0.00    -0.058 A 
HETATM    2  C4  UNL     1       3.230   1.521  -0.522  1.00  0.00     0.009 A 
HETATM    3  C5  UNL     1       2.384   2.394  -1.196  1.00  0.00     0.033 A 
HETATM    4  C6  UNL     1       1.010   2.288  -1.207  1.00  0.00     0.072 A 
HETATM    5  N1  UNL     1       0.205   3.129  -1.857  1.00  0.00    -0.241 NA
HETATM    6  C7  UNL     1      -1.126   2.949  -1.812  1.00  0.00     0.236 A 
HETATM    7  N2  UNL     1      -1.658   1.924  -1.115  1.00  0.00    -0.224 NA
HETATM    8  C8  UNL     1      -0.901   1.043  -0.441  1.00  0.00     0.141 A 
HETATM    9  C14 UNL     1       0.450   1.243  -0.498  1.00  0.00     0.039 A 
HETATM   10  C15 UNL     1       1.262   0.359   0.183  1.00  0.00     0.024 A 
ENDROOT
BRANCH   8  11
HETATM   11  N3  UNL     1      -1.552  -0.007   0.266  1.00  0.00    -0.331 N 
HETATM   12  C9  UNL     1      -1.620  -0.439   1.653  1.00  0.00     0.146 C 
HETATM   13  C10 UNL     1      -3.057  -0.723   2.066  1.00  0.00     0.098 C 
HETATM   14 BR1  UNL     1      -4.193   0.824   1.846  1.00  0.00    -0.085 Br
HETATM   15  C11 UNL     1      -3.624  -1.836   1.234  1.00  0.00    -0.010 C 
HETATM   16  C12 UNL     1      -3.213  -1.770  -0.031  1.00  0.00     0.026 C 
HETATM   17  C13 UNL     1      -2.317  -0.799  -0.701  1.00  0.00     0.344 C 
BRANCH  17  18
HETATM   18  N4  UNL     1      -1.421  -1.437  -1.645  1.00  0.00     0.105 N 
HETATM   19  H15 UNL     1      -2.016  -2.054  -2.251  1.00  0.00     0.315 HD
HETATM   20  H16 UNL     1      -1.049  -0.643  -2.244  1.00  0.00     0.315 HD
ENDBRANCH  17  18
ENDBRANCH   8  11
BRANCH   1  21
HETATM   21  C2  UNL     1       3.471  -0.524   0.950  1.00  0.00     0.034 C 
HETATM   22  C1  UNL     1       3.843  -1.697   0.083  1.00  0.00     0.010 C 
ENDBRANCH   1  21
TORSDOF 3
