REMARK  4 active torsions:
REMARK  status: ('A' for Active; 'I' for Inactive)
REMARK    1  A    between atoms: C2_2  and  C3_3 
REMARK       I    between atoms: C3_3  and  N1_5 
REMARK    2  A    between atoms: N1_5  and  C4_6 
REMARK    3  A    between atoms: C10_12  and  N2_13 
REMARK    4  A    between atoms: N2_13  and  C11_14 
ROOT
HETATM    1  C4  UNL     1       2.171   0.032   0.222  1.00  0.00     0.029 A 
HETATM    2  C5  UNL     1       1.912  -1.252   0.629  1.00  0.00     0.015 A 
HETATM    3  C6  UNL     1       0.660  -1.640   0.064  1.00  0.00     0.011 A 
HETATM    4  C7  UNL     1      -0.478  -1.977  -0.457  1.00  0.00     0.022 A 
HETATM    5  C8  UNL     1       0.161  -0.645  -0.645  1.00  0.00     0.021 A 
HETATM    6  C9  UNL     1       1.045   0.386  -0.573  1.00  0.00     0.016 A 
HETATM    7  C10 UNL     1      -1.270  -0.066  -0.601  1.00  0.00     0.118 A 
HETATM    8  C17 UNL     1      -1.575  -0.549   0.867  1.00  0.00    -0.003 A 
HETATM    9  N3  UNL     1      -0.793  -1.275   0.230  1.00  0.00     0.000 N 
ENDROOT
BRANCH   7  10
HETATM   10  N2  UNL     1      -2.169  -0.537  -1.552  1.00  0.00    -0.381 N 
HETATM   11  H11 UNL     1      -1.770  -1.250  -2.211  1.00  0.00     0.160 HD
BRANCH  10  12
HETATM   12  C11 UNL     1      -3.496  -0.118  -1.650  1.00  0.00     0.029 A 
HETATM   13  C12 UNL     1      -4.320  -0.643  -2.631  1.00  0.00     0.029 A 
HETATM   14  C13 UNL     1      -5.634  -0.215  -2.711  1.00  0.00     0.004 A 
HETATM   15  C14 UNL     1      -6.135   0.737  -1.819  1.00  0.00     0.019 A 
HETATM   16  C15 UNL     1      -5.314   1.265  -0.835  1.00  0.00     0.013 A 
HETATM   17 BR1  UNL     1      -5.896   2.564   0.429  1.00  0.00    -0.051 Br
HETATM   18  C16 UNL     1      -3.994   0.821  -0.770  1.00  0.00     0.048 A 
ENDBRANCH  10  12
ENDBRANCH   7  10
BRANCH   1  19
HETATM   19  N1  UNL     1       3.214   0.860   0.420  1.00  0.00    -0.328 N 
HETATM   20  C3  UNL     1       4.214   0.225   1.152  1.00  0.00     0.221 C 
HETATM   21  O1  UNL     1       4.514  -0.839   1.701  1.00  0.00    -0.273 OA
HETATM   22  H6  UNL     1       3.107   1.786   0.018  1.00  0.00     0.169 HD
BRANCH  20  23
HETATM   23  C2  UNL     1       5.405   1.065   1.419  1.00  0.00     0.098 C 
HETATM   24  C1  UNL     1       6.439   0.297   2.212  1.00  0.00     0.014 C 
ENDBRANCH  20  23
ENDBRANCH   1  19
TORSDOF 4
