REMARK  2 active torsions:
REMARK  status: ('A' for Active; 'I' for Inactive)
REMARK    1  A    between atoms: C5_5  and  C6_6 
REMARK    2  A    between atoms: C13_13  and  N1_14 
REMARK       I    between atoms: N1_14  and  C14_15 
ROOT
HETATM    1  N1  UNL     1      -0.357  -1.581  -1.181  1.00  0.00    -0.188 N 
HETATM    2  C14 UNL     1      -1.336  -1.207  -0.230  1.00  0.00     0.723 C 
HETATM    3  N2  UNL     1      -1.092  -0.144   0.446  1.00  0.00    -0.104 NA
HETATM    4  C15 UNL     1      -1.949   0.392   1.445  1.00  0.00     0.181 C 
HETATM    5  C16 UNL     1      -3.160   1.117   0.980  1.00  0.00     0.070 A 
HETATM    6  C17 UNL     1      -4.294   0.290   0.564  1.00  0.00     0.057 A 
HETATM    7  C18 UNL     1      -4.336   0.780  -0.665  1.00  0.00     0.011 A 
HETATM    8  C19 UNL     1      -3.189   1.680  -0.397  1.00  0.00     0.018 A 
HETATM    9  C20 UNL     1      -3.616   3.125  -0.506  1.00  0.00     0.015 C 
HETATM   10  O1  UNL     1      -4.922  -0.633   1.417  1.00  0.00    -0.308 OA
HETATM   11  C21 UNL     1      -5.026  -1.994   1.067  1.00  0.00     0.259 C 
HETATM   12  N3  UNL     1      -4.107  -2.924   0.923  1.00  0.00    -0.229 NA
HETATM   13  C22 UNL     1      -2.750  -2.495   1.162  1.00  0.00     0.254 C 
HETATM   14  N4  UNL     1      -2.558  -1.856   0.066  1.00  0.00    -0.056 NA
HETATM   15  H12 UNL     1      -0.764  -2.190  -1.948  1.00  0.00     0.184 HD
ENDROOT
BRANCH   1  16
HETATM   16  C13 UNL     1       1.008  -1.253  -1.211  1.00  0.00     0.056 A 
HETATM   17  C2  UNL     1       1.783  -1.733  -2.276  1.00  0.00    -0.035 A 
HETATM   18  C1  UNL     1       1.128  -2.574  -3.336  1.00  0.00     0.050 C 
HETATM   19  C3  UNL     1       3.129  -1.457  -2.380  1.00  0.00     0.010 A 
HETATM   20  C4  UNL     1       3.793  -0.694  -1.447  1.00  0.00     0.013 A 
HETATM   21  C5  UNL     1       3.044  -0.213  -0.390  1.00  0.00    -0.024 A 
HETATM   22  C12 UNL     1       1.701  -0.510  -0.321  1.00  0.00     0.043 A 
BRANCH  21  23
HETATM   23  C6  UNL     1       3.735   0.590   0.592  1.00  0.00    -0.026 A 
HETATM   24  C7  UNL     1       5.059   0.411   0.935  1.00  0.00     0.012 A 
HETATM   25  C8  UNL     1       5.654   1.237   1.895  1.00  0.00     0.001 A 
HETATM   26  C9  UNL     1       4.915   2.238   2.505  1.00  0.00     0.000 A 
HETATM   27  C10 UNL     1       3.591   2.418   2.163  1.00  0.00     0.001 A 
HETATM   28  C11 UNL     1       3.022   1.599   1.219  1.00  0.00     0.012 A 
ENDBRANCH  21  23
ENDBRANCH   1  16
TORSDOF 2
