REMARK  5 active torsions:
REMARK  status: ('A' for Active; 'I' for Inactive)
REMARK    1  A    between atoms: C2_2  and  C3_3 
REMARK    2  A    between atoms: C2_2  and  N1_5 
REMARK    3  A    between atoms: N1_5  and  C4_6 
REMARK    4  A    between atoms: C10_13  and  N3_14 
REMARK    5  A    between atoms: N3_14  and  C11_15 
ROOT
HETATM    1  C4  UNL     1       2.269  -0.058  -0.399  1.00  0.00     0.029 A 
HETATM    2  C5  UNL     1       2.854  -1.274  -0.673  1.00  0.00     0.031 A 
HETATM    3  C6  UNL     1       2.037  -2.384  -0.806  1.00  0.00     0.035 A 
HETATM    4  C7  UNL     1       0.670  -2.267  -0.667  1.00  0.00     0.069 A 
HETATM    5  N2  UNL     1      -0.018  -3.438  -0.822  1.00  0.00    -0.260 NA
HETATM    6  C8  UNL     1      -1.380  -3.421  -0.702  1.00  0.00     0.119 A 
HETATM    7  C9  UNL     1      -1.952  -2.197  -0.428  1.00  0.00     0.049 A 
HETATM    8  C10 UNL     1      -1.320  -0.995  -0.262  1.00  0.00     0.046 A 
HETATM    9  C17 UNL     1       0.046  -1.060  -0.392  1.00  0.00     0.021 A 
HETATM   10  C18 UNL     1       0.919  -0.003  -0.273  1.00  0.00     0.045 A 
ENDROOT
BRANCH   8  11
HETATM   11  N3  UNL     1      -1.932   0.223   0.029  1.00  0.00    -0.355 N 
HETATM   12  H11 UNL     1      -1.399   1.109   0.109  1.00  0.00     0.166 HD
BRANCH  11  13
HETATM   13  C11 UNL     1      -3.264   0.577   0.273  1.00  0.00     0.033 A 
HETATM   14  C12 UNL     1      -4.158  -0.181   1.000  1.00  0.00     0.029 A 
HETATM   15  C13 UNL     1      -5.481   0.124   1.236  1.00  0.00     0.004 A 
HETATM   16  C14 UNL     1      -5.980   1.286   0.709  1.00  0.00     0.019 A 
HETATM   17  C15 UNL     1      -5.183   2.127  -0.035  1.00  0.00     0.013 A 
HETATM   18 BR1  UNL     1      -5.859   3.727  -0.764  1.00  0.00    -0.051 Br
HETATM   19  C16 UNL     1      -3.876   1.738  -0.217  1.00  0.00     0.048 A 
ENDBRANCH  11  13
ENDBRANCH   8  11
BRANCH   1  20
HETATM   20  N1  UNL     1       3.084   1.111  -0.250  1.00  0.00    -0.379 N 
HETATM   21  H6  UNL     1       2.591   2.030  -0.051  1.00  0.00     0.160 HD
BRANCH  20  22
HETATM   22  C2  UNL     1       4.525   1.074  -0.361  1.00  0.00     0.139 C 
HETATM   23  C1  UNL     1       5.167   0.213   0.703  1.00  0.00     0.039 C 
BRANCH  22  24
HETATM   24  C3  UNL     1       5.033   2.456  -0.352  1.00  0.00     0.255 C 
HETATM   25  O1  UNL     1       5.677   3.487  -0.365  1.00  0.00    -0.305 OA
ENDBRANCH  22  24
ENDBRANCH  20  22
ENDBRANCH   1  20
TORSDOF 5
