REMARK  5 active torsions:
REMARK  status: ('A' for Active; 'I' for Inactive)
REMARK    1  A    between atoms: C3_3  and  C4_4 
REMARK    2  A    between atoms: C5_5  and  C6_6 
REMARK    3  A    between atoms: C7_7  and  N1_8 
REMARK    4  A    between atoms: N1_8  and  C8_9 
REMARK    5  A    between atoms: N3_16  and  C14_17 
ROOT
HETATM    1  C8  UNL     1      -0.794  -0.363  -0.390  1.00  0.00     0.047 A 
HETATM    2  C9  UNL     1      -0.082  -1.523  -0.226  1.00  0.00     0.049 A 
HETATM    3  C10 UNL     1      -0.595  -2.760   0.083  1.00  0.00     0.119 A 
HETATM    4  N2  UNL     1      -1.925  -2.835   0.240  1.00  0.00    -0.260 NA
HETATM    5  C11 UNL     1      -2.716  -1.753   0.100  1.00  0.00     0.068 A 
HETATM    6  C12 UNL     1      -2.178  -0.526  -0.212  1.00  0.00     0.035 A 
HETATM    7  C13 UNL     1      -2.979   0.514  -0.360  1.00  0.00     0.109 A 
HETATM    8  N3  UNL     1      -4.370   0.341  -0.179  1.00  0.00    -0.331 N 
HETATM    9  C15 UNL     1      -4.997  -0.913   0.186  1.00  0.00     0.160 A 
HETATM   10  C16 UNL     1      -3.986  -2.001   0.298  1.00  0.00     0.026 A 
ENDROOT
BRANCH   1  11
HETATM   11  N1  UNL     1      -0.223   0.901  -0.692  1.00  0.00    -0.365 N 
HETATM   12  H10 UNL     1       0.293   1.303  -1.487  1.00  0.00     0.165 HD
BRANCH  11  13
HETATM   13  C7  UNL     1      -0.382   1.916   0.334  1.00  0.00     0.088 C 
HETATM   14  C6  UNL     1       0.827   2.143   0.929  1.00  0.00     0.017 C 
BRANCH  14  15
HETATM   15  C5  UNL     1       1.959   1.369   0.442  1.00  0.00     0.001 C 
HETATM   16  C4  UNL     1       3.214   0.961   0.379  1.00  0.00    -0.000 C 
BRANCH  16  17
HETATM   17  C3  UNL     1       4.285   0.154  -0.162  1.00  0.00    -0.004 C 
HETATM   18  C2  UNL     1       5.421   0.393   0.427  1.00  0.00    -0.031 C 
HETATM   19  C1  UNL     1       6.514  -0.417  -0.110  1.00  0.00     0.036 C 
ENDBRANCH  16  17
ENDBRANCH  14  15
ENDBRANCH  11  13
ENDBRANCH   1  11
BRANCH   8  20
HETATM   20  C14 UNL     1      -5.212   1.467  -0.362  1.00  0.00     0.355 C 
HETATM   21  O1  UNL     1      -6.483   1.564  -0.249  1.00  0.00    -0.283 OA
ENDBRANCH   8  20
TORSDOF 5
