REMARK  7 active torsions:
REMARK  status: ('A' for Active; 'I' for Inactive)
REMARK    1  A    between atoms: C2_2  and  C3_3 
REMARK       I    between atoms: C3_3  and  N1_5 
REMARK    2  A    between atoms: N1_5  and  C4_6 
REMARK    3  A    between atoms: C10_12  and  C11_13 
REMARK    4  A    between atoms: C11_13  and  C12_14 
REMARK    5  A    between atoms: C12_14  and  C13_15 
REMARK    6  A    between atoms: C13_15  and  C14_16 
REMARK    7  A    between atoms: C14_16  and  C15_17 
ROOT
HETATM    1  C4  UNL     1      -2.253   0.227   1.564  1.00  0.00     0.028 A 
HETATM    2  C5  UNL     1      -2.548  -0.983   2.046  1.00  0.00     0.008 A 
HETATM    3  C6  UNL     1      -1.374  -1.816   1.773  1.00  0.00     0.023 A 
HETATM    4  C7  UNL     1      -0.866  -3.058   1.911  1.00  0.00     0.002 A 
HETATM    5  C8  UNL     1       0.521  -3.119   1.319  1.00  0.00     0.033 A 
HETATM    6  C9  UNL     1       0.956  -1.836   0.755  1.00  0.00    -0.019 A 
HETATM    7  C10 UNL     1       1.188  -0.629   0.302  1.00  0.00    -0.053 A 
HETATM    8  C16 UNL     1      -0.102  -0.153   0.730  1.00  0.00     0.055 A 
HETATM    9  C17 UNL     1      -1.061   0.795   0.875  1.00  0.00     0.013 A 
ENDROOT
BRANCH   1  10
HETATM   10  N1  UNL     1      -3.325   1.190   1.755  1.00  0.00    -0.328 N 
HETATM   11  C3  UNL     1      -3.804   1.716   0.525  1.00  0.00     0.221 C 
HETATM   12  O1  UNL     1      -3.412   1.445  -0.647  1.00  0.00    -0.273 OA
HETATM   13  H6  UNL     1      -3.765   1.526   2.643  1.00  0.00     0.169 HD
BRANCH  11  14
HETATM   14  C2  UNL     1      -4.908   2.726   0.453  1.00  0.00     0.098 C 
HETATM   15  C1  UNL     1      -5.148   3.048  -1.007  1.00  0.00     0.014 C 
ENDBRANCH  11  14
ENDBRANCH   1  10
BRANCH   7  16
HETATM   16  C11 UNL     1       2.378  -0.067  -0.386  1.00  0.00     0.007 C 
BRANCH  16  17
HETATM   17  C12 UNL     1       3.423  -0.788  -0.637  1.00  0.00     0.000 C 
BRANCH  17  18
HETATM   18  C13 UNL     1       4.515  -0.065  -1.329  1.00  0.00    -0.003 C 
BRANCH  18  19
HETATM   19  C14 UNL     1       5.648  -0.655  -1.655  1.00  0.00    -0.016 C 
BRANCH  19  20
HETATM   20  C15 UNL     1       6.765   0.037  -2.349  1.00  0.00     0.112 C 
HETATM   21 BR1  UNL     1       6.227   1.864  -2.646  1.00  0.00    -0.092 Br
ENDBRANCH  19  20
ENDBRANCH  18  19
ENDBRANCH  17  18
ENDBRANCH  16  17
ENDBRANCH   7  16
TORSDOF 7
