REMARK  2 active torsions:
REMARK  status: ('A' for Active; 'I' for Inactive)
REMARK    1  A    between atoms: N2_14  and  C11_15 
REMARK    2  A    between atoms: C15_19  and  C16_20 
ROOT
HETATM    1  C1  UNL     1      -3.017   3.089  -0.767  1.00  0.00     0.053 C 
HETATM    2  C2  UNL     1      -3.657   2.360   0.303  1.00  0.00    -0.001 C 
HETATM    3  C3  UNL     1      -2.650   1.726   0.913  1.00  0.00     0.022 C 
HETATM    4  C4  UNL     1      -2.727   1.230   2.385  1.00  0.00     0.090 C 
HETATM    5  C5  UNL     1      -3.454  -0.119   2.006  1.00  0.00     0.140 C 
HETATM    6  C6  UNL     1      -4.772   0.039   2.410  1.00  0.00     0.063 C 
HETATM    7  C7  UNL     1      -5.437   1.194   1.661  1.00  0.00     0.018 C 
HETATM    8  C8  UNL     1      -5.069   2.163   0.769  1.00  0.00     0.120 C 
HETATM    9  F1  UNL     1      -5.787   3.097   0.116  1.00  0.00    -0.206 F 
HETATM   10  O1  UNL     1      -2.471  -1.041   2.038  1.00  0.00    -0.326 OA
HETATM   11  C9  UNL     1      -1.283  -0.935   1.242  1.00  0.00     0.205 C 
HETATM   12  N1  UNL     1      -0.385  -1.792   1.402  1.00  0.00    -0.275 NA
HETATM   13  C10 UNL     1      -0.896   0.077   0.188  1.00  0.00     0.181 C 
HETATM   14  N2  UNL     1      -0.056   0.045  -0.725  1.00  0.00    -0.227 NA
HETATM   15  N3  UNL     1      -1.528   1.404   0.033  1.00  0.00    -0.340 N 
HETATM   16  H10 UNL     1       0.515  -1.860   0.919  1.00  0.00     0.189 HD
HETATM   17  H20 UNL     1      -1.464   2.237  -0.531  1.00  0.00     0.167 HD
ENDROOT
BRANCH  14  18
HETATM   18  C11 UNL     1       0.873  -0.823  -1.224  1.00  0.00     0.060 A 
HETATM   19  C12 UNL     1       0.638  -1.991  -1.964  1.00  0.00     0.031 A 
HETATM   20  C13 UNL     1       1.619  -2.833  -2.448  1.00  0.00     0.003 A 
HETATM   21  C14 UNL     1       2.937  -2.523  -2.197  1.00  0.00     0.012 A 
HETATM   22  C15 UNL     1       3.269  -1.393  -1.478  1.00  0.00    -0.027 A 
HETATM   23  C21 UNL     1       2.241  -0.593  -1.022  1.00  0.00     0.043 A 
BRANCH  22  24
HETATM   24  C16 UNL     1       4.651  -1.029  -1.191  1.00  0.00    -0.044 A 
HETATM   25  C17 UNL     1       5.051   0.046  -0.502  1.00  0.00     0.008 A 
HETATM   26  C18 UNL     1       6.507   0.076  -0.421  1.00  0.00    -0.003 A 
HETATM   27  C19 UNL     1       6.959  -0.989  -1.068  1.00  0.00    -0.022 A 
HETATM   28  C20 UNL     1       5.841  -1.810  -1.629  1.00  0.00     0.066 A 
ENDBRANCH  22  24
ENDBRANCH  14  18
TORSDOF 2
