REMARK  5 active torsions:
REMARK  status: ('A' for Active; 'I' for Inactive)
REMARK    1  A    between atoms: C2_2  and  C3_3 
REMARK    2  A    between atoms: C8_9  and  N1_10 
REMARK    3  A    between atoms: N1_10  and  C9_11 
REMARK    4  A    between atoms: C9_11  and  C10_12 
REMARK    5  A    between atoms: C15_18  and  C16_19 
ROOT
HETATM    1  N1  UNL     1      -0.665   0.104  -0.032  1.00  0.00    -0.388 N 
HETATM    2  H9  UNL     1      -1.090  -0.201  -0.951  1.00  0.00     0.159 HD
ENDROOT
BRANCH   1   3
HETATM    3  C8  UNL     1      -1.534   0.218   1.089  1.00  0.00     0.035 A 
HETATM    4  C3  UNL     1      -2.898  -0.064   0.968  1.00  0.00    -0.032 A 
HETATM    5  C4  UNL     1      -3.678   0.072   2.116  1.00  0.00     0.011 A 
HETATM    6  C5  UNL     1      -3.189   0.464   3.348  1.00  0.00     0.020 A 
HETATM    7  C6  UNL     1      -1.842   0.731   3.419  1.00  0.00     0.013 A 
HETATM    8 BR1  UNL     1      -1.171   1.274   5.137  1.00  0.00    -0.051 Br
HETATM    9  C7  UNL     1      -1.012   0.611   2.303  1.00  0.00     0.048 A 
BRANCH   4  10
HETATM   10  C2  UNL     1      -3.479  -0.490  -0.328  1.00  0.00     0.036 C 
HETATM   11  C1  UNL     1      -3.167  -1.920  -0.657  1.00  0.00     0.010 C 
ENDBRANCH   4  10
ENDBRANCH   1   3
BRANCH   1  12
HETATM   12  C9  UNL     1       0.763   0.403   0.107  1.00  0.00     0.134 C 
BRANCH  12  13
HETATM   13  C10 UNL     1       1.385   0.185  -1.237  1.00  0.00     0.077 A 
HETATM   14  C11 UNL     1       1.233  -1.194  -1.738  1.00  0.00     0.100 A 
HETATM   15  N2  UNL     1       2.169  -1.999  -2.160  1.00  0.00    -0.276 NA
HETATM   16  C12 UNL     1       3.546  -1.567  -2.173  1.00  0.00     0.116 A 
HETATM   17  C13 UNL     1       3.916  -0.350  -1.761  1.00  0.00     0.027 A 
HETATM   18  C14 UNL     1       2.830   0.505  -1.300  1.00  0.00    -0.044 A 
HETATM   19  C15 UNL     1       3.080   1.719  -0.873  1.00  0.00     0.034 C 
BRANCH  19  20
HETATM   20  C16 UNL     1       4.447   2.217  -0.858  1.00  0.00     0.378 C 
HETATM   21  O1  UNL     1       5.673   2.046  -1.080  1.00  0.00    -0.406 OA
ENDBRANCH  19  20
ENDBRANCH  12  13
ENDBRANCH   1  12
TORSDOF 5
