REMARK  9 active torsions:
REMARK  status: ('A' for Active; 'I' for Inactive)
REMARK    1  A    between atoms: C2_2  and  C3_3 
REMARK    2  A    between atoms: C2_2  and  C6_8 
REMARK    3  A    between atoms: C4_4  and  N1_5 
REMARK    4  A    between atoms: N1_5  and  C5_6 
REMARK    5  A    between atoms: C11_15  and  N4_16 
REMARK    6  A    between atoms: N4_16  and  C12_17 
REMARK    7  A    between atoms: C12_17  and  C13_18 
REMARK    8  A    between atoms: C14_19  and  C15_20 
REMARK    9  A    between atoms: N5_21  and  C16_22 
ROOT
HETATM    1  C6  UNL     1      -2.559  -0.791   0.240  1.00  0.00     0.057 A 
HETATM    2  C7  UNL     1      -2.388   0.148  -0.745  1.00  0.00     0.125 A 
HETATM    3  N2  UNL     1      -1.272   0.839  -1.008  1.00  0.00    -0.311 N 
HETATM    4  C8  UNL     1      -1.040   1.764  -1.950  1.00  0.00     0.117 A 
HETATM    5  C9  UNL     1       0.271   2.112  -1.729  1.00  0.00     0.136 A 
HETATM    6  N3  UNL     1       0.755   1.409  -0.705  1.00  0.00    -0.238 NA
HETATM    7  C10 UNL     1      -0.199   0.573  -0.203  1.00  0.00     0.179 A 
HETATM    8  C11 UNL     1      -0.340  -0.388   0.823  1.00  0.00     0.171 A 
HETATM    9  N6  UNL     1      -1.494  -1.033   1.015  1.00  0.00    -0.231 NA
ENDROOT
BRANCH   8  10
HETATM   10  N4  UNL     1       0.912  -0.440   1.465  1.00  0.00    -0.368 N 
HETATM   11  H10 UNL     1       0.600  -1.184   2.178  1.00  0.00     0.161 HD
BRANCH  10  12
HETATM   12  C12 UNL     1       2.156  -0.492   2.102  1.00  0.00     0.148 C 
BRANCH  12  13
HETATM   13  C13 UNL     1       3.132   0.483   1.465  1.00  0.00    -0.006 C 
HETATM   14  C14 UNL     1       4.282   0.242   0.888  1.00  0.00     0.017 C 
BRANCH  14  15
HETATM   15  C15 UNL     1       4.932  -1.039   0.705  1.00  0.00     0.115 C 
HETATM   16  N5  UNL     1       6.088  -1.217   0.117  1.00  0.00    -0.276 NA
BRANCH  16  17
HETATM   17  C16 UNL     1       6.782  -0.063  -0.394  1.00  0.00     0.106 C 
HETATM   18  C17 UNL     1       8.089  -0.066  -0.086  1.00  0.00     0.225 C 
HETATM   19 BR1  UNL     1       9.304   1.314  -0.608  1.00  0.00    -0.192 Br
ENDBRANCH  16  17
ENDBRANCH  14  15
ENDBRANCH  12  13
ENDBRANCH  10  12
ENDBRANCH   8  10
BRANCH   1  20
HETATM   20  C2  UNL     1      -3.796  -1.556   0.530  1.00  0.00     0.042 C 
HETATM   21  C1  UNL     1      -4.234  -2.320  -0.709  1.00  0.00     0.017 C 
BRANCH  20  22
HETATM   22  C3  UNL     1      -4.936  -0.608   0.813  1.00  0.00     0.029 C 
HETATM   23  C4  UNL     1      -5.881   0.267   0.600  1.00  0.00     0.142 C 
BRANCH  23  24
HETATM   24  N1  UNL     1      -6.519   1.027  -0.407  1.00  0.00    -0.240 NA
BRANCH  24  25
HETATM   25  C5  UNL     1      -6.776   2.261  -0.200  1.00  0.00     0.332 C 
HETATM   26  O1  UNL     1      -6.635   3.489  -0.336  1.00  0.00    -0.260 OA
ENDBRANCH  24  25
ENDBRANCH  23  24
ENDBRANCH  20  22
ENDBRANCH   1  20
TORSDOF 9
