REMARK  1 active torsions:
REMARK  status: ('A' for Active; 'I' for Inactive)
REMARK    1  A    between atoms: O1_2  and  C2_3 
ROOT
HETATM    1  C2  UNL     1       3.884   0.163   0.677  1.00  0.00     0.103 A 
HETATM    2  C3  UNL     1       3.964   1.502   0.735  1.00  0.00     0.073 A 
HETATM    3  C4  UNL     1       2.972   2.381   0.069  1.00  0.00     0.083 A 
HETATM    4  N1  UNL     1       3.329   3.554   0.313  1.00  0.00    -0.173 NA
HETATM    5  C5  UNL     1       2.858   4.789  -0.001  1.00  0.00     0.206 C 
HETATM    6  N2  UNL     1       2.455   5.834  -0.267  1.00  0.00    -0.170 NA
HETATM    7  C6  UNL     1       1.901   1.709  -0.656  1.00  0.00     0.012 A 
HETATM    8  C7  UNL     1       1.081   2.527  -1.234  1.00  0.00     0.101 C 
HETATM    9  N3  UNL     1      -0.084   2.446  -2.031  1.00  0.00    -0.373 N 
HETATM   10  C8  UNL     1      -1.154   3.330  -2.180  1.00  0.00     0.111 C 
HETATM   11  C9  UNL     1      -2.371   3.768  -1.988  1.00  0.00     0.049 C 
HETATM   12 CL1  UNL     1      -2.644   5.308  -2.849  1.00  0.00    -0.083 Cl
HETATM   13  C10 UNL     1      -3.510   3.219  -1.287  1.00  0.00     0.021 C 
HETATM   14  C11 UNL     1      -3.813   2.135  -0.592  1.00  0.00    -0.023 C 
HETATM   15  C12 UNL     1      -3.097   0.904  -0.177  1.00  0.00     0.053 C 
HETATM   16  C13 UNL     1      -3.841  -0.280  -0.745  1.00  0.00     0.171 C 
HETATM   17  O2  UNL     1      -3.238  -1.460  -0.427  1.00  0.00    -0.389 OA
HETATM   18  C14 UNL     1      -3.137  -1.745   0.913  1.00  0.00     0.197 C 
HETATM   19  C15 UNL     1      -2.398  -3.092   1.051  1.00  0.00     0.295 C 
HETATM   20  N4  UNL     1      -1.129  -2.904   0.428  1.00  0.00     0.085 N 
HETATM   21  C16 UNL     1      -0.280  -4.039   0.580  1.00  0.00     0.272 C 
HETATM   22  C17 UNL     1       1.005  -3.682  -0.183  1.00  0.00     0.056 C 
HETATM   23  C18 UNL     1       1.466  -2.360   0.424  1.00  0.00     0.177 C 
HETATM   24  O3  UNL     1       2.621  -1.846  -0.185  1.00  0.00    -0.348 OA
HETATM   25  C19 UNL     1       2.797  -0.461  -0.059  1.00  0.00     0.103 A 
HETATM   26  C20 UNL     1       1.872   0.253  -0.680  1.00  0.00     0.054 A 
HETATM   27  H6  UNL     1       0.095   1.528  -2.478  1.00  0.00     0.164 HD
HETATM   28  H18 UNL     1      -1.174  -2.613  -0.551  1.00  0.00     0.315 HD
ENDROOT
BRANCH   1  29
HETATM   29  O1  UNL     1       4.744  -0.755   1.253  1.00  0.00    -0.353 OA
HETATM   30  C1  UNL     1       4.778  -1.125   2.598  1.00  0.00     0.210 C 
ENDBRANCH   1  29
TORSDOF 1
