REMARK  3 active torsions:
REMARK  status: ('A' for Active; 'I' for Inactive)
REMARK    1  A    between atoms: C2_2  and  C3_4 
REMARK    2  A    between atoms: C4_6  and  C5_7 
REMARK    3  A    between atoms: C5_7  and  C6_8 
ROOT
HETATM    1  C6  UNL     1      -0.404  -0.643   0.572  1.00  0.00    -0.033 C 
HETATM    2  C7  UNL     1      -1.022  -0.621  -0.624  1.00  0.00     0.037 C 
HETATM    3  C8  UNL     1      -0.752  -1.642  -1.643  1.00  0.00     0.225 C 
HETATM    4  O1  UNL     1      -0.199  -1.141  -2.822  1.00  0.00    -0.384 OA
HETATM    5  C9  UNL     1      -1.067  -0.265  -3.467  1.00  0.00     0.187 C 
HETATM    6  C10 UNL     1      -1.458   0.877  -2.555  1.00  0.00     0.149 C 
HETATM    7  N1  UNL     1      -1.966   0.238  -1.325  1.00  0.00    -0.380 N 
HETATM    8  C11 UNL     1      -3.376   0.607  -0.995  1.00  0.00     0.123 C 
HETATM    9  C12 UNL     1      -3.364   0.830   0.541  1.00  0.00     0.020 C 
HETATM   10  C13 UNL     1      -2.274   1.881   0.724  1.00  0.00     0.002 C 
HETATM   11  O2  UNL     1      -1.938   1.968   2.116  1.00  0.00     0.000 OA
HETATM   12  C14 UNL     1      -0.916   1.101   2.586  1.00  0.00     0.003 C 
HETATM   13  C15 UNL     1      -0.536   0.182   1.738  1.00  0.00     0.010 C 
ENDROOT
BRANCH   1  14
HETATM   14  C5  UNL     1       0.577  -1.634   0.995  1.00  0.00     0.069 C 
BRANCH  14  15
HETATM   15  C4  UNL     1       1.873  -1.013   1.422  1.00  0.00     0.000 C 
HETATM   16  C3  UNL     1       3.160  -1.049   1.075  1.00  0.00     0.041 C 
HETATM   17 CL1  UNL     1       3.429  -2.142  -0.280  1.00  0.00    -0.086 Cl
BRANCH  16  18
HETATM   18  C2  UNL     1       4.443  -0.432   1.499  1.00  0.00     0.210 C 
HETATM   19  C1  UNL     1       5.092   0.357   0.410  1.00  0.00     0.051 C 
HETATM   20  F1  UNL     1       5.331  -1.436   1.878  1.00  0.00    -0.244 F 
ENDBRANCH  16  18
ENDBRANCH  14  15
ENDBRANCH   1  14
TORSDOF 3
