REMARK  7 active torsions:
REMARK  status: ('A' for Active; 'I' for Inactive)
REMARK    1  A    between atoms: O1_2  and  C2_3 
REMARK    2  A    between atoms: N3_9  and  C6_10 
REMARK    3  A    between atoms: C14_20  and  O2_21 
REMARK    4  A    between atoms: O2_21  and  C15_22 
REMARK    5  A    between atoms: C15_22  and  C16_23 
REMARK    6  A    between atoms: C16_23  and  C17_24 
REMARK    7  A    between atoms: C17_24  and  N4_25 
ROOT
HETATM    1  C2  UNL     1      -0.948  -2.567   0.398  1.00  0.00     0.103 C 
HETATM    2  C3  UNL     1      -1.909  -3.140  -0.354  1.00  0.00     0.069 C 
HETATM    3  C4  UNL     1      -2.956  -2.206  -0.735  1.00  0.00     0.067 C 
HETATM    4  N1  UNL     1      -3.723  -2.683  -1.684  1.00  0.00    -0.242 NA
HETATM    5  C5  UNL     1      -4.767  -1.870  -2.180  1.00  0.00     0.255 C 
HETATM    6  N2  UNL     1      -4.930  -0.696  -1.728  1.00  0.00    -0.164 NA
HETATM    7  N3  UNL     1      -4.164  -0.054  -0.753  1.00  0.00    -0.255 N 
HETATM    8  C12 UNL     1      -3.273  -0.928  -0.145  1.00  0.00     0.188 C 
HETATM    9  C13 UNL     1      -2.115  -0.377   0.585  1.00  0.00     0.046 C 
HETATM   10  C14 UNL     1      -1.054  -1.172   0.838  1.00  0.00     0.100 C 
ENDROOT
BRANCH  10  11
HETATM   11  O2  UNL     1       0.028  -0.682   1.558  1.00  0.00    -0.348 OA
BRANCH  11  12
HETATM   12  C15 UNL     1       1.369  -0.672   1.099  1.00  0.00     0.177 C 
BRANCH  12  13
HETATM   13  C16 UNL     1       2.232   0.103   2.064  1.00  0.00     0.046 C 
BRANCH  13  14
HETATM   14  C17 UNL     1       3.674   0.186   1.708  1.00  0.00     0.119 C 
BRANCH  14  15
HETATM   15  N4  UNL     1       4.038   0.784   0.496  1.00  0.00    -0.408 N 
HETATM   16  C18 UNL     1       3.760   0.178  -0.736  1.00  0.00     0.143 C 
HETATM   17  C19 UNL     1       5.044   0.107  -1.553  1.00  0.00     0.187 C 
HETATM   18  O3  UNL     1       5.759   1.276  -1.555  1.00  0.00    -0.388 OA
HETATM   19  C20 UNL     1       6.186   1.567  -0.242  1.00  0.00     0.187 C 
HETATM   20  C21 UNL     1       4.921   1.897   0.522  1.00  0.00     0.143 C 
ENDBRANCH  14  15
ENDBRANCH  13  14
ENDBRANCH  12  13
ENDBRANCH  11  12
ENDBRANCH  10  11
BRANCH   1  21
HETATM   21  O1  UNL     1       0.136  -3.344   0.793  1.00  0.00    -0.353 OA
HETATM   22  C1  UNL     1       0.780  -4.165  -0.194  1.00  0.00     0.210 C 
ENDBRANCH   1  21
BRANCH   7  23
HETATM   23  C6  UNL     1      -4.440   1.317  -0.594  1.00  0.00     0.056 A 
HETATM   24  C7  UNL     1      -4.305   2.065   0.555  1.00  0.00     0.034 A 
HETATM   25  C8  UNL     1      -4.565   3.413   0.648  1.00  0.00     0.046 A 
HETATM   26  C9  UNL     1      -4.986   4.051  -0.478  1.00  0.00     0.138 A 
HETATM   27  F1  UNL     1      -5.247   5.384  -0.399  1.00  0.00    -0.204 F 
HETATM   28  C10 UNL     1      -5.161   3.423  -1.678  1.00  0.00     0.074 A 
HETATM   29 CL1  UNL     1      -5.703   4.222  -3.141  1.00  0.00    -0.081 Cl
HETATM   30  C11 UNL     1      -4.879   2.089  -1.678  1.00  0.00     0.058 A 
ENDBRANCH   7  23
TORSDOF 7
