REMARK  3 active torsions:
REMARK  status: ('A' for Active; 'I' for Inactive)
REMARK    1  A    between atoms: C2_2  and  C3_3 
REMARK    2  A    between atoms: C7_7  and  N1_8 
REMARK    3  A    between atoms: N1_8  and  C8_9 
ROOT
HETATM    1  C8  UNL     1       0.233   1.551  -0.218  1.00  0.00     0.143 A 
HETATM    2  N2  UNL     1      -0.149   2.438   0.717  1.00  0.00    -0.223 NA
HETATM    3  C9  UNL     1       0.576   2.791   1.785  1.00  0.00     0.236 A 
HETATM    4  N3  UNL     1       1.791   2.202   1.924  1.00  0.00    -0.241 NA
HETATM    5  C10 UNL     1       2.237   1.312   1.034  1.00  0.00     0.072 A 
HETATM    6  C11 UNL     1       1.486   0.949  -0.067  1.00  0.00     0.056 A 
HETATM    7  C12 UNL     1       1.632   0.135  -1.102  1.00  0.00     0.136 C 
HETATM    8  N4  UNL     1       2.665  -0.767  -1.552  1.00  0.00    -0.248 NA
HETATM    9  C13 UNL     1       3.925  -0.920  -1.222  1.00  0.00     0.251 C 
HETATM   10  O1  UNL     1       4.690  -0.232  -0.298  1.00  0.00    -0.341 OA
HETATM   11  C14 UNL     1       4.583   0.016   1.081  1.00  0.00     0.206 C 
HETATM   12  C15 UNL     1       3.444   0.887   1.396  1.00  0.00     0.032 C 
ENDROOT
BRANCH   1  13
HETATM   13  N1  UNL     1      -0.591   1.223  -1.341  1.00  0.00    -0.340 N 
HETATM   14  H7  UNL     1      -0.418   1.717  -2.265  1.00  0.00     0.167 HD
BRANCH  13  15
HETATM   15  C7  UNL     1      -1.648   0.272  -1.342  1.00  0.00     0.034 A 
HETATM   16  C6  UNL     1      -2.305  -0.121  -2.479  1.00  0.00     0.029 A 
HETATM   17  C5  UNL     1      -3.335  -1.033  -2.447  1.00  0.00     0.003 A 
HETATM   18  C4  UNL     1      -3.768  -1.601  -1.289  1.00  0.00     0.011 A 
HETATM   19  C3  UNL     1      -3.127  -1.225  -0.120  1.00  0.00    -0.035 A 
HETATM   20  C16 UNL     1      -2.095  -0.306  -0.190  1.00  0.00     0.041 A 
BRANCH  19  21
HETATM   21  C2  UNL     1      -3.561  -1.801   1.138  1.00  0.00     0.001 C 
HETATM   22  C1  UNL     1      -3.086  -1.578   2.330  1.00  0.00     0.012 C 
ENDBRANCH  19  21
ENDBRANCH  13  15
ENDBRANCH   1  13
TORSDOF 3
