REMARK  6 active torsions:
REMARK  status: ('A' for Active; 'I' for Inactive)
REMARK    1  A    between atoms: C7_7  and  N1_8 
REMARK    2  A    between atoms: N1_8  and  C8_9 
REMARK    3  A    between atoms: C12_15  and  O1_16 
REMARK    4  A    between atoms: O1_16  and  C13_17 
REMARK    5  A    between atoms: C13_17  and  C14_18 
REMARK    6  A    between atoms: C14_18  and  O2_19 
ROOT
HETATM    1  C1  UNL     1      -6.868  -1.410   2.720  1.00  0.00     0.018 C 
HETATM    2  C2  UNL     1      -6.123  -0.985   1.879  1.00  0.00    -0.078 C 
HETATM    3  C3  UNL     1      -5.245  -0.477   0.891  1.00  0.00     0.019 A 
HETATM    4  C4  UNL     1      -5.491  -0.868  -0.426  1.00  0.00     0.021 A 
HETATM    5  C5  UNL     1      -4.669  -0.435  -1.468  1.00  0.00     0.004 A 
HETATM    6  C6  UNL     1      -3.609   0.401  -1.068  1.00  0.00     0.029 A 
HETATM    7  C7  UNL     1      -3.314   0.815   0.193  1.00  0.00     0.035 A 
HETATM    8  C21 UNL     1      -4.178   0.339   1.142  1.00  0.00     0.050 A 
ENDROOT
BRANCH   7   9
HETATM    9  N1  UNL     1      -2.250   1.608   0.649  1.00  0.00    -0.341 N 
HETATM   10  H5  UNL     1      -2.224   2.015   1.609  1.00  0.00     0.167 HD
BRANCH   9  11
HETATM   11  C8  UNL     1      -1.143   1.955  -0.083  1.00  0.00     0.135 A 
HETATM   12  N2  UNL     1      -0.412   2.925  -0.759  1.00  0.00    -0.225 NA
HETATM   13  C9  UNL     1       0.737   2.464  -1.364  1.00  0.00     0.230 A 
HETATM   14  N3  UNL     1       1.184   1.329  -1.379  1.00  0.00    -0.265 NA
HETATM   15  C10 UNL     1       0.654   0.112  -0.771  1.00  0.00     0.111 A 
HETATM   16  C11 UNL     1       1.139  -1.090  -0.821  1.00  0.00     0.090 A 
HETATM   17  C18 UNL     1      -0.307   1.048  -0.392  1.00  0.00     0.008 A 
HETATM   18  C17 UNL     1      -0.632  -0.365   0.037  1.00  0.00     0.096 A 
HETATM   19  C16 UNL     1       0.558  -1.022  -0.511  1.00  0.00     0.120 A 
HETATM   20  C12 UNL     1       2.051  -1.405  -1.271  1.00  0.00     0.134 A 
HETATM   21  C19 UNL     1       1.400  -2.710  -0.717  1.00  0.00     0.147 A 
HETATM   22  O3  UNL     1       0.082  -2.497  -0.007  1.00  0.00    -0.368 OA
HETATM   23  C20 UNL     1       2.385  -3.019   0.275  1.00  0.00     0.041 C 
BRANCH  20  24
HETATM   24  O1  UNL     1       3.245  -0.863  -1.937  1.00  0.00    -0.371 OA
BRANCH  24  25
HETATM   25  C13 UNL     1       4.351  -0.486  -1.117  1.00  0.00     0.195 C 
BRANCH  25  26
HETATM   26  C14 UNL     1       4.033   0.526  -0.071  1.00  0.00     0.193 C 
BRANCH  26  27
HETATM   27  O2  UNL     1       5.140   0.849   0.723  1.00  0.00    -0.394 OA
HETATM   28  C15 UNL     1       4.815   1.865   1.627  1.00  0.00     0.201 C 
ENDBRANCH  26  27
ENDBRANCH  25  26
ENDBRANCH  24  25
ENDBRANCH  20  24
ENDBRANCH   9  11
ENDBRANCH   7   9
TORSDOF 6
