REMARK  4 active torsions:
REMARK  status: ('A' for Active; 'I' for Inactive)
REMARK    1  A    between atoms: C7_7  and  N1_8 
REMARK    2  A    between atoms: N1_8  and  C8_9 
REMARK    3  A    between atoms: C15_21  and  C16_22 
REMARK    4  A    between atoms: C16_22  and  O4_23 
ROOT
HETATM    1  C1  UNL     1       6.111  -4.161  -1.445  1.00  0.00     0.018 C 
HETATM    2  C2  UNL     1       5.371  -3.473  -0.783  1.00  0.00    -0.078 C 
HETATM    3  C3  UNL     1       4.479  -2.676  -0.011  1.00  0.00     0.019 A 
HETATM    4  C4  UNL     1       4.958  -2.133   1.165  1.00  0.00     0.021 A 
HETATM    5  C5  UNL     1       4.113  -1.361   1.950  1.00  0.00     0.004 A 
HETATM    6  C6  UNL     1       2.803  -1.172   1.500  1.00  0.00     0.029 A 
HETATM    7  C7  UNL     1       2.349  -1.738   0.297  1.00  0.00     0.034 A 
HETATM    8  C20 UNL     1       3.197  -2.497  -0.464  1.00  0.00     0.050 A 
ENDROOT
BRANCH   7   9
HETATM    9  N1  UNL     1       0.974  -1.349   0.138  1.00  0.00    -0.344 N 
HETATM   10  H5  UNL     1       0.353  -2.209   0.266  1.00  0.00     0.167 HD
BRANCH   9  11
HETATM   11  C8  UNL     1       0.476  -0.017  -0.153  1.00  0.00     0.116 C 
HETATM   12  N2  UNL     1       1.496   0.737   0.037  1.00  0.00    -0.228 NA
HETATM   13  C9  UNL     1       1.592   2.116  -0.097  1.00  0.00     0.231 C 
HETATM   14  N3  UNL     1       1.711   3.206  -0.776  1.00  0.00    -0.257 NA
HETATM   15  C10 UNL     1       1.742   4.509  -0.128  1.00  0.00     0.317 C 
HETATM   16  O1  UNL     1       0.668   4.792   0.634  1.00  0.00    -0.368 OA
HETATM   17  C11 UNL     1      -0.577   4.884   0.092  1.00  0.00     0.196 C 
HETATM   18  C12 UNL     1      -1.077   3.653  -0.624  1.00  0.00     0.201 C 
HETATM   19  O2  UNL     1      -1.072   2.612   0.289  1.00  0.00    -0.351 OA
HETATM   20  C13 UNL     1      -1.493   1.323   0.153  1.00  0.00     0.079 C 
HETATM   21  C14 UNL     1      -2.625   1.389   0.886  1.00  0.00     0.168 C 
HETATM   22  C19 UNL     1      -0.946   0.141  -0.557  1.00  0.00     0.116 C 
HETATM   23  O3  UNL     1      -3.310   0.177   0.938  1.00  0.00    -0.353 OA
HETATM   24  C15 UNL     1      -3.192  -0.658  -0.198  1.00  0.00     0.152 C 
HETATM   25  C18 UNL     1      -1.755  -1.083  -0.264  1.00  0.00     0.053 C 
BRANCH  24  26
HETATM   26  C16 UNL     1      -4.195  -1.745  -0.245  1.00  0.00     0.199 C 
BRANCH  26  27
HETATM   27  O4  UNL     1      -4.195  -2.644   0.792  1.00  0.00    -0.393 OA
HETATM   28  C17 UNL     1      -5.247  -3.545   0.499  1.00  0.00     0.201 C 
ENDBRANCH  26  27
ENDBRANCH  24  26
ENDBRANCH   9  11
ENDBRANCH   7   9
TORSDOF 4
