REMARK  5 active torsions:
REMARK  status: ('A' for Active; 'I' for Inactive)
REMARK    1  A    between atoms: C9_10  and  O1_11 
REMARK    2  A    between atoms: O1_11  and  C10_12 
REMARK    3  A    between atoms: C10_12  and  C11_13 
REMARK    4  A    between atoms: C11_13  and  O2_14 
REMARK    5  A    between atoms: C15_19  and  N3_20 
ROOT
HETATM    1  C1  UNL     1      -2.022   3.188   2.369  1.00  0.00     0.018 C 
HETATM    2  C2  UNL     1      -2.478   2.308   1.743  1.00  0.00    -0.075 C 
HETATM    3  C3  UNL     1      -3.044   1.266   1.001  1.00  0.00     0.045 A 
HETATM    4  C4  UNL     1      -4.337   0.917   0.891  1.00  0.00     0.023 A 
HETATM    5  C5  UNL     1      -4.924  -0.077   0.194  1.00  0.00     0.004 A 
HETATM    6  C6  UNL     1      -4.084  -0.884  -0.534  1.00  0.00     0.032 A 
HETATM    7  C7  UNL     1      -2.606  -0.786  -0.642  1.00  0.00     0.064 A 
HETATM    8  C8  UNL     1      -2.273   0.424   0.254  1.00  0.00     0.076 A 
HETATM    9  N1  UNL     1      -0.804   0.778   0.354  1.00  0.00    -0.352 N 
HETATM   10  C9  UNL     1       0.323   0.087  -0.368  1.00  0.00     0.163 C 
HETATM   11  C13 UNL     1      -0.078   0.028  -1.862  1.00  0.00     0.082 C 
HETATM   12  C14 UNL     1      -1.334  -0.432  -2.369  1.00  0.00     0.125 C 
HETATM   13  N2  UNL     1      -1.139  -1.322  -1.230  1.00  0.00    -0.322 N 
HETATM   14  C15 UNL     1      -0.951  -2.178  -0.135  1.00  0.00     0.130 C 
HETATM   15  C17 UNL     1       0.220  -1.415  -0.028  1.00  0.00     0.084 C 
HETATM   16  H5  UNL     1      -0.681   1.615   1.030  1.00  0.00     0.163 HD
ENDROOT
BRANCH  10  17
HETATM   17  O1  UNL     1       1.461   0.648  -0.091  1.00  0.00    -0.355 OA
BRANCH  17  18
HETATM   18  C10 UNL     1       2.609   0.184  -0.610  1.00  0.00     0.197 C 
BRANCH  18  19
HETATM   19  C11 UNL     1       3.776   1.032  -0.042  1.00  0.00     0.193 C 
BRANCH  19  20
HETATM   20  O2  UNL     1       4.955   0.526  -0.591  1.00  0.00    -0.394 OA
HETATM   21  C12 UNL     1       6.067   1.202  -0.137  1.00  0.00     0.201 C 
ENDBRANCH  19  20
ENDBRANCH  18  19
ENDBRANCH  17  18
ENDBRANCH  10  17
BRANCH  14  22
HETATM   22  N3  UNL     1      -0.764  -3.064   0.991  1.00  0.00    -0.254 NA
HETATM   23  C16 UNL     1      -1.310  -4.204   1.009  1.00  0.00     0.151 C 
ENDBRANCH  14  22
TORSDOF 5
