REMARK  5 active torsions:
REMARK  status: ('A' for Active; 'I' for Inactive)
REMARK    1  A    between atoms: C10_15  and  O1_16 
REMARK    2  A    between atoms: O1_16  and  C11_17 
REMARK    3  A    between atoms: C11_17  and  C12_18 
REMARK    4  A    between atoms: C12_18  and  C13_19 
REMARK    5  A    between atoms: C13_19  and  N4_20 
ROOT
HETATM    1  F1  UNL     1       6.110   2.091  -1.519  1.00  0.00    -0.204 F 
HETATM    2  C1  UNL     1       5.316   1.464  -0.623  1.00  0.00     0.140 A 
HETATM    3  C2  UNL     1       4.572   2.305   0.208  1.00  0.00     0.046 A 
HETATM    4  C3  UNL     1       3.761   1.650   1.121  1.00  0.00     0.035 A 
HETATM    5  C4  UNL     1       3.622   0.293   1.283  1.00  0.00     0.069 A 
HETATM    6  C5  UNL     1       4.339  -0.573   0.484  1.00  0.00     0.111 A 
HETATM    7  C6  UNL     1       5.168   0.082  -0.450  1.00  0.00     0.103 A 
HETATM    8 CL1  UNL     1       6.203  -0.755  -1.609  1.00  0.00    -0.078 Cl
HETATM    9  N1  UNL     1       4.563  -1.964   0.293  1.00  0.00    -0.222 NA
HETATM   10  C7  UNL     1       4.238  -2.378  -0.909  1.00  0.00     0.196 C 
HETATM   11  N2  UNL     1       3.051  -1.926  -1.250  1.00  0.00    -0.224 NA
HETATM   12  C8  UNL     1       2.187  -1.890  -0.086  1.00  0.00     0.218 A 
HETATM   13  C9  UNL     1       1.616  -3.233   0.202  1.00  0.00     0.147 A 
HETATM   14  N3  UNL     1       2.423  -2.720   1.013  1.00  0.00    -0.258 NA
HETATM   15  C10 UNL     1       1.197  -0.780  -0.029  1.00  0.00     0.262 C 
HETATM   16  S1  UNL     1       1.031  -0.462   1.800  1.00  0.00    -0.018 SA
HETATM   17  N5  UNL     1       2.677   0.034   2.319  1.00  0.00    -0.326 N 
HETATM   18  H19 UNL     1       3.181   0.205   3.188  1.00  0.00     0.174 HD
ENDROOT
BRANCH  15  19
HETATM   19  O1  UNL     1      -0.084  -1.166  -0.414  1.00  0.00    -0.369 OA
BRANCH  19  20
HETATM   20  C11 UNL     1      -0.648  -0.282  -1.312  1.00  0.00     0.171 C 
BRANCH  20  21
HETATM   21  C12 UNL     1      -2.037  -0.768  -1.682  1.00  0.00     0.056 C 
BRANCH  21  22
HETATM   22  C13 UNL     1      -2.828  -0.819  -0.401  1.00  0.00     0.274 C 
BRANCH  22  23
HETATM   23  N4  UNL     1      -2.879   0.479   0.187  1.00  0.00     0.092 N 
HETATM   24  C14 UNL     1      -3.662   1.413  -0.564  1.00  0.00     0.298 C 
HETATM   25  C15 UNL     1      -5.113   0.955  -0.473  1.00  0.00     0.198 C 
HETATM   26  O2  UNL     1      -5.533   0.717   0.809  1.00  0.00    -0.388 OA
HETATM   27  C16 UNL     1      -4.607   1.089   1.783  1.00  0.00     0.198 C 
HETATM   28  C17 UNL     1      -3.298   0.354   1.555  1.00  0.00     0.298 C 
ENDBRANCH  22  23
ENDBRANCH  21  22
ENDBRANCH  20  21
ENDBRANCH  19  20
ENDBRANCH  15  19
TORSDOF 5
