REMARK  9 active torsions:
REMARK  status: ('A' for Active; 'I' for Inactive)
REMARK    1  A    between atoms: C2_2  and  S1_3 
REMARK    2  A    between atoms: S1_3  and  C3_6 
REMARK    3  A    between atoms: C3_6  and  C4_7 
REMARK    4  A    between atoms: C4_7  and  C5_8 
REMARK    5  A    between atoms: C5_8  and  C6_9 
REMARK    6  A    between atoms: C6_9  and  C7_10 
REMARK    7  A    between atoms: C6_9  and  O3_12 
REMARK    8  A    between atoms: O3_12  and  C9_13 
REMARK    9  A    between atoms: C9_13  and  C10_14 
ROOT
HETATM    1  C10 UNL     1      -1.647  -2.143   1.197  1.00  0.00    -0.052 C 
HETATM    2  C11 UNL     1      -2.425  -2.246   0.189  1.00  0.00     0.007 C 
HETATM    3  C12 UNL     1      -3.660  -2.779  -0.206  1.00  0.00     0.020 C 
HETATM    4  C13 UNL     1      -4.560  -2.934  -1.119  1.00  0.00     0.118 C 
HETATM    5  N1  UNL     1      -3.560  -2.126  -1.781  1.00  0.00    -0.254 NA
HETATM    6  C14 UNL     1      -4.017  -0.873  -2.066  1.00  0.00     0.233 C 
HETATM    7  N2  UNL     1      -4.381   0.486  -2.426  1.00  0.00    -0.237 NA
HETATM    8  C15 UNL     1      -3.970   1.435  -1.581  1.00  0.00     0.216 C 
HETATM    9  N3  UNL     1      -3.247   1.633  -0.372  1.00  0.00    -0.310 N 
HETATM   10  C16 UNL     1      -3.476   0.600   0.416  1.00  0.00     0.011 C 
HETATM   11  C17 UNL     1      -3.658  -0.304   1.116  1.00  0.00    -0.083 C 
HETATM   12  C18 UNL     1      -3.855  -1.408   1.964  1.00  0.00     0.104 C 
HETATM   13  C19 UNL     1      -2.519  -2.014   2.451  1.00  0.00     0.024 C 
HETATM   14  C20 UNL     1      -2.049  -0.909   3.404  1.00  0.00     0.015 C 
HETATM   15  H23 UNL     1      -2.939   2.451  -0.699  1.00  0.00     0.177 HD
ENDROOT
BRANCH   1  16
HETATM   16  C9  UNL     1      -0.410  -1.698   1.792  1.00  0.00     0.202 C 
BRANCH  16  17
HETATM   17  O3  UNL     1       0.474  -1.064   1.158  1.00  0.00    -0.382 OA
BRANCH  17  18
HETATM   18  C6  UNL     1       1.368  -0.460   0.493  1.00  0.00     0.121 C 
BRANCH  18  19
HETATM   19  C5  UNL     1       2.623  -0.158   1.275  1.00  0.00     0.033 C 
BRANCH  19  20
HETATM   20  C4  UNL     1       3.865   0.231   0.642  1.00  0.00     0.017 C 
BRANCH  20  21
HETATM   21  C3  UNL     1       3.967   1.472  -0.157  1.00  0.00     0.141 C 
BRANCH  21  22
HETATM   22  S1  UNL     1       5.704   1.561  -0.668  1.00  0.00     0.149 S 
HETATM   23  O1  UNL     1       6.087   0.307  -1.398  1.00  0.00    -0.227 OA
HETATM   24  O2  UNL     1       6.556   1.632   0.579  1.00  0.00    -0.227 OA
BRANCH  22  25
HETATM   25  C2  UNL     1       5.964   3.003  -1.625  1.00  0.00     0.127 C 
HETATM   26  C1  UNL     1       6.520   2.752  -2.832  1.00  0.00     0.023 C 
ENDBRANCH  22  25
ENDBRANCH  21  22
ENDBRANCH  20  21
ENDBRANCH  19  20
ENDBRANCH  18  19
BRANCH  18  27
HETATM   27  C7  UNL     1       0.812   0.654  -0.335  1.00  0.00     0.027 C 
HETATM   28  C8  UNL     1       0.428   1.869   0.440  1.00  0.00     0.007 C 
ENDBRANCH  18  27
ENDBRANCH  17  18
ENDBRANCH  16  17
ENDBRANCH   1  16
TORSDOF 9
