REMARK  10 active torsions:
REMARK  status: ('A' for Active; 'I' for Inactive)
REMARK    1  A    between atoms: C2_2  and  C4_4 
REMARK    2  A    between atoms: C4_4  and  O1_5 
REMARK    3  A    between atoms: O1_5  and  C5_6 
REMARK       I    between atoms: C5_6  and  N1_8 
REMARK    4  A    between atoms: N1_8  and  C6_9 
REMARK    5  A    between atoms: C6_9  and  C23_30 
REMARK    6  A    between atoms: C7_10  and  C8_11 
REMARK    7  A    between atoms: C9_12  and  C10_13 
REMARK    8  A    between atoms: C12_15  and  N2_16 
REMARK    9  A    between atoms: C20_25  and  N4_26 
REMARK   10  A    between atoms: C23_30  and  N6_31 
ROOT
HETATM    1  C10 UNL     1      -1.368  -0.731  -0.151  1.00  0.00    -0.006 A 
HETATM    2  C11 UNL     1      -2.681  -0.723   0.252  1.00  0.00     0.043 A 
HETATM    3  C12 UNL     1      -3.660  -0.330  -0.616  1.00  0.00     0.031 A 
HETATM    4  C18 UNL     1      -3.233   0.039  -1.868  1.00  0.00     0.031 A 
HETATM    5  C19 UNL     1      -1.920   0.037  -2.290  1.00  0.00     0.034 A 
HETATM    6  C20 UNL     1      -0.923  -0.367  -1.391  1.00  0.00     0.063 A 
ENDROOT
BRANCH   1   7
HETATM    7  C9  UNL     1      -0.395  -1.179   0.804  1.00  0.00     0.014 C 
HETATM    8  C8  UNL     1       0.819  -1.476   1.134  1.00  0.00     0.003 C 
BRANCH   8   9
HETATM    9  C7  UNL     1       1.687  -1.931   2.177  1.00  0.00     0.027 C 
HETATM   10  C6  UNL     1       2.947  -2.041   1.855  1.00  0.00     0.042 C 
BRANCH  10  11
HETATM   11  N1  UNL     1       3.449  -1.736   0.563  1.00  0.00    -0.305 N 
HETATM   12  C5  UNL     1       4.444  -0.725   0.350  1.00  0.00     0.364 C 
HETATM   13  O2  UNL     1       4.854  -0.121   1.359  1.00  0.00    -0.238 OA
HETATM   14  H10 UNL     1       2.975  -2.356  -0.146  1.00  0.00     0.171 HD
BRANCH  12  15
HETATM   15  O1  UNL     1       4.828  -0.540  -0.921  1.00  0.00    -0.303 OA
BRANCH  15  16
HETATM   16  C4  UNL     1       5.741   0.340  -1.460  1.00  0.00     0.184 C 
BRANCH  16  17
HETATM   17  C2  UNL     1       5.483   1.796  -1.360  1.00  0.00     0.002 C 
HETATM   18  C1  UNL     1       6.678   2.477  -2.069  1.00  0.00     0.011 C 
HETATM   19  C3  UNL     1       5.474   2.385   0.024  1.00  0.00     0.011 C 
ENDBRANCH  16  17
ENDBRANCH  15  16
ENDBRANCH  12  15
ENDBRANCH  10  11
BRANCH  10  20
HETATM   20  C23 UNL     1       3.865  -2.510   2.910  1.00  0.00     0.323 C 
BRANCH  20  21
HETATM   21  N6  UNL     1       4.464  -3.747   2.394  1.00  0.00     0.083 N 
HETATM   22  H33 UNL     1       3.658  -4.410   2.275  1.00  0.00     0.313 HD
HETATM   23  H34 UNL     1       4.903  -3.557   1.470  1.00  0.00     0.313 HD
ENDBRANCH  20  21
ENDBRANCH  10  20
ENDBRANCH   8   9
ENDBRANCH   1   7
BRANCH   6  24
HETATM   24  N4  UNL     1       0.383  -0.269  -1.934  1.00  0.00    -0.265 N 
HETATM   25  C21 UNL     1       1.644   0.494  -1.954  1.00  0.00     0.199 A 
HETATM   26  C22 UNL     1       1.955  -0.582  -2.897  1.00  0.00     0.133 A 
HETATM   27  N5  UNL     1       0.844  -1.235  -2.867  1.00  0.00    -0.187 NA
ENDBRANCH   6  24
BRANCH   3  28
HETATM   28  N2  UNL     1      -5.032  -0.307  -0.244  1.00  0.00    -0.377 N 
HETATM   29  C13 UNL     1      -6.122   0.134  -1.087  1.00  0.00     0.153 C 
HETATM   30  C14 UNL     1      -6.967   1.211  -0.454  1.00  0.00     0.291 C 
HETATM   31  N3  UNL     1      -7.251   0.948   0.936  1.00  0.00     0.087 N 
HETATM   32  C15 UNL     1      -7.925   2.056   1.576  1.00  0.00     0.310 C 
HETATM   33  C16 UNL     1      -6.090   0.559   1.688  1.00  0.00     0.291 C 
HETATM   34  C17 UNL     1      -5.547  -0.722   1.043  1.00  0.00     0.153 C 
ENDBRANCH   3  28
TORSDOF 10
