REMARK  3 active torsions:
REMARK  status: ('A' for Active; 'I' for Inactive)
REMARK    1  A    between atoms: C5_5  and  C6_6 
REMARK    2  A    between atoms: C13_13  and  N1_14 
REMARK    3  A    between atoms: N1_14  and  C14_15 
ROOT
HETATM    1  N1  UNL     1      -0.417  -1.980   0.838  1.00  0.00    -0.188 N 
HETATM    2  H12 UNL     1      -0.710  -2.863   1.358  1.00  0.00     0.184 HD
ENDROOT
BRANCH   1   3
HETATM    3  C13 UNL     1       0.971  -1.865   0.556  1.00  0.00     0.056 A 
HETATM    4  C2  UNL     1       1.877  -2.856   0.901  1.00  0.00    -0.035 A 
HETATM    5  C1  UNL     1       1.323  -4.071   1.587  1.00  0.00     0.050 C 
HETATM    6  C3  UNL     1       3.225  -2.747   0.635  1.00  0.00     0.010 A 
HETATM    7  C4  UNL     1       3.749  -1.638   0.007  1.00  0.00     0.013 A 
HETATM    8  C5  UNL     1       2.888  -0.640  -0.348  1.00  0.00    -0.024 A 
HETATM    9  C12 UNL     1       1.548  -0.782  -0.067  1.00  0.00     0.043 A 
BRANCH   8  10
HETATM   10  C6  UNL     1       3.433   0.540  -1.014  1.00  0.00    -0.026 A 
HETATM   11  C7  UNL     1       4.731   0.920  -0.664  1.00  0.00     0.012 A 
HETATM   12  C8  UNL     1       5.304   2.016  -1.250  1.00  0.00     0.001 A 
HETATM   13  C9  UNL     1       4.607   2.746  -2.181  1.00  0.00     0.000 A 
HETATM   14  C10 UNL     1       3.344   2.385  -2.529  1.00  0.00     0.001 A 
HETATM   15  C11 UNL     1       2.737   1.284  -1.956  1.00  0.00     0.012 A 
ENDBRANCH   8  10
ENDBRANCH   1   3
BRANCH   1  16
HETATM   16  C14 UNL     1      -1.409  -1.026   0.490  1.00  0.00     0.719 C 
HETATM   17  N2  UNL     1      -1.280  -0.560  -0.730  1.00  0.00    -0.104 NA
HETATM   18  C15 UNL     1      -2.204   0.420  -1.249  1.00  0.00     0.185 C 
HETATM   19  C16 UNL     1      -3.591   0.294  -0.716  1.00  0.00     0.102 A 
HETATM   20  C17 UNL     1      -4.554   0.639  -1.793  1.00  0.00     0.104 A 
HETATM   21  C20 UNL     1      -3.945   1.314   0.308  1.00  0.00    -0.039 A 
HETATM   22  F1  UNL     1      -4.505  -0.124  -2.921  1.00  0.00    -0.210 F 
HETATM   23  C18 UNL     1      -5.331   1.656  -1.485  1.00  0.00     0.039 A 
HETATM   24  C19 UNL     1      -4.943   2.084  -0.151  1.00  0.00     0.011 A 
HETATM   25  O1  UNL     1      -3.397   1.527   1.571  1.00  0.00     0.000 OA
HETATM   26  C21 UNL     1      -4.153   1.701   2.722  1.00  0.00     0.132 A 
HETATM   27  C22 UNL     1      -2.272   0.487   2.023  1.00  0.00     0.294 A 
HETATM   28  N3  UNL     1      -3.218   0.866   3.017  1.00  0.00    -0.268 NA
HETATM   29  N4  UNL     1      -2.399  -0.703   1.490  1.00  0.00    -0.073 NA
ENDBRANCH   1  16
TORSDOF 3
