REMARK  3 active torsions:
REMARK  status: ('A' for Active; 'I' for Inactive)
REMARK    1  A    between atoms: N1_2  and  C2_3 
REMARK    2  A    between atoms: C2_3  and  C3_4 
REMARK    3  A    between atoms: C3_4  and  C4_5 
ROOT
HETATM    1  C4  UNL     1       2.251  -0.954   0.569  1.00  0.00     0.111 C 
HETATM    2  C5  UNL     1       1.629   0.117  -0.231  1.00  0.00     0.029 C 
HETATM    3  C6  UNL     1       2.518   1.124  -0.887  1.00  0.00     0.022 C 
HETATM    4  C7  UNL     1       1.654   2.248  -1.504  1.00  0.00     0.121 C 
HETATM    5  N2  UNL     1       0.910   2.919  -0.462  1.00  0.00    -0.374 N 
HETATM    6  C8  UNL     1      -0.078   3.948  -0.482  1.00  0.00     0.132 A 
HETATM    7  N3  UNL     1       0.470   5.037  -1.048  1.00  0.00    -0.224 NA
HETATM    8  C9  UNL     1      -0.292   6.169  -1.186  1.00  0.00     0.234 A 
HETATM    9  N4  UNL     1      -1.569   6.211  -0.770  1.00  0.00    -0.253 NA
HETATM   10  C10 UNL     1      -2.080   5.103  -0.209  1.00  0.00     0.129 A 
HETATM   11  C11 UNL     1      -1.399   3.917  -0.024  1.00  0.00     0.009 A 
HETATM   12  C12 UNL     1      -1.872   2.683   0.585  1.00  0.00     0.080 C 
HETATM   13  P1  UNL     1      -2.736   1.601  -0.640  1.00  0.00    -0.088 P 
HETATM   14  C13 UNL     1      -3.616   0.242   0.251  1.00  0.00    -0.009 C 
HETATM   15  C14 UNL     1      -4.885  -0.004   0.460  1.00  0.00     0.012 C 
HETATM   16  C15 UNL     1      -4.786  -1.442   0.580  1.00  0.00     0.109 C 
HETATM   17  C16 UNL     1      -4.148  -2.159  -0.555  1.00  0.00     0.056 C 
HETATM   18  C17 UNL     1      -4.418  -3.599  -0.569  1.00  0.00    -0.024 C 
HETATM   19  C18 UNL     1      -3.405  -4.217   0.087  1.00  0.00    -0.001 C 
HETATM   20  C19 UNL     1      -2.214  -3.759   0.786  1.00  0.00     0.037 C 
HETATM   21  C20 UNL     1      -1.421  -2.815   1.256  1.00  0.00     0.079 C 
HETATM   22  C21 UNL     1      -1.544  -1.325   1.224  1.00  0.00     0.067 C 
HETATM   23  C22 UNL     1      -2.521  -0.542   0.765  1.00  0.00     0.042 C 
HETATM   24  N5  UNL     1      -3.510  -1.461   1.472  1.00  0.00    -0.381 N 
HETATM   25  O1  UNL     1      -0.230  -3.039   1.915  1.00  0.00    -0.304 OA
HETATM   26  C23 UNL     1       0.968  -2.925   1.167  1.00  0.00     0.253 C 
HETATM   27  N6  UNL     1       1.120  -1.666   1.210  1.00  0.00    -0.273 NA
HETATM   28  H16 UNL     1       0.890   2.853   0.577  1.00  0.00     0.161 HD
HETATM   29  H21 UNL     1      -1.795   1.126  -1.611  1.00  0.00     0.063 HD
HETATM   30  H30 UNL     1      -3.664  -2.092   2.324  1.00  0.00     0.160 HD
ENDROOT
BRANCH   1  31
HETATM   31  C3  UNL     1       3.193  -1.892  -0.039  1.00  0.00     0.057 C 
BRANCH  31  32
HETATM   32  C2  UNL     1       4.469  -1.402  -0.619  1.00  0.00     0.271 C 
BRANCH  32  33
HETATM   33  N1  UNL     1       5.222  -0.702   0.419  1.00  0.00     0.079 N 
HETATM   34  C1  UNL     1       6.475  -0.207  -0.124  1.00  0.00     0.306 C 
HETATM   35  H4  UNL     1       5.461  -1.343   1.199  1.00  0.00     0.315 HD
ENDBRANCH  32  33
ENDBRANCH  31  32
ENDBRANCH   1  31
TORSDOF 3
