REMARK  6 active torsions:
REMARK  status: ('A' for Active; 'I' for Inactive)
REMARK    1  A    between atoms: C7_7  and  N1_8 
REMARK    2  A    between atoms: N1_8  and  C8_9 
REMARK    3  A    between atoms: C8_9  and  C9_10 
REMARK    4  A    between atoms: C11_12  and  C12_13 
REMARK    5  A    between atoms: C12_13  and  O1_14 
REMARK    6  A    between atoms: C14_16  and  N2_19 
ROOT
HETATM    1  C1  UNL     1      -6.120   3.861   0.760  1.00  0.00     0.018 C 
HETATM    2  C2  UNL     1      -5.435   2.897   1.008  1.00  0.00    -0.078 C 
HETATM    3  C3  UNL     1      -4.612   1.771   1.297  1.00  0.00     0.019 A 
HETATM    4  C4  UNL     1      -5.076   0.782   2.128  1.00  0.00     0.021 A 
HETATM    5  C5  UNL     1      -4.231  -0.289   2.374  1.00  0.00     0.004 A 
HETATM    6  C6  UNL     1      -2.960  -0.401   1.825  1.00  0.00     0.029 A 
HETATM    7  C7  UNL     1      -2.584   0.637   1.007  1.00  0.00     0.029 A 
HETATM    8  C18 UNL     1      -3.358   1.738   0.708  1.00  0.00     0.049 A 
ENDROOT
BRANCH   7   9
HETATM    9  N1  UNL     1      -1.295   0.575   0.416  1.00  0.00    -0.386 N 
HETATM   10  H5  UNL     1      -0.910   1.317  -0.222  1.00  0.00     0.160 HD
BRANCH   9  11
HETATM   11  C8  UNL     1      -0.405  -0.553   0.666  1.00  0.00     0.157 C 
BRANCH  11  12
HETATM   12  C9  UNL     1       0.881  -0.455  -0.060  1.00  0.00    -0.020 A 
HETATM   13  C10 UNL     1       2.034  -0.148   0.670  1.00  0.00     0.016 A 
HETATM   14  C11 UNL     1       2.764  -0.218  -0.517  1.00  0.00     0.002 A 
HETATM   15  C14 UNL     1       2.132  -0.525  -1.784  1.00  0.00     0.255 A 
HETATM   16  C15 UNL     1       0.879  -0.846  -2.504  1.00  0.00     0.315 A 
HETATM   17  N3  UNL     1       3.135  -0.539  -2.872  1.00  0.00    -0.355 N 
HETATM   18  C17 UNL     1       1.858  -0.848  -3.508  1.00  0.00     0.339 A 
HETATM   19  C16 UNL     1       0.485  -0.727  -1.352  1.00  0.00     0.236 A 
HETATM   20  N2  UNL     1       1.615  -0.684  -2.242  1.00  0.00     0.019 N 
HETATM   21  H16 UNL     1       4.195  -0.375  -2.909  1.00  0.00     0.158 HD
BRANCH  14  22
HETATM   22  C12 UNL     1       4.226   0.069  -0.474  1.00  0.00     0.205 C 
BRANCH  22  23
HETATM   23  O1  UNL     1       4.932  -1.097  -0.586  1.00  0.00    -0.392 OA
HETATM   24  C13 UNL     1       4.681  -2.022   0.396  1.00  0.00     0.201 C 
ENDBRANCH  22  23
ENDBRANCH  14  22
ENDBRANCH  11  12
ENDBRANCH   9  11
ENDBRANCH   7   9
TORSDOF 6
