REMARK  6 active torsions:
REMARK  status: ('A' for Active; 'I' for Inactive)
REMARK    1  A    between atoms: N1_1  and  C1_2 
REMARK    2  A    between atoms: C3_5  and  N3_6 
REMARK    3  A    between atoms: N3_6  and  C4_7 
REMARK    4  A    between atoms: C7_10  and  O1_11 
REMARK    5  A    between atoms: O1_11  and  C8_12 
REMARK    6  A    between atoms: C8_12  and  C9_13 
ROOT
HETATM    1  C4  UNL     1       1.909   0.527  -0.648  1.00  0.00     0.035 A 
HETATM    2  C5  UNL     1       1.213   1.453   0.089  1.00  0.00     0.032 A 
HETATM    3  C6  UNL     1      -0.152   1.374   0.190  1.00  0.00     0.041 A 
HETATM    4  C7  UNL     1      -0.851   0.375  -0.438  1.00  0.00     0.091 A 
HETATM    5  C15 UNL     1      -0.161  -0.578  -1.194  1.00  0.00     0.069 A 
HETATM    6 CL1  UNL     1      -0.897  -1.926  -2.065  1.00  0.00    -0.081 Cl
HETATM    7  C16 UNL     1       1.232  -0.495  -1.295  1.00  0.00     0.056 A 
ENDROOT
BRANCH   1   8
HETATM    8  N3  UNL     1       3.324   0.560  -0.788  1.00  0.00    -0.344 N 
HETATM    9  H4  UNL     1       3.609   1.176  -1.589  1.00  0.00     0.167 HD
BRANCH   8  10
HETATM   10  C3  UNL     1       4.268  -0.124   0.017  1.00  0.00     0.109 A 
HETATM   11  N2  UNL     1       3.920  -0.921   0.985  1.00  0.00    -0.245 NA
HETATM   12  C2  UNL     1       5.133  -1.422   1.563  1.00  0.00     0.143 A 
HETATM   13  C1  UNL     1       6.208  -0.950   0.970  1.00  0.00     0.027 A 
HETATM   14  C17 UNL     1       5.737  -0.040  -0.118  1.00  0.00     0.136 A 
BRANCH  13  15
HETATM   15  N1  UNL     1       7.617  -1.101   1.120  1.00  0.00    -0.401 N 
HETATM   16  H1  UNL     1       8.011  -2.031   0.796  1.00  0.00     0.156 HD
HETATM   17  H2  UNL     1       8.248  -0.370   1.516  1.00  0.00     0.156 HD
ENDBRANCH  13  15
ENDBRANCH   8  10
ENDBRANCH   1   8
BRANCH   4  18
HETATM   18  O1  UNL     1      -2.212   0.109  -0.470  1.00  0.00    -0.345 OA
BRANCH  18  19
HETATM   19  C8  UNL     1      -3.154   0.891   0.187  1.00  0.00     0.214 C 
BRANCH  19  20
HETATM   20  C9  UNL     1      -4.550   0.410   0.012  1.00  0.00    -0.031 A 
HETATM   21  C10 UNL     1      -5.155  -0.504   0.877  1.00  0.00     0.009 A 
HETATM   22  C11 UNL     1      -6.447  -0.955   0.718  1.00  0.00     0.004 A 
HETATM   23  C12 UNL     1      -7.167  -0.472  -0.355  1.00  0.00     0.042 A 
HETATM   24  C13 UNL     1      -6.585   0.430  -1.218  1.00  0.00     0.117 A 
HETATM   25  F1  UNL     1      -7.285   0.917  -2.286  1.00  0.00    -0.206 F 
HETATM   26  C14 UNL     1      -5.272   0.901  -1.073  1.00  0.00     0.051 A 
ENDBRANCH  19  20
ENDBRANCH  18  19
ENDBRANCH   4  18
TORSDOF 6
