REMARK  0 active torsions:
REMARK  status: ('A' for Active; 'I' for Inactive)
ROOT
HETATM    1  C1  UNL     1       4.325   0.507  -1.738  1.00  0.00     0.152 A 
HETATM    2  N1  UNL     1       3.297   0.975  -1.071  1.00  0.00    -0.239 NA
HETATM    3  C2  UNL     1       2.535   0.079  -0.233  1.00  0.00     0.150 A 
HETATM    4  C3  UNL     1       1.566   0.761   0.345  1.00  0.00     0.045 C 
HETATM    5  C4  UNL     1       0.793   1.943   0.629  1.00  0.00     0.148 C 
HETATM    6  N2  UNL     1      -0.585   1.834   0.364  1.00  0.00    -0.406 N 
HETATM    7  C5  UNL     1      -1.506   2.429   1.259  1.00  0.00     0.137 C 
HETATM    8  C6  UNL     1      -2.690   1.464   1.441  1.00  0.00     0.142 C 
HETATM    9  N3  UNL     1      -2.572   0.397   0.433  1.00  0.00    -0.381 N 
HETATM   10  C7  UNL     1      -2.450   1.047  -0.882  1.00  0.00     0.142 C 
HETATM   11  C8  UNL     1      -1.071   1.728  -0.949  1.00  0.00     0.137 C 
HETATM   12  C9  UNL     1      -2.523  -0.997   0.572  1.00  0.00     0.011 C 
HETATM   13  C10 UNL     1      -2.825  -2.107   1.275  1.00  0.00     0.025 C 
HETATM   14  C11 UNL     1      -1.632  -3.016   1.191  1.00  0.00     0.011 C 
HETATM   15  C12 UNL     1      -0.764  -2.339   0.454  1.00  0.00    -0.033 C 
HETATM   16  C13 UNL     1       0.622  -1.983   0.324  1.00  0.00     0.146 C 
HETATM   17  N4  UNL     1       1.859  -1.902   0.729  1.00  0.00    -0.176 NA
HETATM   18  N5  UNL     1       2.836  -1.309  -0.089  1.00  0.00    -0.198 N 
HETATM   19  C14 UNL     1       3.930  -1.810  -0.796  1.00  0.00     0.160 A 
HETATM   20  C15 UNL     1       4.630  -0.910  -1.584  1.00  0.00     0.098 A 
HETATM   21  N6  UNL     1       5.037  -2.293  -1.518  1.00  0.00    -0.335 N 
HETATM   22  C16 UNL     1      -1.733  -1.687  -0.530  1.00  0.00     0.097 C 
HETATM   23  H16 UNL     1       5.570  -3.172  -1.688  1.00  0.00     0.168 HD
ENDROOT
TORSDOF 0
