REMARK  5 active torsions:
REMARK  status: ('A' for Active; 'I' for Inactive)
REMARK    1  A    between atoms: C2_2  and  N1_3 
REMARK    2  A    between atoms: N1_3  and  C3_4 
REMARK    3  A    between atoms: C8_11  and  N4_12 
REMARK       I    between atoms: N4_12  and  C9_13 
REMARK    4  A    between atoms: C9_13  and  C10_15 
REMARK    5  A    between atoms: C11_16  and  C12_17 
ROOT
HETATM    1  C3  UNL     1      -2.912  -0.536   0.617  1.00  0.00     0.033 A 
HETATM    2  C4  UNL     1      -3.878  -1.524   0.549  1.00  0.00     0.032 A 
HETATM    3  C5  UNL     1      -3.656  -2.750  -0.090  1.00  0.00     0.035 A 
HETATM    4  C6  UNL     1      -2.411  -2.905  -0.647  1.00  0.00     0.072 A 
HETATM    5  N2  UNL     1      -2.187  -4.053  -1.267  1.00  0.00    -0.241 NA
HETATM    6  C7  UNL     1      -1.035  -4.356  -1.867  1.00  0.00     0.236 A 
HETATM    7  N3  UNL     1      -0.086  -3.433  -1.820  1.00  0.00    -0.223 NA
HETATM    8  C8  UNL     1      -0.223  -2.241  -1.216  1.00  0.00     0.144 A 
HETATM    9  C16 UNL     1      -1.427  -1.938  -0.595  1.00  0.00     0.041 A 
HETATM   10  C17 UNL     1      -1.656  -0.744   0.033  1.00  0.00     0.047 A 
ENDROOT
BRANCH   8  11
HETATM   11  N4  UNL     1       0.822  -1.291  -1.182  1.00  0.00    -0.307 N 
HETATM   12  C9  UNL     1       1.441  -0.163  -1.757  1.00  0.00     0.246 C 
HETATM   13  O1  UNL     1       0.941   0.363  -2.778  1.00  0.00    -0.268 OA
HETATM   14  H7  UNL     1       1.304  -1.667  -0.310  1.00  0.00     0.170 HD
BRANCH  12  15
HETATM   15  C10 UNL     1       2.640   0.404  -1.205  1.00  0.00     0.071 C 
HETATM   16  C11 UNL     1       3.583   0.409  -0.321  1.00  0.00    -0.013 C 
BRANCH  16  17
HETATM   17  C12 UNL     1       4.802   1.005   0.221  1.00  0.00    -0.034 C 
HETATM   18  C13 UNL     1       6.038   0.591  -0.568  1.00  0.00     0.018 C 
HETATM   19  C14 UNL     1       4.957   0.583   1.669  1.00  0.00     0.018 C 
HETATM   20  C15 UNL     1       4.776   2.525   0.198  1.00  0.00     0.018 C 
ENDBRANCH  16  17
ENDBRANCH  12  15
ENDBRANCH   8  11
BRANCH   1  21
HETATM   21  N1  UNL     1      -3.218   0.704   1.293  1.00  0.00    -0.354 N 
HETATM   22  H3  UNL     1      -2.908   1.214   2.143  1.00  0.00     0.166 HD
BRANCH  21  23
HETATM   23  C2  UNL     1      -4.239   1.261   0.437  1.00  0.00     0.046 A 
HETATM   24  C1  UNL     1      -4.284   1.351  -0.897  1.00  0.00     0.133 A 
HETATM   25  S1  UNL     1      -5.740   2.058  -0.109  1.00  0.00    -0.171 SA
HETATM   26  C18 UNL     1      -6.793   2.605   1.240  1.00  0.00     0.085 C 
ENDBRANCH  21  23
ENDBRANCH   1  21
TORSDOF 5
