REMARK  7 active torsions:
REMARK  status: ('A' for Active; 'I' for Inactive)
REMARK    1  A    between atoms: C2_2  and  C3_3 
REMARK       I    between atoms: C3_3  and  N1_5 
REMARK    2  A    between atoms: N1_5  and  C4_6 
REMARK    3  A    between atoms: C9_13  and  C10_14 
REMARK    4  A    between atoms: C10_14  and  N4_15 
REMARK    5  A    between atoms: C10_14  and  C11_16 
REMARK    6  A    between atoms: C12_17  and  C13_18 
REMARK    7  A    between atoms: C13_18  and  C14_19 
ROOT
HETATM    1  C4  UNL     1      -4.013  -0.459  -0.172  1.00  0.00     0.035 A 
HETATM    2  C5  UNL     1      -4.670  -1.090  -1.223  1.00  0.00     0.032 A 
HETATM    3  C6  UNL     1      -4.046  -1.364  -2.417  1.00  0.00     0.035 A 
HETATM    4  C7  UNL     1      -2.730  -1.021  -2.628  1.00  0.00     0.070 A 
HETATM    5  N2  UNL     1      -2.091  -1.271  -3.782  1.00  0.00    -0.241 NA
HETATM    6  C8  UNL     1      -0.796  -0.909  -3.930  1.00  0.00     0.234 A 
HETATM    7  N3  UNL     1      -0.178  -0.302  -2.908  1.00  0.00    -0.243 NA
HETATM    8  C9  UNL     1      -0.776  -0.029  -1.730  1.00  0.00     0.085 A 
HETATM    9  C18 UNL     1      -2.087  -0.402  -1.596  1.00  0.00     0.022 A 
HETATM   10  C19 UNL     1      -2.716  -0.138  -0.422  1.00  0.00     0.045 A 
ENDROOT
BRANCH   8  11
HETATM   11  C10 UNL     1       0.083   0.638  -0.736  1.00  0.00     0.293 C 
BRANCH  11  12
HETATM   12  N4  UNL     1       0.292   2.036  -1.071  1.00  0.00     0.092 N 
HETATM   13  H9  UNL     1      -0.016   2.645  -0.289  1.00  0.00     0.314 HD
HETATM   14  H10 UNL     1       1.294   2.208  -1.278  1.00  0.00     0.314 HD
ENDBRANCH  11  12
BRANCH  11  15
HETATM   15  C11 UNL     1       1.407  -0.096  -0.786  1.00  0.00     0.010 C 
HETATM   16  C12 UNL     1       2.219  -0.518   0.176  1.00  0.00    -0.027 C 
BRANCH  16  17
HETATM   17  C13 UNL     1       3.495  -1.229  -0.011  1.00  0.00     0.035 C 
BRANCH  17  18
HETATM   18  C14 UNL     1       4.665  -0.447   0.595  1.00  0.00    -0.048 C 
HETATM   19  C15 UNL     1       4.473  -0.240   2.067  1.00  0.00     0.014 C 
HETATM   20  C16 UNL     1       5.937  -1.240   0.383  1.00  0.00     0.014 C 
HETATM   21  C17 UNL     1       4.806   0.866  -0.145  1.00  0.00     0.014 C 
ENDBRANCH  17  18
ENDBRANCH  16  17
ENDBRANCH  11  15
ENDBRANCH   8  11
BRANCH   1  22
HETATM   22  N1  UNL     1      -4.773  -0.236   1.004  1.00  0.00    -0.324 N 
HETATM   23  C3  UNL     1      -4.377   0.375   2.218  1.00  0.00     0.244 C 
HETATM   24  O1  UNL     1      -3.214   0.792   2.318  1.00  0.00    -0.268 OA
HETATM   25  H4  UNL     1      -5.782  -0.549   1.041  1.00  0.00     0.169 HD
BRANCH  23  26
HETATM   26  C2  UNL     1      -5.269   0.538   3.354  1.00  0.00     0.064 C 
HETATM   27  C1  UNL     1      -6.515   0.125   3.329  1.00  0.00     0.017 C 
ENDBRANCH  23  26
ENDBRANCH   1  22
TORSDOF 7
