REMARK  8 active torsions:
REMARK  status: ('A' for Active; 'I' for Inactive)
REMARK    1  A    between atoms: C2_2  and  C3_3 
REMARK       I    between atoms: C3_3  and  N1_5 
REMARK    2  A    between atoms: N1_5  and  C4_6 
REMARK    3  A    between atoms: C4_6  and  C5_7 
REMARK    4  A    between atoms: C5_7  and  C6_8 
REMARK    5  A    between atoms: C6_8  and  C7_9 
REMARK    6  A    between atoms: C10_14  and  C11_15 
REMARK    7  A    between atoms: C14_18  and  C15_19 
REMARK    8  A    between atoms: C15_19  and  N4_22 
ROOT
HETATM    1  C7  UNL     1       1.232   1.341  -0.982  1.00  0.00    -0.012 A 
HETATM    2  C8  UNL     1       2.384   2.144  -1.445  1.00  0.00     0.191 A 
HETATM    3  N2  UNL     1       1.900   3.392  -2.040  1.00  0.00    -0.278 NA
HETATM    4  C9  UNL     1       0.658   3.681  -2.084  1.00  0.00     0.227 A 
HETATM    5  N3  UNL     1      -0.376   2.873  -1.591  1.00  0.00    -0.241 NA
HETATM    6  C10 UNL     1      -0.158   1.735  -1.044  1.00  0.00     0.076 A 
ENDROOT
BRANCH   6   7
HETATM    7  C11 UNL     1      -1.320   1.020  -0.580  1.00  0.00    -0.007 A 
HETATM    8  C12 UNL     1      -2.548   1.646  -0.835  1.00  0.00     0.014 A 
HETATM    9  C13 UNL     1      -3.774   1.139  -0.464  1.00  0.00     0.011 A 
HETATM   10  C14 UNL     1      -3.861  -0.057   0.204  1.00  0.00    -0.021 A 
HETATM   11  C18 UNL     1      -2.704  -0.740   0.496  1.00  0.00     0.011 A 
HETATM   12  C19 UNL     1      -1.540  -0.150   0.084  1.00  0.00     0.014 A 
BRANCH  10  13
HETATM   13  C15 UNL     1      -5.158  -0.618   0.609  1.00  0.00     0.175 C 
HETATM   14  C16 UNL     1      -5.587  -0.165   1.992  1.00  0.00     0.054 C 
HETATM   15  C17 UNL     1      -6.271  -0.304  -0.345  1.00  0.00     0.054 C 
BRANCH  13  16
HETATM   16  N4  UNL     1      -5.023  -2.066   0.662  1.00  0.00     0.091 N 
HETATM   17  H21 UNL     1      -4.339  -2.323  -0.084  1.00  0.00     0.314 HD
HETATM   18  H22 UNL     1      -4.571  -2.286   1.579  1.00  0.00     0.314 HD
ENDBRANCH  13  16
ENDBRANCH  10  13
ENDBRANCH   6   7
BRANCH   1  19
HETATM   19  C6  UNL     1       1.549   0.154  -0.499  1.00  0.00    -0.014 C 
BRANCH  19  20
HETATM   20  C5  UNL     1       2.949  -0.301  -0.440  1.00  0.00     0.047 C 
BRANCH  20  21
HETATM   21  C4  UNL     1       3.430  -0.657   0.963  1.00  0.00     0.126 C 
BRANCH  21  22
HETATM   22  N1  UNL     1       4.807  -1.090   0.879  1.00  0.00    -0.357 N 
HETATM   23  C3  UNL     1       5.922  -0.346   0.414  1.00  0.00     0.240 C 
HETATM   24  O1  UNL     1       5.763   0.819   0.019  1.00  0.00    -0.269 OA
HETATM   25  H4  UNL     1       5.052  -2.075   1.195  1.00  0.00     0.162 HD
BRANCH  23  26
HETATM   26  C2  UNL     1       7.253  -0.904   0.382  1.00  0.00     0.064 C 
HETATM   27  C1  UNL     1       7.498  -2.139   0.786  1.00  0.00     0.017 C 
ENDBRANCH  23  26
ENDBRANCH  21  22
ENDBRANCH  20  21
ENDBRANCH  19  20
ENDBRANCH   1  19
TORSDOF 8
