REMARK  4 active torsions:
REMARK  status: ('A' for Active; 'I' for Inactive)
REMARK    1  A    between atoms: O1_1  and  C1_2 
REMARK    2  A    between atoms: C5_6  and  C6_7 
REMARK    3  A    between atoms: C9_10  and  N1_11 
REMARK    4  A    between atoms: N1_11  and  C10_12 
ROOT
HETATM    1  C6  UNL     1       0.832  -0.528  -0.238  1.00  0.00     0.019 C 
HETATM    2  C7  UNL     1       0.447  -1.312   0.749  1.00  0.00    -0.007 C 
HETATM    3  C8  UNL     1      -0.714  -1.944   0.680  1.00  0.00     0.063 C 
HETATM    4  C9  UNL     1      -1.777  -0.914   0.543  1.00  0.00     0.129 C 
HETATM    5  N2  UNL     1      -1.780   0.281   1.090  1.00  0.00    -0.225 NA
HETATM    6  C12 UNL     1      -2.824   1.204   0.914  1.00  0.00     0.236 C 
HETATM    7  N3  UNL     1      -2.686   2.225   0.121  1.00  0.00    -0.241 NA
HETATM    8  C13 UNL     1      -1.469   2.422  -0.585  1.00  0.00     0.207 C 
HETATM    9  N4  UNL     1      -1.350   1.415  -1.404  1.00  0.00    -0.148 NA
HETATM   10  N5  UNL     1      -0.188   1.425  -2.209  1.00  0.00    -0.307 N 
HETATM   11  P1  UNL     1      -0.456  -0.218  -1.495  1.00  0.00     0.067 P 
HETATM   12  H11 UNL     1       0.678   1.427  -2.807  1.00  0.00     0.181 HD
HETATM   13  H12 UNL     1      -0.363  -1.198  -2.550  1.00  0.00     0.098 HD
ENDROOT
BRANCH   1  14
HETATM   14  C5  UNL     1       2.216  -0.214   0.105  1.00  0.00    -0.019 A 
HETATM   15  C4  UNL     1       3.135  -0.964  -0.620  1.00  0.00     0.012 A 
HETATM   16  C3  UNL     1       4.499  -0.781  -0.408  1.00  0.00     0.004 A 
HETATM   17  C2  UNL     1       4.869   0.159   0.534  1.00  0.00     0.036 A 
HETATM   18  C1  UNL     1       3.944   0.896   1.245  1.00  0.00     0.066 A 
HETATM   19  C14 UNL     1       2.592   0.718   1.038  1.00  0.00     0.049 A 
BRANCH  18  20
HETATM   20  O1  UNL     1       4.349   1.843   2.194  1.00  0.00    -0.361 OA
HETATM   21  H1  UNL     1       5.298   1.853   2.536  1.00  0.00     0.217 HD
ENDBRANCH  18  20
ENDBRANCH   1  14
BRANCH   4  22
HETATM   22  N1  UNL     1      -2.942  -1.241  -0.251  1.00  0.00    -0.349 N 
HETATM   23  H6  UNL     1      -2.912  -2.093  -0.888  1.00  0.00     0.167 HD
BRANCH  22  24
HETATM   24  C10 UNL     1      -4.163  -0.510  -0.264  1.00  0.00     0.119 C 
HETATM   25  C11 UNL     1      -4.823  -1.218   0.669  1.00  0.00     0.205 C 
HETATM   26  F1  UNL     1      -3.926  -2.186   1.045  1.00  0.00    -0.218 F 
ENDBRANCH  22  24
ENDBRANCH   4  22
TORSDOF 4
