REMARK  3 active torsions:
REMARK  status: ('A' for Active; 'I' for Inactive)
REMARK    1  A    between atoms: C2_2  and  C3_3 
REMARK    2  A    between atoms: C4_4  and  C5_5 
REMARK    3  A    between atoms: N2_17  and  N3_18 
ROOT
HETATM    1  C5  UNL     1       1.382   0.454   0.037  1.00  0.00     0.022 C 
HETATM    2  C6  UNL     1       1.648   1.911  -0.014  1.00  0.00     0.010 C 
HETATM    3  C7  UNL     1       0.398   2.748  -0.176  1.00  0.00     0.007 C 
HETATM    4  C8  UNL     1      -0.418   2.397  -1.399  1.00  0.00     0.057 C 
HETATM    5  C9  UNL     1      -1.617   1.589  -1.042  1.00  0.00     0.020 A 
HETATM    6  C10 UNL     1      -2.933   1.393  -1.248  1.00  0.00    -0.001 A 
HETATM    7  C11 UNL     1      -4.383   1.267  -1.554  1.00  0.00     0.162 C 
HETATM    8  N1  UNL     1      -4.962   1.357  -0.203  1.00  0.00    -0.354 N 
HETATM    9  C12 UNL     1      -3.968   0.830   0.706  1.00  0.00     0.252 C 
HETATM   10  O1  UNL     1      -4.184   0.987   1.947  1.00  0.00    -0.270 OA
HETATM   11  C13 UNL     1      -3.038   0.282  -0.312  1.00  0.00     0.158 A 
HETATM   12  C14 UNL     1      -3.387  -1.079  -0.732  1.00  0.00     0.154 C 
HETATM   13  N2  UNL     1      -2.670  -2.170  -0.155  1.00  0.00    -0.248 NA
HETATM   14  C15 UNL     1      -2.433  -2.100   1.265  1.00  0.00     0.137 C 
HETATM   15  C16 UNL     1      -1.096  -1.405   1.429  1.00  0.00     0.014 C 
HETATM   16  C17 UNL     1      -0.831  -0.264   0.791  1.00  0.00     0.011 C 
HETATM   17  C18 UNL     1       0.549   0.037   1.238  1.00  0.00     0.066 C 
HETATM   18  N4  UNL     1      -1.633   0.510  -0.106  1.00  0.00    -0.330 N 
HETATM   19  H15 UNL     1      -5.940   1.754  -0.041  1.00  0.00     0.162 HD
ENDROOT
BRANCH   1  20
HETATM   20  C4  UNL     1       2.596  -0.346  -0.098  1.00  0.00    -0.044 C 
HETATM   21  C3  UNL     1       3.893  -0.216  -0.110  1.00  0.00     0.049 C 
HETATM   22  O2  UNL     1       4.557  -1.421  -0.288  1.00  0.00    -0.355 OA
HETATM   23  C20 UNL     1       3.637  -2.429  -0.659  1.00  0.00     0.179 C 
HETATM   24  C19 UNL     1       2.333  -1.821  -0.273  1.00  0.00     0.064 C 
BRANCH  21  25
HETATM   25  C2  UNL     1       4.783   0.926   0.025  1.00  0.00     0.060 C 
HETATM   26  C1  UNL     1       5.719   0.730   1.231  1.00  0.00     0.012 C 
ENDBRANCH  21  25
ENDBRANCH   1  20
BRANCH  13  27
HETATM   27  N3  UNL     1      -3.461  -3.330  -0.353  1.00  0.00    -0.268 NA
HETATM   28  H18 UNL     1      -2.908  -4.154   0.003  1.00  0.00     0.137 HD
HETATM   29  H19 UNL     1      -4.257  -3.219   0.343  1.00  0.00     0.137 HD
ENDBRANCH  13  27
TORSDOF 3
