REMARK  5 active torsions:
REMARK  status: ('A' for Active; 'I' for Inactive)
REMARK    1  A    between atoms: C2_2  and  C5_5 
REMARK    2  A    between atoms: C8_8  and  N1_9 
REMARK    3  A    between atoms: N1_9  and  C9_10 
REMARK    4  A    between atoms: C14_17  and  N4_18 
REMARK       I    between atoms: N4_18  and  C15_19 
REMARK    5  A    between atoms: C15_19  and  C16_21 
ROOT
HETATM    1  C9  UNL     1       1.271  -0.739   0.971  1.00  0.00     0.142 A 
HETATM    2  N2  UNL     1       0.759  -1.437   1.992  1.00  0.00    -0.224 NA
HETATM    3  C10 UNL     1       1.453  -2.120   2.898  1.00  0.00     0.236 A 
HETATM    4  N3  UNL     1       2.780  -2.100   2.768  1.00  0.00    -0.241 NA
HETATM    5  C11 UNL     1       3.424  -1.443   1.793  1.00  0.00     0.072 A 
HETATM    6  C12 UNL     1       4.795  -1.506   1.776  1.00  0.00     0.035 A 
HETATM    7  C13 UNL     1       5.469  -0.833   0.774  1.00  0.00     0.032 A 
HETATM    8  C14 UNL     1       4.734  -0.134  -0.156  1.00  0.00     0.035 A 
HETATM    9  C17 UNL     1       3.341  -0.088  -0.110  1.00  0.00     0.047 A 
HETATM   10  C18 UNL     1       2.644  -0.749   0.878  1.00  0.00     0.041 A 
ENDROOT
BRANCH   1  11
HETATM   11  N1  UNL     1       0.498  -0.018   0.032  1.00  0.00    -0.340 N 
HETATM   12  H12 UNL     1       0.895   0.557  -0.735  1.00  0.00     0.167 HD
BRANCH  11  13
HETATM   13  C8  UNL     1      -0.905   0.032  -0.010  1.00  0.00     0.033 A 
HETATM   14  C7  UNL     1      -1.730  -0.894   0.583  1.00  0.00     0.030 A 
HETATM   15  C6  UNL     1      -3.108  -0.840   0.563  1.00  0.00     0.010 A 
HETATM   16  C5  UNL     1      -3.746   0.178  -0.075  1.00  0.00    -0.051 A 
HETATM   17  C20 UNL     1      -2.998   1.141  -0.692  1.00  0.00     0.010 A 
HETATM   18  C19 UNL     1      -1.632   1.044  -0.644  1.00  0.00     0.030 A 
BRANCH  16  19
HETATM   19  C2  UNL     1      -5.218   0.322  -0.152  1.00  0.00    -0.024 C 
HETATM   20  C1  UNL     1      -5.623   1.106   1.102  1.00  0.00     0.019 C 
HETATM   21  C3  UNL     1      -5.670   1.117  -1.358  1.00  0.00     0.019 C 
HETATM   22  C4  UNL     1      -5.910  -1.026  -0.201  1.00  0.00     0.019 C 
ENDBRANCH  16  19
ENDBRANCH  11  13
ENDBRANCH   1  11
BRANCH   8  23
HETATM   23  N4  UNL     1       5.506   0.529  -1.150  1.00  0.00    -0.325 N 
HETATM   24  C15 UNL     1       6.118   0.380  -2.417  1.00  0.00     0.250 C 
HETATM   25  O1  UNL     1       6.085  -0.673  -3.095  1.00  0.00    -0.271 OA
HETATM   26  H16 UNL     1       5.594   1.470  -0.656  1.00  0.00     0.169 HD
BRANCH  24  27
HETATM   27  C16 UNL     1       6.844   1.541  -2.984  1.00  0.00     0.325 C 
HETATM   28  F1  UNL     1       6.792   2.648  -2.141  1.00  0.00    -0.246 F 
ENDBRANCH  24  27
ENDBRANCH   8  23
TORSDOF 5
