REMARK  1 active torsions:
REMARK  status: ('A' for Active; 'I' for Inactive)
REMARK    1  A    between atoms: N4_16  and  C11_17 
ROOT
HETATM    1  C1  UNL     1       1.874  -0.682  -2.775  1.00  0.00     0.203 C 
HETATM    2  N1  UNL     1       0.970  -0.394  -1.687  1.00  0.00    -0.207 N 
HETATM    3  N2  UNL     1      -0.400  -0.426  -2.069  1.00  0.00    -0.129 NA
HETATM    4  C2  UNL     1      -1.322  -0.212  -1.205  1.00  0.00     0.214 A 
HETATM    5  O1  UNL     1      -2.706  -0.232  -1.526  1.00  0.00    -0.322 OA
HETATM    6  C3  UNL     1      -3.845   0.373  -1.042  1.00  0.00     0.162 C 
HETATM    7  C4  UNL     1      -4.791  -0.469  -0.233  1.00  0.00     0.048 C 
HETATM    8  C5  UNL     1      -5.038  -0.612   1.116  1.00  0.00     0.117 C 
HETATM    9  F1  UNL     1      -5.907  -1.145   1.953  1.00  0.00    -0.206 F 
HETATM   10  C6  UNL     1      -3.977   0.062   1.989  1.00  0.00     0.067 C 
HETATM   11  C7  UNL     1      -3.084   0.630   1.132  1.00  0.00     0.015 C 
HETATM   12  C8  UNL     1      -3.536   1.514  -0.050  1.00  0.00     0.093 C 
HETATM   13  N3  UNL     1      -1.666   0.315   1.321  1.00  0.00    -0.355 N 
HETATM   14  C9  UNL     1      -0.777   0.060   0.171  1.00  0.00     0.105 A 
HETATM   15  C10 UNL     1       0.440   0.120   0.661  1.00  0.00     0.152 A 
HETATM   16  N4  UNL     1       1.402  -0.134  -0.387  1.00  0.00    -0.247 N 
HETATM   17  H9  UNL     1      -1.434   0.288   2.336  1.00  0.00     0.166 HD
ENDROOT
BRANCH  16  18
HETATM   18  C11 UNL     1       2.753  -0.102   0.039  1.00  0.00     0.059 A 
HETATM   19  C12 UNL     1       3.043  -0.524   1.338  1.00  0.00     0.031 A 
HETATM   20  C13 UNL     1       4.274  -0.556   1.953  1.00  0.00     0.004 A 
HETATM   21  C14 UNL     1       5.335  -0.122   1.192  1.00  0.00     0.019 A 
HETATM   22  C15 UNL     1       5.140   0.312  -0.101  1.00  0.00     0.013 A 
HETATM   23 BR1  UNL     1       6.606   0.915  -1.160  1.00  0.00    -0.051 Br
HETATM   24  C16 UNL     1       3.875   0.312  -0.638  1.00  0.00     0.050 A 
ENDBRANCH  16  18
TORSDOF 1
