REMARK  3 active torsions:
REMARK  status: ('A' for Active; 'I' for Inactive)
REMARK    1  A    between atoms: C3_3  and  C4_5 
REMARK    2  A    between atoms: C8_10  and  N2_11 
REMARK    3  A    between atoms: N2_11  and  C9_12 
ROOT
HETATM    1  C4  UNL     1      -3.973  -0.047  -0.188  1.00  0.00     0.076 C 
HETATM    2  C5  UNL     1      -2.701  -0.073  -0.566  1.00  0.00     0.076 C 
HETATM    3  C6  UNL     1      -1.742   1.048  -0.727  1.00  0.00     0.185 C 
HETATM    4  N1  UNL     1      -0.462   0.701  -0.083  1.00  0.00    -0.377 N 
HETATM    5  C7  UNL     1       0.154  -0.548  -0.407  1.00  0.00     0.129 A 
HETATM    6  C8  UNL     1       1.522  -0.744  -0.321  1.00  0.00     0.160 A 
HETATM    7  N3  UNL     1       1.933  -1.973  -0.658  1.00  0.00    -0.222 NA
HETATM    8  C15 UNL     1       1.093  -2.937  -1.047  1.00  0.00     0.238 A 
HETATM    9  N4  UNL     1      -0.253  -2.731  -1.129  1.00  0.00    -0.215 NA
HETATM   10  C16 UNL     1      -0.757  -1.503  -0.802  1.00  0.00     0.201 A 
HETATM   11  O1  UNL     1      -2.102  -1.278  -0.876  1.00  0.00    -0.293 OA
HETATM   12  H8  UNL     1       0.017   1.329   0.604  1.00  0.00     0.160 HD
ENDROOT
BRANCH   6  13
HETATM   13  N2  UNL     1       2.342   0.312   0.081  1.00  0.00    -0.339 N 
HETATM   14  H9  UNL     1       1.930   1.248   0.278  1.00  0.00     0.167 HD
BRANCH  13  15
HETATM   15  C9  UNL     1       3.743   0.299   0.268  1.00  0.00     0.035 A 
HETATM   16  C10 UNL     1       4.528  -0.811   0.151  1.00  0.00     0.029 A 
HETATM   17  C11 UNL     1       5.894  -0.845   0.325  1.00  0.00     0.004 A 
HETATM   18  C12 UNL     1       6.566   0.331   0.647  1.00  0.00     0.019 A 
HETATM   19  C13 UNL     1       5.821   1.477   0.777  1.00  0.00     0.013 A 
HETATM   20 BR1  UNL     1       6.685   3.119   1.217  1.00  0.00    -0.051 Br
HETATM   21  C14 UNL     1       4.462   1.436   0.589  1.00  0.00     0.048 A 
ENDBRANCH  13  15
ENDBRANCH   6  13
BRANCH   1  22
HETATM   22  C3  UNL     1      -4.803   1.081   0.181  1.00  0.00     0.114 C 
HETATM   23  C2  UNL     1      -6.092   0.989   0.547  1.00  0.00     0.011 C 
HETATM   24  C1  UNL     1      -6.998  -0.195   0.679  1.00  0.00     0.039 C 
HETATM   25  F1  UNL     1      -4.258   2.343   0.164  1.00  0.00    -0.206 F 
ENDBRANCH   1  22
TORSDOF 3
