REMARK  7 active torsions:
REMARK  status: ('A' for Active; 'I' for Inactive)
REMARK    1  A    between atoms: O1_2  and  C2_3 
REMARK    2  A    between atoms: C6_9  and  N3_10 
REMARK    3  A    between atoms: N3_10  and  C7_11 
REMARK    4  A    between atoms: C15_21  and  O2_22 
REMARK    5  A    between atoms: O2_22  and  C16_23 
REMARK    6  A    between atoms: C16_23  and  C17_24 
REMARK    7  A    between atoms: C17_24  and  N4_25 
ROOT
HETATM    1  C2  UNL     1      -0.250  -2.448   0.547  1.00  0.00     0.103 A 
HETATM    2  C3  UNL     1      -1.313  -3.114  -0.070  1.00  0.00     0.072 A 
HETATM    3  C4  UNL     1      -2.301  -2.311  -0.620  1.00  0.00     0.075 A 
HETATM    4  N1  UNL     1      -3.329  -2.920  -1.226  1.00  0.00    -0.241 NA
HETATM    5  C5  UNL     1      -4.309  -2.195  -1.781  1.00  0.00     0.236 A 
HETATM    6  N2  UNL     1      -4.247  -0.853  -1.723  1.00  0.00    -0.224 NA
HETATM    7  C6  UNL     1      -3.234  -0.198  -1.125  1.00  0.00     0.142 A 
HETATM    8  C13 UNL     1      -2.232  -0.946  -0.557  1.00  0.00     0.042 A 
HETATM    9  C14 UNL     1      -1.194  -0.280   0.046  1.00  0.00     0.057 A 
HETATM   10  C15 UNL     1      -0.182  -1.048   0.609  1.00  0.00     0.103 A 
ENDROOT
BRANCH   7  11
HETATM   11  N3  UNL     1      -3.313   1.219  -1.161  1.00  0.00    -0.340 N 
HETATM   12  H6  UNL     1      -2.672   1.858  -1.645  1.00  0.00     0.167 HD
BRANCH  11  13
HETATM   13  C7  UNL     1      -4.428   1.724  -0.416  1.00  0.00     0.035 A 
HETATM   14  C8  UNL     1      -5.249   0.920   0.340  1.00  0.00     0.032 A 
HETATM   15  C9  UNL     1      -6.349   1.405   1.044  1.00  0.00     0.046 A 
HETATM   16  C10 UNL     1      -6.632   2.752   0.985  1.00  0.00     0.138 A 
HETATM   17  F1  UNL     1      -7.717   3.226   1.679  1.00  0.00    -0.204 F 
HETATM   18  C11 UNL     1      -5.810   3.561   0.229  1.00  0.00     0.074 A 
HETATM   19 CL1  UNL     1      -6.252   5.268   0.208  1.00  0.00    -0.081 Cl
HETATM   20  C12 UNL     1      -4.726   3.072  -0.463  1.00  0.00     0.056 A 
ENDBRANCH  11  13
ENDBRANCH   7  11
BRANCH  10  21
HETATM   21  O2  UNL     1       0.856  -0.597   1.207  1.00  0.00    -0.347 OA
BRANCH  21  22
HETATM   22  C16 UNL     1       1.855   0.025   1.785  1.00  0.00     0.206 C 
BRANCH  22  23
HETATM   23  C17 UNL     1       2.628   0.926   0.839  1.00  0.00     0.299 C 
BRANCH  23  24
HETATM   24  N4  UNL     1       3.202   0.229  -0.284  1.00  0.00     0.090 N 
HETATM   25  C18 UNL     1       4.260  -0.685   0.086  1.00  0.00     0.273 C 
HETATM   26  C19 UNL     1       5.460   0.119   0.451  1.00  0.00     0.036 C 
HETATM   27  C20 UNL     1       5.220   1.499  -0.141  1.00  0.00     0.011 C 
HETATM   28  C21 UNL     1       6.404   1.881  -1.019  1.00  0.00     0.011 C 
HETATM   29  C22 UNL     1       3.989   1.256  -0.996  1.00  0.00     0.276 C 
ENDBRANCH  23  24
ENDBRANCH  22  23
ENDBRANCH  21  22
ENDBRANCH  10  21
BRANCH   1  30
HETATM   30  O1  UNL     1       0.746  -3.278   1.101  1.00  0.00    -0.353 OA
HETATM   31  C1  UNL     1       0.584  -4.663   0.982  1.00  0.00     0.210 C 
ENDBRANCH   1  30
TORSDOF 7
