REMARK  9 active torsions:
REMARK  status: ('A' for Active; 'I' for Inactive)
REMARK    1  A    between atoms: O1_2  and  C2_3 
REMARK    2  A    between atoms: C3_4  and  C4_5 
REMARK    3  A    between atoms: C6_9  and  N3_10 
REMARK    4  A    between atoms: N3_10  and  C7_11 
REMARK    5  A    between atoms: C15_21  and  O2_22 
REMARK    6  A    between atoms: O2_22  and  C16_23 
REMARK    7  A    between atoms: C16_23  and  C17_24 
REMARK    8  A    between atoms: C17_24  and  C18_25 
REMARK    9  A    between atoms: C18_25  and  N4_26 
ROOT
HETATM    1  C4  UNL     1       1.172  -1.923  -0.885  1.00  0.00     0.079 A 
HETATM    2  N1  UNL     1       0.868  -3.167  -1.297  1.00  0.00    -0.241 NA
HETATM    3  C5  UNL     1       1.797  -3.888  -1.992  1.00  0.00     0.236 A 
HETATM    4  N2  UNL     1       2.997  -3.340  -2.250  1.00  0.00    -0.224 NA
HETATM    5  C6  UNL     1       3.385  -2.120  -1.883  1.00  0.00     0.137 A 
HETATM    6  C13 UNL     1       2.408  -1.449  -1.190  1.00  0.00     0.013 A 
HETATM    7  C14 UNL     1       2.705  -0.070  -0.712  1.00  0.00     0.055 C 
ENDROOT
BRANCH   1   8
HETATM    8  C3  UNL     1       0.187  -1.118  -0.129  1.00  0.00     0.039 A 
HETATM    9  C2  UNL     1       0.059  -0.242   0.868  1.00  0.00     0.091 A 
HETATM   10  C15 UNL     1      -1.212  -0.633   0.171  1.00  0.00     0.216 A 
BRANCH   9  11
HETATM   11  O1  UNL     1       0.499   0.565   1.892  1.00  0.00    -0.356 OA
HETATM   12  C1  UNL     1      -0.205   0.792   3.094  1.00  0.00     0.209 C 
ENDBRANCH   9  11
BRANCH  10  13
HETATM   13  O2  UNL     1      -1.994  -1.600   0.705  1.00  0.00    -0.374 OA
BRANCH  13  14
HETATM   14  C16 UNL     1      -3.292  -1.563   0.364  1.00  0.00     0.170 C 
BRANCH  14  15
HETATM   15  C17 UNL     1      -4.071  -0.457   0.954  1.00  0.00     0.056 C 
BRANCH  15  16
HETATM   16  C18 UNL     1      -3.624   0.908   0.629  1.00  0.00     0.274 C 
BRANCH  16  17
HETATM   17  N4  UNL     1      -4.579   1.829   1.308  1.00  0.00     0.092 N 
HETATM   18  C19 UNL     1      -4.150   3.169   0.954  1.00  0.00     0.298 C 
HETATM   19  C20 UNL     1      -4.731   3.590  -0.381  1.00  0.00     0.198 C 
HETATM   20  O3  UNL     1      -6.100   3.503  -0.453  1.00  0.00    -0.388 OA
HETATM   21  C21 UNL     1      -6.631   2.826   0.635  1.00  0.00     0.198 C 
HETATM   22  C22 UNL     1      -5.864   1.507   0.709  1.00  0.00     0.298 C 
ENDBRANCH  16  17
ENDBRANCH  15  16
ENDBRANCH  14  15
ENDBRANCH  13  14
ENDBRANCH  10  13
ENDBRANCH   1   8
BRANCH   5  23
HETATM   23  N3  UNL     1       4.631  -1.504  -2.128  1.00  0.00    -0.340 N 
HETATM   24  H5  UNL     1       4.501  -1.121  -3.064  1.00  0.00     0.167 HD
BRANCH  23  25
HETATM   25  C7  UNL     1       5.831  -1.367  -1.383  1.00  0.00     0.035 A 
HETATM   26  C8  UNL     1       6.905  -0.788  -2.023  1.00  0.00     0.032 A 
HETATM   27  C9  UNL     1       8.083  -0.625  -1.336  1.00  0.00     0.046 A 
HETATM   28  C10 UNL     1       8.182  -1.043  -0.009  1.00  0.00     0.138 A 
HETATM   29  F1  UNL     1       9.356  -0.871   0.653  1.00  0.00    -0.204 F 
HETATM   30  C11 UNL     1       7.111  -1.622   0.633  1.00  0.00     0.074 A 
HETATM   31 CL1  UNL     1       7.174  -2.164   2.281  1.00  0.00    -0.081 Cl
HETATM   32  C12 UNL     1       5.909  -1.791  -0.063  1.00  0.00     0.056 A 
ENDBRANCH  23  25
ENDBRANCH   5  23
TORSDOF 9
