REMARK  4 active torsions:
REMARK  status: ('A' for Active; 'I' for Inactive)
REMARK    1  A    between atoms: C13_15  and  C14_16 
REMARK    2  A    between atoms: C15_17  and  C16_18 
REMARK    3  A    between atoms: N2_24  and  C21_25 
REMARK    4  A    between atoms: C21_25  and  C22_26 
ROOT
HETATM    1  C1  UNL     1      -3.137  -0.909  -2.348  1.00  0.00     0.050 C 
HETATM    2  C2  UNL     1      -3.526  -0.310  -1.092  1.00  0.00    -0.038 C 
HETATM    3  C3  UNL     1      -2.354  -0.158  -0.513  1.00  0.00     0.024 C 
HETATM    4  C4  UNL     1      -2.341   0.469   0.877  1.00  0.00     0.064 A 
HETATM    5  C5  UNL     1      -1.461   1.626   0.467  1.00  0.00     0.037 A 
HETATM    6  C6  UNL     1      -2.794   1.743   0.812  1.00  0.00     0.005 A 
HETATM    7  C7  UNL     1      -4.170   1.957   1.154  1.00  0.00     0.053 C 
HETATM    8  C8  UNL     1      -4.544   1.535   2.518  1.00  0.00     0.133 C 
HETATM    9  N1  UNL     1      -6.046   1.601   2.338  1.00  0.00    -0.356 N 
HETATM   10  C9  UNL     1      -6.357   1.270   0.933  1.00  0.00     0.248 C 
HETATM   11  O1  UNL     1      -7.353   1.196   0.161  1.00  0.00    -0.268 OA
HETATM   12  C10 UNL     1      -5.066   0.957   0.394  1.00  0.00     0.017 C 
HETATM   13  C11 UNL     1      -4.848   0.011  -0.560  1.00  0.00     0.022 C 
HETATM   14  C12 UNL     1      -0.299   0.795   0.039  1.00  0.00     0.023 C 
HETATM   15  C13 UNL     1       0.995   0.902   0.108  1.00  0.00     0.026 C 
HETATM   16  N2  UNL     1      -0.949  -0.355  -0.611  1.00  0.00    -0.352 N 
HETATM   17  H8  UNL     1      -6.901   1.815   2.935  1.00  0.00     0.162 HD
ENDROOT
BRANCH  15  18
HETATM   18  C14 UNL     1       1.687   2.001   0.697  1.00  0.00     0.000 C 
HETATM   19  C15 UNL     1       2.990   2.175   0.802  1.00  0.00     0.005 C 
BRANCH  19  20
HETATM   20  C16 UNL     1       4.169   1.411   0.411  1.00  0.00     0.144 C 
HETATM   21  C17 UNL     1       4.927   2.006  -0.769  1.00  0.00     0.036 C 
HETATM   22  C18 UNL     1       6.274   1.332  -0.798  1.00  0.00     0.005 C 
HETATM   23  C19 UNL     1       6.211  -0.161  -0.675  1.00  0.00     0.026 C 
HETATM   24  C20 UNL     1       5.090  -0.637   0.207  1.00  0.00     0.168 C 
HETATM   25  O2  UNL     1       3.929   0.087   0.056  1.00  0.00    -0.382 OA
ENDBRANCH  19  20
ENDBRANCH  15  18
BRANCH  16  26
HETATM   26  C21 UNL     1      -0.560  -1.511  -1.336  1.00  0.00     0.133 C 
BRANCH  26  27
HETATM   27  C22 UNL     1       0.145  -2.432  -0.302  1.00  0.00    -0.004 C 
HETATM   28  C23 UNL     1       0.630  -3.706  -0.935  1.00  0.00     0.011 C 
HETATM   29  C24 UNL     1      -0.850  -2.848   0.773  1.00  0.00     0.011 C 
ENDBRANCH  26  27
ENDBRANCH  16  26
TORSDOF 4
