REMARK  4 active torsions:
REMARK  status: ('A' for Active; 'I' for Inactive)
REMARK    1  A    between atoms: O1_2  and  C2_3 
REMARK    2  A    between atoms: C6_9  and  N3_10 
REMARK    3  A    between atoms: N3_10  and  C7_11 
REMARK    4  A    between atoms: C22_30  and  O3_31 
ROOT
HETATM    1  C2  UNL     1      -2.268   2.060   1.620  1.00  0.00     0.076 C 
HETATM    2  C3  UNL     1      -0.987   2.179   2.021  1.00  0.00     0.067 C 
HETATM    3  C4  UNL     1       0.209   1.873   1.251  1.00  0.00     0.074 A 
HETATM    4  N1  UNL     1       0.725   3.078   0.956  1.00  0.00    -0.241 NA
HETATM    5  C5  UNL     1       1.858   3.221   0.241  1.00  0.00     0.236 A 
HETATM    6  N2  UNL     1       2.535   2.162  -0.215  1.00  0.00    -0.224 NA
HETATM    7  C6  UNL     1       2.021   0.947   0.079  1.00  0.00     0.142 A 
HETATM    8  C13 UNL     1       0.864   0.755   0.806  1.00  0.00     0.041 A 
HETATM    9  C14 UNL     1       0.459  -0.630   0.997  1.00  0.00     0.045 C 
HETATM   10  C15 UNL     1      -0.325  -1.607   0.610  1.00  0.00     0.032 C 
HETATM   11  C16 UNL     1      -0.180  -2.917   1.346  1.00  0.00     0.224 C 
HETATM   12  O2  UNL     1      -1.391  -3.153   1.949  1.00  0.00    -0.384 OA
HETATM   13  C17 UNL     1      -2.309  -3.576   0.994  1.00  0.00     0.187 C 
HETATM   14  C18 UNL     1      -1.982  -3.076  -0.386  1.00  0.00     0.149 C 
HETATM   15  N4  UNL     1      -1.328  -1.765  -0.387  1.00  0.00    -0.380 N 
HETATM   16  C19 UNL     1      -1.856  -0.868  -1.434  1.00  0.00     0.123 C 
HETATM   17  C20 UNL     1      -3.254  -0.411  -1.033  1.00  0.00     0.023 C 
HETATM   18  C21 UNL     1      -3.197   0.302   0.305  1.00  0.00     0.040 C 
HETATM   19  C22 UNL     1      -2.335   1.547   0.224  1.00  0.00     0.174 C 
ENDROOT
BRANCH   7  20
HETATM   20  N3  UNL     1       2.699  -0.222  -0.350  1.00  0.00    -0.340 N 
HETATM   21  H6  UNL     1       2.318  -1.196  -0.172  1.00  0.00     0.167 HD
BRANCH  20  22
HETATM   22  C7  UNL     1       3.932  -0.275  -1.046  1.00  0.00     0.035 A 
HETATM   23  C8  UNL     1       4.869   0.728  -1.176  1.00  0.00     0.032 A 
HETATM   24  C9  UNL     1       6.038   0.642  -1.872  1.00  0.00     0.046 A 
HETATM   25  C10 UNL     1       6.358  -0.513  -2.514  1.00  0.00     0.138 A 
HETATM   26  F1  UNL     1       7.506  -0.641  -3.215  1.00  0.00    -0.204 F 
HETATM   27  C11 UNL     1       5.486  -1.553  -2.436  1.00  0.00     0.074 A 
HETATM   28 CL1  UNL     1       5.894  -3.042  -3.260  1.00  0.00    -0.081 Cl
HETATM   29  C12 UNL     1       4.328  -1.419  -1.727  1.00  0.00     0.056 A 
ENDBRANCH  20  22
ENDBRANCH   7  20
BRANCH   1  30
HETATM   30  O1  UNL     1      -3.496   2.305   2.218  1.00  0.00    -0.357 OA
HETATM   31  C1  UNL     1      -4.171   3.530   2.191  1.00  0.00     0.209 C 
ENDBRANCH   1  30
BRANCH  19  32
HETATM   32  O3  UNL     1      -3.016   2.507  -0.567  1.00  0.00    -0.389 OA
HETATM   33  H24 UNL     1      -2.357   3.244  -0.684  1.00  0.00     0.210 HD
ENDBRANCH  19  32
TORSDOF 4
