REMARK  7 active torsions:
REMARK  status: ('A' for Active; 'I' for Inactive)
REMARK    1  A    between atoms: O1_2  and  C2_3 
REMARK    2  A    between atoms: C6_9  and  N3_10 
REMARK    3  A    between atoms: N3_10  and  C7_11 
REMARK    4  A    between atoms: C14_18  and  O2_19 
REMARK    5  A    between atoms: O2_19  and  C15_20 
REMARK    6  A    between atoms: C15_20  and  C16_21 
REMARK    7  A    between atoms: C17_22  and  N4_23 
ROOT
HETATM    1  C2  UNL     1      -0.797   3.526   0.206  1.00  0.00     0.103 A 
HETATM    2  C3  UNL     1      -2.109   3.329   0.636  1.00  0.00     0.072 A 
HETATM    3  C4  UNL     1      -2.700   2.113   0.371  1.00  0.00     0.075 A 
HETATM    4  N1  UNL     1      -3.957   1.868   0.760  1.00  0.00    -0.241 NA
HETATM    5  C5  UNL     1      -4.569   0.694   0.519  1.00  0.00     0.236 A 
HETATM    6  N2  UNL     1      -3.845  -0.242  -0.144  1.00  0.00    -0.224 NA
HETATM    7  C6  UNL     1      -2.594  -0.033  -0.545  1.00  0.00     0.141 A 
HETATM    8  C12 UNL     1      -1.978   1.158  -0.299  1.00  0.00     0.042 A 
HETATM    9  C13 UNL     1      -0.692   1.393  -0.703  1.00  0.00     0.057 A 
HETATM   10  C14 UNL     1      -0.035   2.577  -0.477  1.00  0.00     0.103 A 
ENDROOT
BRANCH  10  11
HETATM   11  O2  UNL     1       1.232   2.943  -0.821  1.00  0.00    -0.345 OA
BRANCH  11  12
HETATM   12  C15 UNL     1       2.134   2.131  -1.498  1.00  0.00     0.204 C 
BRANCH  12  13
HETATM   13  C16 UNL     1       2.478   0.870  -0.797  1.00  0.00     0.016 C 
HETATM   14  C17 UNL     1       2.498  -0.469  -0.793  1.00  0.00     0.085 C 
BRANCH  14  15
HETATM   15  N4  UNL     1       2.958  -1.411   0.169  1.00  0.00    -0.369 N 
HETATM   16  C18 UNL     1       1.990  -1.923   1.101  1.00  0.00     0.150 C 
HETATM   17  C19 UNL     1       2.535  -3.006   1.986  1.00  0.00     0.187 C 
HETATM   18  O3  UNL     1       3.784  -2.797   2.487  1.00  0.00    -0.386 OA
HETATM   19  C20 UNL     1       4.556  -1.855   1.861  1.00  0.00     0.209 C 
HETATM   20  C21 UNL     1       4.287  -1.950   0.362  1.00  0.00     0.204 C 
HETATM   21 CL1  UNL     1       5.512  -1.017  -0.520  1.00  0.00    -0.100 Cl
ENDBRANCH  14  15
ENDBRANCH  12  13
ENDBRANCH  11  12
ENDBRANCH  10  11
BRANCH   1  22
HETATM   22  O1  UNL     1      -0.247   4.774   0.500  1.00  0.00    -0.353 OA
HETATM   23  C1  UNL     1      -0.979   5.747   1.181  1.00  0.00     0.210 C 
ENDBRANCH   1  22
BRANCH   7  24
HETATM   24  N3  UNL     1      -1.941  -1.089  -1.233  1.00  0.00    -0.344 N 
HETATM   25  H6  UNL     1      -0.987  -1.159  -1.622  1.00  0.00     0.167 HD
BRANCH  24  26
HETATM   26  C7  UNL     1      -2.690  -2.310  -1.462  1.00  0.00     0.013 C 
HETATM   27  C8  UNL     1      -3.572  -2.914  -2.295  1.00  0.00     0.010 C 
HETATM   28  C9  UNL     1      -3.380  -3.988  -1.359  1.00  0.00     0.006 A 
HETATM   29  C10 UNL     1      -3.001  -4.611  -0.193  1.00  0.00     0.017 A 
HETATM   30  C11 UNL     1      -2.784  -3.232  -0.291  1.00  0.00     0.054 A 
ENDBRANCH  24  26
ENDBRANCH   7  24
TORSDOF 7
