REMARK  0 active torsions:
REMARK  status: ('A' for Active; 'I' for Inactive)
ROOT
HETATM    1  C1  UNL     1      -0.963   0.249   3.830  1.00  0.00     0.012 C 
HETATM    2  C2  UNL     1      -0.692   0.484   2.324  1.00  0.00     0.003 C 
HETATM    3  C3  UNL     1       0.607   1.051   2.002  1.00  0.00     0.124 C 
HETATM    4  N1  UNL     1       0.762   1.644   0.684  1.00  0.00    -0.392 N 
HETATM    5  C4  UNL     1       0.762   1.388  -0.696  1.00  0.00     0.016 C 
HETATM    6  C5  UNL     1      -0.109   2.314  -1.170  1.00  0.00    -0.052 C 
HETATM    7  C6  UNL     1      -0.382   3.281  -0.098  1.00  0.00     0.062 C 
HETATM    8  C7  UNL     1      -1.797   3.693  -0.633  1.00  0.00     0.172 C 
HETATM    9  O1  UNL     1      -2.538   2.579  -0.978  1.00  0.00    -0.385 OA
HETATM   10  C8  UNL     1      -2.215   2.004  -2.191  1.00  0.00     0.129 C 
HETATM   11  C9  UNL     1      -2.252   0.463  -2.176  1.00  0.00     0.071 C 
HETATM   12  C10 UNL     1      -0.876  -0.124  -2.013  1.00  0.00    -0.048 C 
HETATM   13  C11 UNL     1       0.422  -0.188  -2.444  1.00  0.00    -0.007 C 
HETATM   14  C12 UNL     1       1.477   0.341  -1.459  1.00  0.00     0.071 C 
HETATM   15  C13 UNL     1       1.870  -0.810  -0.635  1.00  0.00     0.065 C 
HETATM   16  C14 UNL     1       0.834  -1.310   0.295  1.00  0.00    -0.063 C 
HETATM   17  C15 UNL     1      -0.507  -1.011   0.434  1.00  0.00    -0.043 C 
HETATM   18  C16 UNL     1      -0.992  -0.926   1.756  1.00  0.00     0.045 C 
HETATM   19  C17 UNL     1      -1.326  -0.866  -0.814  1.00  0.00    -0.019 C 
HETATM   20  C18 UNL     1      -2.390  -1.608  -0.680  1.00  0.00    -0.042 C 
HETATM   21  C19 UNL     1      -3.358  -2.475  -0.008  1.00  0.00     0.158 C 
HETATM   22  N2  UNL     1      -4.662  -2.034  -0.549  1.00  0.00    -0.357 N 
HETATM   23  C20 UNL     1      -4.425  -1.830  -1.927  1.00  0.00     0.221 C 
HETATM   24  O2  UNL     1      -5.313  -1.491  -2.714  1.00  0.00    -0.273 OA
HETATM   25  C21 UNL     1      -2.996  -2.139  -1.938  1.00  0.00     0.139 C 
HETATM   26  C22 UNL     1       1.278  -2.358   1.257  1.00  0.00     0.042 C 
HETATM   27  C23 UNL     1       2.595  -2.991   0.769  1.00  0.00     0.066 C 
HETATM   28  C24 UNL     1       3.586  -1.862   0.752  1.00  0.00     0.063 A 
HETATM   29  N3  UNL     1       4.801  -1.559   1.241  1.00  0.00    -0.177 NA
HETATM   30  N4  UNL     1       5.152  -0.340   0.854  1.00  0.00    -0.284 N 
HETATM   31  C25 UNL     1       6.404   0.320   1.197  1.00  0.00     0.179 C 
HETATM   32  C26 UNL     1       4.187   0.228   0.089  1.00  0.00     0.121 A 
HETATM   33  C27 UNL     1       3.194  -0.732   0.021  1.00  0.00    -0.005 A 
HETATM   34  C28 UNL     1      -0.829   2.507  -2.496  1.00  0.00     0.068 C 
HETATM   35  H7  UNL     1       0.993   2.695   0.603  1.00  0.00     0.159 HD
HETATM   36  H22 UNL     1      -5.561  -1.911   0.019  1.00  0.00     0.162 HD
ENDROOT
TORSDOF 0
