REMARK  6 active torsions:
REMARK  status: ('A' for Active; 'I' for Inactive)
REMARK    1  A    between atoms: O1_2  and  C2_3 
REMARK    2  A    between atoms: C6_9  and  N3_10 
REMARK    3  A    between atoms: N3_10  and  C7_11 
REMARK    4  A    between atoms: C7_11  and  C8_12 
REMARK    5  A    between atoms: C7_11  and  C11_16 
REMARK    6  A    between atoms: C8_12  and  C9_13 
ROOT
HETATM    1  C2  UNL     1      -1.949   2.325  -1.209  1.00  0.00     0.104 A 
HETATM    2  C3  UNL     1      -1.068   3.101  -1.910  1.00  0.00     0.072 A 
HETATM    3  C4  UNL     1       0.239   2.663  -1.971  1.00  0.00     0.075 A 
HETATM    4  N1  UNL     1       1.114   3.475  -2.602  1.00  0.00    -0.241 NA
HETATM    5  C5  UNL     1       2.409   3.148  -2.628  1.00  0.00     0.235 A 
HETATM    6  N2  UNL     1       2.808   2.000  -2.015  1.00  0.00    -0.229 NA
HETATM    7  C6  UNL     1       1.899   1.213  -1.396  1.00  0.00     0.122 A 
HETATM    8  C14 UNL     1       0.585   1.487  -1.341  1.00  0.00     0.043 A 
HETATM    9  C15 UNL     1      -0.280   0.667  -0.626  1.00  0.00    -0.004 A 
HETATM   10  C16 UNL     1      -1.571   1.149  -0.582  1.00  0.00     0.109 A 
HETATM   11  O2  UNL     1      -2.612   0.602   0.033  1.00  0.00    -0.348 OA
HETATM   12  C17 UNL     1      -3.567   0.994   0.983  1.00  0.00     0.177 C 
HETATM   13  C18 UNL     1      -4.484  -0.294   1.175  1.00  0.00     0.056 C 
HETATM   14  C19 UNL     1      -3.371  -1.281   1.559  1.00  0.00     0.272 C 
HETATM   15  N4  UNL     1      -3.637  -2.652   1.418  1.00  0.00     0.085 N 
HETATM   16  C20 UNL     1      -2.479  -3.345   1.997  1.00  0.00     0.295 C 
HETATM   17  C21 UNL     1      -1.176  -2.898   1.351  1.00  0.00     0.197 C 
HETATM   18  O3  UNL     1      -0.891  -1.583   1.732  1.00  0.00    -0.389 OA
HETATM   19  C22 UNL     1       0.241  -1.039   1.194  1.00  0.00     0.172 C 
HETATM   20  C23 UNL     1       0.281  -0.623  -0.207  1.00  0.00     0.068 C 
HETATM   21  H17 UNL     1      -4.471  -3.002   1.924  1.00  0.00     0.315 HD
ENDROOT
BRANCH   7  22
HETATM   22  N3  UNL     1       2.689   0.265  -0.847  1.00  0.00    -0.242 NA
HETATM   23  H6  UNL     1       2.514   0.541   0.197  1.00  0.00     0.135 HD
BRANCH  22  24
HETATM   24  C7  UNL     1       3.426  -0.578  -0.095  1.00  0.00     0.025 C 
BRANCH  24  25
HETATM   25  C8  UNL     1       4.219  -1.332   0.489  1.00  0.00     0.027 C 
BRANCH  25  26
HETATM   26  C9  UNL     1       4.990  -2.150   1.183  1.00  0.00     0.030 C 
HETATM   27  C10 UNL     1       6.217  -2.504   0.902  1.00  0.00     0.400 C 
HETATM   28  F1  UNL     1       7.334  -2.452   0.100  1.00  0.00    -0.430 F 
ENDBRANCH  25  26
ENDBRANCH  24  25
BRANCH  24  29
HETATM   29  C11 UNL     1       4.273  -0.219  -1.400  1.00  0.00    -0.003 A 
HETATM   30  C12 UNL     1       5.537  -0.635  -1.746  1.00  0.00    -0.012 A 
HETATM   31  C13 UNL     1       5.032   0.119  -2.596  1.00  0.00     0.027 A 
ENDBRANCH  24  29
ENDBRANCH  22  24
ENDBRANCH   7  22
BRANCH   1  32
HETATM   32  O1  UNL     1      -3.261   2.794  -1.166  1.00  0.00    -0.353 OA
HETATM   33  C1  UNL     1      -3.621   3.984  -1.848  1.00  0.00     0.210 C 
ENDBRANCH   1  32
TORSDOF 6
