REMARK  5 active torsions:
REMARK  status: ('A' for Active; 'I' for Inactive)
REMARK    1  A    between atoms: O1_2  and  C2_3 
REMARK    2  A    between atoms: C5_6  and  N1_7 
REMARK    3  A    between atoms: C12_15  and  N3_16 
REMARK    4  A    between atoms: N3_16  and  C13_17 
REMARK    5  A    between atoms: C19_25  and  C20_26 
REMARK       I    between atoms: C20_26  and  N6_27 
ROOT
HETATM    1  C13 UNL     1       1.141  -0.277  -0.532  1.00  0.00     0.727 A 
HETATM    2  N4  UNL     1       0.622   0.302   0.557  1.00  0.00    -0.074 NA
HETATM    3  C14 UNL     1       1.353   0.798   1.560  1.00  0.00     0.146 A 
HETATM    4  C15 UNL     1       2.725   0.738   1.523  1.00  0.00    -0.008 A 
HETATM    5  C16 UNL     1       3.270   0.146   0.409  1.00  0.00     0.112 A 
HETATM    6  N5  UNL     1       2.482  -0.321  -0.542  1.00  0.00    -0.060 NA
HETATM    7  C17 UNL     1       4.721   0.067   0.341  1.00  0.00     0.091 A 
HETATM    8  C18 UNL     1       5.383   0.602   1.416  1.00  0.00     0.009 A 
HETATM    9  C19 UNL     1       6.722   0.420   1.140  1.00  0.00     0.153 A 
HETATM   10  N7  UNL     1       6.784  -0.205  -0.068  1.00  0.00    -0.166 NA
HETATM   11  N8  UNL     1       5.580  -0.416  -0.545  1.00  0.00    -0.271 N 
HETATM   12  C21 UNL     1       5.177  -1.045  -1.788  1.00  0.00     0.180 C 
HETATM   13  C22 UNL     1       4.866   1.248   2.641  1.00  0.00     0.048 A 
HETATM   14  C23 UNL     1       3.369   1.333   2.709  1.00  0.00     0.047 A 
ENDROOT
BRANCH   1  15
HETATM   15  N3  UNL     1       0.408  -0.817  -1.620  1.00  0.00    -0.185 N 
HETATM   16  H18 UNL     1       0.984  -1.241  -2.406  1.00  0.00     0.184 HD
BRANCH  15  17
HETATM   17  C12 UNL     1      -0.980  -0.866  -1.796  1.00  0.00     0.084 A 
HETATM   18  C2  UNL     1      -1.536  -1.435  -2.929  1.00  0.00     0.095 A 
HETATM   19  C3  UNL     1      -2.878  -1.518  -3.167  1.00  0.00     0.041 A 
HETATM   20  C4  UNL     1      -3.775  -1.016  -2.251  1.00  0.00     0.032 A 
HETATM   21  C5  UNL     1      -3.302  -0.432  -1.095  1.00  0.00     0.032 A 
HETATM   22  C11 UNL     1      -1.935  -0.388  -0.931  1.00  0.00     0.062 A 
BRANCH  18  23
HETATM   23  O1  UNL     1      -0.689  -1.969  -3.911  1.00  0.00    -0.354 OA
HETATM   24  C1  UNL     1      -1.164  -2.566  -5.092  1.00  0.00     0.210 C 
ENDBRANCH  18  23
BRANCH  21  25
HETATM   25  N1  UNL     1      -4.202   0.104  -0.118  1.00  0.00    -0.377 N 
HETATM   26  C6  UNL     1      -3.886   0.708   1.152  1.00  0.00     0.153 C 
HETATM   27  C7  UNL     1      -4.933   0.333   2.177  1.00  0.00     0.291 C 
HETATM   28  N2  UNL     1      -6.236   0.862   1.838  1.00  0.00     0.087 N 
HETATM   29  C8  UNL     1      -7.309   0.055   2.382  1.00  0.00     0.310 C 
HETATM   30  C9  UNL     1      -6.383   1.080   0.415  1.00  0.00     0.291 C 
HETATM   31  C10 UNL     1      -5.623   0.056  -0.397  1.00  0.00     0.153 C 
ENDBRANCH  21  25
ENDBRANCH  15  17
ENDBRANCH   1  15
BRANCH   9  32
HETATM   32  C20 UNL     1       7.901   0.793   1.931  1.00  0.00     0.270 C 
HETATM   33  N6  UNL     1       9.207   0.509   1.454  1.00  0.00    -0.365 N 
HETATM   34  H20 UNL     1      10.081   1.060   1.523  1.00  0.00     0.159 HD
HETATM   35  H21 UNL     1       9.515  -0.350   0.925  1.00  0.00     0.159 HD
HETATM   36  O2  UNL     1       7.750   1.366   3.035  1.00  0.00    -0.266 OA
ENDBRANCH   9  32
TORSDOF 5
