REMARK  2 active torsions:
REMARK  status: ('A' for Active; 'I' for Inactive)
REMARK    1  A    between atoms: C2_2  and  C3_3 
REMARK    2  A    between atoms: C4_4  and  N1_5 
REMARK       I    between atoms: N1_5  and  C5_6 
ROOT
HETATM    1  N1  UNL     1       1.908  -1.263   0.644  1.00  0.00    -0.201 N 
HETATM    2  C5  UNL     1       0.772  -0.655   0.077  1.00  0.00     0.694 C 
HETATM    3  N2  UNL     1       0.879   0.512  -0.521  1.00  0.00    -0.078 NA
HETATM    4  C6  UNL     1      -0.343   1.062  -1.077  1.00  0.00     0.139 C 
HETATM    5  C7  UNL     1      -0.773   1.485   0.099  1.00  0.00    -0.051 C 
HETATM    6  C8  UNL     1      -0.495   1.585   1.531  1.00  0.00     0.037 C 
HETATM    7  C9  UNL     1      -1.976   1.691   1.796  1.00  0.00     0.020 C 
HETATM    8  C10 UNL     1      -2.124   2.072   0.346  1.00  0.00     0.076 C 
HETATM    9  C11 UNL     1      -3.159   1.135  -0.252  1.00  0.00     0.096 C 
HETATM   10  C12 UNL     1      -2.841  -0.134  -0.448  1.00  0.00     0.102 C 
HETATM   11  C13 UNL     1      -1.564  -0.713  -0.134  1.00  0.00     0.360 C 
HETATM   12  N3  UNL     1      -0.497  -1.312   0.166  1.00  0.00    -0.225 NA
HETATM   13  N4  UNL     1      -3.596  -1.227  -0.991  1.00  0.00    -0.252 N 
HETATM   14  C14 UNL     1      -2.948  -2.517  -1.194  1.00  0.00     0.182 C 
HETATM   15  N5  UNL     1      -4.964  -1.209  -1.376  1.00  0.00    -0.061 NA
HETATM   16  N6  UNL     1      -5.688  -0.195  -1.591  1.00  0.00    -0.065 NA
HETATM   17  C15 UNL     1      -5.340   1.176  -1.509  1.00  0.00     0.411 C 
HETATM   18  O1  UNL     1      -5.932   1.952  -2.339  1.00  0.00    -0.234 OA
HETATM   19  O2  UNL     1      -4.403   1.643  -0.572  1.00  0.00    -0.260 OA
HETATM   20  H8  UNL     1       1.672  -1.930   1.416  1.00  0.00     0.183 HD
ENDROOT
BRANCH   1  21
HETATM   21  C4  UNL     1       3.150  -0.842   0.045  1.00  0.00     0.102 C 
HETATM   22  C3  UNL     1       4.264  -0.288   0.448  1.00  0.00    -0.009 C 
BRANCH  22  23
HETATM   23  C2  UNL     1       5.558   0.171  -0.071  1.00  0.00     0.024 C 
HETATM   24  C1  UNL     1       6.666  -0.591   0.621  1.00  0.00     0.009 C 
ENDBRANCH  22  23
ENDBRANCH   1  21
TORSDOF 2
