REMARK  4 active torsions:
REMARK  status: ('A' for Active; 'I' for Inactive)
REMARK    1  A    between atoms: C11_12  and  N2_13 
REMARK    2  A    between atoms: N2_13  and  C12_14 
REMARK    3  A    between atoms: C20_24  and  C21_25 
REMARK    4  A    between atoms: C21_25  and  N5_26 
ROOT
HETATM    1  C12 UNL     1       0.046  -0.134   1.018  1.00  0.00     0.726 A 
HETATM    2  N3  UNL     1       0.231  -1.350   1.578  1.00  0.00    -0.074 NA
HETATM    3  C13 UNL     1       1.440  -1.915   1.692  1.00  0.00     0.145 A 
HETATM    4  C14 UNL     1       2.550  -1.260   1.233  1.00  0.00    -0.011 A 
HETATM    5  C15 UNL     1       2.347  -0.019   0.663  1.00  0.00     0.080 A 
HETATM    6  N4  UNL     1       1.132   0.548   0.549  1.00  0.00    -0.063 NA
HETATM    7  C16 UNL     1       3.556   0.669   0.183  1.00  0.00    -0.050 A 
HETATM    8  C17 UNL     1       4.739   0.123   0.298  1.00  0.00    -0.062 A 
HETATM    9  C18 UNL     1       5.032  -1.192   0.895  1.00  0.00     0.040 A 
HETATM   10  C19 UNL     1       3.837  -1.946   1.391  1.00  0.00     0.047 A 
HETATM   11  C20 UNL     1       5.777   1.013  -0.266  1.00  0.00     0.095 C 
HETATM   12  N6  UNL     1       5.243   2.331  -0.400  1.00  0.00    -0.354 NA
HETATM   13  C22 UNL     1       5.739   2.927  -1.624  1.00  0.00     0.093 C 
HETATM   14  B1  UNL     1       3.733   2.054  -0.504  1.00  0.00     0.280 B 
HETATM   15  H29 UNL     1       2.863   2.813  -0.661  1.00  0.00    -0.002 HD
ENDROOT
BRANCH   1  16
HETATM   16  N2  UNL     1      -1.188   0.549   0.852  1.00  0.00    -0.197 N 
HETATM   17  H17 UNL     1      -1.362   1.137   1.710  1.00  0.00     0.183 HD
BRANCH  16  18
HETATM   18  C11 UNL     1      -2.066   0.486  -0.248  1.00  0.00     0.120 C 
HETATM   19  C10 UNL     1      -3.313   0.122  -0.480  1.00  0.00     0.012 C 
HETATM   20  C3  UNL     1      -3.877   0.212  -1.820  1.00  0.00     0.036 C 
HETATM   21  C7  UNL     1      -4.159  -0.378   0.594  1.00  0.00    -0.043 C 
HETATM   22  C2  UNL     1      -3.207   0.653  -2.869  1.00  0.00    -0.001 C 
HETATM   23  N1  UNL     1      -5.217  -0.205  -1.937  1.00  0.00    -0.389 N 
HETATM   24  C1  UNL     1      -3.899   0.698  -4.180  1.00  0.00     0.038 C 
HETATM   25  C4  UNL     1      -6.188  -0.304  -0.866  1.00  0.00     0.129 C 
HETATM   26  H5  UNL     1      -5.631  -0.490  -2.860  1.00  0.00     0.159 HD
HETATM   27  C5  UNL     1      -5.620  -0.129   0.499  1.00  0.00     0.033 C 
HETATM   28  C6  UNL     1      -5.955   1.289   0.975  1.00  0.00     0.017 C 
HETATM   29  C8  UNL     1      -3.629  -1.031   1.614  1.00  0.00    -0.022 C 
HETATM   30  C9  UNL     1      -4.531  -1.521   2.686  1.00  0.00     0.036 C 
ENDBRANCH  16  18
ENDBRANCH   1  16
BRANCH  11  31
HETATM   31  C21 UNL     1       7.030   1.100   0.552  1.00  0.00     0.205 C 
BRANCH  31  32
HETATM   32  N5  UNL     1       7.691  -0.148   0.726  1.00  0.00    -0.139 NA
HETATM   33  O1  UNL     1       8.599  -0.171   1.497  1.00  0.00    -0.067 OA
ENDBRANCH  31  32
ENDBRANCH  11  31
TORSDOF 4
