REMARK  7 active torsions:
REMARK  status: ('A' for Active; 'I' for Inactive)
REMARK    1  A    between atoms: C2_2  and  C3_3 
REMARK    2  A    between atoms: C3_3  and  C14_19 
REMARK    3  A    between atoms: C4_4  and  C5_5 
REMARK    4  A    between atoms: C7_7  and  N1_8 
REMARK    5  A    between atoms: N1_8  and  C8_9 
REMARK    6  A    between atoms: C8_9  and  C10_11 
REMARK    7  A    between atoms: C11_12  and  C12_14 
ROOT
HETATM    1  C5  UNL     1      -1.989  -0.072   0.897  1.00  0.00     0.062 A 
HETATM    2  C6  UNL     1      -0.754   0.199   0.290  1.00  0.00     0.081 A 
HETATM    3  C7  UNL     1       0.412  -0.552   0.528  1.00  0.00     0.127 A 
HETATM    4  N2  UNL     1       0.356  -1.591   1.384  1.00  0.00    -0.225 NA
HETATM    5  C13 UNL     1      -0.812  -1.850   1.963  1.00  0.00     0.235 A 
HETATM    6  N3  UNL     1      -1.896  -1.118   1.713  1.00  0.00    -0.242 NA
ENDROOT
BRANCH   3   7
HETATM    7  N1  UNL     1       1.606  -0.169  -0.168  1.00  0.00    -0.367 N 
HETATM    8  H6  UNL     1       1.300  -0.667  -1.055  1.00  0.00     0.161 HD
BRANCH   7   9
HETATM    9  C8  UNL     1       2.883   0.473  -0.267  1.00  0.00     0.103 C 
HETATM   10  C9  UNL     1       3.321   0.476  -1.725  1.00  0.00     0.036 C 
BRANCH   9  11
HETATM   11  C10 UNL     1       3.908  -0.275   0.550  1.00  0.00     0.019 C 
HETATM   12  C11 UNL     1       5.238  -0.333   0.486  1.00  0.00     0.038 C 
HETATM   13 CL1  UNL     1       6.221  -1.320   1.592  1.00  0.00    -0.087 Cl
BRANCH  12  14
HETATM   14  C12 UNL     1       6.267   0.327  -0.365  1.00  0.00     0.273 C 
HETATM   15  F1  UNL     1       6.938  -0.684  -1.061  1.00  0.00    -0.250 F 
ENDBRANCH  12  14
ENDBRANCH   9  11
ENDBRANCH   7   9
ENDBRANCH   3   7
BRANCH   1  16
HETATM   16  C4  UNL     1      -3.026   0.847   0.462  1.00  0.00     0.041 C 
HETATM   17  C3  UNL     1      -4.234   0.449   0.150  1.00  0.00    -0.031 C 
BRANCH  17  18
HETATM   18  C2  UNL     1      -5.255   1.419  -0.291  1.00  0.00    -0.017 C 
HETATM   19  C1  UNL     1      -6.489   1.081  -0.624  1.00  0.00     0.031 C 
ENDBRANCH  17  18
BRANCH  17  20
HETATM   20  C14 UNL     1      -4.711  -0.964   0.230  1.00  0.00     0.260 C 
HETATM   21  F2  UNL     1      -5.113  -1.459  -0.993  1.00  0.00    -0.251 F 
ENDBRANCH  17  20
ENDBRANCH   1  16
TORSDOF 7
