REMARK  4 active torsions:
REMARK  status: ('A' for Active; 'I' for Inactive)
REMARK    1  A    between atoms: C2_2  and  O1_3 
REMARK    2  A    between atoms: C2_2  and  C3_4 
REMARK    3  A    between atoms: N1_5  and  N2_6 
REMARK    4  A    between atoms: N2_6  and  C5_8 
ROOT
HETATM    1  C5  UNL     1       1.639  -0.492   0.111  1.00  0.00     0.155 A 
HETATM    2  N3  UNL     1       1.106  -1.722   0.007  1.00  0.00    -0.214 NA
HETATM    3  C6  UNL     1      -0.024  -1.826  -0.711  1.00  0.00     0.129 A 
HETATM    4  N4  UNL     1      -0.640  -0.781  -1.322  1.00  0.00    -0.245 NA
HETATM    5  C7  UNL     1      -0.093   0.448  -1.210  1.00  0.00     0.129 A 
HETATM    6  C8  UNL     1       1.066   0.611  -0.484  1.00  0.00     0.007 A 
HETATM    7  C9  UNL     1       1.652   1.973  -0.371  1.00  0.00     0.045 C 
HETATM    8  C10 UNL     1       0.862   2.991  -1.150  1.00  0.00     0.024 C 
HETATM    9  C11 UNL     1       0.026   3.797  -0.225  1.00  0.00     0.120 C 
HETATM   10  N5  UNL     1      -1.374   3.839  -0.593  1.00  0.00    -0.390 N 
HETATM   11  C12 UNL     1      -2.261   2.833  -0.133  1.00  0.00     0.028 A 
HETATM   12  C13 UNL     1      -3.150   2.249  -1.013  1.00  0.00     0.031 A 
HETATM   13  C14 UNL     1      -4.015   1.269  -0.571  1.00  0.00     0.031 A 
HETATM   14  C15 UNL     1      -3.998   0.866   0.749  1.00  0.00     0.028 A 
HETATM   15  C16 UNL     1      -3.109   1.451   1.628  1.00  0.00     0.031 A 
HETATM   16  C17 UNL     1      -2.242   2.433   1.188  1.00  0.00     0.031 A 
HETATM   17  N6  UNL     1      -4.883  -0.140   1.204  1.00  0.00    -0.388 N 
HETATM   18  C18 UNL     1      -4.579  -1.549   0.915  1.00  0.00     0.150 C 
HETATM   19  C19 UNL     1      -3.299  -1.633   0.125  1.00  0.00     0.291 C 
HETATM   20  N7  UNL     1      -2.816  -2.975   0.032  1.00  0.00     0.086 N 
HETATM   21  C20 UNL     1      -3.823  -3.992   0.064  1.00  0.00     0.310 C 
HETATM   22  C21 UNL     1      -2.040  -3.155  -1.189  1.00  0.00     0.279 C 
HETATM   23  C22 UNL     1      -0.582  -3.193  -0.805  1.00  0.00     0.110 C 
HETATM   24  H17 UNL     1      -1.827   4.579  -1.200  1.00  0.00     0.159 HD
HETATM   25  H22 UNL     1      -5.762   0.059   1.748  1.00  0.00     0.159 HD
ENDROOT
BRANCH   1  26
HETATM   26  N2  UNL     1       2.836  -0.394   0.871  1.00  0.00    -0.257 N 
HETATM   27  C4  UNL     1       3.456  -1.559   1.524  1.00  0.00     0.182 C 
BRANCH  26  28
HETATM   28  N1  UNL     1       3.540   0.800   1.076  1.00  0.00    -0.185 NA
HETATM   29  C3  UNL     1       4.800   0.862   0.816  1.00  0.00     0.143 C 
BRANCH  29  30
HETATM   30  C2  UNL     1       6.041   0.166   0.333  1.00  0.00     0.156 C 
HETATM   31  C1  UNL     1       6.669   0.935  -0.818  1.00  0.00     0.045 C 
BRANCH  30  32
HETATM   32  O1  UNL     1       6.966   0.076   1.378  1.00  0.00    -0.391 OA
HETATM   33  H5  UNL     1       7.449  -0.777   1.322  1.00  0.00     0.210 HD
ENDBRANCH  30  32
ENDBRANCH  29  30
ENDBRANCH  26  28
ENDBRANCH   1  26
TORSDOF 4
