REMARK  5 active torsions:
REMARK  status: ('A' for Active; 'I' for Inactive)
REMARK    1  A    between atoms: O1_2  and  C2_3 
REMARK    2  A    between atoms: C5_6  and  N1_7 
REMARK    3  A    between atoms: C12_15  and  N3_16 
REMARK    4  A    between atoms: N3_16  and  C13_17 
REMARK    5  A    between atoms: C19_23  and  C20_24 
REMARK       I    between atoms: C20_24  and  N4_25 
ROOT
HETATM    1  C13 UNL     1      -0.854  -1.358   1.040  1.00  0.00     0.229 C 
HETATM    2  C14 UNL     1      -0.758  -0.079   1.756  1.00  0.00     0.017 C 
HETATM    3  C15 UNL     1      -1.544   0.997   1.772  1.00  0.00    -0.026 C 
HETATM    4  C16 UNL     1      -2.647   0.676   0.857  1.00  0.00     0.032 C 
HETATM    5  C17 UNL     1      -3.975   0.613   1.598  1.00  0.00     0.047 C 
HETATM    6  C18 UNL     1      -4.974  -0.066   0.743  1.00  0.00     0.007 A 
HETATM    7  C19 UNL     1      -6.103  -0.140   0.004  1.00  0.00     0.147 A 
HETATM    8  N5  UNL     1      -6.256  -1.352  -0.506  1.00  0.00    -0.167 NA
HETATM    9  N6  UNL     1      -5.249  -2.103  -0.124  1.00  0.00    -0.272 N 
HETATM   10  C21 UNL     1      -5.265  -3.485  -0.604  1.00  0.00     0.180 C 
HETATM   11  C22 UNL     1      -4.436  -1.360   0.643  1.00  0.00     0.078 A 
HETATM   12  C23 UNL     1      -3.231  -2.025   1.189  1.00  0.00     0.145 C 
HETATM   13  N7  UNL     1      -2.000  -2.100   1.372  1.00  0.00    -0.270 NA
ENDROOT
BRANCH   1  14
HETATM   14  N3  UNL     1      -0.546  -1.298  -0.377  1.00  0.00    -0.362 N 
HETATM   15  H18 UNL     1      -1.259  -1.594  -1.112  1.00  0.00     0.162 HD
BRANCH  14  16
HETATM   16  C12 UNL     1       0.683  -0.879  -0.952  1.00  0.00     0.065 A 
HETATM   17  C2  UNL     1       0.910  -0.839  -2.333  1.00  0.00     0.094 A 
HETATM   18  C3  UNL     1       2.108  -0.437  -2.876  1.00  0.00     0.041 A 
HETATM   19  C4  UNL     1       3.155  -0.048  -2.070  1.00  0.00     0.032 A 
HETATM   20  C5  UNL     1       2.969  -0.074  -0.708  1.00  0.00     0.032 A 
HETATM   21  C11 UNL     1       1.759  -0.481  -0.199  1.00  0.00     0.061 A 
BRANCH  17  22
HETATM   22  O1  UNL     1      -0.140  -1.230  -3.155  1.00  0.00    -0.354 OA
HETATM   23  C1  UNL     1       0.047  -1.205  -4.555  1.00  0.00     0.210 C 
ENDBRANCH  17  22
BRANCH  20  24
HETATM   24  N1  UNL     1       4.005   0.312   0.179  1.00  0.00    -0.377 N 
HETATM   25  C6  UNL     1       5.341   0.718  -0.190  1.00  0.00     0.153 C 
HETATM   26  C7  UNL     1       5.477   2.160   0.309  1.00  0.00     0.291 C 
HETATM   27  N2  UNL     1       5.480   2.130   1.738  1.00  0.00     0.087 N 
HETATM   28  C8  UNL     1       6.746   2.529   2.294  1.00  0.00     0.310 C 
HETATM   29  C9  UNL     1       4.978   0.911   2.323  1.00  0.00     0.291 C 
HETATM   30  C10 UNL     1       3.795   0.336   1.613  1.00  0.00     0.153 C 
ENDBRANCH  20  24
ENDBRANCH  14  16
ENDBRANCH   1  14
BRANCH   7  31
HETATM   31  C20 UNL     1      -6.860   1.100  -0.052  1.00  0.00     0.249 C 
HETATM   32  N4  UNL     1      -6.613   2.360   0.538  1.00  0.00    -0.267 NA
HETATM   33  H26 UNL     1      -5.930   2.787  -0.140  1.00  0.00     0.127 HD
HETATM   34  H27 UNL     1      -6.043   3.191   0.332  1.00  0.00     0.127 HD
HETATM   35  O2  UNL     1      -7.897   0.992  -0.748  1.00  0.00    -0.272 OA
ENDBRANCH   7  31
TORSDOF 5
