REMARK  4 active torsions:
REMARK  status: ('A' for Active; 'I' for Inactive)
REMARK    1  A    between atoms: O1_2  and  C2_3 
REMARK    2  A    between atoms: N3_17  and  C14_18 
REMARK    3  A    between atoms: C14_18  and  C15_19 
REMARK    4  A    between atoms: C19_23  and  C20_24 
REMARK       I    between atoms: C20_24  and  N4_25 
ROOT
HETATM    1  C2  UNL     1      -2.166  -0.402  -2.645  1.00  0.00     0.135 C 
HETATM    2  C3  UNL     1      -3.110   0.454  -2.168  1.00  0.00     0.107 C 
HETATM    3  C4  UNL     1      -4.240   1.379  -2.078  1.00  0.00    -0.047 C 
HETATM    4  C5  UNL     1      -5.225   2.020  -2.988  1.00  0.00     0.046 C 
HETATM    5  C6  UNL     1      -4.599   1.830  -0.907  1.00  0.00     0.038 C 
HETATM    6  C7  UNL     1      -5.560   2.713  -0.299  1.00  0.00     0.326 C 
HETATM    7  N1  UNL     1      -6.362   2.162   0.743  1.00  0.00     0.090 NA
HETATM    8  C8  UNL     1      -5.636   1.942   2.005  1.00  0.00     0.289 C 
HETATM    9  C9  UNL     1      -4.134   1.911   1.631  1.00  0.00     0.153 C 
HETATM   10  N2  UNL     1      -4.143   1.223   0.317  1.00  0.00    -0.377 N 
HETATM   11  C10 UNL     1      -3.761  -0.164   0.240  1.00  0.00     0.152 C 
HETATM   12  C11 UNL     1      -2.448  -0.299   0.870  1.00  0.00     0.027 C 
HETATM   13  C12 UNL     1      -1.419  -0.600   0.112  1.00  0.00     0.087 A 
HETATM   14  C13 UNL     1      -0.209  -0.924  -0.582  1.00  0.00     0.163 A 
HETATM   15  N3  UNL     1       1.068  -1.183  -0.845  1.00  0.00    -0.240 NA
HETATM   16  N7  UNL     1      -1.524  -0.599  -1.283  1.00  0.00    -0.274 N 
HETATM   17  H10 UNL     1      -6.804   1.259   0.462  1.00  0.00     0.316 HD
ENDROOT
BRANCH  15  18
HETATM   18  C14 UNL     1       1.992  -1.161   0.198  1.00  0.00     0.122 C 
BRANCH  18  19
HETATM   19  C15 UNL     1       2.884  -1.232   1.155  1.00  0.00    -0.056 C 
HETATM   20  C16 UNL     1       3.045  -0.028   1.984  1.00  0.00     0.040 C 
HETATM   21  C17 UNL     1       4.404   0.063   2.602  1.00  0.00     0.047 C 
HETATM   22  C18 UNL     1       5.356  -0.614   1.684  1.00  0.00     0.002 A 
HETATM   23  C19 UNL     1       6.623  -0.189   1.219  1.00  0.00     0.147 A 
HETATM   24  C22 UNL     1       5.153  -1.856   1.080  1.00  0.00     0.043 A 
HETATM   25  N5  UNL     1       7.103  -1.148   0.406  1.00  0.00    -0.167 NA
HETATM   26  N6  UNL     1       6.242  -2.116   0.318  1.00  0.00    -0.277 N 
HETATM   27  C21 UNL     1       6.068  -3.397  -0.329  1.00  0.00     0.179 C 
HETATM   28  C23 UNL     1       3.799  -2.333   1.528  1.00  0.00     0.095 C 
BRANCH  23  29
HETATM   29  C20 UNL     1       7.336   1.031   1.497  1.00  0.00     0.249 C 
HETATM   30  N4  UNL     1       6.983   2.151   2.318  1.00  0.00    -0.267 NA
HETATM   31  H23 UNL     1       7.092   2.559   3.290  1.00  0.00     0.127 HD
HETATM   32  H24 UNL     1       7.264   2.246   3.312  1.00  0.00     0.127 HD
HETATM   33  O2  UNL     1       8.469   1.267   0.984  1.00  0.00    -0.272 OA
ENDBRANCH  23  29
ENDBRANCH  18  19
ENDBRANCH  15  18
BRANCH   1  34
HETATM   34  O1  UNL     1      -1.890  -0.897  -3.851  1.00  0.00    -0.343 OA
HETATM   35  C1  UNL     1      -2.142  -2.258  -4.234  1.00  0.00     0.211 C 
ENDBRANCH   1  34
TORSDOF 4
