REMARK  9 active torsions:
REMARK  status: ('A' for Active; 'I' for Inactive)
REMARK    1  A    between atoms: C2_2  and  N1_3 
REMARK    2  A    between atoms: N1_3  and  C3_4 
REMARK    3  A    between atoms: N1_3  and  C11_16 
REMARK    4  A    between atoms: N2_5  and  C4_6 
REMARK    5  A    between atoms: N3_8  and  C6_9 
REMARK    6  A    between atoms: C6_9  and  N4_10 
REMARK    7  A    between atoms: N4_10  and  C7_11 
REMARK    8  A    between atoms: C11_16  and  C12_17 
REMARK    9  A    between atoms: C17_22  and  N5_23 
ROOT
HETATM    1  C3  UNL     1       0.132  -0.637  -0.524  1.00  0.00     0.211 C 
HETATM    2  N2  UNL     1       0.677  -1.295   0.422  1.00  0.00    -0.229 NA
ENDROOT
BRANCH   1   3
HETATM    3  N1  UNL     1      -1.168  -1.143  -0.151  1.00  0.00    -0.348 N 
BRANCH   3   4
HETATM    4  C2  UNL     1      -1.740  -2.280  -0.786  1.00  0.00     0.082 C 
HETATM    5  C1  UNL     1      -2.567  -2.586  -1.767  1.00  0.00     0.030 C 
ENDBRANCH   3   4
BRANCH   3   6
HETATM    6  C11 UNL     1      -1.956  -0.496   0.906  1.00  0.00     0.170 C 
BRANCH   6   7
HETATM    7  C12 UNL     1      -3.254   0.003   0.436  1.00  0.00    -0.012 A 
HETATM    8  C13 UNL     1      -4.466  -0.593   0.675  1.00  0.00     0.011 A 
HETATM    9  C14 UNL     1      -5.671  -0.071   0.203  1.00  0.00     0.001 A 
HETATM   10  C15 UNL     1      -5.620   1.100  -0.537  1.00  0.00     0.002 A 
HETATM   11  C16 UNL     1      -4.430   1.745  -0.810  1.00  0.00     0.032 A 
HETATM   12  C17 UNL     1      -3.249   1.184  -0.316  1.00  0.00     0.059 A 
BRANCH  12  13
HETATM   13  N5  UNL     1      -2.027   1.886  -0.620  1.00  0.00    -0.288 NA
HETATM   14  C18 UNL     1      -1.857   3.097  -0.181  1.00  0.00     0.171 C 
ENDBRANCH  12  13
ENDBRANCH   6   7
ENDBRANCH   3   6
ENDBRANCH   1   3
BRANCH   2  15
HETATM   15  C4  UNL     1       2.069  -1.306   0.722  1.00  0.00     0.120 C 
HETATM   16  C5  UNL     1       2.894  -2.298  -0.042  1.00  0.00     0.093 C 
HETATM   17  N3  UNL     1       2.684  -0.558   1.574  1.00  0.00    -0.256 NA
BRANCH  17  18
HETATM   18  C6  UNL     1       4.114  -0.652   1.802  1.00  0.00     0.272 C 
BRANCH  18  19
HETATM   19  N4  UNL     1       4.895  -0.430   0.613  1.00  0.00    -0.372 N 
HETATM   20  H10 UNL     1       5.544  -1.151   0.227  1.00  0.00     0.161 HD
BRANCH  19  21
HETATM   21  C7  UNL     1       4.715   0.857  -0.002  1.00  0.00     0.031 A 
HETATM   22  C8  UNL     1       5.634   1.750   0.343  1.00  0.00     0.048 A 
HETATM   23  C9  UNL     1       4.979   2.734  -0.510  1.00  0.00     0.015 A 
HETATM   24 BR1  UNL     1       4.861   4.479  -1.251  1.00  0.00    -0.051 Br
HETATM   25  C10 UNL     1       4.058   1.829  -0.851  1.00  0.00     0.048 A 
ENDBRANCH  19  21
ENDBRANCH  18  19
ENDBRANCH  17  18
ENDBRANCH   2  15
TORSDOF 9
