REMARK  4 active torsions:
REMARK  status: ('A' for Active; 'I' for Inactive)
REMARK    1  A    between atoms: C7_8  and  N1_9 
REMARK    2  A    between atoms: N1_9  and  C8_10 
REMARK    3  A    between atoms: C10_15  and  C11_16 
REMARK    4  A    between atoms: C11_16  and  C12_17 
ROOT
HETATM    1  C8  UNL     1      -1.143  -0.159  -1.071  1.00  0.00     0.151 C 
HETATM    2  N2  UNL     1      -1.916  -1.206  -1.038  1.00  0.00    -0.162 NA
HETATM    3  N3  UNL     1      -1.466  -2.417  -1.576  1.00  0.00    -0.294 N 
HETATM    4  C9  UNL     1      -0.103  -2.677  -2.004  1.00  0.00     0.267 C 
HETATM    5  N4  UNL     1       0.735  -1.651  -1.417  1.00  0.00    -0.351 N 
HETATM    6  C10 UNL     1       1.834  -1.124  -0.689  1.00  0.00     0.012 A 
HETATM    7  C18 UNL     1       1.360   0.088  -0.927  1.00  0.00     0.031 A 
HETATM    8  C19 UNL     1       0.190  -0.337  -1.694  1.00  0.00     0.182 A 
HETATM    9  H8  UNL     1      -2.219  -3.153  -1.649  1.00  0.00     0.184 HD
ENDROOT
BRANCH   1  10
HETATM   10  N1  UNL     1      -1.578   1.060  -0.537  1.00  0.00    -0.341 N 
HETATM   11  H7  UNL     1      -0.842   1.763  -0.239  1.00  0.00     0.167 HD
BRANCH  10  12
HETATM   12  C7  UNL     1      -3.004   1.221  -0.455  1.00  0.00     0.040 A 
HETATM   13  C2  UNL     1      -3.756   0.844   0.649  1.00  0.00    -0.035 A 
HETATM   14  C1  UNL     1      -3.036   0.246   1.798  1.00  0.00     0.050 C 
HETATM   15  C3  UNL     1      -5.122   1.033   0.647  1.00  0.00     0.010 A 
HETATM   16  C4  UNL     1      -5.791   1.599  -0.444  1.00  0.00     0.020 A 
HETATM   17  C5  UNL     1      -5.022   1.972  -1.546  1.00  0.00     0.013 A 
HETATM   18 BR1  UNL     1      -5.907   2.755  -3.066  1.00  0.00    -0.051 Br
HETATM   19  C6  UNL     1      -3.656   1.780  -1.536  1.00  0.00     0.049 A 
ENDBRANCH  10  12
ENDBRANCH   1  10
BRANCH   6  20
HETATM   20  C11 UNL     1       2.987  -1.732   0.012  1.00  0.00     0.095 C 
BRANCH  20  21
HETATM   21  C12 UNL     1       3.858  -0.674   0.622  1.00  0.00    -0.053 A 
HETATM   22  C13 UNL     1       4.896  -0.164  -0.158  1.00  0.00     0.007 A 
HETATM   23  C14 UNL     1       5.759   0.812   0.301  1.00  0.00     0.001 A 
HETATM   24  C15 UNL     1       5.568   1.287   1.588  1.00  0.00     0.000 A 
HETATM   25  C16 UNL     1       4.551   0.804   2.385  1.00  0.00     0.001 A 
HETATM   26  C17 UNL     1       3.696  -0.178   1.898  1.00  0.00     0.007 A 
ENDBRANCH  20  21
ENDBRANCH   6  20
TORSDOF 4
