REMARK  4 active torsions:
REMARK  status: ('A' for Active; 'I' for Inactive)
REMARK    1  A    between atoms: P1_1  and  C1_2 
REMARK    2  A    between atoms: C1_2  and  C2_3 
REMARK    3  A    between atoms: C11_12  and  N1_13 
REMARK    4  A    between atoms: N1_13  and  C12_14 
ROOT
HETATM    1  C2  UNL     1      -2.266   2.101   0.064  1.00  0.00     0.102 C 
HETATM    2  C3  UNL     1      -2.280   2.110  -1.409  1.00  0.00     0.027 C 
HETATM    3  C4  UNL     1      -3.468   1.654  -2.165  1.00  0.00     0.007 C 
HETATM    4  C5  UNL     1      -3.792   0.235  -2.244  1.00  0.00    -0.005 A 
HETATM    5  C6  UNL     1      -3.684  -1.041  -2.102  1.00  0.00    -0.000 A 
HETATM    6  C7  UNL     1      -2.447  -0.664  -1.482  1.00  0.00     0.023 A 
HETATM    7  C8  UNL     1      -1.741  -1.814  -1.038  1.00  0.00    -0.018 C 
HETATM    8  C9  UNL     1      -0.530  -2.422  -0.353  1.00  0.00     0.003 C 
HETATM    9  C10 UNL     1       0.612  -2.394   0.294  1.00  0.00     0.071 C 
HETATM   10  C11 UNL     1       1.617  -1.339   0.888  1.00  0.00     0.107 C 
HETATM   11  N2  UNL     1       1.723   0.058   0.989  1.00  0.00    -0.243 NA
HETATM   12  C18 UNL     1       0.471   0.498   0.302  1.00  0.00     0.484 C 
HETATM   13  N3  UNL     1       0.157   1.634   0.911  1.00  0.00    -0.336 NA
HETATM   14  N4  UNL     1      -0.951   2.410   0.619  1.00  0.00    -0.343 N 
HETATM   15  H22 UNL     1      -0.535   3.326   0.940  1.00  0.00     0.179 HD
ENDROOT
BRANCH  10  16
HETATM   16  N1  UNL     1       2.613  -2.188   1.384  1.00  0.00    -0.344 N 
HETATM   17  H16 UNL     1       2.175  -3.029   1.774  1.00  0.00     0.167 HD
BRANCH  16  18
HETATM   18  C12 UNL     1       3.977  -1.817   1.312  1.00  0.00     0.034 A 
HETATM   19  C13 UNL     1       4.763  -0.948   0.772  1.00  0.00     0.029 A 
HETATM   20  C14 UNL     1       6.084  -0.720   0.876  1.00  0.00     0.004 A 
HETATM   21  C15 UNL     1       6.762  -1.551   1.712  1.00  0.00     0.019 A 
HETATM   22  C16 UNL     1       6.080  -2.612   2.436  1.00  0.00     0.013 A 
HETATM   23 BR1  UNL     1       7.052  -3.741   3.606  1.00  0.00    -0.051 Br
HETATM   24  C17 UNL     1       4.710  -2.657   2.167  1.00  0.00     0.048 A 
ENDBRANCH  16  18
ENDBRANCH  10  16
BRANCH   1  25
HETATM   25  C1  UNL     1      -3.163   3.194   0.643  1.00  0.00     0.055 C 
BRANCH  25  26
HETATM   26  P1  UNL     1      -4.933   3.066   0.301  1.00  0.00    -0.139 P 
HETATM   27  H1  UNL     1      -5.354   4.008  -0.693  1.00  0.00     0.054 HD
HETATM   28  H2  UNL     1      -5.439   1.771   0.019  1.00  0.00     0.054 HD
ENDBRANCH  25  26
ENDBRANCH   1  25
TORSDOF 4
