REMARK  0 active torsions:
REMARK  status: ('A' for Active; 'I' for Inactive)
ROOT
HETATM    1  C1  UNL     1      -2.100  -1.882   0.276  1.00  0.00     0.062 C 
HETATM    2  C2  UNL     1      -1.027  -0.861   0.364  1.00  0.00     0.100 C 
HETATM    3  C3  UNL     1       0.139  -1.221  -0.314  1.00  0.00     0.062 C 
HETATM    4  C4  UNL     1       1.548  -0.804  -0.031  1.00  0.00     0.026 C 
HETATM    5  C5  UNL     1       2.473  -2.017  -0.280  1.00  0.00    -0.009 C 
HETATM    6  C6  UNL     1       2.555  -2.448  -1.479  1.00  0.00    -0.030 C 
HETATM    7  C7  UNL     1       2.544  -1.665  -2.528  1.00  0.00     0.009 C 
HETATM    8  C8  UNL     1       2.659  -0.227  -2.206  1.00  0.00    -0.014 C 
HETATM    9  C9  UNL     1       2.194   0.177  -1.033  1.00  0.00    -0.001 A 
HETATM   10  C10 UNL     1       2.458   1.678  -0.716  1.00  0.00     0.065 A 
HETATM   11  C11 UNL     1       1.556   1.788   0.488  1.00  0.00    -0.024 A 
HETATM   12 BR1  UNL     1       1.771   2.342   2.286  1.00  0.00    -0.060 Br
HETATM   13  C12 UNL     1       0.913   1.329  -0.596  1.00  0.00     0.049 A 
HETATM   14  C13 UNL     1      -0.271   0.843  -1.216  1.00  0.00    -0.016 C 
HETATM   15  C14 UNL     1      -1.480   0.413  -1.441  1.00  0.00     0.131 C 
HETATM   16  N1  UNL     1      -1.804   0.465  -0.117  1.00  0.00    -0.331 N 
HETATM   17  C15 UNL     1      -2.272   0.652   1.460  1.00  0.00     0.309 A 
HETATM   18  C16 UNL     1      -2.658  -0.638   2.204  1.00  0.00     0.141 A 
HETATM   19  C17 UNL     1      -2.536   0.621   1.997  1.00  0.00     0.299 A 
HETATM   20  N2  UNL     1      -2.431   1.895   1.821  1.00  0.00     0.099 N 
HETATM   21  C18 UNL     1      -2.319   3.091   1.630  1.00  0.00     0.372 A 
HETATM   22  N3  UNL     1      -1.991   1.931   0.930  1.00  0.00    -0.041 NA
HETATM   23  N4  UNL     1      -0.961  -0.142   1.664  1.00  0.00    -0.358 N 
HETATM   24  H17 UNL     1       0.083  -0.206   2.004  1.00  0.00     0.158 HD
ENDROOT
TORSDOF 0
