REMARK  2 active torsions:
REMARK  status: ('A' for Active; 'I' for Inactive)
REMARK    1  A    between atoms: C8_9  and  C9_10 
REMARK    2  A    between atoms: C9_10  and  C10_11 
ROOT
HETATM    1 BR1  UNL     1      -6.357  -1.601   3.079  1.00  0.00    -0.054 Br
HETATM    2  C1  UNL     1      -4.880  -0.829   2.179  1.00  0.00     0.003 C 
HETATM    3  C2  UNL     1      -4.992   0.177   1.302  1.00  0.00    -0.001 C 
HETATM    4  C3  UNL     1      -4.491   1.165   0.343  1.00  0.00     0.043 C 
HETATM    5  C4  UNL     1      -3.359   1.503  -0.174  1.00  0.00    -0.016 C 
HETATM    6  C5  UNL     1      -1.909   1.544  -0.494  1.00  0.00     0.012 C 
HETATM    7  C6  UNL     1      -1.220   0.629   0.152  1.00  0.00     0.011 C 
HETATM    8  C7  UNL     1       0.149   0.757  -0.247  1.00  0.00     0.040 C 
HETATM    9  C8  UNL     1       1.443   0.474  -0.279  1.00  0.00     0.007 C 
HETATM   10  N1  UNL     1       1.482  -0.626   0.587  1.00  0.00    -0.389 N 
HETATM   11  C16 UNL     1       1.426  -1.947  -0.033  1.00  0.00     0.152 C 
HETATM   12  P1  UNL     1       1.077  -3.085   1.430  1.00  0.00    -0.090 P 
HETATM   13  C17 UNL     1      -0.214  -2.112   2.420  1.00  0.00     0.183 C 
HETATM   14  N2  UNL     1      -0.662  -1.106   1.621  1.00  0.00    -0.268 NA
HETATM   15  C18 UNL     1      -1.451  -0.307   1.199  1.00  0.00     0.129 C 
HETATM   16  N3  UNL     1      -2.421  -0.701   2.140  1.00  0.00    -0.370 N 
HETATM   17  C19 UNL     1      -3.567  -1.366   2.643  1.00  0.00     0.167 C 
HETATM   18  H13 UNL     1       1.562  -0.308   1.578  1.00  0.00     0.159 HD
HETATM   19  H16 UNL     1       2.244  -3.369   2.197  1.00  0.00     0.060 HD
HETATM   20  H19 UNL     1      -2.075  -0.065   2.955  1.00  0.00     0.161 HD
ENDROOT
BRANCH   9  21
HETATM   21  C9  UNL     1       2.836   0.692  -0.756  1.00  0.00     0.069 C 
BRANCH  21  22
HETATM   22  C10 UNL     1       2.912   1.848  -1.731  1.00  0.00     0.037 C 
HETATM   23  C11 UNL     1       2.028   1.480  -2.882  1.00  0.00    -0.006 C 
HETATM   24  C12 UNL     1       2.390   0.687  -3.862  1.00  0.00    -0.029 C 
HETATM   25  C13 UNL     1       3.660   0.467  -4.008  1.00  0.00     0.011 C 
HETATM   26  C14 UNL     1       4.686   1.276  -3.315  1.00  0.00    -0.002 C 
HETATM   27  C15 UNL     1       4.300   1.923  -2.232  1.00  0.00    -0.018 C 
ENDBRANCH  21  22
ENDBRANCH   9  21
TORSDOF 2
