REMARK  8 active torsions:
REMARK  status: ('A' for Active; 'I' for Inactive)
REMARK    1  A    between atoms: C7_7  and  N1_8 
REMARK    2  A    between atoms: N1_8  and  C8_9 
REMARK    3  A    between atoms: C11_14  and  B1_15 
REMARK    4  A    between atoms: B1_15  and  C12_16 
REMARK    5  A    between atoms: C13_17  and  N4_18 
REMARK    6  A    between atoms: C13_17  and  C14_19 
REMARK    7  A    between atoms: C14_19  and  C15_20 
REMARK    8  A    between atoms: C15_20  and  C16_21 
ROOT
HETATM    1  C1  UNL     1      -7.228   0.469  -3.843  1.00  0.00     0.018 C 
HETATM    2  C2  UNL     1      -6.767   0.128  -2.768  1.00  0.00    -0.078 C 
HETATM    3  C3  UNL     1      -6.202  -0.261  -1.504  1.00  0.00     0.019 A 
HETATM    4  C4  UNL     1      -6.947  -1.052  -0.666  1.00  0.00     0.021 A 
HETATM    5  C5  UNL     1      -6.403  -1.423   0.546  1.00  0.00     0.004 A 
HETATM    6  C6  UNL     1      -5.134  -0.976   0.847  1.00  0.00     0.029 A 
HETATM    7  C7  UNL     1      -4.342  -0.193   0.064  1.00  0.00     0.035 A 
HETATM    8  C22 UNL     1      -4.940   0.148  -1.137  1.00  0.00     0.050 A 
ENDROOT
BRANCH   7   9
HETATM    9  N1  UNL     1      -3.043   0.260   0.384  1.00  0.00    -0.341 N 
HETATM   10  H5  UNL     1      -2.578   0.860  -0.360  1.00  0.00     0.167 HD
BRANCH   9  11
HETATM   11  C8  UNL     1      -2.311   0.013   1.545  1.00  0.00     0.126 A 
HETATM   12  N2  UNL     1      -2.681  -0.707   2.612  1.00  0.00    -0.225 NA
HETATM   13  C9  UNL     1      -1.971  -0.932   3.710  1.00  0.00     0.234 A 
HETATM   14  N3  UNL     1      -0.730  -0.401   3.817  1.00  0.00    -0.254 NA
HETATM   15  C10 UNL     1      -0.246   0.347   2.801  1.00  0.00     0.117 A 
HETATM   16  C11 UNL     1      -1.042   0.536   1.694  1.00  0.00    -0.035 A 
BRANCH  16  17
HETATM   17  B1  UNL     1      -0.435   1.412   0.544  1.00  0.00     0.227 B 
HETATM   18  H8  UNL     1      -1.001   2.393   0.210  1.00  0.00    -0.016 HD
BRANCH  17  19
HETATM   19  C12 UNL     1       1.079   1.221   0.237  1.00  0.00    -0.053 C 
HETATM   20  C13 UNL     1       1.416  -0.039  -0.007  1.00  0.00    -0.012 C 
BRANCH  20  21
HETATM   21  N4  UNL     1       0.362  -0.989   0.051  1.00  0.00    -0.403 N 
HETATM   22  H10 UNL     1      -0.296  -1.228  -0.747  1.00  0.00     0.156 HD
HETATM   23  H11 UNL     1      -0.113  -1.684   0.703  1.00  0.00     0.156 HD
ENDBRANCH  20  21
BRANCH  20  24
HETATM   24  C14 UNL     1       2.835  -0.431  -0.325  1.00  0.00     0.060 C 
BRANCH  24  25
HETATM   25  C15 UNL     1       3.681   0.821  -0.302  1.00  0.00     0.044 C 
BRANCH  25  26
HETATM   26  C16 UNL     1       5.113   0.561  -0.603  1.00  0.00    -0.058 A 
HETATM   27  C17 UNL     1       5.933   0.279   0.493  1.00  0.00     0.007 A 
HETATM   28  C18 UNL     1       7.281   0.021   0.329  1.00  0.00     0.001 A 
HETATM   29  C19 UNL     1       7.847   0.035  -0.907  1.00  0.00     0.000 A 
HETATM   30  C20 UNL     1       7.052   0.311  -1.996  1.00  0.00     0.001 A 
HETATM   31  C21 UNL     1       5.690   0.576  -1.872  1.00  0.00     0.007 A 
ENDBRANCH  25  26
ENDBRANCH  24  25
ENDBRANCH  20  24
ENDBRANCH  17  19
ENDBRANCH  16  17
ENDBRANCH   9  11
ENDBRANCH   7   9
TORSDOF 8
