REMARK  1 active torsions:
REMARK  status: ('A' for Active; 'I' for Inactive)
REMARK    1  A    between atoms: N1_1  and  C1_2 
REMARK       I    between atoms: C5_7  and  N3_8 
ROOT
HETATM    1  C1  UNL     1      -2.276  -0.369  -0.185  1.00  0.00     0.003 C 
HETATM    2  C2  UNL     1      -2.253   0.878   0.136  1.00  0.00     0.003 C 
HETATM    3  C3  UNL     1      -2.987   2.069   0.543  1.00  0.00     0.076 C 
HETATM    4  C4  UNL     1      -2.514   2.576   1.879  1.00  0.00     0.113 C 
HETATM    5  N2  UNL     1      -1.363   2.505   2.510  1.00  0.00    -0.079 NA
HETATM    6  C5  UNL     1      -0.313   1.802   1.806  1.00  0.00     0.720 C 
HETATM    7  N3  UNL     1      -0.139   2.806   0.777  1.00  0.00    -0.231 N 
HETATM    8  N4  UNL     1       0.453   0.737   1.798  1.00  0.00    -0.065 NA
HETATM    9  C6  UNL     1       1.399   0.594   0.700  1.00  0.00     0.084 C 
HETATM   10  C7  UNL     1       1.381  -0.464  -0.105  1.00  0.00     0.065 C 
HETATM   11  N5  UNL     1       2.347  -0.548  -1.194  1.00  0.00    -0.384 N 
HETATM   12  C8  UNL     1       3.246   0.357  -1.928  1.00  0.00     0.147 C 
HETATM   13  C9  UNL     1       2.874   1.750  -1.678  1.00  0.00    -0.011 C 
HETATM   14  C10 UNL     1       2.478   2.404  -0.619  1.00  0.00    -0.023 C 
HETATM   15  C11 UNL     1       2.309   1.764   0.709  1.00  0.00     0.089 C 
HETATM   16  C12 UNL     1       0.598  -1.704  -0.140  1.00  0.00    -0.001 A 
HETATM   17  C13 UNL     1       1.631  -2.647   0.104  1.00  0.00     0.014 A 
HETATM   18  C14 UNL     1       1.555  -4.054   0.199  1.00  0.00     0.001 A 
HETATM   19  C15 UNL     1       0.286  -4.559   0.027  1.00  0.00     0.001 A 
HETATM   20  C16 UNL     1      -0.724  -3.651  -0.210  1.00  0.00     0.008 A 
HETATM   21  C17 UNL     1      -0.659  -2.249  -0.306  1.00  0.00    -0.040 A 
HETATM   22  C18 UNL     1      -2.036  -1.762  -0.533  1.00  0.00     0.095 C 
HETATM   23  H7  UNL     1      -0.314   2.994  -0.250  1.00  0.00     0.174 HD
HETATM   24  H8  UNL     1       0.198   3.758   0.515  1.00  0.00     0.174 HD
HETATM   25  H9  UNL     1       2.466  -1.528  -1.608  1.00  0.00     0.160 HD
ENDROOT
BRANCH   1  26
HETATM   26  N1  UNL     1      -3.693  -0.131   0.054  1.00  0.00    -0.402 N 
HETATM   27  H1  UNL     1      -4.526  -0.374   0.650  1.00  0.00     0.156 HD
HETATM   28  H2  UNL     1      -4.707   0.040   0.224  1.00  0.00     0.156 HD
ENDBRANCH   1  26
TORSDOF 1
