REMARK  2 active torsions:
REMARK  status: ('A' for Active; 'I' for Inactive)
REMARK    1  A    between atoms: C10_14  and  C11_15 
REMARK    2  A    between atoms: C11_15  and  C12_16 
ROOT
HETATM    1  C1  UNL     1      -2.481  -5.073  -1.231  1.00  0.00     0.018 C 
HETATM    2  C2  UNL     1      -2.578  -3.897  -1.015  1.00  0.00    -0.078 C 
HETATM    3  C3  UNL     1      -2.698  -2.492  -0.781  1.00  0.00     0.018 C 
HETATM    4  C4  UNL     1      -3.863  -2.059  -0.326  1.00  0.00     0.022 C 
HETATM    5  C5  UNL     1      -4.305  -0.710   0.011  1.00  0.00     0.019 C 
HETATM    6  C6  UNL     1      -3.467   0.340   0.190  1.00  0.00     0.098 C 
HETATM    7  N1  UNL     1      -2.012   0.410   0.099  1.00  0.00    -0.318 N 
HETATM    8  C7  UNL     1      -1.721   1.491   1.051  1.00  0.00     0.215 C 
HETATM    9  N2  UNL     1      -1.492   1.987  -0.110  1.00  0.00    -0.237 NA
HETATM   10  C8  UNL     1      -1.052   3.296  -0.358  1.00  0.00     0.229 C 
HETATM   11  N3  UNL     1      -0.140   3.502  -1.189  1.00  0.00    -0.264 NA
HETATM   12  C9  UNL     1       0.527   2.516  -1.944  1.00  0.00     0.267 C 
HETATM   13  N4  UNL     1       0.229   1.207  -2.029  1.00  0.00    -0.395 N 
HETATM   14  C10 UNL     1       0.132   0.103  -1.261  1.00  0.00     0.129 C 
HETATM   15  C19 UNL     1      -1.173  -0.402  -0.732  1.00  0.00     0.041 C 
HETATM   16  C20 UNL     1      -1.543  -1.649  -1.070  1.00  0.00     0.048 C 
HETATM   17  H9  UNL     1      -0.268   1.050  -3.006  1.00  0.00     0.155 HD
ENDROOT
BRANCH  14  18
HETATM   18  C11 UNL     1       1.207  -0.335  -0.319  1.00  0.00     0.040 C 
BRANCH  18  19
HETATM   19  C12 UNL     1       1.645   0.482   0.805  1.00  0.00     0.022 C 
HETATM   20  C13 UNL     1       2.191   1.802   0.599  1.00  0.00     0.048 C 
HETATM   21  C14 UNL     1       3.444   2.060   0.267  1.00  0.00    -0.020 C 
HETATM   22  C15 UNL     1       4.255   1.017   0.312  1.00  0.00    -0.020 C 
HETATM   23  C16 UNL     1       3.996  -0.053   1.288  1.00  0.00    -0.001 C 
HETATM   24  C17 UNL     1       2.725  -0.325   1.539  1.00  0.00    -0.079 C 
HETATM   25  C18 UNL     1       2.436  -1.405   2.524  1.00  0.00     0.044 C 
ENDBRANCH  18  19
ENDBRANCH  14  18
TORSDOF 2
