REMARK  3 active torsions:
REMARK  status: ('A' for Active; 'I' for Inactive)
REMARK    1  A    between atoms: C9_12  and  C10_13 
REMARK    2  A    between atoms: C10_13  and  C11_14 
REMARK    3  A    between atoms: C11_14  and  C12_15 
ROOT
HETATM    1  C1  UNL     1      -6.529   1.792  -0.209  1.00  0.00     0.048 C 
HETATM    2  C2  UNL     1      -5.203   1.098  -0.087  1.00  0.00    -0.061 C 
HETATM    3  C3  UNL     1      -4.844   0.389  -1.133  1.00  0.00     0.009 C 
HETATM    4  C4  UNL     1      -3.577  -0.370  -1.213  1.00  0.00     0.031 C 
HETATM    5  C5  UNL     1      -2.432  -0.405  -0.493  1.00  0.00     0.052 C 
HETATM    6  C6  UNL     1      -1.502  -1.409  -1.089  1.00  0.00     0.147 C 
HETATM    7  N1  UNL     1      -1.344  -2.639  -0.701  1.00  0.00    -0.252 NA
HETATM    8  C7  UNL     1      -0.408  -3.526  -1.359  1.00  0.00     0.234 C 
HETATM    9  N2  UNL     1       0.907  -3.492  -1.220  1.00  0.00    -0.235 NA
HETATM   10  C8  UNL     1       1.469  -2.500  -0.345  1.00  0.00     0.234 C 
HETATM   11  N3  UNL     1       1.906  -1.512   0.422  1.00  0.00    -0.247 NA
HETATM   12  C9  UNL     1       1.321  -0.227   0.448  1.00  0.00     0.034 C 
HETATM   13  C18 UNL     1       0.125  -0.039   0.970  1.00  0.00     0.020 C 
HETATM   14  C19 UNL     1      -0.999   0.904   1.310  1.00  0.00     0.158 C 
HETATM   15  N4  UNL     1      -2.200   0.432   0.645  1.00  0.00    -0.352 N 
HETATM   16  C20 UNL     1      -3.228   1.032   1.454  1.00  0.00     0.092 C 
HETATM   17  C21 UNL     1      -4.517   1.338   1.197  1.00  0.00     0.024 C 
ENDROOT
BRANCH  12  18
HETATM   18  C10 UNL     1       1.688   1.112   0.013  1.00  0.00     0.063 C 
BRANCH  18  19
HETATM   19  C11 UNL     1       2.936   1.570   0.761  1.00  0.00     0.044 C 
BRANCH  19  20
HETATM   20  C12 UNL     1       4.078   0.668   0.558  1.00  0.00    -0.058 A 
HETATM   21  C13 UNL     1       4.370  -0.380   1.436  1.00  0.00     0.007 A 
HETATM   22  C14 UNL     1       5.392  -1.263   1.313  1.00  0.00     0.001 A 
HETATM   23  C15 UNL     1       6.227  -1.098   0.197  1.00  0.00     0.000 A 
HETATM   24  C16 UNL     1       5.937  -0.067  -0.661  1.00  0.00     0.001 A 
HETATM   25  C17 UNL     1       4.907   0.837  -0.555  1.00  0.00     0.007 A 
ENDBRANCH  19  20
ENDBRANCH  18  19
ENDBRANCH  12  18
TORSDOF 3
