REMARK  4 active torsions:
REMARK  status: ('A' for Active; 'I' for Inactive)
REMARK    1  A    between atoms: C6_6  and  N1_7 
REMARK    2  A    between atoms: C7_8  and  N2_9 
REMARK    3  A    between atoms: N2_9  and  C8_10 
REMARK    4  A    between atoms: C10_14  and  C11_15 
ROOT
HETATM    1  C1  UNL     1       5.251   3.416   0.006  1.00  0.00     0.018 C 
HETATM    2  C2  UNL     1       4.634   2.384   0.226  1.00  0.00    -0.078 C 
HETATM    3  C3  UNL     1       3.928   1.172   0.464  1.00  0.00     0.019 A 
HETATM    4  C4  UNL     1       4.012   0.673   1.733  1.00  0.00     0.023 A 
HETATM    5  C5  UNL     1       3.347  -0.457   2.004  1.00  0.00     0.033 A 
HETATM    6  C6  UNL     1       2.571  -1.199   1.162  1.00  0.00     0.052 A 
HETATM    7  C7  UNL     1       2.534  -0.615  -0.132  1.00  0.00     0.058 A 
HETATM    8  C21 UNL     1       3.182   0.527  -0.490  1.00  0.00     0.052 A 
ENDROOT
BRANCH   7   9
HETATM    9  N2  UNL     1       1.776  -0.971  -1.318  1.00  0.00    -0.347 N 
HETATM   10  H6  UNL     1       1.940  -0.665  -2.328  1.00  0.00     0.162 HD
BRANCH   9  11
HETATM   11  C8  UNL     1       0.738  -1.850  -0.679  1.00  0.00     0.334 A 
HETATM   12  N3  UNL     1      -0.372  -1.975  -0.955  1.00  0.00     0.156 N 
HETATM   13  N4  UNL     1      -1.616  -1.010  -0.726  1.00  0.00     0.000 N 
HETATM   14  C10 UNL     1      -1.532  -2.145  -1.213  1.00  0.00     0.308 A 
HETATM   15  C11 UNL     1      -0.376  -1.220  -1.579  1.00  0.00     0.272 A 
HETATM   16  C9  UNL     1      -2.631  -2.129  -1.547  1.00  0.00     0.120 A 
HETATM   17  C15 UNL     1      -2.174   0.413  -0.068  1.00  0.00    -0.006 A 
HETATM   18  N5  UNL     1      -3.233  -0.747  -1.957  1.00  0.00    -0.399 N 
HETATM   19  C13 UNL     1      -2.225   0.207  -2.523  1.00  0.00     0.100 C 
HETATM   20  H18 UNL     1      -4.155  -0.152  -2.041  1.00  0.00     0.154 HD
HETATM   21  C12 UNL     1      -0.814  -0.267  -2.543  1.00  0.00     0.019 C 
HETATM   22  C14 UNL     1      -2.364   1.238  -1.331  1.00  0.00     0.043 C 
HETATM   23  C16 UNL     1      -1.090   0.958   0.681  1.00  0.00    -0.016 A 
HETATM   24  C20 UNL     1      -3.323   0.094   0.740  1.00  0.00     0.041 A 
HETATM   25  C17 UNL     1      -0.993   1.201   1.979  1.00  0.00    -0.003 A 
HETATM   26  C18 UNL     1      -2.111   0.903   2.859  1.00  0.00    -0.004 A 
HETATM   27  C19 UNL     1      -3.112   0.401   2.160  1.00  0.00    -0.026 A 
ENDBRANCH   9  11
ENDBRANCH   7   9
BRANCH   6  28
HETATM   28  N1  UNL     1       1.815  -2.390   1.240  1.00  0.00    -0.397 N 
HETATM   29  H4  UNL     1       2.234  -3.216   0.728  1.00  0.00     0.156 HD
HETATM   30  H5  UNL     1       0.898  -2.440   1.775  1.00  0.00     0.156 HD
ENDBRANCH   6  28
TORSDOF 4
