REMARK  1 active torsions:
REMARK  status: ('A' for Active; 'I' for Inactive)
REMARK    1  A    between atoms: C1_2  and  C2_5 
ROOT
HETATM    1  C2  UNL     1       4.792   0.154  -0.196  1.00  0.00     0.057 A 
HETATM    2  C3  UNL     1       5.940  -0.614   0.037  1.00  0.00     0.017 A 
HETATM    3  C4  UNL     1       5.935  -1.950   0.360  1.00  0.00     0.003 A 
HETATM    4  C5  UNL     1       4.715  -2.589   0.463  1.00  0.00     0.030 A 
HETATM    5  C6  UNL     1       3.589  -1.824   0.231  1.00  0.00     0.041 A 
HETATM    6  C7  UNL     1       3.554  -0.484  -0.092  1.00  0.00    -0.004 A 
HETATM    7  C8  UNL     1       2.176  -0.037  -0.236  1.00  0.00     0.102 A 
HETATM    8  C9  UNL     1       1.654   0.813   0.924  1.00  0.00     0.111 C 
HETATM    9  C10 UNL     1       0.526   1.604   0.529  1.00  0.00    -0.105 C 
HETATM   10  C11 UNL     1      -0.360   2.247   0.205  1.00  0.00    -0.106 C 
HETATM   11  C12 UNL     1      -1.428   3.040  -0.170  1.00  0.00     0.053 C 
HETATM   12  C13 UNL     1      -2.640   2.470  -0.045  1.00  0.00     0.052 C 
HETATM   13  C14 UNL     1      -4.079   2.750  -0.251  1.00  0.00     0.001 C 
HETATM   14  C15 UNL     1      -4.537   1.525   0.169  1.00  0.00    -0.005 C 
HETATM   15  C16 UNL     1      -5.491   0.470   0.495  1.00  0.00     0.007 C 
HETATM   16  C17 UNL     1      -5.444  -0.802  -0.281  1.00  0.00     0.022 C 
HETATM   17  C18 UNL     1      -4.225  -1.636  -0.101  1.00  0.00     0.141 C 
HETATM   18  N1  UNL     1      -3.050  -1.006  -0.585  1.00  0.00    -0.313 N 
HETATM   19  N2  UNL     1      -2.105  -1.998  -0.367  1.00  0.00    -0.173 NA
HETATM   20  C19 UNL     1      -0.853  -1.916  -0.276  1.00  0.00     0.256 C 
HETATM   21  N3  UNL     1       0.180  -0.951  -0.327  1.00  0.00    -0.226 NA
HETATM   22  C20 UNL     1       1.393  -1.321  -0.089  1.00  0.00     0.115 A 
HETATM   23  N4  UNL     1       2.281  -2.376   0.245  1.00  0.00    -0.343 N 
HETATM   24  H17 UNL     1      -2.578  -0.191  -1.013  1.00  0.00     0.182 HD
HETATM   25  H19 UNL     1       1.829  -3.296   0.426  1.00  0.00     0.167 HD
ENDROOT
BRANCH   1  26
HETATM   26  C1  UNL     1       4.943   1.582  -0.553  1.00  0.00     0.418 C 
HETATM   27  F1  UNL     1       4.370   1.868  -1.780  1.00  0.00    -0.166 F 
HETATM   28  F2  UNL     1       6.322   1.822  -0.756  1.00  0.00    -0.166 F 
HETATM   29  F3  UNL     1       4.592   2.441   0.441  1.00  0.00    -0.166 F 
ENDBRANCH   1  26
TORSDOF 1
