REMARK  0 active torsions:
REMARK  status: ('A' for Active; 'I' for Inactive)
ROOT
HETATM    1  C1  UNL     1      -0.850   3.735  -2.314  1.00  0.00     0.048 C 
HETATM    2  C2  UNL     1      -0.750   2.493  -1.503  1.00  0.00    -0.061 C 
HETATM    3  C3  UNL     1      -1.587   1.651  -2.169  1.00  0.00     0.018 C 
HETATM    4  C4  UNL     1      -1.618   0.301  -1.530  1.00  0.00     0.128 A 
HETATM    5  C5  UNL     1      -0.513  -0.048  -2.428  1.00  0.00     0.175 A 
HETATM    6  N1  UNL     1      -0.047  -1.329  -1.995  1.00  0.00    -0.262 NA
HETATM    7  C6  UNL     1      -0.827  -1.728  -0.892  1.00  0.00     0.134 A 
HETATM    8  N2  UNL     1      -1.472  -0.597  -1.043  1.00  0.00    -0.313 N 
HETATM    9  C7  UNL     1      -2.411  -0.051  -0.465  1.00  0.00     0.185 A 
HETATM   10  N3  UNL     1      -2.772  -0.958   0.534  1.00  0.00    -0.380 N 
HETATM   11  C8  UNL     1      -2.674  -2.233   1.226  1.00  0.00     0.126 C 
HETATM   12  C9  UNL     1      -1.944  -1.947   2.512  1.00  0.00     0.002 C 
HETATM   13  C10 UNL     1      -1.184  -0.892   2.577  1.00  0.00    -0.002 C 
HETATM   14  C11 UNL     1      -0.304   0.291   2.713  1.00  0.00     0.002 C 
HETATM   15  C12 UNL     1       0.236   1.384   2.237  1.00  0.00     0.031 C 
HETATM   16  C13 UNL     1       0.026   1.953   0.940  1.00  0.00     0.050 C 
HETATM   17  C14 UNL     1      -0.065   2.603  -0.229  1.00  0.00     0.037 C 
HETATM   18  N4  UNL     1       1.469   2.288   0.963  1.00  0.00    -0.278 N 
HETATM   19  N5  UNL     1       2.328   1.379   0.429  1.00  0.00    -0.184 NA
HETATM   20  C15 UNL     1       2.521   0.134   0.448  1.00  0.00     0.032 C 
HETATM   21  C16 UNL     1       3.708   0.118  -0.455  1.00  0.00     0.068 C 
HETATM   22  C17 UNL     1       2.176  -1.278   0.893  1.00  0.00     0.083 C 
HETATM   23  C18 UNL     1       1.806  -2.175  -0.197  1.00  0.00    -0.020 C 
HETATM   24  C19 UNL     1       0.743  -2.879  -0.647  1.00  0.00     0.011 C 
HETATM   25  C20 UNL     1      -0.613  -2.989  -0.107  1.00  0.00     0.008 C 
HETATM   26  C21 UNL     1      -1.791  -3.228   0.462  1.00  0.00     0.017 C 
HETATM   27  H6  UNL     1      -3.472  -0.307   0.945  1.00  0.00     0.157 HD
HETATM   28  H13 UNL     1       2.010   3.106   1.297  1.00  0.00     0.189 HD
ENDROOT
TORSDOF 0
