REMARK  3 active torsions:
REMARK  status: ('A' for Active; 'I' for Inactive)
REMARK    1  A    between atoms: C2_2  and  C3_3 
REMARK    2  A    between atoms: C10_12  and  N3_13 
REMARK    3  A    between atoms: C20_25  and  O1_26 
ROOT
HETATM    1  C3  UNL     1       3.687   0.452   0.002  1.00  0.00     0.002 C 
HETATM    2  C4  UNL     1       2.474   0.597  -0.619  1.00  0.00    -0.047 C 
HETATM    3  C5  UNL     1       2.146  -0.781  -1.015  1.00  0.00     0.072 C 
HETATM    4  C6  UNL     1       0.930  -1.424  -0.529  1.00  0.00    -0.048 C 
HETATM    5  C7  UNL     1      -0.192  -0.892  -0.990  1.00  0.00     0.037 C 
HETATM    6  C8  UNL     1      -1.361  -1.347  -0.168  1.00  0.00     0.388 C 
HETATM    7  N1  UNL     1      -0.961  -2.729   0.038  1.00  0.00     0.141 N 
HETATM    8  C9  UNL     1      -1.098  -3.540  -1.127  1.00  0.00     0.444 C 
HETATM    9  N2  UNL     1      -2.210  -3.177  -1.972  1.00  0.00    -0.076 NA
HETATM   10  C10 UNL     1      -2.875  -2.087  -1.759  1.00  0.00     0.714 C 
HETATM   11  N4  UNL     1      -2.627  -1.125  -0.710  1.00  0.00    -0.084 N 
HETATM   12  N5  UNL     1      -3.713  -0.250  -0.522  1.00  0.00    -0.282 N 
HETATM   13  C11 UNL     1      -3.405   0.641   0.513  1.00  0.00     0.050 A 
HETATM   14  C12 UNL     1      -4.273   0.884   1.555  1.00  0.00     0.031 A 
HETATM   15  C13 UNL     1      -3.921   1.685   2.630  1.00  0.00     0.004 A 
HETATM   16  C14 UNL     1      -2.695   2.309   2.771  1.00  0.00     0.021 A 
HETATM   17  C15 UNL     1      -1.880   2.046   1.734  1.00  0.00     0.019 A 
HETATM   18  C16 UNL     1      -2.192   1.270   0.657  1.00  0.00     0.051 A 
HETATM   19  C17 UNL     1      -0.560   2.248   1.451  1.00  0.00    -0.067 C 
HETATM   20  C18 UNL     1       0.542   2.397   1.215  1.00  0.00    -0.098 C 
HETATM   21  C19 UNL     1       1.897   2.554   0.930  1.00  0.00     0.130 C 
HETATM   22  C20 UNL     1       2.462   2.038  -0.341  1.00  0.00     0.158 C 
HETATM   23  C21 UNL     1       0.466  -2.585   0.342  1.00  0.00     0.312 C 
HETATM   24  H13 UNL     1      -4.624  -0.162  -0.970  1.00  0.00     0.188 HD
ENDROOT
BRANCH   1  25
HETATM   25  C2  UNL     1       4.841   1.009   0.705  1.00  0.00    -0.026 C 
HETATM   26  C1  UNL     1       6.014   1.178   1.355  1.00  0.00     0.031 C 
ENDBRANCH   1  25
BRANCH  22  27
HETATM   27  O1  UNL     1       3.641   2.712  -0.651  1.00  0.00    -0.390 OA
HETATM   28  H21 UNL     1       3.775   2.819  -1.622  1.00  0.00     0.210 HD
ENDBRANCH  22  27
BRANCH  10  29
HETATM   29  N3  UNL     1      -3.939  -1.922  -2.718  1.00  0.00    -0.232 N 
HETATM   30  H11 UNL     1      -4.744  -2.424  -2.237  1.00  0.00     0.174 HD
HETATM   31  H12 UNL     1      -4.321  -1.572  -3.622  1.00  0.00     0.174 HD
ENDBRANCH  10  29
TORSDOF 3
