REMARK  2 active torsions:
REMARK  status: ('A' for Active; 'I' for Inactive)
REMARK    1  A    between atoms: C10_11  and  C11_12 
REMARK    2  A    between atoms: C11_12  and  C12_13 
ROOT
HETATM    1  C1  UNL     1       6.415   1.030  -1.248  1.00  0.00     0.017 C 
HETATM    2  C2  UNL     1       5.335   0.518  -1.100  1.00  0.00    -0.081 C 
HETATM    3  C3  UNL     1       4.050  -0.091  -0.949  1.00  0.00     0.014 A 
HETATM    4  C4  UNL     1       3.230   0.188   0.023  1.00  0.00     0.115 A 
HETATM    5  N1  UNL     1       1.922  -0.372   0.255  1.00  0.00    -0.310 N 
HETATM    6  C5  UNL     1       1.497  -1.339  -0.698  1.00  0.00     0.018 A 
HETATM    7  C6  UNL     1       2.312  -1.654  -1.713  1.00  0.00     0.004 A 
HETATM    8  C7  UNL     1       3.640  -1.087  -1.950  1.00  0.00     0.078 A 
HETATM    9  C8  UNL     1       0.287  -2.155  -0.875  1.00  0.00     0.086 C 
HETATM   10  C9  UNL     1      -0.979  -1.568  -0.452  1.00  0.00     0.004 C 
HETATM   11  C10 UNL     1      -1.489  -0.879   0.564  1.00  0.00     0.004 C 
HETATM   12  N2  UNL     1      -0.972  -0.372   1.785  1.00  0.00    -0.365 N 
HETATM   13  C18 UNL     1       0.309  -0.097   2.325  1.00  0.00     0.278 A 
HETATM   14  N3  UNL     1       0.344   0.962   3.294  1.00  0.00    -0.249 NA
HETATM   15  C19 UNL     1       1.304   1.744   2.963  1.00  0.00     0.232 A 
HETATM   16  N4  UNL     1       1.984   1.308   1.786  1.00  0.00    -0.224 NA
HETATM   17  C20 UNL     1       1.380   0.206   1.413  1.00  0.00     0.156 A 
HETATM   18  H16 UNL     1      -1.694  -0.119   2.519  1.00  0.00     0.162 HD
ENDROOT
BRANCH  11  19
HETATM   19  C11 UNL     1      -2.950  -0.532   0.434  1.00  0.00     0.069 C 
BRANCH  19  20
HETATM   20  C12 UNL     1      -3.118   0.979   0.457  1.00  0.00     0.037 C 
HETATM   21  C13 UNL     1      -4.595   1.213   0.323  1.00  0.00    -0.006 C 
HETATM   22  C14 UNL     1      -5.174   0.819  -0.780  1.00  0.00    -0.029 C 
HETATM   23  C15 UNL     1      -4.555   0.945  -1.942  1.00  0.00     0.011 C 
HETATM   24  C16 UNL     1      -3.190   1.511  -1.930  1.00  0.00    -0.002 C 
HETATM   25  C17 UNL     1      -2.507   1.526  -0.787  1.00  0.00    -0.018 C 
ENDBRANCH  19  20
ENDBRANCH  11  19
TORSDOF 2
