REMARK  0 active torsions:
REMARK  status: ('A' for Active; 'I' for Inactive)
ROOT
HETATM    1  C1  UNL     1       3.718  -1.560  -1.688  1.00  0.00     0.017 C 
HETATM    2  C2  UNL     1       2.765  -1.486  -0.940  1.00  0.00    -0.080 C 
HETATM    3  C3  UNL     1       1.660  -1.389  -0.043  1.00  0.00     0.015 C 
HETATM    4  C4  UNL     1       0.733  -2.284  -0.311  1.00  0.00     0.123 C 
HETATM    5  N1  UNL     1      -0.453  -2.382   0.443  1.00  0.00    -0.310 N 
HETATM    6  N2  UNL     1      -1.435  -2.929   1.254  1.00  0.00    -0.295 N 
HETATM    7  C5  UNL     1      -2.717  -3.334   0.721  1.00  0.00     0.225 C 
HETATM    8  N3  UNL     1      -3.555  -2.736  -0.055  1.00  0.00    -0.218 NA
HETATM    9  C6  UNL     1      -3.438  -1.467  -0.617  1.00  0.00     0.240 C 
HETATM   10  C7  UNL     1      -4.455  -0.621  -0.568  1.00  0.00     0.051 C 
HETATM   11  C8  UNL     1      -4.093   0.603  -0.842  1.00  0.00     0.244 A 
HETATM   12  C9  UNL     1      -2.847   0.813  -0.443  1.00  0.00     0.214 A 
HETATM   13  C10 UNL     1      -1.610   1.342   0.191  1.00  0.00     0.050 C 
HETATM   14  C11 UNL     1      -0.465   1.203  -0.807  1.00  0.00     0.042 C 
HETATM   15  C12 UNL     1       0.762   1.709  -0.181  1.00  0.00    -0.051 A 
HETATM   16  C13 UNL     1       1.085   3.048  -0.430  1.00  0.00     0.007 A 
HETATM   17  C14 UNL     1       2.190   3.711   0.060  1.00  0.00     0.001 A 
HETATM   18  C15 UNL     1       3.051   3.009   0.860  1.00  0.00     0.001 A 
HETATM   19  C16 UNL     1       2.744   1.690   1.113  1.00  0.00     0.008 A 
HETATM   20  C17 UNL     1       1.625   1.002   0.622  1.00  0.00    -0.047 A 
HETATM   21  C18 UNL     1       1.534  -0.412   1.051  1.00  0.00     0.088 C 
HETATM   22  N4  UNL     1      -2.852  -0.340  -1.303  1.00  0.00     0.010 N 
HETATM   23  H3  UNL     1      -0.911  -1.457   0.353  1.00  0.00     0.186 HD
HETATM   24  H4  UNL     1      -1.247  -3.050   2.272  1.00  0.00     0.187 HD
HETATM   25  H16 UNL     1      -2.639  -0.822  -2.229  1.00  0.00     0.291 HD
ENDROOT
TORSDOF 0
