REMARK  0 active torsions:
REMARK  status: ('A' for Active; 'I' for Inactive)
ROOT
HETATM    1  O1  UNL     1      -0.620   1.925  -0.073  1.00  0.00     0.000 OA
HETATM    2  C1  UNL     1       0.006   0.840  -0.023  1.00  0.00    -0.025 A 
HETATM    3  C2  UNL     1      -0.007  -0.533  -0.323  1.00  0.00     0.067 C 
HETATM    4  C3  UNL     1      -0.521  -1.617  -0.811  1.00  0.00     0.108 C 
HETATM    5  C4  UNL     1      -1.710  -2.243  -1.540  1.00  0.00     0.146 C 
HETATM    6  C5  UNL     1      -2.769  -1.271  -1.893  1.00  0.00     0.325 C 
HETATM    7  F1  UNL     1      -3.742  -2.014  -2.592  1.00  0.00    -0.183 F 
HETATM    8  F2  UNL     1      -2.339  -0.324  -2.823  1.00  0.00    -0.183 F 
HETATM    9  N1  UNL     1      -3.488  -0.631  -0.826  1.00  0.00    -0.323 N 
HETATM   10  C6  UNL     1      -3.343   0.227   0.327  1.00  0.00     0.202 C 
HETATM   11  N2  UNL     1      -2.926   1.240  -0.292  1.00  0.00    -0.255 NA
HETATM   12  C7  UNL     1      -2.551   2.522   0.210  1.00  0.00     0.420 C 
HETATM   13  N3  UNL     1      -1.116   2.827  -0.065  1.00  0.00     0.120 N 
HETATM   14  C8  UNL     1       0.127   2.196   0.322  1.00  0.00     0.228 A 
HETATM   15  C9  UNL     1       1.286   2.623   0.886  1.00  0.00     0.048 C 
HETATM   16  C10 UNL     1       2.122   1.414   0.987  1.00  0.00     0.024 C 
HETATM   17  C11 UNL     1       3.397   1.255   1.407  1.00  0.00    -0.021 C 
HETATM   18  C12 UNL     1       3.890  -0.114   1.385  1.00  0.00    -0.008 C 
HETATM   19  C13 UNL     1       3.615  -1.421   1.170  1.00  0.00    -0.025 C 
HETATM   20  C14 UNL     1       2.230  -1.713   0.820  1.00  0.00     0.053 C 
HETATM   21  C15 UNL     1       1.904  -2.229  -0.532  1.00  0.00     0.172 C 
HETATM   22  O2  UNL     1       0.495  -2.484  -0.479  1.00  0.00    -0.376 OA
HETATM   23  H4  UNL     1      -4.538  -0.736  -0.716  1.00  0.00     0.166 HD
HETATM   24  H8  UNL     1      -0.703   3.637  -0.634  1.00  0.00     0.319 HD
ENDROOT
TORSDOF 0
