REMARK  7 active torsions:
REMARK  status: ('A' for Active; 'I' for Inactive)
REMARK    1  A    between atoms: C1_2  and  C2_3 
REMARK    2  A    between atoms: C3_4  and  C4_5 
REMARK    3  A    between atoms: C5_6  and  C6_7 
REMARK    4  A    between atoms: C6_7  and  C7_8 
REMARK    5  A    between atoms: C12_14  and  C13_15 
REMARK    6  A    between atoms: C13_15  and  C14_16 
REMARK    7  A    between atoms: C14_16  and  C15_17 
ROOT
HETATM    1  C7  UNL     1       1.259  -2.191   1.460  1.00  0.00     0.034 A 
HETATM    2  C8  UNL     1      -0.000  -2.975   1.467  1.00  0.00     0.097 A 
HETATM    3  N1  UNL     1      -1.249  -2.592   1.603  1.00  0.00    -0.247 NA
HETATM    4  C9  UNL     1      -1.402  -1.190   1.772  1.00  0.00     0.127 A 
HETATM    5  C10 UNL     1      -0.363  -0.377   1.785  1.00  0.00    -0.011 A 
HETATM    6  C11 UNL     1       1.073  -0.724   1.639  1.00  0.00     0.050 A 
HETATM    7  C12 UNL     1      -1.186   0.869   1.993  1.00  0.00     0.116 A 
HETATM    8  N2  UNL     1      -2.250  -0.083   1.953  1.00  0.00    -0.366 N 
HETATM    9  H23 UNL     1      -3.230   0.236   2.059  1.00  0.00     0.161 HD
ENDROOT
BRANCH   7  10
HETATM   10  C13 UNL     1      -1.143   1.823   0.870  1.00  0.00     0.034 C 
BRANCH  10  11
HETATM   11  C14 UNL     1      -1.597   1.410  -0.469  1.00  0.00     0.041 C 
BRANCH  11  12
HETATM   12  C15 UNL     1      -2.993   0.986  -0.634  1.00  0.00    -0.058 A 
HETATM   13  C16 UNL     1      -3.892   2.045  -0.780  1.00  0.00     0.007 A 
HETATM   14  C17 UNL     1      -5.249   1.900  -0.977  1.00  0.00     0.001 A 
HETATM   15  C18 UNL     1      -5.793   0.659  -1.042  1.00  0.00     0.000 A 
HETATM   16  C19 UNL     1      -4.944  -0.418  -0.905  1.00  0.00     0.001 A 
HETATM   17  C20 UNL     1      -3.598  -0.240  -0.709  1.00  0.00     0.007 A 
ENDBRANCH  11  12
ENDBRANCH  10  11
ENDBRANCH   7  10
BRANCH   1  18
HETATM   18  C6  UNL     1       2.075  -2.502   0.195  1.00  0.00     0.037 C 
BRANCH  18  19
HETATM   19  C5  UNL     1       3.294  -1.666   0.307  1.00  0.00    -0.026 C 
HETATM   20  C4  UNL     1       3.693  -0.742  -0.523  1.00  0.00    -0.004 C 
BRANCH  20  21
HETATM   21  C3  UNL     1       4.917   0.009  -0.293  1.00  0.00    -0.002 C 
HETATM   22  C2  UNL     1       5.368   0.954  -1.097  1.00  0.00     0.004 C 
BRANCH  22  23
HETATM   23  C1  UNL     1       4.884   1.543  -2.366  1.00  0.00     0.249 C 
HETATM   24  F1  UNL     1       3.708   0.985  -2.813  1.00  0.00    -0.251 F 
ENDBRANCH  22  23
ENDBRANCH  20  21
ENDBRANCH  18  19
ENDBRANCH   1  18
TORSDOF 7
