REMARK  4 active torsions:
REMARK  status: ('A' for Active; 'I' for Inactive)
REMARK    1  A    between atoms: O1_1  and  C1_2 
REMARK    2  A    between atoms: C12_16  and  N4_17 
REMARK    3  A    between atoms: N4_17  and  C13_18 
REMARK    4  A    between atoms: C17_22  and  C18_23 
ROOT
HETATM    1  C1  UNL     1      -0.842  -1.441   0.140  1.00  0.00     0.159 C 
HETATM    2  C2  UNL     1      -1.461  -1.165  -1.204  1.00  0.00     0.041 C 
HETATM    3  C3  UNL     1      -2.963  -1.317  -1.213  1.00  0.00     0.043 C 
HETATM    4  C4  UNL     1      -3.706  -0.402  -0.349  1.00  0.00    -0.031 A 
HETATM    5  C5  UNL     1      -4.997  -0.696  -0.805  1.00  0.00     0.009 A 
HETATM    6  C6  UNL     1      -6.141  -0.088  -0.304  1.00  0.00     0.001 A 
HETATM    7  C7  UNL     1      -6.001   0.849   0.689  1.00  0.00     0.002 A 
HETATM    8  C8  UNL     1      -4.764   1.194   1.191  1.00  0.00     0.030 A 
HETATM    9  C9  UNL     1      -3.684   0.565   0.661  1.00  0.00     0.040 A 
HETATM   10  N1  UNL     1      -2.555   1.124   1.368  1.00  0.00    -0.340 N 
HETATM   11  C10 UNL     1      -1.127   0.910   1.241  1.00  0.00     0.142 A 
HETATM   12  N2  UNL     1      -0.535   2.007   1.737  1.00  0.00    -0.224 NA
HETATM   13  C11 UNL     1       0.801   2.130   1.735  1.00  0.00     0.237 A 
HETATM   14  N3  UNL     1       1.509   1.113   1.216  1.00  0.00    -0.224 NA
HETATM   15  C12 UNL     1       0.931   0.013   0.718  1.00  0.00     0.142 A 
HETATM   16  C20 UNL     1      -0.408  -0.167   0.696  1.00  0.00     0.062 A 
HETATM   17  H11 UNL     1      -2.784   1.817   2.112  1.00  0.00     0.167 HD
ENDROOT
BRANCH  15  18
HETATM   18  N4  UNL     1       1.756  -0.986   0.161  1.00  0.00    -0.340 N 
HETATM   19  H13 UNL     1       1.856  -1.887  -0.329  1.00  0.00     0.167 HD
BRANCH  18  20
HETATM   20  C13 UNL     1       3.158  -0.751   0.214  1.00  0.00     0.034 A 
HETATM   21  C14 UNL     1       4.192  -1.604   0.618  1.00  0.00     0.029 A 
HETATM   22  C15 UNL     1       5.521  -1.253   0.606  1.00  0.00     0.003 A 
HETATM   23  C16 UNL     1       5.822   0.017   0.166  1.00  0.00     0.016 A 
HETATM   24  C17 UNL     1       4.857   0.910  -0.247  1.00  0.00     0.050 A 
HETATM   25  C19 UNL     1       3.535   0.525  -0.222  1.00  0.00     0.045 A 
BRANCH  24  26
HETATM   26  C18 UNL     1       5.390   2.226  -0.684  1.00  0.00     0.417 C 
HETATM   27  F1  UNL     1       5.797   2.129  -1.990  1.00  0.00    -0.166 F 
HETATM   28  F2  UNL     1       4.313   3.112  -0.643  1.00  0.00    -0.166 F 
HETATM   29  F3  UNL     1       6.356   2.715   0.166  1.00  0.00    -0.166 F 
ENDBRANCH  24  26
ENDBRANCH  18  20
ENDBRANCH  15  18
BRANCH   1  30
HETATM   30  O1  UNL     1      -0.045  -2.521   0.252  1.00  0.00    -0.391 OA
HETATM   31  H1  UNL     1      -0.458  -3.363   0.545  1.00  0.00     0.210 HD
ENDBRANCH   1  30
TORSDOF 4
