REMARK  7 active torsions:
REMARK  status: ('A' for Active; 'I' for Inactive)
REMARK    1  A    between atoms: N1_1  and  C1_2 
REMARK    2  A    between atoms: C2_4  and  N3_5 
REMARK    3  A    between atoms: N3_5  and  C3_6 
REMARK    4  A    between atoms: C7_10  and  C8_11 
REMARK    5  A    between atoms: C12_18  and  C13_19 
REMARK    6  A    between atoms: C13_19  and  C14_20 
REMARK    7  A    between atoms: C14_20  and  C15_21 
ROOT
HETATM    1  C1  UNL     1       0.676  -1.848   1.016  1.00  0.00     0.724 C 
HETATM    2  N2  UNL     1       0.485  -2.152  -0.252  1.00  0.00    -0.045 NA
HETATM    3  C2  UNL     1       1.337  -1.349  -1.101  1.00  0.00     0.147 C 
HETATM    4  C10 UNL     1       0.439  -0.380  -1.125  1.00  0.00     0.053 C 
HETATM    5  C11 UNL     1      -0.796  -0.528  -0.414  1.00  0.00     0.031 C 
HETATM    6  C12 UNL     1      -1.564  -1.285   0.351  1.00  0.00     0.037 C 
HETATM    7  N4  UNL     1      -1.584  -2.608   0.954  1.00  0.00    -0.230 NA
HETATM    8  C21 UNL     1      -1.116  -2.624   2.158  1.00  0.00     0.217 C 
HETATM    9  N5  UNL     1       0.129  -2.291   2.249  1.00  0.00    -0.039 NA
ENDROOT
BRANCH   3  10
HETATM   10  N3  UNL     1       2.611  -1.464  -1.713  1.00  0.00    -0.340 N 
HETATM   11  H3  UNL     1       2.734  -2.296  -2.327  1.00  0.00     0.167 HD
BRANCH  10  12
HETATM   12  C3  UNL     1       3.656  -0.538  -1.526  1.00  0.00     0.034 A 
HETATM   13  C4  UNL     1       3.540   0.579  -0.729  1.00  0.00     0.029 A 
HETATM   14  C5  UNL     1       4.593   1.464  -0.571  1.00  0.00     0.003 A 
HETATM   15  C6  UNL     1       5.782   1.224  -1.223  1.00  0.00     0.016 A 
HETATM   16  C7  UNL     1       5.930   0.112  -2.029  1.00  0.00     0.050 A 
HETATM   17  C9  UNL     1       4.863  -0.742  -2.161  1.00  0.00     0.045 A 
BRANCH  16  18
HETATM   18  C8  UNL     1       7.237  -0.099  -2.711  1.00  0.00     0.417 C 
HETATM   19  F1  UNL     1       7.390   0.930  -3.649  1.00  0.00    -0.166 F 
HETATM   20  F2  UNL     1       8.229   0.125  -1.774  1.00  0.00    -0.166 F 
HETATM   21  F3  UNL     1       7.334  -1.333  -3.285  1.00  0.00    -0.166 F 
ENDBRANCH  16  18
ENDBRANCH  10  12
ENDBRANCH   3  10
BRANCH   1  22
HETATM   22  N1  UNL     1       1.530  -0.911   1.711  1.00  0.00    -0.231 N 
HETATM   23  H1  UNL     1       1.339   0.076   1.992  1.00  0.00     0.174 HD
HETATM   24  H2  UNL     1       2.519  -1.116   2.047  1.00  0.00     0.174 HD
ENDBRANCH   1  22
BRANCH   6  25
HETATM   25  C13 UNL     1      -2.918  -0.804   0.822  1.00  0.00     0.064 C 
BRANCH  25  26
HETATM   26  C14 UNL     1      -3.260   0.567   0.284  1.00  0.00     0.044 C 
BRANCH  26  27
HETATM   27  C15 UNL     1      -4.617   0.969   0.816  1.00  0.00    -0.058 A 
HETATM   28  C16 UNL     1      -5.762   0.651   0.118  1.00  0.00     0.007 A 
HETATM   29  C17 UNL     1      -7.027   0.992   0.554  1.00  0.00     0.001 A 
HETATM   30  C18 UNL     1      -7.152   1.691   1.756  1.00  0.00     0.000 A 
HETATM   31  C19 UNL     1      -5.990   1.998   2.437  1.00  0.00     0.001 A 
HETATM   32  C20 UNL     1      -4.716   1.669   2.023  1.00  0.00     0.007 A 
ENDBRANCH  26  27
ENDBRANCH  25  26
ENDBRANCH   6  25
TORSDOF 7
