REMARK  4 active torsions:
REMARK  status: ('A' for Active; 'I' for Inactive)
REMARK    1  A    between atoms: C7_7  and  C8_8 
REMARK    2  A    between atoms: C8_8  and  C9_9 
REMARK    3  A    between atoms: N1_11  and  C11_12 
REMARK    4  A    between atoms: C14_15  and  C15_16 
ROOT
HETATM    1  C9  UNL     1      -0.454  -0.391  -0.966  1.00  0.00     0.101 C 
HETATM    2  C10 UNL     1       0.690   0.007  -0.122  1.00  0.00     0.150 C 
HETATM    3  N1  UNL     1       1.899   0.177  -0.905  1.00  0.00    -0.360 N 
HETATM    4  C16 UNL     1       2.628  -0.892  -1.556  1.00  0.00     0.274 C 
HETATM    5  N2  UNL     1       3.076  -1.913  -0.625  1.00  0.00    -0.263 NA
HETATM    6  C17 UNL     1       2.199  -2.758  -0.206  1.00  0.00     0.229 C 
HETATM    7  N3  UNL     1       0.867  -3.283  -0.168  1.00  0.00    -0.238 NA
HETATM    8  C18 UNL     1      -0.094  -2.744  -0.848  1.00  0.00     0.204 C 
HETATM    9  N4  UNL     1      -0.174  -1.627  -1.730  1.00  0.00    -0.378 N 
HETATM   10  H19 UNL     1       0.023  -2.391  -2.444  1.00  0.00     0.160 HD
ENDROOT
BRANCH   1  11
HETATM   11  C8  UNL     1      -1.757  -0.633  -0.307  1.00  0.00     0.039 C 
BRANCH  11  12
HETATM   12  C7  UNL     1      -2.424   0.448   0.443  1.00  0.00     0.039 C 
HETATM   13  C2  UNL     1      -3.748  -0.118   0.964  1.00  0.00    -0.065 C 
HETATM   14  C1  UNL     1      -4.856  -0.058  -0.056  1.00  0.00     0.045 C 
HETATM   15  C3  UNL     1      -4.062  -0.649   2.137  1.00  0.00    -0.023 C 
HETATM   16  C4  UNL     1      -2.981  -0.879   2.878  1.00  0.00     0.012 C 
HETATM   17  C5  UNL     1      -1.959   0.205   2.853  1.00  0.00    -0.002 C 
HETATM   18  C6  UNL     1      -1.696   0.838   1.688  1.00  0.00    -0.018 C 
ENDBRANCH  11  12
ENDBRANCH   1  11
BRANCH   3  19
HETATM   19  C11 UNL     1       2.468   1.499  -1.084  1.00  0.00     0.046 A 
HETATM   20  C12 UNL     1       2.533   2.326  -2.131  1.00  0.00     0.031 A 
HETATM   21  C13 UNL     1       3.249   3.323  -1.342  1.00  0.00     0.021 A 
HETATM   22  C14 UNL     1       3.192   2.513  -0.295  1.00  0.00     0.074 A 
BRANCH  22  23
HETATM   23  C15 UNL     1       3.592   2.425   1.136  1.00  0.00     0.419 C 
HETATM   24  F1  UNL     1       4.428   1.350   1.378  1.00  0.00    -0.166 F 
HETATM   25  F2  UNL     1       2.479   2.406   1.957  1.00  0.00    -0.166 F 
HETATM   26  F3  UNL     1       4.332   3.555   1.453  1.00  0.00    -0.166 F 
ENDBRANCH  22  23
ENDBRANCH   3  19
TORSDOF 4
