REMARK  4 active torsions:
REMARK  status: ('A' for Active; 'I' for Inactive)
REMARK    1  A    between atoms: C4_5  and  N1_6 
REMARK    2  A    between atoms: N1_6  and  C5_7 
REMARK    3  A    between atoms: C6_8  and  C7_9 
REMARK    4  A    between atoms: C7_9  and  C8_10 
ROOT
HETATM    1  C5  UNL     1       0.219   0.278   0.458  1.00  0.00     0.099 C 
HETATM    2  C6  UNL     1      -1.048   0.445   0.878  1.00  0.00    -0.026 C 
HETATM    3  C14 UNL     1      -1.944   1.209  -0.016  1.00  0.00     0.143 C 
HETATM    4  N2  UNL     1      -1.226   2.203  -0.770  1.00  0.00    -0.221 NA
HETATM    5  C15 UNL     1      -1.703   2.504  -2.064  1.00  0.00     0.254 C 
HETATM    6  N3  UNL     1      -0.807   2.769  -3.112  1.00  0.00    -0.267 NA
HETATM    7  C16 UNL     1       0.412   2.410  -3.308  1.00  0.00     0.237 C 
HETATM    8  N4  UNL     1       1.121   1.572  -2.351  1.00  0.00    -0.200 NA
HETATM    9  S1  UNL     1       0.238   1.183  -1.100  1.00  0.00     0.028 SA
ENDROOT
BRANCH   1  10
HETATM   10  N1  UNL     1       1.355  -0.379   0.974  1.00  0.00    -0.358 N 
HETATM   11  H3  UNL     1       1.019  -1.267   1.410  1.00  0.00     0.166 HD
BRANCH  10  12
HETATM   12  C4  UNL     1       2.672   0.075   0.913  1.00  0.00     0.100 C 
HETATM   13  C3  UNL     1       3.611   0.025  -0.013  1.00  0.00    -0.019 A 
HETATM   14  C2  UNL     1       4.870   0.627   0.325  1.00  0.00     0.037 A 
HETATM   15  C17 UNL     1       3.346  -0.612  -1.294  1.00  0.00     0.015 A 
HETATM   16  C1  UNL     1       5.851   0.608  -0.567  1.00  0.00     0.050 A 
HETATM   17  F1  UNL     1       7.074   1.151  -0.336  1.00  0.00    -0.224 F 
HETATM   18  B1  UNL     1       5.680  -0.052  -1.982  1.00  0.00     0.276 B 
HETATM   19  C18 UNL     1       4.260  -0.682  -2.250  1.00  0.00    -0.047 A 
HETATM   20  H17 UNL     1       6.253   0.425  -2.915  1.00  0.00    -0.012 HD
HETATM   21 BR1  UNL     1       3.903  -1.514  -3.912  1.00  0.00    -0.069 Br
ENDBRANCH  10  12
ENDBRANCH   1  10
BRANCH   2  22
HETATM   22  C7  UNL     1      -1.470  -0.151   2.174  1.00  0.00     0.077 C 
BRANCH  22  23
HETATM   23  C8  UNL     1      -2.576  -1.120   2.016  1.00  0.00    -0.054 A 
HETATM   24  C9  UNL     1      -3.900  -0.672   2.092  1.00  0.00     0.007 A 
HETATM   25  C10 UNL     1      -4.967  -1.531   1.950  1.00  0.00     0.001 A 
HETATM   26  C11 UNL     1      -4.780  -2.879   1.726  1.00  0.00     0.000 A 
HETATM   27  C12 UNL     1      -3.472  -3.354   1.645  1.00  0.00     0.001 A 
HETATM   28  C13 UNL     1      -2.424  -2.466   1.792  1.00  0.00     0.007 A 
ENDBRANCH  22  23
ENDBRANCH   2  22
TORSDOF 4
