REMARK  9 active torsions:
REMARK  status: ('A' for Active; 'I' for Inactive)
REMARK    1  A    between atoms: N1_1  and  C1_2 
REMARK    2  A    between atoms: C1_2  and  N2_3 
REMARK    3  A    between atoms: C3_6  and  C4_7 
REMARK    4  A    between atoms: C4_7  and  C5_8 
REMARK    5  A    between atoms: C5_8  and  C6_9 
REMARK    6  A    between atoms: C14_17  and  N4_18 
REMARK    7  A    between atoms: C14_17  and  N5_19 
REMARK    8  A    between atoms: N5_19  and  C15_20 
REMARK    9  A    between atoms: C19_24  and  C20_25 
ROOT
HETATM    1  N2  UNL     1       0.164  -3.770  -0.324  1.00  0.00    -0.242 NA
HETATM    2  C2  UNL     1      -0.047  -2.502  -0.237  1.00  0.00     0.138 A 
HETATM    3  N3  UNL     1      -1.272  -1.833   0.091  1.00  0.00    -0.344 N 
HETATM    4  C3  UNL     1      -1.056  -0.426   0.073  1.00  0.00     0.012 A 
HETATM    5  C12 UNL     1       0.221  -0.200  -0.245  1.00  0.00     0.044 A 
HETATM    6  C13 UNL     1       0.941  -1.451  -0.460  1.00  0.00     0.055 A 
HETATM    7  C14 UNL     1       2.192  -1.644  -0.782  1.00  0.00     0.113 C 
HETATM    8  H5  UNL     1      -2.188  -2.272   0.312  1.00  0.00     0.167 HD
ENDROOT
BRANCH   7   9
HETATM    9  N4  UNL     1       2.669  -2.975  -0.938  1.00  0.00    -0.385 N 
HETATM   10  H16 UNL     1       2.778  -3.679  -1.717  1.00  0.00     0.157 HD
HETATM   11  H17 UNL     1       2.970  -3.245   0.023  1.00  0.00     0.157 HD
ENDBRANCH   7   9
BRANCH   7  12
HETATM   12  N5  UNL     1       3.093  -0.562  -0.982  1.00  0.00    -0.342 N 
HETATM   13  H18 UNL     1       3.283  -0.487  -2.005  1.00  0.00     0.167 HD
BRANCH  12  14
HETATM   14  C15 UNL     1       3.639   0.266   0.013  1.00  0.00     0.034 A 
HETATM   15  C16 UNL     1       3.278   0.024   1.323  1.00  0.00     0.029 A 
HETATM   16  C17 UNL     1       3.847   0.873   2.272  1.00  0.00     0.003 A 
HETATM   17  C18 UNL     1       4.716   1.887   1.900  1.00  0.00     0.016 A 
HETATM   18  C19 UNL     1       5.043   2.084   0.566  1.00  0.00     0.050 A 
HETATM   19  C21 UNL     1       4.496   1.257  -0.422  1.00  0.00     0.045 A 
BRANCH  18  20
HETATM   20  C20 UNL     1       5.970   3.159   0.112  1.00  0.00     0.417 C 
HETATM   21  F1  UNL     1       5.261   4.075  -0.668  1.00  0.00    -0.166 F 
HETATM   22  F2  UNL     1       6.442   3.799   1.250  1.00  0.00    -0.166 F 
HETATM   23  F3  UNL     1       6.994   2.660  -0.667  1.00  0.00    -0.166 F 
ENDBRANCH  18  20
ENDBRANCH  12  14
ENDBRANCH   7  12
BRANCH   1  24
HETATM   24  C1  UNL     1      -0.899  -4.715  -0.078  1.00  0.00     0.417 C 
BRANCH  24  25
HETATM   25  N1  UNL     1      -0.807  -5.901  -0.898  1.00  0.00     0.097 N 
HETATM   26  H1  UNL     1      -1.379  -6.649  -0.493  1.00  0.00     0.315 HD
HETATM   27  H2  UNL     1       0.135  -6.150  -1.214  1.00  0.00     0.315 HD
ENDBRANCH  24  25
ENDBRANCH   1  24
BRANCH   4  28
HETATM   28  C4  UNL     1      -2.082   0.617   0.361  1.00  0.00     0.062 C 
BRANCH  28  29
HETATM   29  C5  UNL     1      -3.244   0.518  -0.621  1.00  0.00     0.044 C 
BRANCH  29  30
HETATM   30  C6  UNL     1      -4.211   1.567  -0.283  1.00  0.00    -0.058 A 
HETATM   31  C7  UNL     1      -4.177   2.843  -0.818  1.00  0.00     0.007 A 
HETATM   32  C8  UNL     1      -5.119   3.781  -0.455  1.00  0.00     0.001 A 
HETATM   33  C9  UNL     1      -6.111   3.484   0.440  1.00  0.00     0.000 A 
HETATM   34  C10 UNL     1      -6.179   2.214   0.999  1.00  0.00     0.001 A 
HETATM   35  C11 UNL     1      -5.219   1.275   0.623  1.00  0.00     0.007 A 
ENDBRANCH  29  30
ENDBRANCH  28  29
ENDBRANCH   4  28
TORSDOF 9
