REMARK  3 active torsions:
REMARK  status: ('A' for Active; 'I' for Inactive)
REMARK    1  A    between atoms: N1_1  and  C1_2 
REMARK    2  A    between atoms: C2_3  and  C3_4 
REMARK    3  A    between atoms: N2_11  and  C7_12 
ROOT
HETATM    1  C7  UNL     1       1.990  -0.658   0.463  1.00  0.00     0.038 C 
HETATM    2  C8  UNL     1       1.037   0.289   0.514  1.00  0.00     0.042 C 
HETATM    3  C9  UNL     1      -0.433   0.181   0.620  1.00  0.00     0.012 A 
HETATM    4  C10 UNL     1      -1.271   1.103   0.989  1.00  0.00     0.014 A 
HETATM    5  C11 UNL     1      -2.654   0.578   0.956  1.00  0.00     0.118 A 
HETATM    6  C12 UNL     1      -3.433   1.177  -0.131  1.00  0.00     0.056 C 
HETATM    7  C13 UNL     1      -4.016   2.487  -0.105  1.00  0.00    -0.024 C 
HETATM    8  C14 UNL     1      -5.341   2.235  -0.101  1.00  0.00    -0.004 C 
HETATM    9  C15 UNL     1      -6.035   0.958  -0.075  1.00  0.00    -0.000 C 
HETATM   10  C16 UNL     1      -5.977  -0.386   0.016  1.00  0.00     0.001 C 
HETATM   11  C17 UNL     1      -4.947  -1.448   0.193  1.00  0.00     0.017 C 
HETATM   12  C18 UNL     1      -3.650  -1.636   0.373  1.00  0.00     0.093 C 
HETATM   13  N3  UNL     1      -2.465  -0.845   0.507  1.00  0.00    -0.331 N 
HETATM   14  C19 UNL     1      -1.093  -1.077   0.297  1.00  0.00     0.160 A 
HETATM   15  N4  UNL     1      -0.653  -2.232  -0.109  1.00  0.00    -0.160 NA
HETATM   16  N5  UNL     1       0.711  -2.545  -0.351  1.00  0.00    -0.306 N 
HETATM   17  C20 UNL     1       1.803  -2.132   0.504  1.00  0.00     0.199 C 
HETATM   18  H16 UNL     1       0.985  -3.116  -1.200  1.00  0.00     0.182 HD
ENDROOT
BRANCH   1  19
HETATM   19  N2  UNL     1       3.321  -0.115   0.359  1.00  0.00    -0.309 N 
HETATM   20  C1  UNL     1       4.083  -0.091  -0.835  1.00  0.00     0.120 C 
HETATM   21  C2  UNL     1       5.284   0.435  -0.789  1.00  0.00     0.092 C 
HETATM   22  C4  UNL     1       5.763   0.959   0.473  1.00  0.00     0.033 C 
HETATM   23  C5  UNL     1       5.150   0.635   1.572  1.00  0.00    -0.008 C 
HETATM   24  C6  UNL     1       3.866   0.424   1.567  1.00  0.00     0.111 C 
BRANCH  20  25
HETATM   25  N1  UNL     1       3.435  -0.654  -1.961  1.00  0.00    -0.384 N 
HETATM   26  H1  UNL     1       2.965  -0.089  -2.691  1.00  0.00     0.157 HD
HETATM   27  H2  UNL     1       3.219  -1.567  -2.401  1.00  0.00     0.157 HD
ENDBRANCH  20  25
BRANCH  21  28
HETATM   28  C3  UNL     1       6.176   0.520  -1.958  1.00  0.00     0.421 C 
HETATM   29  F1  UNL     1       7.367  -0.177  -1.727  1.00  0.00    -0.166 F 
HETATM   30  F2  UNL     1       6.573   1.835  -2.211  1.00  0.00    -0.166 F 
HETATM   31  F3  UNL     1       5.594  -0.016  -3.077  1.00  0.00    -0.166 F 
ENDBRANCH  21  28
ENDBRANCH   1  19
TORSDOF 3
