REMARK  5 active torsions:
REMARK  status: ('A' for Active; 'I' for Inactive)
REMARK    1  A    between atoms: C5_5  and  N1_6 
REMARK    2  A    between atoms: N1_6  and  C6_7 
REMARK    3  A    between atoms: C9_12  and  N4_13 
REMARK    4  A    between atoms: N4_13  and  C10_14 
REMARK    5  A    between atoms: C16_21  and  O1_22 
ROOT
HETATM    1  C6  UNL     1      -0.294  -1.933   0.628  1.00  0.00     0.093 A 
HETATM    2  C7  UNL     1      -0.173  -2.866   1.613  1.00  0.00     0.151 A 
HETATM    3  N2  UNL     1      -1.154  -3.665   1.998  1.00  0.00    -0.252 NA
HETATM    4  C8  UNL     1      -2.382  -3.571   1.369  1.00  0.00     0.235 A 
HETATM    5  N3  UNL     1      -2.695  -2.682   0.331  1.00  0.00    -0.222 NA
HETATM    6  C9  UNL     1      -1.536  -1.919   0.071  1.00  0.00     0.157 A 
ENDROOT
BRANCH   1   7
HETATM    7  N1  UNL     1       0.536  -0.894   0.086  1.00  0.00    -0.372 N 
HETATM    8  H8  UNL     1       0.209  -0.424  -0.772  1.00  0.00     0.161 HD
BRANCH   7   9
HETATM    9  C5  UNL     1       1.765  -0.233   0.212  1.00  0.00     0.161 C 
HETATM   10  C4  UNL     1       2.764  -0.522  -0.886  1.00  0.00     0.001 C 
HETATM   11  C3  UNL     1       3.840   0.265  -0.884  1.00  0.00    -0.020 C 
HETATM   12  C2  UNL     1       3.983   1.308   0.154  1.00  0.00     0.029 C 
HETATM   13  C1  UNL     1       3.452   2.646  -0.141  1.00  0.00     0.018 C 
HETATM   14  C17 UNL     1       3.548   0.651   1.427  1.00  0.00     0.016 C 
HETATM   15  C16 UNL     1       2.426  -0.170   1.533  1.00  0.00     0.066 C 
BRANCH  15  16
HETATM   16  O1  UNL     1       2.273  -0.669   2.776  1.00  0.00    -0.363 OA
HETATM   17  H16 UNL     1       2.537  -1.618   3.083  1.00  0.00     0.217 HD
ENDBRANCH  15  16
ENDBRANCH   7   9
ENDBRANCH   1   7
BRANCH   6  18
HETATM   18  N4  UNL     1      -1.939  -1.070  -0.992  1.00  0.00    -0.339 N 
HETATM   19  H11 UNL     1      -1.456  -1.417  -1.890  1.00  0.00     0.167 HD
BRANCH  18  20
HETATM   20  C10 UNL     1      -2.804   0.099  -0.980  1.00  0.00     0.035 A 
HETATM   21  C11 UNL     1      -3.573   0.084  -2.141  1.00  0.00     0.029 A 
HETATM   22  C12 UNL     1      -4.442   1.191  -2.231  1.00  0.00     0.004 A 
HETATM   23  C13 UNL     1      -4.512   2.165  -1.267  1.00  0.00     0.019 A 
HETATM   24  C14 UNL     1      -3.720   2.100  -0.151  1.00  0.00     0.013 A 
HETATM   25 BR1  UNL     1      -3.809   3.419   1.228  1.00  0.00    -0.051 Br
HETATM   26  C15 UNL     1      -2.854   1.074   0.014  1.00  0.00     0.048 A 
ENDBRANCH  18  20
ENDBRANCH   6  18
TORSDOF 5
