REMARK  6 active torsions:
REMARK  status: ('A' for Active; 'I' for Inactive)
REMARK    1  A    between atoms: C5_9  and  N5_10 
REMARK    2  A    between atoms: N5_10  and  C6_11 
REMARK    3  A    between atoms: C10_15  and  C11_16 
REMARK    4  A    between atoms: C15_23  and  C16_24 
REMARK    5  A    between atoms: C16_24  and  C17_25 
REMARK    6  A    between atoms: C17_25  and  C18_26 
ROOT
HETATM    1  C1  UNL     1       1.316  -2.878   1.126  1.00  0.00     0.157 C 
HETATM    2  N1  UNL     1       1.135  -2.711  -0.295  1.00  0.00    -0.345 N 
HETATM    3  C2  UNL     1       1.053  -4.098  -0.522  1.00  0.00     0.231 C 
HETATM    4  N2  UNL     1       0.115  -4.951  -0.592  1.00  0.00    -0.174 NA
HETATM    5  N3  UNL     1      -1.198  -4.534  -0.426  1.00  0.00    -0.308 N 
HETATM    6  C3  UNL     1      -2.310  -4.018   0.326  1.00  0.00     0.188 C 
HETATM    7  C4  UNL     1      -2.034  -2.662   0.878  1.00  0.00     0.113 C 
HETATM    8  N4  UNL     1      -1.560  -2.082  -0.129  1.00  0.00    -0.246 NA
HETATM    9  C5  UNL     1      -1.104  -0.773  -0.251  1.00  0.00     0.129 C 
HETATM   10  C13 UNL     1       0.120  -0.386  -0.413  1.00  0.00     0.079 C 
HETATM   11  C14 UNL     1       1.181  -1.334  -0.471  1.00  0.00     0.034 C 
HETATM   12  C15 UNL     1       2.435  -0.900  -0.656  1.00  0.00     0.003 C 
HETATM   13  H5  UNL     1      -1.223  -4.797  -1.444  1.00  0.00     0.182 HD
ENDROOT
BRANCH   9  14
HETATM   14  N5  UNL     1      -2.290  -0.085  -0.111  1.00  0.00    -0.341 N 
HETATM   15  H9  UNL     1      -1.896   0.347   0.792  1.00  0.00     0.167 HD
BRANCH  14  16
HETATM   16  C6  UNL     1      -3.487   0.598   0.015  1.00  0.00     0.034 A 
HETATM   17  C7  UNL     1      -4.486  -0.139   0.686  1.00  0.00     0.029 A 
HETATM   18  C8  UNL     1      -5.757   0.382   0.907  1.00  0.00     0.003 A 
HETATM   19  C9  UNL     1      -5.891   1.652   0.407  1.00  0.00     0.016 A 
HETATM   20  C10 UNL     1      -4.969   2.431  -0.256  1.00  0.00     0.050 A 
HETATM   21  C12 UNL     1      -3.745   1.862  -0.440  1.00  0.00     0.045 A 
BRANCH  20  22
HETATM   22  C11 UNL     1      -5.394   3.767  -0.684  1.00  0.00     0.417 C 
HETATM   23  F1  UNL     1      -4.409   4.702  -0.765  1.00  0.00    -0.166 F 
HETATM   24  F2  UNL     1      -6.140   3.733  -1.868  1.00  0.00    -0.166 F 
HETATM   25  F3  UNL     1      -6.302   4.233   0.265  1.00  0.00    -0.166 F 
ENDBRANCH  20  22
ENDBRANCH  14  16
ENDBRANCH   9  14
BRANCH  12  26
HETATM   26  C16 UNL     1       3.053   0.433  -0.886  1.00  0.00     0.033 C 
BRANCH  26  27
HETATM   27  C17 UNL     1       4.052   0.652   0.227  1.00  0.00     0.038 C 
BRANCH  27  28
HETATM   28  C18 UNL     1       4.770   1.943   0.131  1.00  0.00    -0.076 A 
HETATM   29  C19 UNL     1       4.687   2.856   1.094  1.00  0.00     0.003 A 
HETATM   30  C20 UNL     1       5.460   4.042   0.818  1.00  0.00    -0.003 A 
HETATM   31  C21 UNL     1       6.039   3.854  -0.346  1.00  0.00    -0.022 A 
HETATM   32  C22 UNL     1       5.660   2.513  -0.884  1.00  0.00     0.061 A 
ENDBRANCH  27  28
ENDBRANCH  26  27
ENDBRANCH  12  26
TORSDOF 6
