REMARK  4 active torsions:
REMARK  status: ('A' for Active; 'I' for Inactive)
REMARK    1  A    between atoms: C4_5  and  N1_6 
REMARK    2  A    between atoms: N1_6  and  C5_7 
REMARK    3  A    between atoms: C8_12  and  C9_13 
REMARK    4  A    between atoms: C10_15  and  C11_16 
ROOT
HETATM    1  C5  UNL     1       1.155  -1.725  -0.213  1.00  0.00     0.139 A 
HETATM    2  N2  UNL     1       2.159  -2.503  -0.637  1.00  0.00    -0.224 NA
HETATM    3  C6  UNL     1       2.042  -3.814  -0.894  1.00  0.00     0.234 A 
HETATM    4  N3  UNL     1       0.851  -4.419  -0.725  1.00  0.00    -0.253 NA
HETATM    5  C7  UNL     1      -0.224  -3.728  -0.302  1.00  0.00     0.131 A 
HETATM    6  C8  UNL     1      -0.043  -2.388  -0.054  1.00  0.00     0.041 A 
ENDROOT
BRANCH   1   7
HETATM    7  N1  UNL     1       1.212  -0.347   0.074  1.00  0.00    -0.340 N 
HETATM    8  H3  UNL     1       0.338   0.129   0.399  1.00  0.00     0.167 HD
BRANCH   7   9
HETATM    9  C4  UNL     1       2.333   0.517  -0.022  1.00  0.00     0.035 A 
HETATM   10  C3  UNL     1       2.242   1.878   0.299  1.00  0.00     0.032 A 
HETATM   11  C2  UNL     1       3.292   2.740   0.221  1.00  0.00     0.046 A 
HETATM   12  C1  UNL     1       4.525   2.313  -0.184  1.00  0.00     0.133 A 
HETATM   13  F1  UNL     1       5.521   3.222  -0.238  1.00  0.00    -0.205 F 
HETATM   14  C18 UNL     1       4.680   0.991  -0.512  1.00  0.00     0.051 A 
HETATM   15  C17 UNL     1       3.598   0.148  -0.422  1.00  0.00     0.051 A 
HETATM   16 BR1  UNL     1       6.393   0.385  -1.078  1.00  0.00    -0.048 Br
ENDBRANCH   7   9
ENDBRANCH   1   7
BRANCH   6  17
HETATM   17  C9  UNL     1      -1.253  -1.631   0.418  1.00  0.00     0.297 A 
HETATM   18  N4  UNL     1      -2.578  -2.235   0.011  1.00  0.00     0.106 N 
HETATM   19  C10 UNL     1      -2.157  -0.982  -0.501  1.00  0.00     0.292 A 
HETATM   20  H7  UNL     1      -3.249  -2.354   0.796  1.00  0.00     0.317 HD
BRANCH  19  21
HETATM   21  C11 UNL     1      -2.756   0.304  -0.071  1.00  0.00    -0.023 A 
HETATM   22  C12 UNL     1      -3.010   0.619   1.247  1.00  0.00     0.009 A 
HETATM   23  C13 UNL     1      -3.565   1.806   1.672  1.00  0.00     0.001 A 
HETATM   24  C14 UNL     1      -3.895   2.758   0.716  1.00  0.00     0.000 A 
HETATM   25  C15 UNL     1      -3.667   2.506  -0.614  1.00  0.00     0.001 A 
HETATM   26  C16 UNL     1      -3.117   1.315  -0.965  1.00  0.00     0.009 A 
ENDBRANCH  19  21
ENDBRANCH   6  17
TORSDOF 4
