REMARK  2 active torsions:
REMARK  status: ('A' for Active; 'I' for Inactive)
REMARK    1  A    between atoms: C1_2  and  N2_3 
REMARK    2  A    between atoms: C10_15  and  C11_16 
ROOT
HETATM    1  N2  UNL     1      -0.498   1.846  -1.108  1.00  0.00    -0.217 NA
HETATM    2  C2  UNL     1       0.121   1.088  -0.262  1.00  0.00     0.183 C 
HETATM    3  O1  UNL     1       1.247   1.463   0.531  1.00  0.00    -0.289 OA
HETATM    4  C3  UNL     1       2.480   0.759   0.476  1.00  0.00     0.104 A 
HETATM    5  C4  UNL     1       3.565   1.512   0.895  1.00  0.00     0.043 A 
HETATM    6  C5  UNL     1       4.836   0.990   0.908  1.00  0.00     0.045 A 
HETATM    7  C6  UNL     1       5.037  -0.318   0.493  1.00  0.00     0.118 A 
HETATM    8  F1  UNL     1       6.290  -0.838   0.503  1.00  0.00    -0.206 F 
HETATM    9  C7  UNL     1       4.000  -1.107   0.068  1.00  0.00     0.074 A 
HETATM   10  C8  UNL     1       2.736  -0.563   0.064  1.00  0.00     0.069 A 
HETATM   11  N3  UNL     1       1.790  -1.546  -0.416  1.00  0.00    -0.363 N 
HETATM   12  C9  UNL     1       0.363  -1.396  -0.187  1.00  0.00     0.105 C 
HETATM   13  C10 UNL     1      -0.389  -0.278  -0.113  1.00  0.00     0.043 C 
HETATM   14  H6  UNL     1       2.111  -2.382  -0.934  1.00  0.00     0.165 HD
ENDROOT
BRANCH  13  15
HETATM   15  C11 UNL     1      -1.815  -0.450   0.102  1.00  0.00    -0.019 A 
HETATM   16  C12 UNL     1      -2.482  -1.638  -0.047  1.00  0.00     0.012 A 
HETATM   17  C13 UNL     1      -3.815  -1.856   0.221  1.00  0.00     0.002 A 
HETATM   18  C14 UNL     1      -4.590  -0.813   0.682  1.00  0.00     0.019 A 
HETATM   19  C15 UNL     1      -3.992   0.413   0.857  1.00  0.00     0.011 A 
HETATM   20 BR1  UNL     1      -5.050   1.862   1.494  1.00  0.00    -0.051 Br
HETATM   21  C16 UNL     1      -2.655   0.537   0.565  1.00  0.00     0.031 A 
ENDBRANCH  13  15
BRANCH   1  22
HETATM   22  C1  UNL     1      -1.601   1.446  -1.881  1.00  0.00     0.226 C 
HETATM   23  N1  UNL     1      -1.801   2.735  -1.806  1.00  0.00    -0.293 NA
HETATM   24  H1  UNL     1      -2.647   3.114  -2.291  1.00  0.00     0.187 HD
ENDBRANCH   1  22
TORSDOF 2
