REMARK  4 active torsions:
REMARK  status: ('A' for Active; 'I' for Inactive)
REMARK    1  A    between atoms: C4_5  and  N1_6 
REMARK    2  A    between atoms: N1_6  and  C5_7 
REMARK    3  A    between atoms: C6_8  and  C7_9 
REMARK    4  A    between atoms: C7_9  and  C8_10 
ROOT
HETATM    1  C5  UNL     1      -0.808  -0.468   0.183  1.00  0.00     0.148 A 
HETATM    2  C6  UNL     1      -0.520   0.539   1.201  1.00  0.00    -0.050 A 
HETATM    3  C9  UNL     1      -1.004   0.046   2.355  1.00  0.00     0.037 A 
HETATM    4  C10 UNL     1      -1.624  -1.278   2.177  1.00  0.00     0.068 A 
HETATM    5  N2  UNL     1      -2.242  -2.222   2.902  1.00  0.00    -0.242 NA
HETATM    6  C11 UNL     1      -2.695  -3.357   2.377  1.00  0.00     0.233 A 
HETATM    7  N3  UNL     1      -2.567  -3.642   1.080  1.00  0.00    -0.253 NA
HETATM    8  C12 UNL     1      -1.956  -2.748   0.270  1.00  0.00     0.130 A 
HETATM    9  C13 UNL     1      -1.494  -1.578   0.838  1.00  0.00     0.015 A 
ENDROOT
BRANCH   1  10
HETATM   10  N1  UNL     1       0.258  -0.852  -0.677  1.00  0.00    -0.377 N 
HETATM   11  H3  UNL     1       0.562  -1.861  -0.514  1.00  0.00     0.160 HD
BRANCH  10  12
HETATM   12  C4  UNL     1       0.977  -0.166  -1.684  1.00  0.00     0.028 A 
HETATM   13  C3  UNL     1       2.029  -0.778  -2.377  1.00  0.00     0.032 A 
HETATM   14  C2  UNL     1       2.701  -0.091  -3.360  1.00  0.00     0.044 A 
HETATM   15  C1  UNL     1       2.387   1.184  -3.699  1.00  0.00     0.116 A 
HETATM   16  F1  UNL     1       3.080   1.816  -4.673  1.00  0.00    -0.206 F 
HETATM   17  C15 UNL     1       1.362   1.825  -3.046  1.00  0.00     0.044 A 
HETATM   18  C14 UNL     1       0.694   1.129  -2.065  1.00  0.00     0.032 A 
ENDBRANCH  10  12
ENDBRANCH   1  10
BRANCH   2  19
HETATM   19  C7  UNL     1       0.134   1.869   1.246  1.00  0.00     0.047 C 
BRANCH  19  20
HETATM   20  C8  UNL     1       0.127   2.412   2.657  1.00  0.00     0.089 C 
HETATM   21 BR1  UNL     1       0.959   4.125   2.766  1.00  0.00    -0.096 Br
ENDBRANCH  19  20
ENDBRANCH   2  19
TORSDOF 4
