REMARK  6 active torsions:
REMARK  status: ('A' for Active; 'I' for Inactive)
REMARK    1  A    between atoms: C4_5  and  N1_6 
REMARK    2  A    between atoms: N1_6  and  C5_7 
REMARK    3  A    between atoms: C7_12  and  C8_13 
REMARK    4  A    between atoms: C9_14  and  C10_15 
REMARK    5  A    between atoms: C10_15  and  C11_16 
REMARK    6  A    between atoms: C11_16  and  C12_17 
ROOT
HETATM    1  C5  UNL     1       2.155  -1.079   0.175  1.00  0.00     0.160 A 
HETATM    2  N2  UNL     1       2.896  -2.179   0.146  1.00  0.00    -0.220 NA
HETATM    3  C6  UNL     1       2.449  -3.419   0.283  1.00  0.00     0.259 A 
HETATM    4  N3  UNL     1       1.136  -3.547   0.464  1.00  0.00    -0.143 NA
HETATM    5  N4  UNL     1       0.361  -2.487   0.500  1.00  0.00    -0.145 NA
HETATM    6  C7  UNL     1       0.776  -1.220   0.365  1.00  0.00     0.124 A 
ENDROOT
BRANCH   1   7
HETATM    7  N1  UNL     1       2.656   0.233   0.026  1.00  0.00    -0.339 N 
HETATM    8  H3  UNL     1       2.005   1.042   0.061  1.00  0.00     0.167 HD
BRANCH   7   9
HETATM    9  C4  UNL     1       3.996   0.640  -0.177  1.00  0.00     0.035 A 
HETATM   10  C3  UNL     1       5.075  -0.211  -0.269  1.00  0.00     0.032 A 
HETATM   11  C2  UNL     1       6.383   0.174  -0.465  1.00  0.00     0.046 A 
HETATM   12  C1  UNL     1       6.655   1.512  -0.583  1.00  0.00     0.133 A 
HETATM   13  F1  UNL     1       7.900   1.976  -0.776  1.00  0.00    -0.205 F 
HETATM   14  C19 UNL     1       5.630   2.426  -0.502  1.00  0.00     0.051 A 
HETATM   15  C18 UNL     1       4.350   1.966  -0.304  1.00  0.00     0.051 A 
HETATM   16 BR1  UNL     1       5.979   4.288  -0.661  1.00  0.00    -0.048 Br
ENDBRANCH   7   9
ENDBRANCH   1   7
BRANCH   6  17
HETATM   17  C8  UNL     1      -0.178  -0.128   0.423  1.00  0.00     0.033 C 
HETATM   18  C9  UNL     1      -1.477  -0.284   0.602  1.00  0.00    -0.024 C 
BRANCH  18  19
HETATM   19  C10 UNL     1      -2.438  -1.383   0.794  1.00  0.00     0.032 C 
BRANCH  19  20
HETATM   20  C11 UNL     1      -3.507  -1.399  -0.290  1.00  0.00     0.042 C 
BRANCH  20  21
HETATM   21  C12 UNL     1      -4.304  -0.169  -0.344  1.00  0.00    -0.058 A 
HETATM   22  C13 UNL     1      -5.437  -0.160   0.440  1.00  0.00     0.007 A 
HETATM   23  C14 UNL     1      -6.283   0.950   0.480  1.00  0.00     0.001 A 
HETATM   24  C15 UNL     1      -5.961   2.048  -0.289  1.00  0.00     0.000 A 
HETATM   25  C16 UNL     1      -4.822   2.027  -1.071  1.00  0.00     0.001 A 
HETATM   26  C17 UNL     1      -3.977   0.929  -1.116  1.00  0.00     0.007 A 
ENDBRANCH  20  21
ENDBRANCH  19  20
ENDBRANCH  18  19
ENDBRANCH   6  17
TORSDOF 6
