REMARK  1 active torsions:
REMARK  status: ('A' for Active; 'I' for Inactive)
REMARK    1  A    between atoms: C5_6  and  C6_7 
ROOT
HETATM    1  C6  UNL     1       1.001  -0.605   0.140  1.00  0.00     0.073 C 
HETATM    2  N1  UNL     1       0.390  -1.743   0.191  1.00  0.00    -0.263 NA
HETATM    3  C7  UNL     1      -0.895  -1.841   0.732  1.00  0.00     0.376 C 
HETATM    4  N2  UNL     1      -2.099  -2.339   0.519  1.00  0.00    -0.293 NA
HETATM    5  C8  UNL     1      -3.079  -2.072   1.532  1.00  0.00     0.051 C 
HETATM    6  C9  UNL     1      -3.840  -1.019   1.751  1.00  0.00     0.010 C 
HETATM    7  C10 UNL     1      -3.993   0.252   1.080  1.00  0.00    -0.003 C 
HETATM    8  C11 UNL     1      -3.476   0.856   0.002  1.00  0.00    -0.026 C 
HETATM    9  C12 UNL     1      -2.560   0.768  -1.129  1.00  0.00     0.031 C 
HETATM   10  C13 UNL     1      -1.413   1.756  -1.091  1.00  0.00     0.039 C 
HETATM   11  C14 UNL     1      -0.594   1.417   0.123  1.00  0.00    -0.060 C 
HETATM   12  C15 UNL     1       0.322   0.585   0.674  1.00  0.00    -0.020 C 
HETATM   13  C16 UNL     1       0.622   1.354   1.909  1.00  0.00     0.041 A 
HETATM   14  C17 UNL     1      -0.253   1.867   2.879  1.00  0.00     0.016 A 
HETATM   15  C18 UNL     1      -0.781   1.783   1.546  1.00  0.00     0.009 A 
ENDROOT
BRANCH   1  16
HETATM   16  C5  UNL     1       2.320  -0.666  -0.448  1.00  0.00     0.034 A 
HETATM   17  C4  UNL     1       2.932  -1.887  -0.933  1.00  0.00     0.037 A 
HETATM   18  C3  UNL     1       4.139  -1.660  -1.433  1.00  0.00     0.024 A 
HETATM   19  C2  UNL     1       4.384  -0.222  -1.293  1.00  0.00     0.011 A 
HETATM   20 BR1  UNL     1       5.386  -2.890  -2.203  1.00  0.00    -0.050 Br
HETATM   21  C1  UNL     1       5.484   0.406  -1.675  1.00  0.00     0.028 C 
HETATM   22  C19 UNL     1       3.181   0.291  -0.666  1.00  0.00     0.139 A 
HETATM   23  F1  UNL     1       3.076   1.598  -0.401  1.00  0.00    -0.204 F 
ENDBRANCH   1  16
TORSDOF 1
