REMARK  3 active torsions:
REMARK  status: ('A' for Active; 'I' for Inactive)
REMARK    1  A    between atoms: C8_8  and  S1_9 
REMARK    2  A    between atoms: C10_12  and  N2_13 
REMARK    3  A    between atoms: N2_13  and  C11_14 
ROOT
HETATM    1  C1  UNL     1      -5.779  -0.884   1.220  1.00  0.00     0.036 C 
HETATM    2  C2  UNL     1      -4.457  -1.482   0.927  1.00  0.00    -0.022 C 
HETATM    3  C3  UNL     1      -3.365  -0.774   0.788  1.00  0.00    -0.035 C 
HETATM    4  C4  UNL     1      -3.609   0.673   0.955  1.00  0.00     0.005 C 
HETATM    5  C5  UNL     1      -2.613   1.593   0.867  1.00  0.00    -0.019 C 
HETATM    6  C6  UNL     1      -1.232   2.008   0.684  1.00  0.00     0.083 C 
HETATM    7  C7  UNL     1      -0.067   1.324   0.524  1.00  0.00     0.035 A 
HETATM    8  C8  UNL     1       0.932   2.414   0.360  1.00  0.00     0.082 A 
HETATM    9  N1  UNL     1       2.157   1.942   0.230  1.00  0.00    -0.228 NA
HETATM   10  C10 UNL     1       2.007   0.523   0.308  1.00  0.00     0.133 A 
HETATM   11  C17 UNL     1       0.779   0.090   0.478  1.00  0.00     0.005 A 
HETATM   12  C18 UNL     1       0.304  -1.289   0.775  1.00  0.00     0.308 C 
HETATM   13  N3  UNL     1      -1.028  -1.275   1.268  1.00  0.00     0.091 NA
HETATM   14  C19 UNL     1      -2.055  -1.259   0.314  1.00  0.00     0.308 C 
HETATM   15  H17 UNL     1      -1.168  -2.064   1.931  1.00  0.00     0.316 HD
ENDROOT
BRANCH  10  16
HETATM   16  N2  UNL     1       3.134  -0.343   0.207  1.00  0.00    -0.341 N 
HETATM   17  H11 UNL     1       3.450  -0.501   1.190  1.00  0.00     0.167 HD
BRANCH  16  18
HETATM   18  C11 UNL     1       3.748  -0.906  -0.937  1.00  0.00     0.035 A 
HETATM   19  C12 UNL     1       3.260  -0.644  -2.198  1.00  0.00     0.032 A 
HETATM   20  C13 UNL     1       3.943  -1.248  -3.236  1.00  0.00     0.046 A 
HETATM   21  C14 UNL     1       5.046  -2.063  -3.024  1.00  0.00     0.133 A 
HETATM   22  F1  UNL     1       5.752  -2.680  -4.003  1.00  0.00    -0.205 F 
HETATM   23  C15 UNL     1       5.501  -2.298  -1.731  1.00  0.00     0.051 A 
HETATM   24 BR1  UNL     1       7.017  -3.411  -1.364  1.00  0.00    -0.048 Br
HETATM   25  C16 UNL     1       4.837  -1.707  -0.679  1.00  0.00     0.051 A 
ENDBRANCH  16  18
ENDBRANCH  10  16
BRANCH   8  26
HETATM   26  S1  UNL     1       0.798   4.167   0.308  1.00  0.00    -0.118 SA
HETATM   27  C9  UNL     1      -0.847   4.840   0.493  1.00  0.00     0.097 C 
ENDBRANCH   8  26
TORSDOF 3
