REMARK  0 active torsions:
REMARK  status: ('A' for Active; 'I' for Inactive)
ROOT
HETATM    1  F1  UNL     1       2.347   4.447   1.032  1.00  0.00    -0.209 F 
HETATM    2  C1  UNL     1       2.208   3.065   1.055  1.00  0.00     0.111 C 
HETATM    3  C2  UNL     1       2.163   1.779   1.497  1.00  0.00     0.036 C 
HETATM    4  C3  UNL     1       2.059   0.310   1.710  1.00  0.00    -0.013 C 
HETATM    5  C4  UNL     1       1.855  -0.182   0.519  1.00  0.00     0.058 C 
HETATM    6  C5  UNL     1       1.615  -1.188  -0.429  1.00  0.00    -0.009 A 
HETATM    7 BR1  UNL     1       1.889  -0.873  -2.275  1.00  0.00    -0.114 Br
HETATM    8  C6  UNL     1       1.368  -2.327  -0.994  1.00  0.00     0.078 A 
HETATM    9  C7  UNL     1       1.321  -2.732   0.435  1.00  0.00     0.025 C 
HETATM   10  C8  UNL     1      -0.062  -2.534   0.298  1.00  0.00     0.003 C 
HETATM   11  C9  UNL     1      -0.966  -1.384   0.741  1.00  0.00     0.057 C 
HETATM   12  C10 UNL     1      -1.434  -0.520  -0.380  1.00  0.00     0.021 C 
HETATM   13  C11 UNL     1      -2.060   0.761   0.133  1.00  0.00     0.058 A 
HETATM   14  C12 UNL     1      -3.302   0.940  -0.697  1.00  0.00    -0.016 A 
HETATM   15  C13 UNL     1      -3.227   2.053  -1.403  1.00  0.00    -0.001 A 
HETATM   16  C14 UNL     1      -1.965   2.730  -1.133  1.00  0.00     0.025 A 
HETATM   17  C15 UNL     1      -1.279   1.991  -0.245  1.00  0.00     0.013 A 
HETATM   18  N1  UNL     1       0.010   2.499   0.175  1.00  0.00    -0.386 N 
HETATM   19  C16 UNL     1       1.444   2.387  -0.049  1.00  0.00     0.189 C 
HETATM   20  N2  UNL     1      -0.202  -3.802  -0.387  1.00  0.00    -0.391 N 
HETATM   21  C17 UNL     1       1.063  -3.765  -1.166  1.00  0.00     0.149 C 
HETATM   22  H13 UNL     1      -0.220   3.228   0.927  1.00  0.00     0.159 HD
HETATM   23  H16 UNL     1      -1.078  -4.402  -0.210  1.00  0.00     0.159 HD
ENDROOT
TORSDOF 0
