REMARK  8 active torsions:
REMARK  status: ('A' for Active; 'I' for Inactive)
REMARK    1  A    between atoms: N1_1  and  C1_2 
REMARK    2  A    between atoms: C1_2  and  C2_3 
REMARK    3  A    between atoms: C2_3  and  O1_4 
REMARK    4  A    between atoms: O1_4  and  C3_5 
REMARK    5  A    between atoms: C4_6  and  C5_7 
REMARK    6  A    between atoms: C4_6  and  C6_9 
REMARK    7  A    between atoms: C10_15  and  C11_16 
REMARK    8  A    between atoms: C11_16  and  C12_17 
ROOT
HETATM    1  C1  UNL     1      -0.875  -0.093   0.868  1.00  0.00     0.054 C 
HETATM    2  C7  UNL     1      -0.185   0.083  -0.250  1.00  0.00     0.086 C 
HETATM    3  C8  UNL     1      -0.475   0.987  -1.413  1.00  0.00     0.331 C 
HETATM    4  N2  UNL     1      -0.206   0.295  -2.668  1.00  0.00     0.094 N 
HETATM    5  C9  UNL     1       1.223   0.049  -2.712  1.00  0.00     0.324 C 
HETATM    6  C10 UNL     1       1.606  -0.680  -1.502  1.00  0.00     0.045 C 
HETATM    7  N3  UNL     1       0.998  -0.692  -0.366  1.00  0.00    -0.256 NA
HETATM    8  H12 UNL     1      -0.696  -0.647  -2.589  1.00  0.00     0.316 HD
ENDROOT
BRANCH   1   9
HETATM    9  N1  UNL     1      -0.535  -0.978   1.940  1.00  0.00    -0.399 N 
HETATM   10  H1  UNL     1       0.081  -0.434   2.559  1.00  0.00     0.156 HD
HETATM   11  H2  UNL     1      -0.913  -1.962   1.963  1.00  0.00     0.156 HD
ENDBRANCH   1   9
BRANCH   1  12
HETATM   12  C2  UNL     1      -2.137   0.566   1.271  1.00  0.00     0.233 C 
BRANCH  12  13
HETATM   13  O1  UNL     1      -3.176  -0.396   1.477  1.00  0.00    -0.357 OA
BRANCH  13  14
HETATM   14  C3  UNL     1      -4.445  -0.051   1.854  1.00  0.00     0.141 C 
HETATM   15  C4  UNL     1      -5.162   0.073   2.953  1.00  0.00    -0.020 C 
BRANCH  15  16
HETATM   16  C5  UNL     1      -6.588   0.491   3.003  1.00  0.00     0.259 C 
HETATM   17  F1  UNL     1      -6.672   1.633   3.750  1.00  0.00    -0.251 F 
ENDBRANCH  15  16
BRANCH  15  18
HETATM   18  C6  UNL     1      -4.755  -0.158   4.351  1.00  0.00     0.123 C 
HETATM   19 BR1  UNL     1      -2.916  -0.713   4.492  1.00  0.00    -0.092 Br
ENDBRANCH  15  18
ENDBRANCH  13  14
ENDBRANCH  12  13
ENDBRANCH   1  12
BRANCH   6  20
HETATM   20  C11 UNL     1       2.843  -1.473  -1.661  1.00  0.00     0.095 C 
BRANCH  20  21
HETATM   21  C12 UNL     1       4.035  -0.703  -2.011  1.00  0.00    -0.053 A 
HETATM   22  C13 UNL     1       4.796  -0.223  -0.941  1.00  0.00     0.007 A 
HETATM   23  C14 UNL     1       5.931   0.510  -1.235  1.00  0.00     0.001 A 
HETATM   24  C15 UNL     1       6.371   0.804  -2.508  1.00  0.00     0.000 A 
HETATM   25  C16 UNL     1       5.607   0.322  -3.562  1.00  0.00     0.001 A 
HETATM   26  C17 UNL     1       4.458  -0.419  -3.280  1.00  0.00     0.007 A 
ENDBRANCH  20  21
ENDBRANCH   6  20
TORSDOF 8
