REMARK  5 active torsions:
REMARK  status: ('A' for Active; 'I' for Inactive)
REMARK    1  A    between atoms: C4_5  and  N1_6 
REMARK    2  A    between atoms: N1_6  and  C5_7 
REMARK    3  A    between atoms: C8_10  and  C9_11 
REMARK    4  A    between atoms: C9_11  and  C10_12 
REMARK    5  A    between atoms: C10_12  and  C11_13 
ROOT
HETATM    1  C5  UNL     1       2.587  -1.264   0.227  1.00  0.00     0.137 C 
HETATM    2  C6  UNL     1       1.342  -1.657  -0.081  1.00  0.00     0.009 C 
HETATM    3  C7  UNL     1       0.338  -1.249  -1.152  1.00  0.00     0.039 C 
HETATM    4  C8  UNL     1      -0.686  -0.736  -0.305  1.00  0.00     0.030 C 
HETATM    5  N2  UNL     1      -0.085  -1.034   1.021  1.00  0.00    -0.291 N 
HETATM    6  C17 UNL     1       0.364  -2.506   0.825  1.00  0.00     0.191 C 
HETATM    7  N3  UNL     1       0.266  -0.138   2.087  1.00  0.00    -0.292 N 
HETATM    8  C18 UNL     1       1.782  -0.230   2.349  1.00  0.00     0.226 C 
HETATM    9  N4  UNL     1       2.734  -1.016   1.709  1.00  0.00    -0.225 NA
HETATM   10  H16 UNL     1      -0.662   0.254   2.259  1.00  0.00     0.188 HD
ENDROOT
BRANCH   1  11
HETATM   11  N1  UNL     1       3.214  -1.199  -1.016  1.00  0.00    -0.340 N 
HETATM   12  H3  UNL     1       3.053  -1.754  -1.815  1.00  0.00     0.167 HD
BRANCH  11  13
HETATM   13  C4  UNL     1       4.153  -0.149  -0.865  1.00  0.00     0.035 A 
HETATM   14  C3  UNL     1       5.404  -0.693  -0.661  1.00  0.00     0.032 A 
HETATM   15  C2  UNL     1       6.519   0.136  -0.478  1.00  0.00     0.046 A 
HETATM   16  C1  UNL     1       6.347   1.512  -0.504  1.00  0.00     0.133 A 
HETATM   17  F1  UNL     1       7.389   2.392  -0.331  1.00  0.00    -0.205 F 
HETATM   18  C20 UNL     1       5.085   2.036  -0.709  1.00  0.00     0.051 A 
HETATM   19  C19 UNL     1       3.988   1.219  -0.889  1.00  0.00     0.051 A 
HETATM   20 BR1  UNL     1       4.746   3.927  -0.757  1.00  0.00    -0.048 Br
ENDBRANCH  11  13
ENDBRANCH   1  11
BRANCH   4  21
HETATM   21  C9  UNL     1      -1.926   0.009  -0.402  1.00  0.00     0.063 C 
BRANCH  21  22
HETATM   22  C10 UNL     1      -3.123  -0.730   0.131  1.00  0.00     0.044 C 
BRANCH  22  23
HETATM   23  C11 UNL     1      -4.337   0.103  -0.038  1.00  0.00    -0.058 A 
HETATM   24  C12 UNL     1      -5.156   0.023  -1.145  1.00  0.00     0.007 A 
HETATM   25  C13 UNL     1      -6.274   0.854  -1.208  1.00  0.00     0.001 A 
HETATM   26  C14 UNL     1      -6.494   1.713  -0.152  1.00  0.00     0.000 A 
HETATM   27  C15 UNL     1      -5.696   1.813   0.959  1.00  0.00     0.001 A 
HETATM   28  C16 UNL     1      -4.602   0.994   1.013  1.00  0.00     0.007 A 
ENDBRANCH  22  23
ENDBRANCH  21  22
ENDBRANCH   4  21
TORSDOF 5
