REMARK  5 active torsions:
REMARK  status: ('A' for Active; 'I' for Inactive)
REMARK    1  A    between atoms: N1_1  and  C1_2 
REMARK    2  A    between atoms: C2_4  and  N3_5 
REMARK    3  A    between atoms: N3_5  and  C3_6 
REMARK    4  A    between atoms: C11_16  and  C12_17 
REMARK    5  A    between atoms: C12_17  and  C13_18 
ROOT
HETATM    1  C1  UNL     1       0.394   1.182   1.863  1.00  0.00     0.137 C 
HETATM    2  N2  UNL     1       1.188   1.513   0.853  1.00  0.00    -0.215 NA
HETATM    3  C2  UNL     1       1.272   0.873  -0.465  1.00  0.00     0.138 C 
HETATM    4  C9  UNL     1       0.391  -0.132  -0.336  1.00  0.00     0.016 C 
HETATM    5  C10 UNL     1      -1.078  -0.024  -0.650  1.00  0.00     0.018 C 
HETATM    6  C11 UNL     1      -1.340  -0.208   0.687  1.00  0.00    -0.035 C 
HETATM    7  C19 UNL     1      -0.431  -0.086   1.893  1.00  0.00     0.318 C 
HETATM    8  N4  UNL     1       0.456  -1.243   1.770  1.00  0.00     0.103 N 
HETATM    9  C20 UNL     1       0.735  -1.481   0.322  1.00  0.00     0.313 C 
HETATM   10  H16 UNL     1      -0.105  -2.041   2.169  1.00  0.00     0.317 HD
ENDROOT
BRANCH   3  11
HETATM   11  N3  UNL     1       2.259   1.726  -1.091  1.00  0.00    -0.340 N 
HETATM   12  H3  UNL     1       1.853   2.616  -1.385  1.00  0.00     0.167 HD
BRANCH  11  13
HETATM   13  C3  UNL     1       3.549   1.076  -1.123  1.00  0.00     0.035 A 
HETATM   14  C4  UNL     1       4.041   1.066   0.169  1.00  0.00     0.032 A 
HETATM   15  C5  UNL     1       5.290   0.501   0.458  1.00  0.00     0.046 A 
HETATM   16  C6  UNL     1       6.018  -0.045  -0.584  1.00  0.00     0.133 A 
HETATM   17  F1  UNL     1       7.233  -0.612  -0.391  1.00  0.00    -0.205 F 
HETATM   18  C7  UNL     1       5.505  -0.022  -1.864  1.00  0.00     0.051 A 
HETATM   19 BR1  UNL     1       6.425  -0.739  -3.391  1.00  0.00    -0.048 Br
HETATM   20  C8  UNL     1       4.277   0.531  -2.156  1.00  0.00     0.051 A 
ENDBRANCH  11  13
ENDBRANCH   3  11
BRANCH   1  21
HETATM   21  N1  UNL     1       0.343   2.125   2.997  1.00  0.00    -0.385 N 
HETATM   22  H1  UNL     1      -0.507   2.676   3.297  1.00  0.00     0.157 HD
HETATM   23  H2  UNL     1       1.271   2.179   3.471  1.00  0.00     0.157 HD
ENDBRANCH   1  21
BRANCH   6  24
HETATM   24  C12 UNL     1      -2.744  -0.626   1.139  1.00  0.00     0.075 C 
BRANCH  24  25
HETATM   25  C13 UNL     1      -3.666  -0.745   0.019  1.00  0.00    -0.054 A 
HETATM   26  C14 UNL     1      -4.598   0.290  -0.132  1.00  0.00     0.007 A 
HETATM   27  C15 UNL     1      -5.529   0.314  -1.148  1.00  0.00     0.001 A 
HETATM   28  C16 UNL     1      -5.575  -0.725  -2.090  1.00  0.00     0.000 A 
HETATM   29  C17 UNL     1      -4.640  -1.745  -1.923  1.00  0.00     0.001 A 
HETATM   30  C18 UNL     1      -3.719  -1.745  -0.897  1.00  0.00     0.007 A 
ENDBRANCH  24  25
ENDBRANCH   6  24
TORSDOF 5
