REMARK  2 active torsions:
REMARK  status: ('A' for Active; 'I' for Inactive)
REMARK    1  A    between atoms: O1_2  and  C2_3 
REMARK    2  A    between atoms: N4_15  and  C11_16 
ROOT
HETATM    1  C2  UNL     1      -2.514  -0.429   0.187  1.00  0.00     0.049 C 
HETATM    2  C3  UNL     1      -2.896   0.026  -1.035  1.00  0.00     0.012 C 
HETATM    3  C4  UNL     1      -2.110   0.660  -2.221  1.00  0.00     0.088 C 
HETATM    4  C5  UNL     1      -0.709   0.800  -1.733  1.00  0.00     0.038 C 
HETATM    5  C6  UNL     1       0.374   1.568  -1.313  1.00  0.00     0.030 C 
HETATM    6  C7  UNL     1       1.495   0.501  -0.994  1.00  0.00     0.176 C 
HETATM    7  C8  UNL     1       0.501  -0.582  -0.875  1.00  0.00     0.151 C 
HETATM    8  N1  UNL     1      -0.619  -0.699  -1.463  1.00  0.00    -0.236 NA
HETATM    9  N2  UNL     1       0.462  -1.487   0.291  1.00  0.00    -0.217 NA
HETATM   10  C9  UNL     1      -0.196  -0.511   1.105  1.00  0.00     0.122 C 
HETATM   11  C10 UNL     1      -1.606  -0.770   1.334  1.00  0.00     0.143 C 
HETATM   12  N3  UNL     1       0.895   0.441   1.285  1.00  0.00    -0.305 N 
HETATM   13  N4  UNL     1       1.905   0.864   0.367  1.00  0.00    -0.206 NA
HETATM   14  H11 UNL     1       0.694   0.735   2.294  1.00  0.00     0.182 HD
ENDROOT
BRANCH  13  15
HETATM   15  C11 UNL     1       3.182   0.385   0.756  1.00  0.00     0.110 A 
HETATM   16  C12 UNL     1       3.424  -1.058   0.681  1.00  0.00     0.014 A 
HETATM   17  C13 UNL     1       4.421  -1.006  -0.188  1.00  0.00     0.011 A 
HETATM   18 CL1  UNL     1       5.589  -1.949  -1.115  1.00  0.00    -0.089 Cl
HETATM   19  C14 UNL     1       4.316   0.473  -0.221  1.00  0.00     0.076 A 
ENDBRANCH  13  15
BRANCH   1  20
HETATM   20  O1  UNL     1      -3.769  -0.857   0.714  1.00  0.00    -0.360 OA
HETATM   21  C1  UNL     1      -4.552   0.031   1.500  1.00  0.00     0.209 C 
ENDBRANCH   1  20
TORSDOF 2
