REMARK  1 active torsions:
REMARK  status: ('A' for Active; 'I' for Inactive)
REMARK    1  A    between atoms: C7_12  and  C8_13 
ROOT
HETATM    1  F1  UNL     1      -2.075  -3.887   0.363  1.00  0.00    -0.210 F 
HETATM    2  C1  UNL     1      -2.086  -2.523   0.332  1.00  0.00     0.105 C 
HETATM    3  C2  UNL     1      -3.194  -1.887   0.757  1.00  0.00     0.031 C 
HETATM    4  C3  UNL     1      -3.547  -0.450   0.738  1.00  0.00     0.154 C 
HETATM    5  N1  UNL     1      -2.742   0.232  -0.285  1.00  0.00    -0.361 N 
HETATM    6  C4  UNL     1      -1.859  -0.620  -1.092  1.00  0.00     0.144 C 
HETATM    7  C5  UNL     1      -1.121  -1.469  -0.079  1.00  0.00     0.170 C 
HETATM    8  C6  UNL     1       0.140  -2.004  -0.723  1.00  0.00     0.448 C 
HETATM    9  F2  UNL     1      -0.207  -2.566  -1.934  1.00  0.00    -0.172 F 
HETATM   10  F3  UNL     1       0.746  -2.953   0.050  1.00  0.00    -0.172 F 
HETATM   11  N2  UNL     1       0.999  -0.860  -1.012  1.00  0.00     0.165 N 
HETATM   12  C7  UNL     1       1.549  -0.226   0.142  1.00  0.00     0.264 C 
HETATM   13  C14 UNL     1       1.749   1.272  -0.203  1.00  0.00     0.068 C 
HETATM   14  C15 UNL     1       0.409   1.837  -0.559  1.00  0.00    -0.023 C 
HETATM   15  C16 UNL     1      -0.717   2.356  -0.961  1.00  0.00     0.013 C 
HETATM   16  C17 UNL     1      -2.091   2.656  -0.675  1.00  0.00     0.027 A 
HETATM   17  C18 UNL     1      -2.392   3.991  -0.733  1.00  0.00     0.133 A 
HETATM   18  N3  UNL     1      -3.649   4.359  -0.464  1.00  0.00    -0.253 NA
HETATM   19  C19 UNL     1      -4.506   3.392  -0.161  1.00  0.00     0.234 A 
HETATM   20  N4  UNL     1      -4.183   2.097  -0.112  1.00  0.00    -0.224 NA
HETATM   21  C20 UNL     1      -2.922   1.636  -0.373  1.00  0.00     0.139 A 
HETATM   22  H7  UNL     1       1.743  -1.109  -1.697  1.00  0.00     0.324 HD
ENDROOT
BRANCH  12  23
HETATM   23  C8  UNL     1       2.943  -0.710   0.452  1.00  0.00    -0.025 A 
HETATM   24  C9  UNL     1       3.253  -1.029   1.777  1.00  0.00     0.009 A 
HETATM   25  C10 UNL     1       4.503  -1.476   2.142  1.00  0.00     0.001 A 
HETATM   26  C11 UNL     1       5.502  -1.622   1.183  1.00  0.00     0.000 A 
HETATM   27  C12 UNL     1       5.164  -1.295  -0.130  1.00  0.00     0.001 A 
HETATM   28  C13 UNL     1       3.911  -0.843  -0.519  1.00  0.00     0.009 A 
ENDBRANCH  12  23
TORSDOF 1
