REMARK  7 active torsions:
REMARK  status: ('A' for Active; 'I' for Inactive)
REMARK    1  A    between atoms: N1_1  and  C1_2 
REMARK    2  A    between atoms: C6_7  and  C7_8 
REMARK    3  A    between atoms: C7_8  and  C8_9 
REMARK    4  A    between atoms: C11_12  and  N2_13 
REMARK    5  A    between atoms: N2_13  and  C12_14 
REMARK    6  A    between atoms: C16_19  and  C17_20 
REMARK    7  A    between atoms: C17_20  and  C18_22 
ROOT
HETATM    1  C8  UNL     1       2.091  -0.938   0.772  1.00  0.00    -0.059 C 
HETATM    2  C9  UNL     1       1.881  -2.001  -0.042  1.00  0.00    -0.014 C 
HETATM    3  C10 UNL     1       0.720  -2.721  -0.679  1.00  0.00     0.106 C 
HETATM    4  C11 UNL     1      -0.502  -2.321   0.074  1.00  0.00     0.107 C 
HETATM    5  N3  UNL     1      -0.350  -1.731   1.142  1.00  0.00    -0.245 NA
HETATM    6  C20 UNL     1      -1.027  -1.169   2.175  1.00  0.00     0.152 C 
HETATM    7  C21 UNL     1      -0.307  -0.477   3.041  1.00  0.00     0.098 C 
HETATM    8  N4  UNL     1       0.802   0.013   2.646  1.00  0.00    -0.282 NA
HETATM    9  C22 UNL     1       1.060   0.020   1.237  1.00  0.00     0.183 C 
ENDROOT
BRANCH   4  10
HETATM   10  N2  UNL     1      -1.821  -2.619  -0.331  1.00  0.00    -0.344 N 
HETATM   11  H12 UNL     1      -1.966  -3.636  -0.630  1.00  0.00     0.167 HD
BRANCH  10  12
HETATM   12  C12 UNL     1      -2.917  -1.732  -0.394  1.00  0.00     0.034 A 
HETATM   13  C13 UNL     1      -4.184  -2.294  -0.603  1.00  0.00     0.032 A 
HETATM   14  C14 UNL     1      -5.321  -1.526  -0.698  1.00  0.00     0.045 A 
HETATM   15  C15 UNL     1      -5.276  -0.153  -0.594  1.00  0.00     0.125 A 
HETATM   16  F1  UNL     1      -6.421   0.547  -0.694  1.00  0.00    -0.205 F 
HETATM   17  C16 UNL     1      -4.042   0.427  -0.389  1.00  0.00     0.018 A 
HETATM   18  C19 UNL     1      -2.930  -0.377  -0.299  1.00  0.00     0.042 A 
BRANCH  17  19
HETATM   19  C17 UNL     1      -3.937   1.905  -0.272  1.00  0.00     0.234 C 
HETATM   20  F2  UNL     1      -2.875   2.203   0.568  1.00  0.00    -0.242 F 
BRANCH  19  21
HETATM   21  C18 UNL     1      -3.758   2.556  -1.629  1.00  0.00     0.264 C 
HETATM   22  F3  UNL     1      -4.866   2.226  -2.392  1.00  0.00    -0.252 F 
ENDBRANCH  19  21
ENDBRANCH  17  19
ENDBRANCH  10  12
ENDBRANCH   4  10
BRANCH   1  23
HETATM   23  C7  UNL     1       3.531  -0.627   1.147  1.00  0.00     0.076 C 
BRANCH  23  24
HETATM   24  C6  UNL     1       3.861   0.737   0.672  1.00  0.00    -0.028 A 
HETATM   25  C1  UNL     1       4.089   0.854  -0.687  1.00  0.00     0.032 A 
HETATM   26  C2  UNL     1       4.399   2.100  -1.176  1.00  0.00     0.029 A 
HETATM   27  C3  UNL     1       4.476   3.173  -0.329  1.00  0.00     0.002 A 
HETATM   28  C4  UNL     1       4.250   3.072   1.042  1.00  0.00     0.001 A 
HETATM   29  C5  UNL     1       3.939   1.833   1.539  1.00  0.00     0.010 A 
BRANCH  25  30
HETATM   30  N1  UNL     1       4.005  -0.276  -1.561  1.00  0.00    -0.399 N 
HETATM   31  H1  UNL     1       4.643  -1.013  -1.234  1.00  0.00     0.156 HD
HETATM   32  H2  UNL     1       3.382  -0.355  -2.420  1.00  0.00     0.156 HD
ENDBRANCH  25  30
ENDBRANCH  23  24
ENDBRANCH   1  23
TORSDOF 7
