REMARK  5 active torsions:
REMARK  status: ('A' for Active; 'I' for Inactive)
REMARK    1  A    between atoms: C7_7  and  C8_8 
REMARK    2  A    between atoms: C8_8  and  C9_9 
REMARK    3  A    between atoms: C12_15  and  N4_16 
REMARK    4  A    between atoms: N4_16  and  C13_17 
REMARK    5  A    between atoms: C17_22  and  C18_23 
ROOT
HETATM    1  C9  UNL     1      -1.500  -0.746  -0.594  1.00  0.00     0.128 A 
HETATM    2  N1  UNL     1      -2.202  -2.000  -0.421  1.00  0.00    -0.365 N 
HETATM    3  C10 UNL     1      -1.050  -2.697   0.026  1.00  0.00     0.137 A 
HETATM    4  N2  UNL     1      -0.490  -3.840   0.459  1.00  0.00    -0.224 NA
HETATM    5  C11 UNL     1       0.839  -3.854   0.758  1.00  0.00     0.237 A 
HETATM    6  N3  UNL     1       1.516  -2.713   0.600  1.00  0.00    -0.224 NA
HETATM    7  C12 UNL     1       1.022  -1.564   0.180  1.00  0.00     0.141 A 
HETATM    8  C20 UNL     1      -0.331  -1.531  -0.129  1.00  0.00     0.056 A 
HETATM    9  H11 UNL     1      -3.194  -2.306  -0.567  1.00  0.00     0.162 HD
ENDROOT
BRANCH   7  10
HETATM   10  N4  UNL     1       1.784  -0.378   0.027  1.00  0.00    -0.340 N 
HETATM   11  H13 UNL     1       1.287   0.491  -0.329  1.00  0.00     0.167 HD
BRANCH  10  12
HETATM   12  C13 UNL     1       3.161  -0.176   0.291  1.00  0.00     0.034 A 
HETATM   13  C14 UNL     1       4.009  -1.077   0.895  1.00  0.00     0.032 A 
HETATM   14  C15 UNL     1       5.341  -0.897   1.147  1.00  0.00     0.045 A 
HETATM   15  C16 UNL     1       5.909   0.312   0.758  1.00  0.00     0.131 A 
HETATM   16  F1  UNL     1       7.213   0.566   0.971  1.00  0.00    -0.205 F 
HETATM   17  C17 UNL     1       5.124   1.244   0.156  1.00  0.00     0.088 A 
HETATM   18  C19 UNL     1       3.788   0.998  -0.067  1.00  0.00     0.048 A 
BRANCH  17  19
HETATM   19  C18 UNL     1       5.722   2.537  -0.266  1.00  0.00     0.420 C 
HETATM   20  F2  UNL     1       6.260   3.243   0.793  1.00  0.00    -0.166 F 
HETATM   21  F3  UNL     1       4.768   3.301  -0.879  1.00  0.00    -0.166 F 
HETATM   22  F4  UNL     1       6.788   2.293  -1.129  1.00  0.00    -0.166 F 
ENDBRANCH  17  19
ENDBRANCH  10  12
ENDBRANCH   7  10
BRANCH   1  23
HETATM   23  C8  UNL     1      -1.959   0.307   0.391  1.00  0.00     0.069 C 
BRANCH  23  24
HETATM   24  C7  UNL     1      -3.411   0.524   0.160  1.00  0.00    -0.050 A 
HETATM   25  C2  UNL     1      -3.910   1.248  -0.893  1.00  0.00    -0.056 A 
HETATM   26  C1  UNL     1      -2.970   1.866  -1.872  1.00  0.00     0.049 C 
HETATM   27  C3  UNL     1      -5.275   1.427  -1.075  1.00  0.00     0.007 A 
HETATM   28  C4  UNL     1      -6.180   0.881  -0.200  1.00  0.00     0.001 A 
HETATM   29  C5  UNL     1      -5.738   0.138   0.884  1.00  0.00     0.001 A 
HETATM   30  C6  UNL     1      -4.374  -0.013   1.023  1.00  0.00     0.007 A 
ENDBRANCH  23  24
ENDBRANCH   1  23
TORSDOF 5
