REMARK  6 active torsions:
REMARK  status: ('A' for Active; 'I' for Inactive)
REMARK    1  A    between atoms: C4_5  and  N1_6 
REMARK    2  A    between atoms: N1_6  and  C5_7 
REMARK    3  A    between atoms: C7_11  and  C8_12 
REMARK    4  A    between atoms: C8_12  and  C9_13 
REMARK    5  A    between atoms: C9_13  and  C10_14 
REMARK    6  A    between atoms: C19_24  and  C20_25 
ROOT
HETATM    1  C5  UNL     1       1.403  -0.264   0.669  1.00  0.00     0.725 A 
HETATM    2  N2  UNL     1       1.123   0.794  -0.047  1.00  0.00    -0.073 NA
HETATM    3  C6  UNL     1      -0.148   1.281   0.312  1.00  0.00     0.279 A 
HETATM    4  N3  UNL     1      -1.225   1.234  -0.618  1.00  0.00    -0.365 N 
HETATM    5  C7  UNL     1      -2.327   1.450   0.316  1.00  0.00     0.009 C 
HETATM    6  C16 UNL     1      -1.993   0.860   1.496  1.00  0.00     0.056 C 
HETATM    7  C17 UNL     1      -0.656   0.255   1.306  1.00  0.00     0.100 A 
HETATM    8  N4  UNL     1       0.283  -0.600   1.521  1.00  0.00    -0.064 NA
HETATM    9  H5  UNL     1      -1.504   1.115  -1.623  1.00  0.00     0.162 HD
ENDROOT
BRANCH   1  10
HETATM   10  N1  UNL     1       2.596  -0.990   0.567  1.00  0.00    -0.188 N 
HETATM   11  H3  UNL     1       2.557  -2.017   0.687  1.00  0.00     0.184 HD
BRANCH  10  12
HETATM   12  C4  UNL     1       3.850  -0.382   0.308  1.00  0.00     0.050 A 
HETATM   13  C3  UNL     1       4.100   0.965   0.175  1.00  0.00     0.033 A 
HETATM   14  C2  UNL     1       5.340   1.494  -0.079  1.00  0.00     0.045 A 
HETATM   15  C1  UNL     1       6.433   0.668  -0.218  1.00  0.00     0.128 A 
HETATM   16  F1  UNL     1       7.654   1.167  -0.467  1.00  0.00    -0.205 F 
HETATM   17  C19 UNL     1       6.259  -0.695  -0.097  1.00  0.00     0.046 A 
HETATM   18  C18 UNL     1       4.985  -1.154   0.158  1.00  0.00     0.046 A 
BRANCH  17  19
HETATM   19  C20 UNL     1       7.415  -1.617  -0.241  1.00  0.00     0.389 C 
HETATM   20  F2  UNL     1       7.977  -1.454  -1.494  1.00  0.00    -0.209 F 
HETATM   21  F3  UNL     1       8.387  -1.250   0.678  1.00  0.00    -0.209 F 
ENDBRANCH  17  19
ENDBRANCH  10  12
ENDBRANCH   1  10
BRANCH   5  22
HETATM   22  C8  UNL     1      -3.642   2.155   0.118  1.00  0.00     0.061 C 
BRANCH  22  23
HETATM   23  C9  UNL     1      -4.423   1.492  -1.006  1.00  0.00     0.044 C 
BRANCH  23  24
HETATM   24  C10 UNL     1      -4.659   0.091  -0.632  1.00  0.00    -0.058 A 
HETATM   25  C11 UNL     1      -5.823  -0.177   0.079  1.00  0.00     0.007 A 
HETATM   26  C12 UNL     1      -6.174  -1.458   0.497  1.00  0.00     0.001 A 
HETATM   27  C13 UNL     1      -5.345  -2.522   0.204  1.00  0.00     0.000 A 
HETATM   28  C14 UNL     1      -4.184  -2.277  -0.501  1.00  0.00     0.001 A 
HETATM   29  C15 UNL     1      -3.865  -0.997  -0.901  1.00  0.00     0.007 A 
ENDBRANCH  23  24
ENDBRANCH  22  23
ENDBRANCH   5  22
TORSDOF 6
