REMARK  3 active torsions:
REMARK  status: ('A' for Active; 'I' for Inactive)
REMARK    1  A    between atoms: C5_6  and  N1_7 
REMARK    2  A    between atoms: N1_7  and  C6_8 
REMARK    3  A    between atoms: C20_25  and  C21_26 
ROOT
HETATM    1  C6  UNL     1       0.838   0.815   0.245  1.00  0.00     0.138 A 
HETATM    2  N2  UNL     1       1.452   1.332   1.316  1.00  0.00    -0.224 NA
HETATM    3  C7  UNL     1       0.730   1.300   2.475  1.00  0.00     0.232 A 
HETATM    4  N3  UNL     1      -0.509   0.771   2.469  1.00  0.00    -0.233 NA
HETATM    5  C8  UNL     1      -1.057   0.256   1.290  1.00  0.00     0.325 A 
HETATM    6  C9  UNL     1      -0.414   0.261   0.159  1.00  0.00     0.074 A 
HETATM    7  C10 UNL     1      -1.776  -0.362  -0.019  1.00  0.00     0.259 A 
HETATM    8  C11 UNL     1      -2.411  -0.771  -1.121  1.00  0.00     0.042 C 
HETATM    9  C12 UNL     1      -3.045  -1.199  -2.400  1.00  0.00     0.012 C 
HETATM   10  C13 UNL     1      -4.374  -0.585  -2.345  1.00  0.00     0.027 C 
HETATM   11  C14 UNL     1      -5.601  -0.008  -2.298  1.00  0.00    -0.027 C 
HETATM   12  C15 UNL     1      -6.360   0.260  -1.195  1.00  0.00    -0.008 C 
HETATM   13  C16 UNL     1      -5.930  -0.029   0.164  1.00  0.00    -0.020 C 
HETATM   14  C17 UNL     1      -4.774  -0.515   0.555  1.00  0.00     0.046 C 
HETATM   15  C18 UNL     1      -3.635  -1.017   1.157  1.00  0.00     0.287 C 
HETATM   16  N4  UNL     1      -2.406  -0.307   1.373  1.00  0.00     0.147 N 
ENDROOT
BRANCH   1  17
HETATM   17  N1  UNL     1       1.401   0.722  -1.066  1.00  0.00    -0.350 N 
HETATM   18  H5  UNL     1       1.102   0.338  -1.954  1.00  0.00     0.166 HD
BRANCH  17  19
HETATM   19  C5  UNL     1       2.683   1.310  -1.091  1.00  0.00     0.097 C 
HETATM   20  C4  UNL     1       3.849   1.002  -0.535  1.00  0.00    -0.038 A 
HETATM   21  C3  UNL     1       5.030   1.870  -0.783  1.00  0.00     0.070 A 
HETATM   22  C19 UNL     1       3.900  -0.189   0.311  1.00  0.00     0.028 A 
HETATM   23  C2  UNL     1       6.159   1.310   0.037  1.00  0.00     0.021 A 
HETATM   24  C1  UNL     1       6.269   0.240   0.826  1.00  0.00     0.128 A 
HETATM   25  F1  UNL     1       7.408  -0.068   1.472  1.00  0.00    -0.206 F 
HETATM   26  C20 UNL     1       5.029  -0.512   0.925  1.00  0.00     0.086 A 
BRANCH  26  27
HETATM   27  C21 UNL     1       5.039  -1.737   1.781  1.00  0.00     0.420 C 
HETATM   28  F2  UNL     1       3.769  -2.324   1.749  1.00  0.00    -0.166 F 
HETATM   29  F3  UNL     1       5.346  -1.436   3.088  1.00  0.00    -0.166 F 
HETATM   30  F4  UNL     1       5.910  -2.654   1.222  1.00  0.00    -0.166 F 
ENDBRANCH  26  27
ENDBRANCH  17  19
ENDBRANCH   1  17
TORSDOF 3
