REMARK  7 active torsions:
REMARK  status: ('A' for Active; 'I' for Inactive)
REMARK    1  A    between atoms: C4_4  and  C5_5 
REMARK    2  A    between atoms: C5_5  and  C6_6 
REMARK    3  A    between atoms: C6_6  and  C7_7 
REMARK    4  A    between atoms: C10_12  and  N3_13 
REMARK    5  A    between atoms: N3_13  and  C11_14 
REMARK    6  A    between atoms: C15_19  and  C16_20 
REMARK    7  A    between atoms: C16_20  and  N4_21 
ROOT
HETATM    1  C7  UNL     1       1.584  -0.372  -1.493  1.00  0.00     0.007 A 
HETATM    2  C8  UNL     1       0.866  -1.557  -1.894  1.00  0.00     0.084 A 
HETATM    3  N1  UNL     1       0.438  -2.720  -2.380  1.00  0.00    -0.240 NA
HETATM    4  C9  UNL     1      -0.845  -3.071  -2.148  1.00  0.00     0.236 A 
HETATM    5  N2  UNL     1      -1.594  -2.219  -1.444  1.00  0.00    -0.223 NA
HETATM    6  C10 UNL     1      -1.182  -1.046  -0.948  1.00  0.00     0.143 A 
HETATM    7  C18 UNL     1       0.150  -0.659  -1.177  1.00  0.00     0.052 A 
ENDROOT
BRANCH   6   8
HETATM    8  N3  UNL     1      -2.031  -0.185  -0.206  1.00  0.00    -0.340 N 
HETATM    9  H9  UNL     1      -1.587   0.714   0.157  1.00  0.00     0.167 HD
BRANCH   8  10
HETATM   10  C11 UNL     1      -3.382  -0.356   0.115  1.00  0.00     0.034 A 
HETATM   11  C12 UNL     1      -4.222  -1.329  -0.364  1.00  0.00     0.032 A 
HETATM   12  C13 UNL     1      -5.549  -1.503  -0.042  1.00  0.00     0.045 A 
HETATM   13  C14 UNL     1      -6.084  -0.592   0.865  1.00  0.00     0.130 A 
HETATM   14  F1  UNL     1      -7.381  -0.683   1.241  1.00  0.00    -0.205 F 
HETATM   15  C15 UNL     1      -5.314   0.417   1.397  1.00  0.00     0.086 A 
HETATM   16  C17 UNL     1      -3.997   0.510   1.014  1.00  0.00     0.048 A 
BRANCH  15  17
HETATM   17  C16 UNL     1      -5.918   1.353   2.349  1.00  0.00     0.466 C 
HETATM   18  F2  UNL     1      -6.520   0.721   3.414  1.00  0.00    -0.168 F 
HETATM   19  F3  UNL     1      -6.913   2.067   1.666  1.00  0.00    -0.168 F 
BRANCH  17  20
HETATM   20  N4  UNL     1      -5.003   2.368   2.837  1.00  0.00     0.156 N 
HETATM   21  H12 UNL     1      -4.176   1.906   3.275  1.00  0.00     0.321 HD
HETATM   22  H13 UNL     1      -4.647   2.884   2.002  1.00  0.00     0.321 HD
ENDBRANCH  17  20
ENDBRANCH  15  17
ENDBRANCH   8  10
ENDBRANCH   6   8
BRANCH   1  23
HETATM   23  C6  UNL     1       2.351   0.683  -1.176  1.00  0.00    -0.007 C 
BRANCH  23  24
HETATM   24  C5  UNL     1       3.767   0.703  -1.625  1.00  0.00     0.067 C 
BRANCH  24  25
HETATM   25  C4  UNL     1       4.591   0.793  -0.378  1.00  0.00    -0.043 C 
HETATM   26  C3  UNL     1       6.063   0.838  -0.428  1.00  0.00     0.015 C 
HETATM   27  C2  UNL     1       6.571   0.564   0.782  1.00  0.00    -0.061 C 
HETATM   28  C1  UNL     1       7.953   0.464   1.341  1.00  0.00     0.048 C 
HETATM   29  C20 UNL     1       5.379   0.337   1.627  1.00  0.00     0.019 C 
HETATM   30  C19 UNL     1       4.382   0.852   0.925  1.00  0.00    -0.018 C 
ENDBRANCH  24  25
ENDBRANCH  23  24
ENDBRANCH   1  23
TORSDOF 7
