REMARK  10 active torsions:
REMARK  status: ('A' for Active; 'I' for Inactive)
REMARK    1  A    between atoms: N1_1  and  C1_2 
REMARK    2  A    between atoms: C1_2  and  C15_23 
REMARK    3  A    between atoms: C2_3  and  C3_4 
REMARK    4  A    between atoms: C5_7  and  N3_8 
REMARK    5  A    between atoms: C6_10  and  N5_11 
REMARK    6  A    between atoms: N5_11  and  C7_12 
REMARK    7  A    between atoms: C11_17  and  C12_18 
REMARK    8  A    between atoms: C12_18  and  C13_20 
REMARK    9  A    between atoms: C15_23  and  C16_24 
REMARK   10  A    between atoms: C16_24  and  C17_25 
ROOT
HETATM    1  C3  UNL     1      -0.096  -0.875   1.911  1.00  0.00     0.020 C 
HETATM    2  C4  UNL     1      -0.171  -1.746   2.907  1.00  0.00     0.116 C 
HETATM    3  N2  UNL     1       0.627  -2.736   2.791  1.00  0.00    -0.061 NA
HETATM    4  C5  UNL     1       1.977  -2.467   2.374  1.00  0.00     0.718 C 
HETATM    5  N4  UNL     1       2.214  -1.355   1.765  1.00  0.00    -0.075 NA
HETATM    6  C6  UNL     1       1.224  -0.347   1.463  1.00  0.00     0.262 C 
ENDROOT
BRANCH   1   7
HETATM    7  C2  UNL     1      -1.341  -0.456   1.275  1.00  0.00     0.038 C 
HETATM    8  C1  UNL     1      -2.090  -1.280   0.585  1.00  0.00     0.003 C 
BRANCH   8   9
HETATM    9  N1  UNL     1      -1.715  -2.643   0.425  1.00  0.00    -0.402 N 
HETATM   10  H1  UNL     1      -1.035  -3.133  -0.228  1.00  0.00     0.156 HD
HETATM   11  H2  UNL     1      -2.150  -3.391   1.041  1.00  0.00     0.156 HD
ENDBRANCH   8   9
BRANCH   8  12
HETATM   12  C15 UNL     1      -3.338  -0.817  -0.040  1.00  0.00     0.061 C 
BRANCH  12  13
HETATM   13  C16 UNL     1      -3.613   0.632   0.206  1.00  0.00     0.044 C 
BRANCH  13  14
HETATM   14  C17 UNL     1      -4.885   1.007  -0.459  1.00  0.00    -0.058 A 
HETATM   15  C18 UNL     1      -4.802   1.458  -1.768  1.00  0.00     0.007 A 
HETATM   16  C19 UNL     1      -5.957   1.818  -2.430  1.00  0.00     0.001 A 
HETATM   17  C20 UNL     1      -7.176   1.727  -1.786  1.00  0.00     0.000 A 
HETATM   18  C21 UNL     1      -7.264   1.275  -0.473  1.00  0.00     0.001 A 
HETATM   19  C22 UNL     1      -6.104   0.908   0.206  1.00  0.00     0.007 A 
ENDBRANCH  13  14
ENDBRANCH  12  13
ENDBRANCH   8  12
ENDBRANCH   1   7
BRANCH   6  20
HETATM   20  N5  UNL     1       1.240  -0.062   0.045  1.00  0.00    -0.363 N 
HETATM   21  H7  UNL     1       0.350  -0.251  -0.502  1.00  0.00     0.162 HD
BRANCH  20  22
HETATM   22  C7  UNL     1       2.350   0.453  -0.691  1.00  0.00     0.030 A 
HETATM   23  C8  UNL     1       2.328   0.713  -2.045  1.00  0.00     0.032 A 
HETATM   24  C9  UNL     1       3.461   1.214  -2.671  1.00  0.00     0.045 A 
HETATM   25  C10 UNL     1       4.608   1.454  -1.951  1.00  0.00     0.125 A 
HETATM   26  F1  UNL     1       5.710   1.942  -2.564  1.00  0.00    -0.205 F 
HETATM   27  C11 UNL     1       4.639   1.195  -0.584  1.00  0.00     0.018 A 
HETATM   28  C14 UNL     1       3.515   0.696   0.045  1.00  0.00     0.042 A 
BRANCH  27  29
HETATM   29  C12 UNL     1       5.857   1.438   0.241  1.00  0.00     0.234 C 
HETATM   30  F2  UNL     1       6.629   2.407  -0.380  1.00  0.00    -0.242 F 
BRANCH  29  31
HETATM   31  C13 UNL     1       6.670   0.161   0.219  1.00  0.00     0.264 C 
HETATM   32  F3  UNL     1       7.006  -0.126  -1.090  1.00  0.00    -0.252 F 
ENDBRANCH  29  31
ENDBRANCH  27  29
ENDBRANCH  20  22
ENDBRANCH   6  20
BRANCH   4  33
HETATM   33  N3  UNL     1       3.107  -3.291   2.554  1.00  0.00    -0.231 N 
HETATM   34  H4  UNL     1       4.000  -3.127   3.066  1.00  0.00     0.174 HD
HETATM   35  H5  UNL     1       3.022  -4.230   2.086  1.00  0.00     0.174 HD
ENDBRANCH   4  33
TORSDOF 10
