REMARK  5 active torsions:
REMARK  status: ('A' for Active; 'I' for Inactive)
REMARK    1  A    between atoms: C2_2  and  C3_3 
REMARK    2  A    between atoms: C3_3  and  C4_4 
REMARK    3  A    between atoms: C4_4  and  C5_5 
REMARK    4  A    between atoms: C5_5  and  C6_6 
REMARK    5  A    between atoms: C11_14  and  N4_15 
ROOT
HETATM    1  C6  UNL     1       1.048   0.004  -0.349  1.00  0.00     0.074 C 
HETATM    2  C7  UNL     1       2.160  -1.035  -0.580  1.00  0.00     0.043 C 
HETATM    3  C8  UNL     1       2.437  -1.774   0.684  1.00  0.00     0.272 C 
HETATM    4  N1  UNL     1       3.200  -2.990   0.461  1.00  0.00     0.102 N 
HETATM    5  C9  UNL     1       2.384  -3.922  -0.330  1.00  0.00     0.418 C 
HETATM    6  N2  UNL     1       1.053  -4.080   0.148  1.00  0.00    -0.253 NA
HETATM    7  C10 UNL     1       0.141  -3.162   0.223  1.00  0.00     0.230 C 
HETATM    8  N3  UNL     1      -0.630  -1.994   0.190  1.00  0.00    -0.229 NA
HETATM    9  C11 UNL     1      -0.177  -0.812  -0.041  1.00  0.00     0.109 C 
HETATM   10  H9  UNL     1       4.040  -2.807  -0.131  1.00  0.00     0.318 HD
ENDROOT
BRANCH   9  11
HETATM   11  N4  UNL     1      -1.328  -0.011   0.051  1.00  0.00    -0.360 N 
HETATM   12  C12 UNL     1      -1.990   0.187   1.349  1.00  0.00     0.135 C 
HETATM   13  C13 UNL     1      -2.988   1.302   1.291  1.00  0.00     0.044 C 
HETATM   14  C14 UNL     1      -4.058   1.034   2.340  1.00  0.00     0.017 C 
HETATM   15  C15 UNL     1      -3.704   1.349  -0.027  1.00  0.00     0.015 C 
HETATM   16 CL1  UNL     1      -5.382   1.893  -0.069  1.00  0.00    -0.089 Cl
HETATM   17  C16 UNL     1      -3.096   0.989  -1.163  1.00  0.00     0.018 C 
HETATM   18  C17 UNL     1      -1.684   0.515  -1.239  1.00  0.00     0.106 C 
HETATM   19  C18 UNL     1      -1.580  -0.489  -2.351  1.00  0.00     0.037 C 
ENDBRANCH   9  11
BRANCH   1  20
HETATM   20  C5  UNL     1       1.385   0.978   0.702  1.00  0.00     0.094 C 
BRANCH  20  21
HETATM   21  C4  UNL     1       1.929   2.144   0.387  1.00  0.00    -0.086 C 
BRANCH  21  22
HETATM   22  C3  UNL     1       2.607   3.136  -0.116  1.00  0.00    -0.028 C 
BRANCH  22  23
HETATM   23  C2  UNL     1       3.345   4.103  -0.531  1.00  0.00    -0.093 C 
HETATM   24  C1  UNL     1       4.140   5.135  -0.633  1.00  0.00     0.107 C 
ENDBRANCH  22  23
ENDBRANCH  21  22
ENDBRANCH  20  21
ENDBRANCH   1  20
TORSDOF 5
