REMARK  4 active torsions:
REMARK  status: ('A' for Active; 'I' for Inactive)
REMARK    1  A    between atoms: N1_8  and  C6_9 
REMARK    2  A    between atoms: C6_9  and  C7_10 
REMARK    3  A    between atoms: C9_14  and  C10_15 
REMARK    4  A    between atoms: C10_15  and  C11_16 
ROOT
HETATM    1  C7  UNL     1       1.283  -1.119  -0.143  1.00  0.00     0.051 A 
HETATM    2  N2  UNL     1       1.004  -2.069   0.684  1.00  0.00    -0.273 NA
HETATM    3  C8  UNL     1      -0.133  -2.110   1.562  1.00  0.00     0.270 A 
HETATM    4  N3  UNL     1      -0.985  -0.942   1.444  1.00  0.00    -0.375 N 
HETATM    5  C9  UNL     1      -0.702   0.116   0.543  1.00  0.00     0.012 A 
HETATM    6  C17 UNL     1       0.387   0.023  -0.214  1.00  0.00     0.053 A 
HETATM    7  H7  UNL     1      -1.814  -0.958   2.077  1.00  0.00     0.161 HD
ENDROOT
BRANCH   1   8
HETATM    8  C6  UNL     1       2.507  -1.259  -0.968  1.00  0.00     0.189 C 
BRANCH   8   9
HETATM    9  N1  UNL     1       3.483  -0.216  -0.754  1.00  0.00    -0.327 N 
HETATM   10  C1  UNL     1       4.736  -0.530  -0.107  1.00  0.00     0.192 C 
HETATM   11  F1  UNL     1       5.009  -1.798   0.297  1.00  0.00    -0.186 F 
HETATM   12  C2  UNL     1       5.589   0.494   0.061  1.00  0.00     0.086 C 
HETATM   13  C3  UNL     1       5.275   1.867  -0.384  1.00  0.00     0.051 C 
HETATM   14 CL1  UNL     1       6.675   2.860  -0.740  1.00  0.00    -0.083 Cl
HETATM   15  C4  UNL     1       3.967   2.044  -0.416  1.00  0.00     0.015 C 
HETATM   16  C5  UNL     1       3.309   1.147  -1.135  1.00  0.00     0.107 C 
ENDBRANCH   8   9
ENDBRANCH   1   8
BRANCH   5  17
HETATM   17  C10 UNL     1      -1.615   1.287   0.467  1.00  0.00     0.095 C 
BRANCH  17  18
HETATM   18  C11 UNL     1      -2.976   0.844   0.076  1.00  0.00    -0.053 A 
HETATM   19  C12 UNL     1      -3.896   0.503   1.034  1.00  0.00     0.007 A 
HETATM   20  C13 UNL     1      -5.178   0.085   0.729  1.00  0.00     0.001 A 
HETATM   21  C14 UNL     1      -5.591  -0.007  -0.593  1.00  0.00     0.000 A 
HETATM   22  C15 UNL     1      -4.645   0.343  -1.546  1.00  0.00     0.001 A 
HETATM   23  C16 UNL     1      -3.367   0.760  -1.244  1.00  0.00     0.007 A 
ENDBRANCH  17  18
ENDBRANCH   5  17
TORSDOF 4
