REMARK  2 active torsions:
REMARK  status: ('A' for Active; 'I' for Inactive)
REMARK    1  A    between atoms: C3_6  and  N3_7 
REMARK    2  A    between atoms: N3_7  and  C4_8 
ROOT
HETATM    1  F1  UNL     1      -1.056  -4.298   0.544  1.00  0.00    -0.189 F 
HETATM    2  C1  UNL     1      -1.763  -3.136   0.443  1.00  0.00     0.190 C 
HETATM    3  N1  UNL     1      -1.263  -2.021   0.077  1.00  0.00    -0.217 NA
HETATM    4  C2  UNL     1       0.051  -1.708  -0.294  1.00  0.00     0.232 C 
HETATM    5  N2  UNL     1      -0.124  -0.586   0.327  1.00  0.00    -0.252 NA
HETATM    6  C3  UNL     1       0.805   0.475   0.478  1.00  0.00     0.241 C 
HETATM    7  C10 UNL     1       0.300   1.834   0.299  1.00  0.00    -0.009 A 
HETATM    8  C11 UNL     1       1.358   2.750   0.386  1.00  0.00     0.011 A 
HETATM    9  C12 UNL     1       1.211   4.120   0.264  1.00  0.00     0.001 A 
HETATM   10  C13 UNL     1      -0.027   4.659   0.042  1.00  0.00     0.001 A 
HETATM   11  C14 UNL     1      -1.064   3.780  -0.045  1.00  0.00     0.007 A 
HETATM   12  C15 UNL     1      -0.922   2.431   0.076  1.00  0.00    -0.057 A 
HETATM   13  C16 UNL     1      -1.921   1.380   0.007  1.00  0.00    -0.015 C 
HETATM   14  B1  UNL     1      -3.400   1.924  -0.291  1.00  0.00     0.164 B 
HETATM   15  C17 UNL     1      -4.396   0.708  -0.718  1.00  0.00    -0.027 C 
HETATM   16  C18 UNL     1      -4.139  -0.392   0.290  1.00  0.00    -0.040 C 
HETATM   17  C19 UNL     1      -3.688  -1.614   0.402  1.00  0.00    -0.023 C 
HETATM   18  C20 UNL     1      -3.227  -2.973   0.766  1.00  0.00     0.118 C 
HETATM   19  H14 UNL     1      -3.510   2.870  -1.014  1.00  0.00    -0.026 HD
ENDROOT
BRANCH   6  20
HETATM   20  N3  UNL     1       2.021   0.291  -0.294  1.00  0.00    -0.363 N 
HETATM   21  H3  UNL     1       2.189   0.980  -1.088  1.00  0.00     0.162 HD
BRANCH  20  22
HETATM   22  C4  UNL     1       3.047  -0.684  -0.157  1.00  0.00     0.029 A 
HETATM   23  C5  UNL     1       4.153  -0.759  -0.998  1.00  0.00     0.031 A 
HETATM   24  C6  UNL     1       5.101  -1.721  -0.791  1.00  0.00     0.026 A 
HETATM   25  C7  UNL     1       5.051  -2.650   0.212  1.00  0.00     0.034 A 
HETATM   26 CL1  UNL     1       6.329  -3.830   0.370  1.00  0.00    -0.084 Cl
HETATM   27  C8  UNL     1       3.960  -2.593   1.060  1.00  0.00     0.026 A 
HETATM   28  C9  UNL     1       2.993  -1.612   0.848  1.00  0.00     0.031 A 
ENDBRANCH  20  22
ENDBRANCH   6  20
TORSDOF 2
