REMARK  5 active torsions:
REMARK  status: ('A' for Active; 'I' for Inactive)
REMARK    1  A    between atoms: N1_1  and  C1_2 
REMARK    2  A    between atoms: N3_4  and  C2_5 
REMARK    3  A    between atoms: C6_10  and  C7_11 
REMARK    4  A    between atoms: C12_19  and  C13_20 
REMARK    5  A    between atoms: C13_20  and  C14_21 
ROOT
HETATM    1  C1  UNL     1      -0.238   1.496  -0.953  1.00  0.00     0.146 C 
HETATM    2  N2  UNL     1      -1.524   1.421  -0.876  1.00  0.00    -0.152 NA
HETATM    3  N3  UNL     1      -2.156   0.422  -0.141  1.00  0.00    -0.243 N 
HETATM    4  C9  UNL     1      -1.427  -0.566   0.567  1.00  0.00     0.128 C 
HETATM    5  C10 UNL     1      -0.115  -0.452   0.461  1.00  0.00    -0.009 C 
HETATM    6  C11 UNL     1       1.051  -1.198   0.998  1.00  0.00     0.036 C 
HETATM    7  C12 UNL     1       2.098  -0.328   1.053  1.00  0.00     0.010 C 
HETATM    8  N4  UNL     1       1.660   0.973   0.561  1.00  0.00    -0.377 N 
HETATM    9  C20 UNL     1       0.684   0.526  -0.367  1.00  0.00     0.187 C 
HETATM   10  H15 UNL     1       2.139   1.822   0.984  1.00  0.00     0.160 HD
ENDROOT
BRANCH   3  11
HETATM   11  C2  UNL     1      -3.557   0.401  -0.107  1.00  0.00     0.059 A 
HETATM   12  C3  UNL     1      -4.252   1.365  -0.798  1.00  0.00     0.034 A 
HETATM   13  C4  UNL     1      -5.642   1.392  -0.798  1.00  0.00     0.045 A 
HETATM   14  C5  UNL     1      -6.397   0.469  -0.117  1.00  0.00     0.131 A 
HETATM   15  F1  UNL     1      -7.737   0.555  -0.161  1.00  0.00    -0.205 F 
HETATM   16  C6  UNL     1      -5.708  -0.506   0.582  1.00  0.00     0.088 A 
HETATM   17  C8  UNL     1      -4.333  -0.513   0.569  1.00  0.00     0.051 A 
BRANCH  16  18
HETATM   18  C7  UNL     1      -6.507  -1.518   1.329  1.00  0.00     0.420 C 
HETATM   19  F2  UNL     1      -7.300  -0.900   2.279  1.00  0.00    -0.166 F 
HETATM   20  F3  UNL     1      -7.356  -2.178   0.464  1.00  0.00    -0.166 F 
HETATM   21  F4  UNL     1      -5.692  -2.440   1.933  1.00  0.00    -0.166 F 
ENDBRANCH  16  18
ENDBRANCH   3  11
BRANCH   1  22
HETATM   22  N1  UNL     1       0.498   2.474  -1.667  1.00  0.00    -0.384 N 
HETATM   23  H1  UNL     1       0.741   2.243  -2.675  1.00  0.00     0.157 HD
HETATM   24  H2  UNL     1       0.937   3.425  -1.575  1.00  0.00     0.157 HD
ENDBRANCH   1  22
BRANCH   7  25
HETATM   25  C13 UNL     1       3.443  -0.753   1.556  1.00  0.00     0.095 C 
BRANCH  25  26
HETATM   26  C14 UNL     1       4.523  -0.609   0.569  1.00  0.00    -0.053 A 
HETATM   27  C15 UNL     1       4.866  -1.621  -0.307  1.00  0.00     0.007 A 
HETATM   28  C16 UNL     1       5.887  -1.498  -1.247  1.00  0.00     0.001 A 
HETATM   29  C17 UNL     1       6.601  -0.324  -1.327  1.00  0.00     0.000 A 
HETATM   30  C18 UNL     1       6.253   0.673  -0.454  1.00  0.00     0.001 A 
HETATM   31  C19 UNL     1       5.250   0.578   0.484  1.00  0.00     0.007 A 
ENDBRANCH  25  26
ENDBRANCH   7  25
TORSDOF 5
