REMARK  6 active torsions:
REMARK  status: ('A' for Active; 'I' for Inactive)
REMARK    1  A    between atoms: N1_1  and  C1_2 
REMARK    2  A    between atoms: N3_4  and  C2_5 
REMARK    3  A    between atoms: C6_10  and  C7_11 
REMARK    4  A    between atoms: C10_16  and  C11_17 
REMARK    5  A    between atoms: C11_17  and  C12_18 
REMARK    6  A    between atoms: C12_18  and  C13_19 
ROOT
HETATM    1  C1  UNL     1      -2.349  -2.668  -0.831  1.00  0.00     0.738 C 
HETATM    2  N2  UNL     1      -3.152  -1.673  -0.966  1.00  0.00     0.022 NA
HETATM    3  N3  UNL     1      -2.591  -0.374  -1.088  1.00  0.00    -0.237 N 
HETATM    4  C9  UNL     1      -1.283  -0.208  -1.512  1.00  0.00     0.219 C 
HETATM    5  P1  UNL     1      -0.203   1.134  -0.730  1.00  0.00     0.001 P 
HETATM    6  C10 UNL     1       1.354   0.302  -0.992  1.00  0.00     0.022 C 
HETATM    7  N4  UNL     1       1.008  -1.147  -1.261  1.00  0.00    -0.344 N 
HETATM    8  C19 UNL     1      -0.408  -1.348  -1.182  1.00  0.00     0.153 C 
HETATM    9  N5  UNL     1      -0.953  -2.516  -0.927  1.00  0.00    -0.046 NA
HETATM   10  H18 UNL     1       1.701  -1.911  -1.482  1.00  0.00     0.167 HD
ENDROOT
BRANCH   3  11
HETATM   11  C2  UNL     1      -3.513   0.663  -0.738  1.00  0.00     0.055 A 
HETATM   12  C3  UNL     1      -3.299   1.996  -1.003  1.00  0.00     0.034 A 
HETATM   13  C4  UNL     1      -4.135   3.043  -0.690  1.00  0.00     0.045 A 
HETATM   14  C5  UNL     1      -5.326   2.725  -0.035  1.00  0.00     0.125 A 
HETATM   15  F1  UNL     1      -6.218   3.680   0.317  1.00  0.00    -0.205 F 
HETATM   16  C6  UNL     1      -5.619   1.421   0.266  1.00  0.00     0.011 A 
HETATM   17  C8  UNL     1      -4.720   0.450  -0.088  1.00  0.00     0.044 A 
BRANCH  16  18
HETATM   18  C7  UNL     1      -6.889   1.095   0.963  1.00  0.00     0.264 C 
HETATM   19  F2  UNL     1      -7.016  -0.247   1.197  1.00  0.00    -0.250 F 
ENDBRANCH  16  18
ENDBRANCH   3  11
BRANCH   1  20
HETATM   20  N1  UNL     1      -2.835  -4.021  -0.688  1.00  0.00    -0.230 N 
HETATM   21  H1  UNL     1      -3.079  -4.478  -1.593  1.00  0.00     0.174 HD
HETATM   22  H2  UNL     1      -2.858  -4.310   0.315  1.00  0.00     0.174 HD
ENDBRANCH   1  20
BRANCH   6  23
HETATM   23  C11 UNL     1       2.884   0.478  -0.777  1.00  0.00     0.063 C 
BRANCH  23  24
HETATM   24  C12 UNL     1       3.363  -0.400   0.326  1.00  0.00     0.044 C 
BRANCH  24  25
HETATM   25  C13 UNL     1       4.845  -0.208   0.507  1.00  0.00    -0.058 A 
HETATM   26  C14 UNL     1       5.717  -1.017  -0.219  1.00  0.00     0.007 A 
HETATM   27  C15 UNL     1       7.101  -0.874  -0.082  1.00  0.00     0.001 A 
HETATM   28  C16 UNL     1       7.600   0.077   0.780  1.00  0.00     0.000 A 
HETATM   29  C17 UNL     1       6.718   0.873   1.495  1.00  0.00     0.001 A 
HETATM   30  C18 UNL     1       5.338   0.732   1.359  1.00  0.00     0.007 A 
ENDBRANCH  24  25
ENDBRANCH  23  24
ENDBRANCH   6  23
TORSDOF 6
