REMARK  3 active torsions:
REMARK  status: ('A' for Active; 'I' for Inactive)
REMARK    1  A    between atoms: C4_6  and  C5_7 
REMARK    2  A    between atoms: C5_7  and  C6_8 
REMARK    3  A    between atoms: C6_8  and  C7_9 
ROOT
HETATM    1  F1  UNL     1      -4.978  -1.732  -1.073  1.00  0.00    -0.186 F 
HETATM    2  C1  UNL     1      -4.221  -0.940  -0.285  1.00  0.00     0.196 A 
HETATM    3  C2  UNL     1      -2.976  -0.800  -0.708  1.00  0.00     0.027 A 
HETATM    4  C3  UNL     1      -2.415  -1.438  -1.936  1.00  0.00     0.163 A 
HETATM    5  N1  UNL     1      -1.060  -0.947  -1.889  1.00  0.00    -0.388 N 
HETATM    6  C4  UNL     1      -0.804  -0.104  -0.774  1.00  0.00     0.015 A 
HETATM    7  C13 UNL     1      -1.931  -0.010  -0.068  1.00  0.00     0.014 A 
HETATM    8  C14 UNL     1      -1.853   0.829   1.131  1.00  0.00     0.230 A 
HETATM    9  F2  UNL     1      -0.891   0.343   2.015  1.00  0.00    -0.240 F 
HETATM   10  C15 UNL     1      -3.106   0.903   1.904  1.00  0.00     0.032 A 
HETATM   11  C16 UNL     1      -4.353   0.460   1.886  1.00  0.00     0.089 A 
HETATM   12  N2  UNL     1      -4.835  -0.375   0.862  1.00  0.00    -0.343 N 
HETATM   13  H3  UNL     1      -0.433  -1.265  -2.670  1.00  0.00     0.159 HD
HETATM   14  H16 UNL     1      -5.825  -0.654   0.921  1.00  0.00     0.167 HD
ENDROOT
BRANCH   6  15
HETATM   15  C5  UNL     1       0.546   0.497  -0.565  1.00  0.00     0.062 C 
BRANCH  15  16
HETATM   16  C6  UNL     1       1.552  -0.597  -0.423  1.00  0.00     0.044 C 
BRANCH  16  17
HETATM   17  C7  UNL     1       2.939  -0.058  -0.209  1.00  0.00    -0.058 A 
HETATM   18  C8  UNL     1       3.338   0.159   1.106  1.00  0.00     0.007 A 
HETATM   19  C9  UNL     1       4.580   0.649   1.450  1.00  0.00     0.001 A 
HETATM   20  C10 UNL     1       5.429   0.920   0.387  1.00  0.00     0.000 A 
HETATM   21  C11 UNL     1       5.068   0.718  -0.926  1.00  0.00     0.001 A 
HETATM   22  C12 UNL     1       3.810   0.224  -1.241  1.00  0.00     0.007 A 
ENDBRANCH  16  17
ENDBRANCH  15  16
ENDBRANCH   6  15
TORSDOF 3
