REMARK  5 active torsions:
REMARK  status: ('A' for Active; 'I' for Inactive)
REMARK    1  A    between atoms: N1_1  and  C1_2 
REMARK    2  A    between atoms: C2_3  and  C3_4 
REMARK    3  A    between atoms: C3_4  and  C4_5 
REMARK    4  A    between atoms: C7_8  and  N2_9 
REMARK    5  A    between atoms: N2_9  and  C8_10 
ROOT
HETATM    1  C4  UNL     1      -1.219  -0.671   0.573  1.00  0.00    -0.023 A 
HETATM    2  C5  UNL     1      -0.437   0.148  -0.114  1.00  0.00     0.027 A 
HETATM    3  C6  UNL     1       0.744  -0.474   0.473  1.00  0.00     0.040 A 
HETATM    4  C7  UNL     1       2.128  -0.480   0.529  1.00  0.00     0.142 A 
HETATM    5  N3  UNL     1       2.708  -1.379   1.337  1.00  0.00    -0.224 NA
HETATM    6  C14 UNL     1       1.948  -2.244   2.067  1.00  0.00     0.236 A 
HETATM    7  N4  UNL     1       0.605  -2.204   1.983  1.00  0.00    -0.241 NA
HETATM    8  C15 UNL     1      -0.054  -1.335   1.198  1.00  0.00     0.079 A 
ENDROOT
BRANCH   1   9
HETATM    9  C3  UNL     1      -2.637  -1.032   0.838  1.00  0.00     0.077 C 
BRANCH   9  10
HETATM   10  C2  UNL     1      -3.552  -0.171   0.049  1.00  0.00    -0.050 C 
HETATM   11  C1  UNL     1      -4.461   0.618   0.598  1.00  0.00     0.009 C 
HETATM   12  C19 UNL     1      -5.400   1.498  -0.146  1.00  0.00     0.083 C 
HETATM   13  C18 UNL     1      -5.730   0.740  -1.409  1.00  0.00    -0.024 C 
HETATM   14  C17 UNL     1      -4.832  -0.053  -2.026  1.00  0.00    -0.026 C 
HETATM   15  C16 UNL     1      -3.453  -0.188  -1.434  1.00  0.00     0.063 C 
BRANCH  11  16
HETATM   16  N1  UNL     1      -4.479   0.565   2.019  1.00  0.00    -0.402 N 
HETATM   17  H1  UNL     1      -5.101  -0.246   2.274  1.00  0.00     0.156 HD
HETATM   18  H2  UNL     1      -4.493   0.526   3.060  1.00  0.00     0.156 HD
ENDBRANCH  11  16
ENDBRANCH   9  10
ENDBRANCH   1   9
BRANCH   4  19
HETATM   19  N2  UNL     1       2.912   0.427  -0.236  1.00  0.00    -0.338 N 
HETATM   20  H6  UNL     1       2.430   1.113  -0.854  1.00  0.00     0.167 HD
BRANCH  19  21
HETATM   21  C8  UNL     1       4.311   0.469  -0.222  1.00  0.00     0.072 A 
HETATM   22  C9  UNL     1       4.920   1.650   0.179  1.00  0.00     0.034 A 
HETATM   23  C10 UNL     1       6.284   1.708   0.199  1.00  0.00     0.026 A 
HETATM   24  C11 UNL     1       7.060   0.622  -0.171  1.00  0.00     0.037 A 
HETATM   25 CL1  UNL     1       8.800   0.811  -0.108  1.00  0.00    -0.084 Cl
HETATM   26  C12 UNL     1       6.420  -0.542  -0.567  1.00  0.00     0.068 A 
HETATM   27  C13 UNL     1       5.057  -0.619  -0.593  1.00  0.00     0.144 A 
HETATM   28  F1  UNL     1       4.423  -1.739  -0.974  1.00  0.00    -0.204 F 
ENDBRANCH  19  21
ENDBRANCH   4  19
TORSDOF 5
