REMARK  0 active torsions:
REMARK  status: ('A' for Active; 'I' for Inactive)
ROOT
HETATM    1  F1  UNL     1      -3.759   3.650  -0.482  1.00  0.00    -0.209 F 
HETATM    2  C1  UNL     1      -2.969   2.590  -0.224  1.00  0.00     0.121 C 
HETATM    3  C2  UNL     1      -1.651   2.632  -0.224  1.00  0.00     0.039 C 
HETATM    4  C3  UNL     1      -0.947   3.863  -0.512  1.00  0.00     0.004 C 
HETATM    5  C4  UNL     1       0.367   3.992  -0.533  1.00  0.00     0.019 C 
HETATM    6  C5  UNL     1       1.340   2.956  -0.278  1.00  0.00     0.117 C 
HETATM    7  N1  UNL     1       1.189   1.732   0.014  1.00  0.00    -0.261 NA
HETATM    8  C6  UNL     1       2.187   0.766   0.253  1.00  0.00     0.062 A 
HETATM    9  C7  UNL     1       2.818   0.957   1.464  1.00  0.00     0.032 A 
HETATM   10  C8  UNL     1       3.833   0.146   1.940  1.00  0.00     0.002 A 
HETATM   11  C9  UNL     1       4.241  -0.924   1.152  1.00  0.00     0.001 A 
HETATM   12  C10 UNL     1       3.589  -1.095  -0.064  1.00  0.00     0.009 A 
HETATM   13  C11 UNL     1       2.577  -0.289  -0.542  1.00  0.00    -0.029 A 
HETATM   14  C12 UNL     1       2.042  -0.657  -1.849  1.00  0.00     0.047 C 
HETATM   15  C13 UNL     1       1.649  -2.104  -1.997  1.00  0.00     0.061 C 
HETATM   16  C14 UNL     1       0.611  -2.393  -1.034  1.00  0.00     0.003 C 
HETATM   17  C15 UNL     1       0.067  -1.487  -0.189  1.00  0.00     0.011 C 
HETATM   18  C16 UNL     1      -1.303  -1.916  -0.220  1.00  0.00     0.088 A 
HETATM   19  C17 UNL     1      -2.084  -2.615   0.610  1.00  0.00     0.042 A 
HETATM   20  N2  UNL     1      -3.120  -2.070   0.859  1.00  0.00    -0.266 NA
HETATM   21  C18 UNL     1      -3.797  -0.899   0.548  1.00  0.00     0.418 C 
HETATM   22  N3  UNL     1      -3.042   0.282   0.299  1.00  0.00     0.108 NA
HETATM   23  C19 UNL     1      -3.860   1.457   0.030  1.00  0.00     0.341 C 
HETATM   24  C20 UNL     1      -0.959  -3.304   0.397  1.00  0.00     0.143 A 
HETATM   25  N4  UNL     1      -0.119  -3.593  -0.688  1.00  0.00    -0.383 N 
HETATM   26  H17 UNL     1      -2.435   0.191  -0.564  1.00  0.00     0.318 HD
HETATM   27  H21 UNL     1      -0.257  -4.604  -0.944  1.00  0.00     0.160 HD
ENDROOT
TORSDOF 0
