REMARK  4 active torsions:
REMARK  status: ('A' for Active; 'I' for Inactive)
REMARK    1  A    between atoms: C3_3  and  C4_4 
REMARK    2  A    between atoms: C9_9  and  N1_10 
REMARK    3  A    between atoms: N1_10  and  C10_11 
REMARK    4  A    between atoms: C16_20  and  N3_21 
ROOT
HETATM    1  C4  UNL     1      -2.375   0.668  -0.648  1.00  0.00     0.004 C 
HETATM    2  C5  UNL     1      -1.683  -0.263  -1.327  1.00  0.00    -0.065 C 
HETATM    3  C6  UNL     1      -0.541   0.267  -2.158  1.00  0.00     0.040 C 
HETATM    4  C7  UNL     1       0.777   0.199  -1.366  1.00  0.00     0.044 C 
HETATM    5  C8  UNL     1       0.501  -0.844  -0.310  1.00  0.00    -0.018 C 
HETATM    6  C9  UNL     1       0.714  -0.280   0.892  1.00  0.00     0.151 C 
HETATM    7  N2  UNL     1       0.124  -0.796   2.106  1.00  0.00    -0.046 NA
HETATM    8  C16 UNL     1      -0.993  -1.480   2.201  1.00  0.00     0.710 C 
HETATM    9  N4  UNL     1      -1.650  -2.136   1.095  1.00  0.00    -0.150 N 
HETATM   10  N5  UNL     1      -1.340  -2.417  -0.208  1.00  0.00    -0.209 NA
HETATM   11  C17 UNL     1      -2.089  -1.674  -1.199  1.00  0.00     0.148 C 
HETATM   12  C18 UNL     1       0.055  -2.259  -0.560  1.00  0.00     0.152 C 
HETATM   13  H17 UNL     1      -2.601  -2.480   1.361  1.00  0.00     0.199 HD
ENDROOT
BRANCH   6  14
HETATM   14  N1  UNL     1       1.553   0.833   0.784  1.00  0.00    -0.338 N 
HETATM   15  H11 UNL     1       1.210   1.820   0.985  1.00  0.00     0.167 HD
BRANCH  14  16
HETATM   16  C10 UNL     1       2.915   0.690   0.397  1.00  0.00     0.072 A 
HETATM   17  C11 UNL     1       3.439  -0.557   0.124  1.00  0.00     0.034 A 
HETATM   18  C12 UNL     1       4.776  -0.718  -0.258  1.00  0.00     0.026 A 
HETATM   19  C13 UNL     1       5.585   0.392  -0.363  1.00  0.00     0.037 A 
HETATM   20 CL1  UNL     1       7.269   0.313  -0.831  1.00  0.00    -0.084 Cl
HETATM   21  C14 UNL     1       5.084   1.653  -0.094  1.00  0.00     0.068 A 
HETATM   22  C15 UNL     1       3.761   1.774   0.280  1.00  0.00     0.144 A 
HETATM   23  F1  UNL     1       3.233   2.987   0.551  1.00  0.00    -0.204 F 
ENDBRANCH  14  16
ENDBRANCH   6  14
BRANCH   8  24
HETATM   24  N3  UNL     1      -1.539  -1.540   3.512  1.00  0.00    -0.232 N 
HETATM   25  H15 UNL     1      -2.140  -0.950   4.161  1.00  0.00     0.174 HD
HETATM   26  H16 UNL     1      -1.178  -2.483   3.833  1.00  0.00     0.174 HD
ENDBRANCH   8  24
BRANCH   1  27
HETATM   27  C3  UNL     1      -3.520   0.560   0.246  1.00  0.00    -0.004 C 
HETATM   28  C2  UNL     1      -4.152   1.504   0.878  1.00  0.00    -0.031 C 
HETATM   29  C1  UNL     1      -3.823   2.931   0.816  1.00  0.00     0.036 C 
ENDBRANCH   1  27
TORSDOF 4
