REMARK  0 active torsions:
REMARK  status: ('A' for Active; 'I' for Inactive)
ROOT
HETATM    1  C1  UNL     1      -1.265   3.956  -1.125  1.00  0.00     0.093 C 
HETATM    2  C2  UNL     1      -0.218   3.096  -0.517  1.00  0.00     0.120 C 
HETATM    3  N1  UNL     1      -0.572   1.939  -0.075  1.00  0.00    -0.256 NA
HETATM    4  C3  UNL     1      -1.899   1.423  -0.127  1.00  0.00     0.275 C 
HETATM    5  N2  UNL     1      -1.872   0.044   0.316  1.00  0.00    -0.359 N 
HETATM    6  C4  UNL     1      -1.676  -0.169   1.709  1.00  0.00     0.112 C 
HETATM    7  C5  UNL     1      -1.878  -1.387   2.167  1.00  0.00     0.052 C 
HETATM    8 CL1  UNL     1      -1.718  -1.927   3.820  1.00  0.00    -0.083 Cl
HETATM    9  C6  UNL     1      -2.221  -2.464   1.270  1.00  0.00     0.065 C 
HETATM   10  C7  UNL     1      -2.351  -2.320  -0.055  1.00  0.00     0.118 C 
HETATM   11  F1  UNL     1      -2.670  -3.204  -1.058  1.00  0.00    -0.208 F 
HETATM   12  C8  UNL     1      -2.059  -0.975  -0.663  1.00  0.00     0.151 C 
HETATM   13  C9  UNL     1      -0.939  -1.144  -1.649  1.00  0.00     0.066 C 
HETATM   14  C10 UNL     1       0.408  -1.206  -1.093  1.00  0.00    -0.076 C 
HETATM   15  C11 UNL     1       0.612  -2.324  -0.373  1.00  0.00     0.003 C 
HETATM   16  C12 UNL     1       1.556  -2.706   0.699  1.00  0.00    -0.004 C 
HETATM   17  C13 UNL     1       2.684  -2.048   0.961  1.00  0.00    -0.025 C 
HETATM   18  C14 UNL     1       3.152  -0.684   0.605  1.00  0.00     0.052 C 
HETATM   19  C15 UNL     1       1.916   0.115   0.245  1.00  0.00     0.089 C 
HETATM   20  C16 UNL     1       1.586  -0.262  -1.185  1.00  0.00     0.059 C 
HETATM   21  N3  UNL     1       2.126   1.510   0.456  1.00  0.00    -0.379 N 
HETATM   22  C17 UNL     1       2.089   2.844  -0.021  1.00  0.00     0.205 C 
HETATM   23  N4  UNL     1       1.119   3.551  -0.442  1.00  0.00    -0.230 NA
HETATM   24  H19 UNL     1       2.485   1.604   1.452  1.00  0.00     0.160 HD
ENDROOT
TORSDOF 0
