REMARK  8 active torsions:
REMARK  status: ('A' for Active; 'I' for Inactive)
REMARK    1  A    between atoms: C2_2  and  N1_3 
REMARK    2  A    between atoms: N1_3  and  C3_4 
REMARK    3  A    between atoms: N1_3  and  C4_6 
REMARK    4  A    between atoms: C6_10  and  N4_11 
REMARK    5  A    between atoms: C7_12  and  C8_13 
REMARK    6  A    between atoms: C9_14  and  C10_15 
REMARK    7  A    between atoms: C10_15  and  C11_16 
REMARK    8  A    between atoms: C11_16  and  C12_17 
ROOT
HETATM    1  C4  UNL     1      -2.802   0.479  -0.793  1.00  0.00     0.143 A 
HETATM    2  N2  UNL     1      -3.864   0.361  -1.599  1.00  0.00    -0.224 NA
HETATM    3  C5  UNL     1      -3.709   0.136  -2.909  1.00  0.00     0.237 A 
HETATM    4  N3  UNL     1      -2.463   0.030  -3.401  1.00  0.00    -0.224 NA
HETATM    5  C6  UNL     1      -1.388   0.152  -2.566  1.00  0.00     0.136 A 
HETATM    6  C7  UNL     1      -1.500   0.383  -1.219  1.00  0.00     0.055 A 
ENDROOT
BRANCH   6   7
HETATM    7  C8  UNL     1      -0.358   0.536  -0.375  1.00  0.00     0.015 C 
HETATM    8  C9  UNL     1       0.949   0.479  -0.387  1.00  0.00    -0.026 C 
BRANCH   8   9
HETATM    9  C10 UNL     1       2.237   0.272  -1.027  1.00  0.00     0.028 C 
BRANCH   9  10
HETATM   10  C11 UNL     1       2.968  -0.887  -0.382  1.00  0.00     0.016 C 
BRANCH  10  11
HETATM   11  C12 UNL     1       3.225  -0.659   1.082  1.00  0.00     0.031 A 
HETATM   12  C13 UNL     1       4.040   0.543   1.335  1.00  0.00    -0.018 A 
HETATM   13  C14 UNL     1       5.187   0.189   1.925  1.00  0.00    -0.004 A 
HETATM   14  C15 UNL     1       5.200  -1.259   2.096  1.00  0.00    -0.004 A 
HETATM   15  C16 UNL     1       4.082  -1.790   1.622  1.00  0.00    -0.018 A 
ENDBRANCH  10  11
ENDBRANCH   9  10
ENDBRANCH   8   9
ENDBRANCH   6   7
BRANCH   1  16
HETATM   16  N1  UNL     1      -3.018   0.693   0.600  1.00  0.00    -0.340 N 
BRANCH  16  17
HETATM   17  C2  UNL     1      -2.608  -0.352   1.552  1.00  0.00     0.122 C 
HETATM   18  C1  UNL     1      -3.908  -0.915   2.113  1.00  0.00     0.026 C 
ENDBRANCH  16  17
BRANCH  16  19
HETATM   19  C3  UNL     1      -3.610   1.824   1.292  1.00  0.00     0.349 C 
HETATM   20  F1  UNL     1      -3.980   2.775   0.364  1.00  0.00    -0.234 F 
ENDBRANCH  16  19
ENDBRANCH   1  16
BRANCH   5  21
HETATM   21  N4  UNL     1      -0.202   0.003  -3.306  1.00  0.00    -0.383 N 
HETATM   22  H9  UNL     1       0.558  -0.468  -3.783  1.00  0.00     0.157 HD
HETATM   23  H10 UNL     1       0.202   0.940  -3.549  1.00  0.00     0.157 HD
ENDBRANCH   5  21
TORSDOF 8
