REMARK  5 active torsions:
REMARK  status: ('A' for Active; 'I' for Inactive)
REMARK    1  A    between atoms: N1_1  and  C1_2 
REMARK    2  A    between atoms: N3_4  and  C2_5 
REMARK    3  A    between atoms: C11_16  and  C12_17 
REMARK    4  A    between atoms: C12_17  and  C13_18 
REMARK    5  A    between atoms: C13_18  and  C14_19 
ROOT
HETATM    1  C1  UNL     1      -0.389  -1.924  -0.367  1.00  0.00     0.135 C 
HETATM    2  N2  UNL     1      -1.464  -1.359   0.099  1.00  0.00    -0.157 NA
HETATM    3  N3  UNL     1      -1.445   0.077   0.185  1.00  0.00    -0.258 N 
HETATM    4  C8  UNL     1      -0.127   0.305   0.325  1.00  0.00     0.141 C 
HETATM    5  C9  UNL     1       0.656   1.115   0.920  1.00  0.00     0.027 C 
HETATM    6  C10 UNL     1       2.102   1.244   0.978  1.00  0.00     0.096 C 
HETATM    7  C11 UNL     1       2.653   0.197   0.181  1.00  0.00     0.032 C 
HETATM    8  N4  UNL     1       1.822  -0.914  -0.370  1.00  0.00    -0.406 N 
HETATM    9  C15 UNL     1       1.014  -1.978  -0.909  1.00  0.00     0.194 C 
HETATM   10  H12 UNL     1       2.329  -1.423   0.386  1.00  0.00     0.154 HD
ENDROOT
BRANCH   3  11
HETATM   11  C2  UNL     1      -2.828   0.478  -0.021  1.00  0.00     0.092 A 
HETATM   12  C3  UNL     1      -3.807  -0.333  -0.445  1.00  0.00     0.036 A 
HETATM   13  C4  UNL     1      -5.068   0.276  -0.526  1.00  0.00     0.026 A 
HETATM   14  C5  UNL     1      -5.338   1.577  -0.211  1.00  0.00     0.037 A 
HETATM   15 CL1  UNL     1      -6.927   2.267  -0.334  1.00  0.00    -0.084 Cl
HETATM   16  C6  UNL     1      -4.205   2.283   0.213  1.00  0.00     0.068 A 
HETATM   17  C7  UNL     1      -2.875   1.842   0.352  1.00  0.00     0.146 A 
HETATM   18  F1  UNL     1      -2.054   2.787   0.794  1.00  0.00    -0.204 F 
ENDBRANCH   3  11
BRANCH   1  19
HETATM   19  N1  UNL     1      -0.989  -3.232  -0.220  1.00  0.00    -0.385 N 
HETATM   20  H1  UNL     1      -0.982  -3.691   0.762  1.00  0.00     0.157 HD
HETATM   21  H2  UNL     1      -1.470  -4.093  -0.523  1.00  0.00     0.157 HD
ENDBRANCH   1  19
BRANCH   7  22
HETATM   22  C12 UNL     1       4.190   0.009  -0.030  1.00  0.00    -0.001 C 
BRANCH  22  23
HETATM   23  C13 UNL     1       4.598   1.021   0.769  1.00  0.00     0.006 C 
BRANCH  23  24
HETATM   24  C14 UNL     1       6.069   0.923   0.608  1.00  0.00     0.163 C 
HETATM   25  S1  UNL     1       7.685   1.091   0.650  1.00  0.00    -0.171 SA
ENDBRANCH  23  24
ENDBRANCH  22  23
ENDBRANCH   7  22
TORSDOF 5
