REMARK  5 active torsions:
REMARK  status: ('A' for Active; 'I' for Inactive)
REMARK    1  A    between atoms: N1_1  and  C1_2 
REMARK    2  A    between atoms: N2_4  and  C3_5 
REMARK    3  A    between atoms: C11_15  and  C12_16 
REMARK    4  A    between atoms: C12_16  and  C13_17 
REMARK    5  A    between atoms: C13_17  and  C14_18 
ROOT
HETATM    1  C1  UNL     1      -2.971   2.716  -1.415  1.00  0.00     0.139 C 
HETATM    2  C2  UNL     1      -3.592   1.516  -1.386  1.00  0.00     0.142 C 
HETATM    3  N2  UNL     1      -2.826   0.428  -0.815  1.00  0.00    -0.335 N 
HETATM    4  C9  UNL     1      -1.456   0.555  -1.052  1.00  0.00     0.184 C 
HETATM    5  C10 UNL     1      -0.516  -0.433  -0.548  1.00  0.00     0.031 C 
HETATM    6  C11 UNL     1       0.632   0.112  -0.190  1.00  0.00     0.009 C 
HETATM    7  N3  UNL     1       0.474   1.515  -0.287  1.00  0.00    -0.346 N 
HETATM    8  C20 UNL     1      -0.857   1.868  -0.719  1.00  0.00     0.133 C 
HETATM    9  N4  UNL     1      -1.609   2.850  -1.064  1.00  0.00    -0.214 NA
HETATM   10  H18 UNL     1       1.100   2.365  -0.117  1.00  0.00     0.167 HD
ENDROOT
BRANCH   3  11
HETATM   11  C3  UNL     1      -3.638  -0.492  -0.106  1.00  0.00     0.074 A 
HETATM   12  C4  UNL     1      -3.009  -1.126   0.942  1.00  0.00     0.034 A 
HETATM   13  C5  UNL     1      -3.675  -2.030   1.760  1.00  0.00     0.026 A 
HETATM   14  C6  UNL     1      -5.023  -2.340   1.558  1.00  0.00     0.037 A 
HETATM   15 CL1  UNL     1      -5.932  -3.461   2.538  1.00  0.00    -0.084 Cl
HETATM   16  C7  UNL     1      -5.640  -1.699   0.507  1.00  0.00     0.068 A 
HETATM   17  C8  UNL     1      -4.959  -0.814  -0.283  1.00  0.00     0.144 A 
HETATM   18  F1  UNL     1      -5.636  -0.251  -1.286  1.00  0.00    -0.204 F 
ENDBRANCH   3  11
BRANCH   1  19
HETATM   19  N1  UNL     1      -3.453   3.972  -1.896  1.00  0.00    -0.383 N 
HETATM   20  H1  UNL     1      -3.852   4.413  -1.047  1.00  0.00     0.157 HD
HETATM   21  H2  UNL     1      -3.436   4.400  -2.866  1.00  0.00     0.157 HD
ENDBRANCH   1  19
BRANCH   6  22
HETATM   22  C12 UNL     1       1.950  -0.319   0.366  1.00  0.00     0.061 C 
BRANCH  22  23
HETATM   23  C13 UNL     1       3.069   0.058  -0.595  1.00  0.00     0.044 C 
BRANCH  23  24
HETATM   24  C14 UNL     1       4.344  -0.405   0.031  1.00  0.00    -0.058 A 
HETATM   25  C15 UNL     1       4.934  -1.629  -0.131  1.00  0.00     0.007 A 
HETATM   26  C16 UNL     1       6.121  -1.932   0.509  1.00  0.00     0.001 A 
HETATM   27  C17 UNL     1       6.743  -1.000   1.334  1.00  0.00     0.000 A 
HETATM   28  C18 UNL     1       6.159   0.245   1.510  1.00  0.00     0.001 A 
HETATM   29  C19 UNL     1       4.980   0.502   0.854  1.00  0.00     0.007 A 
ENDBRANCH  23  24
ENDBRANCH  22  23
ENDBRANCH   6  22
TORSDOF 5
