REMARK  8 active torsions:
REMARK  status: ('A' for Active; 'I' for Inactive)
REMARK    1  A    between atoms: N1_2  and  N2_3 
REMARK    2  A    between atoms: C6_8  and  C7_9 
REMARK    3  A    between atoms: N3_10  and  C8_11 
REMARK    4  A    between atoms: C8_11  and  S1_12 
REMARK    5  A    between atoms: S1_12  and  P1_13 
REMARK    6  A    between atoms: C11_16  and  C12_17 
REMARK    7  A    between atoms: C12_17  and  C13_18 
REMARK    8  A    between atoms: C13_18  and  C14_19 
ROOT
HETATM    1  C8  UNL     1      -1.339   0.919  -0.898  1.00  0.00     0.105 C 
HETATM    2  C9  UNL     1      -0.326   0.502  -0.157  1.00  0.00    -0.003 C 
HETATM    3  C10 UNL     1       1.121   0.420  -0.314  1.00  0.00     0.036 C 
HETATM    4  C11 UNL     1       1.563  -0.377   0.643  1.00  0.00     0.006 C 
HETATM    5  N4  UNL     1       0.499  -0.853   1.455  1.00  0.00    -0.389 N 
HETATM    6  C20 UNL     1      -0.688  -0.029   1.182  1.00  0.00     0.161 C 
HETATM    7  H21 UNL     1       0.494  -1.646   2.147  1.00  0.00     0.159 HD
ENDROOT
BRANCH   1   8
HETATM    8  N3  UNL     1      -2.739   0.957  -0.649  1.00  0.00    -0.251 NA
HETATM    9  C7  UNL     1      -3.447  -0.073  -0.320  1.00  0.00     0.150 C 
BRANCH   9  10
HETATM   10  C6  UNL     1      -4.814   0.470  -0.175  1.00  0.00     0.081 A 
HETATM   11  N2  UNL     1      -5.383   1.186   0.818  1.00  0.00    -0.244 N 
HETATM   12  C2  UNL     1      -6.665   1.449   0.487  1.00  0.00     0.119 A 
HETATM   13  C3  UNL     1      -6.988   0.911  -0.741  1.00  0.00     0.028 A 
HETATM   14  C4  UNL     1      -5.803   0.295  -1.144  1.00  0.00    -0.030 A 
HETATM   15  C5  UNL     1      -5.619  -0.451  -2.439  1.00  0.00     0.050 C 
BRANCH  11  16
HETATM   16  N1  UNL     1      -4.684   1.559   1.975  1.00  0.00    -0.191 NA
HETATM   17  C1  UNL     1      -4.754   0.804   3.021  1.00  0.00     0.173 C 
ENDBRANCH  11  16
ENDBRANCH   9  10
ENDBRANCH   1   8
BRANCH   1  18
HETATM   18  S1  UNL     1      -1.516   1.627  -2.527  1.00  0.00    -0.084 SA
BRANCH  18  19
HETATM   19  P1  UNL     1       0.456   1.789  -3.388  1.00  0.00    -0.070 P 
HETATM   20  H9  UNL     1       0.878   0.439  -3.737  1.00  0.00     0.066 HD
HETATM   21  H10 UNL     1       0.315   2.548  -4.638  1.00  0.00     0.066 HD
ENDBRANCH  18  19
ENDBRANCH   1  18
BRANCH   4  22
HETATM   22  C12 UNL     1       3.001  -0.711   0.816  1.00  0.00     0.061 C 
BRANCH  22  23
HETATM   23  C13 UNL     1       3.873  -0.051  -0.200  1.00  0.00     0.044 C 
BRANCH  23  24
HETATM   24  C14 UNL     1       5.281  -0.450   0.064  1.00  0.00    -0.058 A 
HETATM   25  C15 UNL     1       5.737  -1.602  -0.582  1.00  0.00     0.007 A 
HETATM   26  C16 UNL     1       7.028  -2.083  -0.422  1.00  0.00     0.001 A 
HETATM   27  C17 UNL     1       7.900  -1.404   0.402  1.00  0.00     0.000 A 
HETATM   28  C18 UNL     1       7.465  -0.264   1.047  1.00  0.00     0.001 A 
HETATM   29  C19 UNL     1       6.168   0.217   0.885  1.00  0.00     0.007 A 
ENDBRANCH  23  24
ENDBRANCH  22  23
ENDBRANCH   4  22
TORSDOF 8
