REMARK  0 active torsions:
REMARK  status: ('A' for Active; 'I' for Inactive)
ROOT
HETATM    1  C1  UNL     1      -3.334   1.511  -0.493  1.00  0.00    -0.026 C 
HETATM    2  C2  UNL     1      -2.344   2.413  -0.244  1.00  0.00     0.003 C 
HETATM    3  C3  UNL     1      -1.016   1.707  -0.249  1.00  0.00     0.050 C 
HETATM    4  C4  UNL     1       0.219   2.253  -0.016  1.00  0.00    -0.013 C 
HETATM    5  C5  UNL     1       1.412   1.279  -0.107  1.00  0.00     0.090 A 
HETATM    6  N1  UNL     1       2.315   2.137   0.236  1.00  0.00    -0.267 NA
HETATM    7  C6  UNL     1       3.689   2.222   0.439  1.00  0.00     0.228 C 
HETATM    8  N2  UNL     1       4.726   1.281   0.577  1.00  0.00    -0.243 NA
HETATM    9  C7  UNL     1       4.032  -0.050   0.464  1.00  0.00     0.055 A 
HETATM   10  C8  UNL     1       4.218  -0.824   1.554  1.00  0.00     0.030 A 
HETATM   11  C9  UNL     1       2.902  -1.391   1.611  1.00  0.00     0.010 A 
HETATM   12  C10 UNL     1       1.979  -0.967   0.613  1.00  0.00     0.090 A 
HETATM   13  C11 UNL     1       2.278  -0.052  -0.415  1.00  0.00     0.062 A 
HETATM   14  C12 UNL     1       3.488   0.562  -0.609  1.00  0.00     0.022 A 
HETATM   15  C13 UNL     1       1.429   0.522  -1.426  1.00  0.00     0.072 A 
HETATM   16  C14 UNL     1       0.967  -0.292  -0.595  1.00  0.00     0.085 A 
HETATM   17  N3  UNL     1       0.629  -1.148   0.337  1.00  0.00    -0.380 N 
HETATM   18  C15 UNL     1      -0.228  -2.004   1.038  1.00  0.00     0.146 C 
HETATM   19  C16 UNL     1      -1.517  -2.178   0.298  1.00  0.00    -0.011 C 
HETATM   20  C17 UNL     1      -2.201  -1.829  -0.780  1.00  0.00    -0.025 C 
HETATM   21  C18 UNL     1      -3.597  -2.325  -1.098  1.00  0.00     0.054 C 
HETATM   22  C19 UNL     1      -4.434  -1.056  -1.029  1.00  0.00    -0.023 C 
HETATM   23  C20 UNL     1      -3.879   0.152  -0.772  1.00  0.00    -0.008 C 
ENDROOT
TORSDOF 0
