REMARK  3 active torsions:
REMARK  status: ('A' for Active; 'I' for Inactive)
REMARK    1  A    between atoms: N1_5  and  C4_6 
REMARK    2  A    between atoms: C4_6  and  C5_7 
REMARK    3  A    between atoms: C5_7  and  C6_8 
ROOT
HETATM    1 CL1  UNL     1       4.569  -1.447  -2.174  1.00  0.00    -0.088 Cl
HETATM    2  C1  UNL     1       3.415  -0.995  -0.917  1.00  0.00     0.025 C 
HETATM    3  C2  UNL     1       2.136  -1.236  -1.256  1.00  0.00     0.023 C 
HETATM    4  C3  UNL     1       0.799  -1.087  -0.671  1.00  0.00     0.303 C 
HETATM    5  N1  UNL     1       0.433   0.247  -0.318  1.00  0.00     0.111 N 
HETATM    6  C12 UNL     1       0.887   0.699   0.961  1.00  0.00     0.422 C 
HETATM    7  N2  UNL     1       2.197   1.357   0.889  1.00  0.00    -0.246 NA
HETATM    8  C13 UNL     1       3.381   0.905   0.648  1.00  0.00     0.113 A 
HETATM    9  N3  UNL     1       4.490   1.803   0.645  1.00  0.00    -0.354 N 
HETATM   10  C14 UNL     1       5.688   1.092   0.357  1.00  0.00     0.086 A 
HETATM   11  C15 UNL     1       5.401  -0.188   0.180  1.00  0.00     0.008 A 
HETATM   12  C16 UNL     1       3.942  -0.415   0.345  1.00  0.00     0.123 A 
HETATM   13  H15 UNL     1       4.440   2.821   0.824  1.00  0.00     0.166 HD
ENDROOT
BRANCH   5  14
HETATM   14  C4  UNL     1      -0.989   0.466  -0.547  1.00  0.00     0.279 C 
BRANCH  14  15
HETATM   15  C5  UNL     1      -1.861  -0.325   0.402  1.00  0.00     0.069 C 
BRANCH  15  16
HETATM   16  C6  UNL     1      -3.317  -0.106   0.170  1.00  0.00    -0.057 A 
HETATM   17  C7  UNL     1      -4.096   0.879   0.780  1.00  0.00     0.007 A 
HETATM   18  C8  UNL     1      -5.430   0.926   0.435  1.00  0.00     0.001 A 
HETATM   19  C9  UNL     1      -6.025   0.075  -0.458  1.00  0.00     0.000 A 
HETATM   20  C10 UNL     1      -5.243  -0.879  -1.042  1.00  0.00     0.001 A 
HETATM   21  C11 UNL     1      -3.900  -0.984  -0.743  1.00  0.00     0.007 A 
ENDBRANCH  15  16
ENDBRANCH  14  15
ENDBRANCH   5  14
TORSDOF 3
