REMARK  0 active torsions:
REMARK  status: ('A' for Active; 'I' for Inactive)
ROOT
HETATM    1  C1  UNL     1      -5.156  -1.742   0.402  1.00  0.00    -0.003 A 
HETATM    2  C2  UNL     1      -5.827  -1.055  -0.508  1.00  0.00    -0.026 A 
HETATM    3  C3  UNL     1      -5.374   0.053  -1.362  1.00  0.00     0.032 A 
HETATM    4  C4  UNL     1      -3.957   0.465  -1.179  1.00  0.00     0.043 A 
HETATM    5  C5  UNL     1      -3.261  -0.338  -0.151  1.00  0.00    -0.050 A 
HETATM    6  C6  UNL     1      -1.874  -0.064   0.152  1.00  0.00    -0.026 C 
HETATM    7  C7  UNL     1      -0.704  -0.176   0.729  1.00  0.00     0.056 C 
HETATM    8  C8  UNL     1      -0.082  -1.036   1.779  1.00  0.00     0.001 C 
HETATM    9  C9  UNL     1       1.168  -0.651   1.952  1.00  0.00     0.085 C 
HETATM   10  N1  UNL     1       2.199   0.232   1.579  1.00  0.00    -0.367 N 
HETATM   11  C10 UNL     1       3.233   0.451   0.647  1.00  0.00     0.043 C 
HETATM   12  C11 UNL     1       3.300   1.365  -0.338  1.00  0.00     0.098 C 
HETATM   13  C12 UNL     1       4.350   1.598  -1.295  1.00  0.00     0.149 C 
HETATM   14  N2  UNL     1       5.504   1.061  -1.331  1.00  0.00    -0.271 NA
HETATM   15  C13 UNL     1       6.113   0.106  -0.486  1.00  0.00     0.112 C 
HETATM   16  C14 UNL     1       5.504  -0.530   0.481  1.00  0.00    -0.002 C 
HETATM   17  C15 UNL     1       4.167  -0.605   1.102  1.00  0.00     0.088 C 
HETATM   18  N3  UNL     1       2.093   2.117  -0.296  1.00  0.00    -0.239 NA
HETATM   19  C16 UNL     1       0.979   1.778  -0.797  1.00  0.00     0.233 C 
HETATM   20  N4  UNL     1      -0.400   1.728  -1.223  1.00  0.00    -0.254 NA
HETATM   21  C17 UNL     1      -1.246   0.943  -0.691  1.00  0.00     0.126 C 
HETATM   22  C18 UNL     1      -3.759  -1.326   0.573  1.00  0.00     0.007 A 
HETATM   23  H10 UNL     1       2.451   1.146   2.066  1.00  0.00     0.165 HD
ENDROOT
TORSDOF 0
