REMARK  3 active torsions:
REMARK  status: ('A' for Active; 'I' for Inactive)
REMARK    1  A    between atoms: C7_7  and  C8_8 
REMARK    2  A    between atoms: C8_8  and  C9_9 
REMARK    3  A    between atoms: N1_11  and  C11_12 
ROOT
HETATM    1  C9  UNL     1      -0.543   0.767  -1.474  1.00  0.00     0.100 C 
HETATM    2  C10 UNL     1       0.393  -0.360  -1.177  1.00  0.00     0.149 C 
HETATM    3  N1  UNL     1       0.972  -0.302   0.175  1.00  0.00    -0.363 N 
HETATM    4  C18 UNL     1       0.567  -0.366   1.555  1.00  0.00     0.274 C 
HETATM    5  N3  UNL     1       0.985   0.721   2.383  1.00  0.00    -0.263 NA
HETATM    6  C19 UNL     1       1.055   1.961   2.116  1.00  0.00     0.229 C 
HETATM    7  N4  UNL     1       0.591   1.722   0.817  1.00  0.00    -0.238 NA
HETATM    8  C20 UNL     1       0.718   2.573  -0.120  1.00  0.00     0.204 C 
HETATM    9  N5  UNL     1       0.159   2.053  -1.335  1.00  0.00    -0.378 N 
HETATM   10  H25 UNL     1       0.312   2.717  -2.151  1.00  0.00     0.160 HD
ENDROOT
BRANCH   3  11
HETATM   11  C11 UNL     1       2.436  -0.230   0.215  1.00  0.00     0.022 C 
HETATM   12  C12 UNL     1       2.686  -1.552   0.357  1.00  0.00     0.027 C 
HETATM   13  C13 UNL     1       3.979  -2.271   0.470  1.00  0.00     0.019 C 
HETATM   14  C14 UNL     1       5.182  -1.908  -0.020  1.00  0.00     0.088 C 
HETATM   15  N2  UNL     1       5.451  -0.705  -0.775  1.00  0.00    -0.369 N 
HETATM   16  C15 UNL     1       4.550   0.420  -0.860  1.00  0.00     0.020 A 
HETATM   17  H18 UNL     1       6.354  -0.667  -1.281  1.00  0.00     0.165 HD
HETATM   18  C16 UNL     1       3.805   1.479  -1.091  1.00  0.00     0.016 A 
HETATM   19  C17 UNL     1       3.561   0.776   0.145  1.00  0.00     0.109 A 
ENDBRANCH   3  11
BRANCH   1  20
HETATM   20  C8  UNL     1      -1.814   0.857  -0.722  1.00  0.00     0.036 C 
BRANCH  20  21
HETATM   21  C7  UNL     1      -2.820  -0.229  -0.835  1.00  0.00     0.019 C 
HETATM   22  C2  UNL     1      -4.015   0.168  -0.008  1.00  0.00    -0.079 C 
HETATM   23  C1  UNL     1      -4.379   1.615  -0.149  1.00  0.00     0.044 C 
HETATM   24  C3  UNL     1      -4.810  -0.567   0.747  1.00  0.00     0.002 C 
HETATM   25  C4  UNL     1      -4.485  -1.964   0.913  1.00  0.00    -0.004 C 
HETATM   26  C5  UNL     1      -3.402  -2.357   0.291  1.00  0.00    -0.026 C 
HETATM   27  C6  UNL     1      -2.410  -1.616  -0.572  1.00  0.00     0.036 C 
ENDBRANCH  20  21
ENDBRANCH   1  20
TORSDOF 3
