REMARK  5 active torsions:
REMARK  status: ('A' for Active; 'I' for Inactive)
REMARK    1  A    between atoms: N1_1  and  C1_2 
REMARK    2  A    between atoms: N3_5  and  C3_6 
REMARK    3  A    between atoms: C11_15  and  C12_16 
REMARK    4  A    between atoms: C12_16  and  C13_17 
REMARK    5  A    between atoms: C13_17  and  C14_18 
ROOT
HETATM    1  C1  UNL     1      -1.956   3.855   0.368  1.00  0.00     0.718 C 
HETATM    2  N2  UNL     1      -2.555   2.815   0.229  1.00  0.00    -0.086 NA
HETATM    3  C2  UNL     1      -2.685   1.511  -0.180  1.00  0.00     0.294 C 
HETATM    4  N3  UNL     1      -1.503   0.861  -0.751  1.00  0.00    -0.352 N 
HETATM    5  C10 UNL     1      -0.098   0.916  -1.208  1.00  0.00     0.160 C 
HETATM    6  C11 UNL     1       1.011   1.627  -0.871  1.00  0.00     0.013 C 
HETATM    7  N5  UNL     1       1.563   2.690  -0.005  1.00  0.00    -0.355 N 
HETATM    8  C20 UNL     1       0.259   3.014   0.517  1.00  0.00     0.227 C 
HETATM    9  N6  UNL     1      -0.696   3.574  -0.207  1.00  0.00    -0.059 NA
HETATM   10  H21 UNL     1       2.537   2.912   0.025  1.00  0.00     0.166 HD
ENDROOT
BRANCH   4  11
HETATM   11  C3  UNL     1      -1.824  -0.501  -1.072  1.00  0.00     0.021 A 
HETATM   12  C4  UNL     1      -2.243  -1.441  -2.004  1.00  0.00     0.005 A 
HETATM   13  C5  UNL     1      -2.279  -2.813  -1.331  1.00  0.00     0.025 A 
HETATM   14  C6  UNL     1      -2.047  -3.602  -0.090  1.00  0.00    -0.033 A 
HETATM   15  N4  UNL     1      -1.794  -2.467   0.182  1.00  0.00     0.000 N 
HETATM   16  C7  UNL     1      -2.135  -3.033   1.363  1.00  0.00     0.032 A 
HETATM   17  H10 UNL     1      -0.835  -3.594  -0.009  1.00  0.00     0.031 HD
HETATM   18  C8  UNL     1      -1.409  -1.742   1.398  1.00  0.00    -0.034 C 
HETATM   19  C9  UNL     1      -1.530  -1.016   0.323  1.00  0.00     0.052 A 
ENDBRANCH   4  11
BRANCH   6  20
HETATM   20  C12 UNL     1       2.060   1.129  -1.770  1.00  0.00     0.059 C 
BRANCH  20  21
HETATM   21  C13 UNL     1       3.221   0.524  -1.002  1.00  0.00     0.044 C 
BRANCH  21  22
HETATM   22  C14 UNL     1       2.851  -0.607  -0.152  1.00  0.00    -0.058 A 
HETATM   23  C15 UNL     1       2.469  -0.435   1.159  1.00  0.00     0.007 A 
HETATM   24  C16 UNL     1       2.120  -1.501   1.960  1.00  0.00     0.001 A 
HETATM   25  C17 UNL     1       2.163  -2.766   1.406  1.00  0.00     0.000 A 
HETATM   26  C18 UNL     1       2.545  -2.991   0.078  1.00  0.00     0.001 A 
HETATM   27  C19 UNL     1       2.889  -1.882  -0.691  1.00  0.00     0.007 A 
ENDBRANCH  21  22
ENDBRANCH  20  21
ENDBRANCH   6  20
BRANCH   1  28
HETATM   28  N1  UNL     1      -2.086   5.177   0.881  1.00  0.00    -0.231 N 
HETATM   29  H1  UNL     1      -1.524   5.563   1.672  1.00  0.00     0.174 HD
HETATM   30  H2  UNL     1      -2.724   5.951   0.578  1.00  0.00     0.174 HD
ENDBRANCH   1  28
TORSDOF 5
