REMARK  3 active torsions:
REMARK  status: ('A' for Active; 'I' for Inactive)
REMARK    1  A    between atoms: N1_1  and  C1_2 
REMARK    2  A    between atoms: C2_4  and  N3_5 
REMARK    3  A    between atoms: N3_5  and  C3_6 
ROOT
HETATM    1  C1  UNL     1      -0.613  -1.842  -1.390  1.00  0.00     0.724 A 
HETATM    2  N2  UNL     1      -1.405  -0.943  -0.786  1.00  0.00    -0.044 NA
HETATM    3  C2  UNL     1      -0.825   0.113  -0.145  1.00  0.00     0.161 A 
HETATM    4  C11 UNL     1       0.537   0.211  -0.145  1.00  0.00     0.059 A 
HETATM    5  C12 UNL     1       1.445   1.122   0.393  1.00  0.00     0.044 A 
HETATM    6  C13 UNL     1       2.806   0.791   0.123  1.00  0.00     0.014 A 
HETATM    7  N5  UNL     1       2.725  -0.361  -0.603  1.00  0.00    -0.334 N 
HETATM    8  C14 UNL     1       1.386  -0.680  -0.746  1.00  0.00     0.163 A 
HETATM    9  N6  UNL     1       0.696  -1.686  -1.350  1.00  0.00    -0.044 NA
HETATM   10  C15 UNL     1       3.689  -1.271  -1.202  1.00  0.00     0.134 C 
HETATM   11  C16 UNL     1       4.827  -0.639  -1.917  1.00  0.00     0.047 C 
HETATM   12  C17 UNL     1       5.631   0.155  -0.983  1.00  0.00    -0.029 C 
HETATM   13  C18 UNL     1       5.259   0.077   0.283  1.00  0.00    -0.031 C 
HETATM   14  C19 UNL     1       5.629   0.617   1.592  1.00  0.00     0.027 C 
HETATM   15  C20 UNL     1       4.343   1.344   2.049  1.00  0.00     0.010 C 
HETATM   16  C21 UNL     1       3.697   1.819   0.748  1.00  0.00     0.057 C 
ENDROOT
BRANCH   3  17
HETATM   17  N3  UNL     1      -1.635   1.057   0.485  1.00  0.00    -0.342 N 
HETATM   18  H3  UNL     1      -1.205   1.860   0.975  1.00  0.00     0.167 HD
BRANCH  17  19
HETATM   19  C3  UNL     1      -3.041   0.858   0.416  1.00  0.00     0.029 A 
HETATM   20  C4  UNL     1      -3.705   1.717  -0.339  1.00  0.00     0.028 A 
HETATM   21  C5  UNL     1      -5.148   1.531  -0.424  1.00  0.00     0.027 A 
HETATM   22  C6  UNL     1      -5.761   0.553   0.220  1.00  0.00     0.015 A 
HETATM   23  C7  UNL     1      -7.175   0.137   0.313  1.00  0.00     0.085 A 
HETATM   24  N4  UNL     1      -5.039  -0.365   1.028  1.00  0.00    -0.355 N 
HETATM   25  C8  UNL     1      -7.168  -1.042   1.207  1.00  0.00    -0.004 A 
HETATM   26  C9  UNL     1      -5.943  -1.295   1.590  1.00  0.00     0.087 A 
HETATM   27  C10 UNL     1      -3.604  -0.277   1.186  1.00  0.00     0.185 A 
ENDBRANCH  17  19
ENDBRANCH   3  17
BRANCH   1  28
HETATM   28  N1  UNL     1      -0.948  -3.014  -2.116  1.00  0.00    -0.231 N 
HETATM   29  H1  UNL     1      -1.572  -2.661  -2.875  1.00  0.00     0.174 HD
HETATM   30  H2  UNL     1      -0.582  -3.970  -1.846  1.00  0.00     0.174 HD
ENDBRANCH   1  28
TORSDOF 3
