REMARK  2 active torsions:
REMARK  status: ('A' for Active; 'I' for Inactive)
REMARK    1  A    between atoms: C4_4  and  N1_5 
REMARK    2  A    between atoms: N1_5  and  C5_6 
ROOT
HETATM    1  C5  UNL     1       0.436  -0.969  -1.433  1.00  0.00     0.146 A 
HETATM    2  C6  UNL     1      -0.095   0.127  -0.914  1.00  0.00     0.163 A 
HETATM    3  N2  UNL     1      -1.458   0.125  -0.518  1.00  0.00    -0.269 N 
HETATM    4  C7  UNL     1      -2.008   1.342   0.046  1.00  0.00     0.178 C 
HETATM    5  C8  UNL     1      -3.011   1.061   1.099  1.00  0.00     0.008 C 
HETATM    6  C9  UNL     1      -4.057   0.251   1.126  1.00  0.00     0.013 A 
HETATM    7  C10 UNL     1      -5.170  -0.231   1.943  1.00  0.00     0.124 A 
HETATM    8  F1  UNL     1      -5.623   0.020   3.197  1.00  0.00    -0.206 F 
HETATM    9  C11 UNL     1      -5.498  -1.000   0.891  1.00  0.00     0.055 A 
HETATM   10  C12 UNL     1      -4.421  -0.590  -0.016  1.00  0.00     0.216 A 
HETATM   11  O1  UNL     1      -3.508  -1.472  -0.451  1.00  0.00    -0.243 OA
HETATM   12  N3  UNL     1      -2.267  -1.028  -0.665  1.00  0.00    -0.151 N 
HETATM   13  C13 UNL     1      -1.609  -2.179  -1.239  1.00  0.00     0.262 A 
HETATM   14  N4  UNL     1      -0.349  -2.166  -1.601  1.00  0.00    -0.221 NA
ENDROOT
BRANCH   1  15
HETATM   15  N1  UNL     1       1.807  -0.893  -1.807  1.00  0.00    -0.339 N 
HETATM   16  H5  UNL     1       2.031  -1.336  -2.745  1.00  0.00     0.167 HD
BRANCH  15  17
HETATM   17  C4  UNL     1       2.764  -0.267  -0.963  1.00  0.00     0.047 A 
HETATM   18  C3  UNL     1       3.171   1.070  -0.571  1.00  0.00     0.033 A 
HETATM   19  C2  UNL     1       4.177   0.985   0.293  1.00  0.00    -0.077 A 
HETATM   20  C1  UNL     1       4.814   2.173   0.879  1.00  0.00     0.044 C 
HETATM   21  C15 UNL     1       4.508  -0.421   0.534  1.00  0.00     0.082 A 
HETATM   22  C14 UNL     1       3.531  -1.169  -0.331  1.00  0.00     0.019 A 
HETATM   23 BR1  UNL     1       3.655  -3.087  -0.285  1.00  0.00    -0.053 Br
ENDBRANCH  15  17
ENDBRANCH   1  15
TORSDOF 2
