REMARK  4 active torsions:
REMARK  status: ('A' for Active; 'I' for Inactive)
REMARK    1  A    between atoms: O1_2  and  C2_3 
REMARK    2  A    between atoms: C5_7  and  N2_8 
REMARK    3  A    between atoms: C6_10  and  C7_11 
REMARK    4  A    between atoms: C14_19  and  O2_20 
ROOT
HETATM    1  C2  UNL     1      -2.252  -0.419   0.645  1.00  0.00     0.130 C 
HETATM    2  C3  UNL     1      -2.420  -1.781   0.545  1.00  0.00     0.079 C 
HETATM    3  C4  UNL     1      -1.532  -2.795  -0.156  1.00  0.00     0.118 C 
HETATM    4  N1  UNL     1      -0.598  -3.487  -0.841  1.00  0.00    -0.079 NA
HETATM    5  C5  UNL     1       0.431  -2.600  -1.380  1.00  0.00     0.720 C 
HETATM    6  N3  UNL     1       1.226  -1.545  -1.587  1.00  0.00    -0.067 NA
HETATM    7  C6  UNL     1       0.993  -0.394  -0.698  1.00  0.00     0.071 C 
HETATM    8  C13 UNL     1      -0.030   0.293  -0.142  1.00  0.00     0.084 C 
HETATM    9  C14 UNL     1      -1.355   0.791   0.274  1.00  0.00     0.170 C 
ENDROOT
BRANCH   7  10
HETATM   10  C7  UNL     1       2.180   0.296  -0.213  1.00  0.00    -0.009 A 
HETATM   11  C8  UNL     1       3.448  -0.159  -0.603  1.00  0.00     0.013 A 
HETATM   12  C9  UNL     1       4.656   0.360  -0.251  1.00  0.00     0.002 A 
HETATM   13  C10 UNL     1       4.612   1.451   0.579  1.00  0.00     0.019 A 
HETATM   14  C11 UNL     1       3.457   2.008   1.043  1.00  0.00     0.011 A 
HETATM   15 BR1  UNL     1       3.333   3.513   2.190  1.00  0.00    -0.051 Br
HETATM   16  C12 UNL     1       2.301   1.398   0.620  1.00  0.00     0.032 A 
ENDBRANCH   7  10
BRANCH   5  17
HETATM   17  N2  UNL     1       0.837  -3.589  -2.351  1.00  0.00    -0.231 N 
HETATM   18  H6  UNL     1       1.554  -4.327  -2.207  1.00  0.00     0.174 HD
HETATM   19  H7  UNL     1       0.748  -4.009  -3.308  1.00  0.00     0.174 HD
ENDBRANCH   5  17
BRANCH   9  20
HETATM   20  O2  UNL     1      -1.984   1.614  -0.588  1.00  0.00    -0.387 OA
HETATM   21  C15 UNL     1      -2.294   2.879  -0.175  1.00  0.00     0.202 C 
ENDBRANCH   9  20
BRANCH   1  22
HETATM   22  O1  UNL     1      -3.459  -0.604   1.357  1.00  0.00    -0.378 OA
HETATM   23  C1  UNL     1      -4.198   0.516   1.756  1.00  0.00     0.202 C 
ENDBRANCH   1  22
TORSDOF 4
