REMARK  6 active torsions:
REMARK  status: ('A' for Active; 'I' for Inactive)
REMARK    1  A    between atoms: O1_2  and  C2_3 
REMARK    2  A    between atoms: C6_9  and  N3_10 
REMARK    3  A    between atoms: N3_10  and  C7_11 
REMARK    4  A    between atoms: C8_12  and  C9_13 
REMARK    5  A    between atoms: C10_14  and  C11_15 
REMARK    6  A    between atoms: C15_20  and  O2_21 
ROOT
HETATM    1  C2  UNL     1      -3.418   0.670   0.061  1.00  0.00     0.103 A 
HETATM    2  C3  UNL     1      -2.657   1.765  -0.335  1.00  0.00     0.072 A 
HETATM    3  C4  UNL     1      -1.305   1.617  -0.549  1.00  0.00     0.075 A 
HETATM    4  N1  UNL     1      -0.498   2.617  -0.931  1.00  0.00    -0.241 NA
HETATM    5  C5  UNL     1       0.826   2.463  -1.137  1.00  0.00     0.236 A 
HETATM    6  N2  UNL     1       1.427   1.255  -0.963  1.00  0.00    -0.224 NA
HETATM    7  C6  UNL     1       0.691   0.185  -0.577  1.00  0.00     0.141 A 
HETATM    8  C13 UNL     1      -0.675   0.391  -0.376  1.00  0.00     0.042 A 
HETATM    9  C14 UNL     1      -1.473  -0.682   0.023  1.00  0.00     0.057 A 
HETATM   10  C15 UNL     1      -2.838  -0.567   0.246  1.00  0.00     0.102 A 
ENDROOT
BRANCH   7  11
HETATM   11  N3  UNL     1       1.221  -1.127  -0.364  1.00  0.00    -0.350 N 
HETATM   12  H6  UNL     1       1.384  -1.989  -0.948  1.00  0.00     0.166 HD
BRANCH  11  13
HETATM   13  C7  UNL     1       1.513  -0.946   1.028  1.00  0.00     0.090 C 
HETATM   14  C8  UNL     1       2.792  -0.706   1.357  1.00  0.00     0.017 C 
BRANCH  14  15
HETATM   15  C9  UNL     1       3.795  -0.646   0.284  1.00  0.00     0.002 C 
HETATM   16  C10 UNL     1       5.059  -0.410   0.602  1.00  0.00     0.014 C 
BRANCH  16  17
HETATM   17  C11 UNL     1       6.078  -0.345  -0.438  1.00  0.00    -0.022 A 
HETATM   18  C12 UNL     1       6.133  -0.464  -1.767  1.00  0.00     0.209 A 
HETATM   19  S1  UNL     1       7.729  -0.138  -1.090  1.00  0.00    -0.202 SA
ENDBRANCH  16  17
ENDBRANCH  14  15
ENDBRANCH  11  13
ENDBRANCH   7  11
BRANCH  10  20
HETATM   20  O2  UNL     1      -3.628  -1.628   0.640  1.00  0.00    -0.353 OA
HETATM   21  C16 UNL     1      -3.171  -2.926   0.862  1.00  0.00     0.210 C 
ENDBRANCH  10  20
BRANCH   1  22
HETATM   22  O1  UNL     1      -4.782   0.793   0.283  1.00  0.00    -0.353 OA
HETATM   23  C1  UNL     1      -5.455   2.037   0.114  1.00  0.00     0.210 C 
ENDBRANCH   1  22
TORSDOF 6
