REMARK  4 active torsions:
REMARK  status: ('A' for Active; 'I' for Inactive)
REMARK    1  A    between atoms: O1_2  and  C2_3 
REMARK    2  A    between atoms: C5_6  and  N1_7 
REMARK    3  A    between atoms: N1_7  and  C6_8 
REMARK    4  A    between atoms: C15_20  and  O2_21 
ROOT
HETATM    1  C2  UNL     1       1.988   0.804  -0.364  1.00  0.00     0.102 A 
HETATM    2  C3  UNL     1       0.734   0.391  -0.716  1.00  0.00     0.057 A 
HETATM    3  C4  UNL     1       0.390  -0.942  -0.604  1.00  0.00     0.042 A 
HETATM    4  C5  UNL     1      -0.880  -1.371  -0.961  1.00  0.00     0.142 A 
HETATM    5  N2  UNL     1      -1.192  -2.673  -0.846  1.00  0.00    -0.224 NA
HETATM    6  C12 UNL     1      -0.333  -3.605  -0.397  1.00  0.00     0.236 A 
HETATM    7  N3  UNL     1       0.908  -3.217  -0.042  1.00  0.00    -0.241 NA
HETATM    8  C13 UNL     1       1.253  -1.913  -0.147  1.00  0.00     0.075 A 
HETATM    9  C14 UNL     1       2.512  -1.480   0.204  1.00  0.00     0.072 A 
HETATM   10  C15 UNL     1       2.857  -0.145   0.093  1.00  0.00     0.103 A 
ENDROOT
BRANCH   4  11
HETATM   11  N1  UNL     1      -1.835  -0.431  -1.439  1.00  0.00    -0.340 N 
HETATM   12  H5  UNL     1      -1.947  -0.109  -2.426  1.00  0.00     0.167 HD
BRANCH  11  13
HETATM   13  C6  UNL     1      -2.711   0.109  -0.454  1.00  0.00     0.035 A 
HETATM   14  C7  UNL     1      -2.624  -0.313   0.866  1.00  0.00     0.029 A 
HETATM   15  C8  UNL     1      -3.465   0.190   1.861  1.00  0.00     0.004 A 
HETATM   16  C9  UNL     1      -4.419   1.133   1.549  1.00  0.00     0.019 A 
HETATM   17  C10 UNL     1      -4.509   1.554   0.242  1.00  0.00     0.013 A 
HETATM   18 BR1  UNL     1      -5.849   2.866  -0.145  1.00  0.00    -0.051 Br
HETATM   19  C11 UNL     1      -3.689   1.068  -0.744  1.00  0.00     0.048 A 
ENDBRANCH  11  13
ENDBRANCH   4  11
BRANCH   1  20
HETATM   20  O1  UNL     1       2.480   2.088  -0.416  1.00  0.00    -0.353 OA
HETATM   21  C1  UNL     1       1.799   3.231  -0.840  1.00  0.00     0.210 C 
ENDBRANCH   1  20
BRANCH  10  22
HETATM   22  O2  UNL     1       4.157   0.154   0.480  1.00  0.00    -0.353 OA
HETATM   23  C16 UNL     1       5.061  -0.801   0.952  1.00  0.00     0.210 C 
ENDBRANCH  10  22
TORSDOF 4
