REMARK  3 active torsions:
REMARK  status: ('A' for Active; 'I' for Inactive)
REMARK    1  A    between atoms: O1_2  and  C2_3 
REMARK    2  A    between atoms: C6_9  and  N3_10 
REMARK    3  A    between atoms: N3_10  and  C7_11 
ROOT
HETATM    1  C2  UNL     1      -3.686  -0.033  -0.560  1.00  0.00     0.071 C 
HETATM    2  C3  UNL     1      -3.048  -0.618   0.473  1.00  0.00     0.067 C 
HETATM    3  C4  UNL     1      -1.601  -0.924   0.559  1.00  0.00     0.072 A 
HETATM    4  N1  UNL     1      -1.313  -1.659   1.647  1.00  0.00    -0.241 NA
HETATM    5  C5  UNL     1      -0.036  -2.005   1.871  1.00  0.00     0.235 A 
HETATM    6  N2  UNL     1       0.926  -1.618   1.018  1.00  0.00    -0.224 NA
HETATM    7  C6  UNL     1       0.688  -0.898  -0.063  1.00  0.00     0.140 A 
HETATM    8  C13 UNL     1      -0.598  -0.519  -0.336  1.00  0.00     0.040 A 
HETATM    9  C14 UNL     1      -0.811   0.289  -1.557  1.00  0.00     0.213 C 
HETATM   10  O2  UNL     1      -1.956  -0.265  -2.177  1.00  0.00    -0.380 OA
HETATM   11  C15 UNL     1      -3.097   0.431  -1.829  1.00  0.00     0.232 C 
ENDROOT
BRANCH   7  12
HETATM   12  N3  UNL     1       1.762  -0.507  -0.902  1.00  0.00    -0.340 N 
HETATM   13  H6  UNL     1       1.797  -0.483  -1.934  1.00  0.00     0.167 HD
BRANCH  12  14
HETATM   14  C7  UNL     1       3.005  -0.087  -0.309  1.00  0.00     0.035 A 
HETATM   15  C8  UNL     1       3.150   0.129   1.041  1.00  0.00     0.029 A 
HETATM   16  C9  UNL     1       4.325   0.526   1.638  1.00  0.00     0.004 A 
HETATM   17  C10 UNL     1       5.457   0.731   0.857  1.00  0.00     0.019 A 
HETATM   18  C11 UNL     1       5.359   0.527  -0.504  1.00  0.00     0.013 A 
HETATM   19 BR1  UNL     1       6.893   0.800  -1.608  1.00  0.00    -0.051 Br
HETATM   20  C12 UNL     1       4.153   0.129  -1.045  1.00  0.00     0.048 A 
ENDBRANCH  12  14
ENDBRANCH   7  12
BRANCH   1  21
HETATM   21  O1  UNL     1      -5.011   0.028  -0.158  1.00  0.00    -0.358 OA
HETATM   22  C1  UNL     1      -5.457   0.921   0.848  1.00  0.00     0.209 C 
ENDBRANCH   1  21
TORSDOF 3
