REMARK  3 active torsions:
REMARK  status: ('A' for Active; 'I' for Inactive)
REMARK    1  A    between atoms: O1_2  and  C2_3 
REMARK    2  A    between atoms: C5_6  and  N1_7 
REMARK    3  A    between atoms: N1_7  and  C6_8 
ROOT
HETATM    1  C2  UNL     1      -2.838   0.241   0.108  1.00  0.00     0.075 A 
HETATM    2  C3  UNL     1      -1.457   0.233   0.049  1.00  0.00     0.055 A 
HETATM    3  C4  UNL     1      -0.693  -0.900   0.071  1.00  0.00     0.041 A 
HETATM    4  C5  UNL     1       0.676  -0.814   0.012  1.00  0.00     0.142 A 
HETATM    5  N2  UNL     1       1.386  -1.956   0.041  1.00  0.00    -0.224 NA
HETATM    6  C12 UNL     1       0.792  -3.173   0.127  1.00  0.00     0.236 A 
HETATM    7  N3  UNL     1      -0.544  -3.233   0.183  1.00  0.00    -0.241 NA
HETATM    8  C13 UNL     1      -1.301  -2.118   0.157  1.00  0.00     0.072 A 
HETATM    9  C14 UNL     1      -2.697  -2.148   0.219  1.00  0.00     0.042 A 
HETATM   10  C15 UNL     1      -3.474  -1.003   0.196  1.00  0.00    -0.026 A 
HETATM   11  C16 UNL     1      -4.970  -1.110   0.255  1.00  0.00     0.051 C 
ENDROOT
BRANCH   4  12
HETATM   12  N1  UNL     1       1.359   0.425  -0.118  1.00  0.00    -0.340 N 
HETATM   13  H5  UNL     1       0.858   1.324  -0.235  1.00  0.00     0.167 HD
BRANCH  12  14
HETATM   14  C6  UNL     1       2.789   0.631  -0.112  1.00  0.00     0.035 A 
HETATM   15  C7  UNL     1       3.636  -0.225   0.559  1.00  0.00     0.029 A 
HETATM   16  C8  UNL     1       5.014  -0.018   0.528  1.00  0.00     0.004 A 
HETATM   17  C9  UNL     1       5.512   1.043  -0.175  1.00  0.00     0.019 A 
HETATM   18  C10 UNL     1       4.698   1.920  -0.859  1.00  0.00     0.013 A 
HETATM   19 BR1  UNL     1       5.286   3.434  -1.879  1.00  0.00    -0.051 Br
HETATM   20  C11 UNL     1       3.333   1.708  -0.824  1.00  0.00     0.048 A 
ENDBRANCH  12  14
ENDBRANCH   4  12
BRANCH   1  21
HETATM   21  O1  UNL     1      -3.673   1.324   0.092  1.00  0.00    -0.355 OA
HETATM   22  C1  UNL     1      -3.292   2.675   0.011  1.00  0.00     0.210 C 
ENDBRANCH   1  21
TORSDOF 3
