REMARK  5 active torsions:
REMARK  status: ('A' for Active; 'I' for Inactive)
REMARK    1  A    between atoms: C3_3  and  C4_4 
REMARK    2  A    between atoms: C5_6  and  C6_7 
REMARK    3  A    between atoms: C8_9  and  C9_10 
REMARK    4  A    between atoms: C9_10  and  C10_11 
REMARK    5  A    between atoms: C10_11  and  C11_12 
ROOT
HETATM    1  C6  UNL     1       1.623   0.980  -0.369  1.00  0.00     0.061 A 
HETATM    2  C7  UNL     1       0.374   0.452  -0.139  1.00  0.00     0.059 A 
HETATM    3  C8  UNL     1      -0.638   1.375   0.015  1.00  0.00     0.038 A 
HETATM    4  N2  UNL     1      -0.359   2.690  -0.066  1.00  0.00    -0.246 NA
HETATM    5  C16 UNL     1       0.867   3.174  -0.291  1.00  0.00     0.233 A 
HETATM    6  N3  UNL     1       1.874   2.302  -0.445  1.00  0.00    -0.242 NA
ENDROOT
BRANCH   3   7
HETATM    7  C9  UNL     1      -2.066   1.062   0.273  1.00  0.00     0.062 C 
BRANCH   7   8
HETATM    8  C10 UNL     1      -2.370  -0.397   0.361  1.00  0.00     0.037 C 
BRANCH   8   9
HETATM    9  C11 UNL     1      -3.858  -0.640   0.635  1.00  0.00     0.126 A 
HETATM   10  N1  UNL     1      -4.652  -0.069  -0.436  1.00  0.00    -0.389 N 
HETATM   11  C12 UNL     1      -5.499  -0.840  -1.263  1.00  0.00     0.083 A 
HETATM   12  H13 UNL     1      -4.637   0.940  -0.648  1.00  0.00     0.159 HD
HETATM   13  C13 UNL     1      -5.609  -2.156  -1.092  1.00  0.00     0.018 A 
HETATM   14  C14 UNL     1      -4.845  -2.829  -0.033  1.00  0.00     0.023 A 
HETATM   15  C15 UNL     1      -4.065  -2.098   0.723  1.00  0.00     0.034 A 
HETATM   16 CL1  UNL     1      -3.140  -2.874   1.997  1.00  0.00    -0.087 Cl
ENDBRANCH   8   9
ENDBRANCH   7   8
ENDBRANCH   3   7
BRANCH   1  17
HETATM   17  C5  UNL     1       2.749   0.076  -0.538  1.00  0.00     0.050 C 
HETATM   18  C4  UNL     1       3.982   0.364  -0.077  1.00  0.00     0.013 C 
HETATM   19 BR1  UNL     1       4.140   2.065   0.820  1.00  0.00    -0.051 Br
BRANCH  18  20
HETATM   20  C3  UNL     1       5.092  -0.560  -0.260  1.00  0.00     0.015 C 
HETATM   21  C2  UNL     1       6.339  -0.407   0.136  1.00  0.00    -0.030 C 
HETATM   22  C1  UNL     1       7.183   0.574   0.846  1.00  0.00     0.036 C 
ENDBRANCH  18  20
ENDBRANCH   1  17
TORSDOF 5
