REMARK  7 active torsions:
REMARK  status: ('A' for Active; 'I' for Inactive)
REMARK    1  A    between atoms: N1_1  and  C1_2 
REMARK    2  A    between atoms: C1_2  and  C12_20 
REMARK    3  A    between atoms: C2_3  and  P1_4 
REMARK    4  A    between atoms: C4_7  and  N3_8 
REMARK    5  A    between atoms: C5_10  and  N5_11 
REMARK    6  A    between atoms: N5_11  and  C6_12 
REMARK    7  A    between atoms: C12_20  and  C13_21 
ROOT
HETATM    1  P1  UNL     1      -0.110   0.638   1.121  1.00  0.00    -0.029 P 
HETATM    2  C3  UNL     1      -0.278   2.231   1.332  1.00  0.00     0.109 C 
HETATM    3  N2  UNL     1      -1.254   2.610   2.048  1.00  0.00    -0.061 NA
HETATM    4  C4  UNL     1      -2.310   1.785   2.496  1.00  0.00     0.718 C 
HETATM    5  N4  UNL     1      -2.558   0.621   2.026  1.00  0.00    -0.075 NA
HETATM    6  C5  UNL     1      -1.807  -0.013   0.982  1.00  0.00     0.255 C 
HETATM    7  H4  UNL     1       0.458   0.149   2.307  1.00  0.00     0.067 HD
ENDROOT
BRANCH   1   8
HETATM    8  C2  UNL     1       0.864   0.287  -0.324  1.00  0.00     0.034 C 
HETATM    9  C1  UNL     1       1.928  -0.523  -0.202  1.00  0.00     0.007 C 
BRANCH   9  10
HETATM   10  N1  UNL     1       2.039  -0.943   1.143  1.00  0.00    -0.402 N 
HETATM   11  H1  UNL     1       1.519  -1.837   1.278  1.00  0.00     0.156 HD
HETATM   12  H2  UNL     1       2.483  -0.627   2.036  1.00  0.00     0.156 HD
ENDBRANCH   9  10
BRANCH   9  13
HETATM   13  C12 UNL     1       2.768  -0.847  -1.363  1.00  0.00     0.097 C 
BRANCH  13  14
HETATM   14  C13 UNL     1       4.192  -0.450  -1.210  1.00  0.00    -0.031 A 
HETATM   15  C14 UNL     1       5.133  -1.446  -0.936  1.00  0.00     0.011 A 
HETATM   16  C15 UNL     1       6.506  -1.231  -0.766  1.00  0.00     0.024 A 
HETATM   17  C16 UNL     1       6.925   0.063  -0.883  1.00  0.00     0.035 A 
HETATM   18 CL2  UNL     1       8.655   0.333  -0.668  1.00  0.00    -0.084 Cl
HETATM   19  C17 UNL     1       6.033   1.076  -1.153  1.00  0.00     0.048 A 
HETATM   20  C18 UNL     1       4.684   0.831  -1.316  1.00  0.00     0.042 A 
HETATM   21 CL3  UNL     1       3.536   2.101  -1.658  1.00  0.00    -0.084 Cl
ENDBRANCH  13  14
ENDBRANCH   9  13
ENDBRANCH   1   8
BRANCH   6  22
HETATM   22  N5  UNL     1      -2.381   0.176  -0.312  1.00  0.00    -0.361 N 
HETATM   23  H8  UNL     1      -1.760   0.646  -1.008  1.00  0.00     0.162 HD
BRANCH  22  24
HETATM   24  C6  UNL     1      -3.682  -0.204  -0.733  1.00  0.00     0.069 A 
HETATM   25  C7  UNL     1      -4.475  -0.817   0.214  1.00  0.00     0.034 A 
HETATM   26  C8  UNL     1      -5.762  -1.216  -0.119  1.00  0.00     0.026 A 
HETATM   27  C9  UNL     1      -6.193  -0.972  -1.416  1.00  0.00     0.037 A 
HETATM   28 CL1  UNL     1      -7.814  -1.449  -1.919  1.00  0.00    -0.084 Cl
HETATM   29  C10 UNL     1      -5.405  -0.357  -2.374  1.00  0.00     0.068 A 
HETATM   30  C11 UNL     1      -4.124   0.033  -2.021  1.00  0.00     0.144 A 
HETATM   31  F1  UNL     1      -3.290   0.641  -2.903  1.00  0.00    -0.204 F 
ENDBRANCH  22  24
ENDBRANCH   6  22
BRANCH   4  32
HETATM   32  N3  UNL     1      -3.230   2.148   3.530  1.00  0.00    -0.231 N 
HETATM   33  H5  UNL     1      -4.208   2.566   3.500  1.00  0.00     0.174 HD
HETATM   34  H6  UNL     1      -2.762   1.922   4.424  1.00  0.00     0.174 HD
ENDBRANCH   4  32
TORSDOF 7
