REMARK  10 active torsions:
REMARK  status: ('A' for Active; 'I' for Inactive)
REMARK    1  A    between atoms: O1_2  and  C2_3 
REMARK    2  A    between atoms: C2_3  and  C3_4 
REMARK    3  A    between atoms: C3_4  and  C15_20 
REMARK    4  A    between atoms: C4_5  and  C5_6 
REMARK    5  A    between atoms: C7_8  and  N1_9 
REMARK    6  A    between atoms: N1_9  and  C8_10 
REMARK    7  A    between atoms: C10_12  and  C11_13 
REMARK    8  A    between atoms: C11_13  and  C12_14 
REMARK    9  A    between atoms: C12_14  and  C13_15 
REMARK   10  A    between atoms: C15_20  and  O2_21 
ROOT
HETATM    1  C5  UNL     1      -1.230   0.484  -0.182  1.00  0.00     0.062 A 
HETATM    2  C6  UNL     1       0.035   0.296   0.353  1.00  0.00     0.082 A 
HETATM    3  C7  UNL     1       0.875  -0.777   0.091  1.00  0.00     0.131 A 
HETATM    4  N2  UNL     1       0.364  -1.675  -0.758  1.00  0.00    -0.224 NA
HETATM    5  C14 UNL     1      -0.859  -1.528  -1.298  1.00  0.00     0.235 A 
HETATM    6  N3  UNL     1      -1.659  -0.470  -1.025  1.00  0.00    -0.242 NA
ENDROOT
BRANCH   3   7
HETATM    7  N1  UNL     1       2.161  -0.906   0.684  1.00  0.00    -0.345 N 
HETATM    8  H8  UNL     1       2.435  -0.130   1.353  1.00  0.00     0.167 HD
BRANCH   7   9
HETATM    9  C8  UNL     1       2.920  -2.037   0.327  1.00  0.00     0.007 C 
HETATM   10  C9  UNL     1       2.524  -3.454   0.368  1.00  0.00     0.068 C 
HETATM   11  C10 UNL     1       4.160  -1.989  -0.115  1.00  0.00     0.024 C 
BRANCH  11  12
HETATM   12  C11 UNL     1       4.454  -0.540  -0.115  1.00  0.00    -0.001 C 
BRANCH  12  13
HETATM   13  C12 UNL     1       5.343   0.399  -0.365  1.00  0.00    -0.016 C 
BRANCH  13  14
HETATM   14  C13 UNL     1       6.114   1.650  -0.550  1.00  0.00     0.112 C 
HETATM   15 BR1  UNL     1       4.934   3.123  -0.025  1.00  0.00    -0.092 Br
ENDBRANCH  13  14
ENDBRANCH  12  13
ENDBRANCH  11  12
ENDBRANCH   7   9
ENDBRANCH   3   7
BRANCH   1  16
HETATM   16  C4  UNL     1      -1.985   1.671   0.187  1.00  0.00     0.039 C 
HETATM   17  C3  UNL     1      -3.281   1.763   0.428  1.00  0.00    -0.031 C 
BRANCH  17  18
HETATM   18  C2  UNL     1      -4.406   0.832   0.433  1.00  0.00     0.203 C 
BRANCH  18  19
HETATM   19  O1  UNL     1      -4.065  -0.486   0.109  1.00  0.00    -0.392 OA
HETATM   20  C1  UNL     1      -5.203  -1.289   0.141  1.00  0.00     0.201 C 
ENDBRANCH  18  19
ENDBRANCH  17  18
BRANCH  17  21
HETATM   21  C15 UNL     1      -3.873   3.077   0.792  1.00  0.00     0.200 C 
BRANCH  21  22
HETATM   22  O2  UNL     1      -4.853   3.470  -0.129  1.00  0.00    -0.397 OA
HETATM   23  H20 UNL     1      -4.563   3.178  -1.020  1.00  0.00     0.209 HD
ENDBRANCH  21  22
ENDBRANCH  17  21
ENDBRANCH   1  16
TORSDOF 10
