REMARK  2 active torsions:
REMARK  status: ('A' for Active; 'I' for Inactive)
REMARK    1  A    between atoms: C4_4  and  C5_5 
REMARK    2  A    between atoms: N1_9  and  C9_10 
REMARK       I    between atoms: N2_17  and  C15_18 
REMARK       I    between atoms: C15_18  and  N4_20 
ROOT
HETATM    1  C5  UNL     1      -0.444   1.376   0.184  1.00  0.00     0.017 A 
HETATM    2  C6  UNL     1      -0.176   2.756   0.262  1.00  0.00     0.017 A 
HETATM    3  C7  UNL     1       1.102   3.258   0.166  1.00  0.00     0.019 A 
HETATM    4  C8  UNL     1       2.120   2.354  -0.014  1.00  0.00     0.099 A 
HETATM    5  N1  UNL     1       1.906   1.004  -0.097  1.00  0.00    -0.306 N 
HETATM    6  C14 UNL     1       0.661   0.521  -0.000  1.00  0.00     0.164 A 
HETATM    7  N2  UNL     1       0.278  -0.620   0.013  1.00  0.00    -0.044 NA
HETATM    8  C15 UNL     1       0.551  -1.927  -0.070  1.00  0.00     0.715 C 
HETATM    9  N3  UNL     1       1.098  -2.704   0.833  1.00  0.00    -0.116 NA
HETATM   10  N4  UNL     1       0.186  -2.552  -1.316  1.00  0.00    -0.231 N 
HETATM   11  H14 UNL     1       1.270  -3.734   0.660  1.00  0.00     0.206 HD
HETATM   12  H15 UNL     1       0.712  -2.502  -2.238  1.00  0.00     0.174 HD
HETATM   13  H16 UNL     1      -0.701  -3.053  -1.092  1.00  0.00     0.174 HD
ENDROOT
BRANCH   1  14
HETATM   14  C4  UNL     1      -1.835   0.959   0.303  1.00  0.00    -0.043 A 
HETATM   15  C3  UNL     1      -2.296  -0.439   0.241  1.00  0.00     0.049 A 
HETATM   16  C2  UNL     1      -3.745  -0.703   0.373  1.00  0.00     0.030 A 
HETATM   17  C1  UNL     1      -4.246  -1.378  -0.922  1.00  0.00     0.016 C 
HETATM   18  C18 UNL     1      -4.628   0.460   0.565  1.00  0.00     0.016 A 
HETATM   19  C17 UNL     1      -4.143   1.684   0.612  1.00  0.00     0.020 A 
HETATM   20 CL1  UNL     1      -6.302  -0.060   0.706  1.00  0.00    -0.089 Cl
HETATM   21  C16 UNL     1      -2.717   1.919   0.476  1.00  0.00     0.009 A 
ENDBRANCH   1  14
BRANCH   5  22
HETATM   22  C9  UNL     1       3.062   0.235  -0.241  1.00  0.00     0.038 A 
HETATM   23  C10 UNL     1       4.260   0.746   0.093  1.00  0.00     0.008 A 
HETATM   24  C11 UNL     1       5.384  -0.179  -0.117  1.00  0.00     0.075 A 
HETATM   25  C12 UNL     1       4.753  -1.368  -0.684  1.00  0.00    -0.006 A 
HETATM   26 BR1  UNL     1       5.701  -2.911  -1.201  1.00  0.00    -0.055 Br
HETATM   27  C13 UNL     1       3.485  -1.059  -0.713  1.00  0.00     0.044 A 
ENDBRANCH   5  22
TORSDOF 2
