REMARK  3 active torsions:
REMARK  status: ('A' for Active; 'I' for Inactive)
REMARK       I    between atoms: N1_1  and  C1_2 
REMARK       I    between atoms: C1_2  and  N2_3 
REMARK    1  A    between atoms: N3_4  and  C2_5 
REMARK    2  A    between atoms: C2_5  and  N4_6 
REMARK    3  A    between atoms: N4_6  and  C3_7 
ROOT
HETATM    1  C2  UNL     1      -0.701   0.212  -0.233  1.00  0.00     0.157 C 
HETATM    2  C9  UNL     1       0.645   0.209  -0.271  1.00  0.00     0.009 A 
HETATM    3  C10 UNL     1       1.122   0.058  -1.604  1.00  0.00     0.027 A 
HETATM    4  C11 UNL     1       1.631  -0.074  -2.766  1.00  0.00     0.040 A 
HETATM    5  C12 UNL     1       3.126  -0.068  -2.701  1.00  0.00     0.000 A 
HETATM    6 CL1  UNL     1       4.834  -0.126  -3.188  1.00  0.00    -0.176 Cl
HETATM    7  C13 UNL     1       3.846   0.053  -1.631  1.00  0.00     0.133 A 
HETATM    8  C14 UNL     1       4.620   0.198  -0.347  1.00  0.00    -0.006 A 
HETATM    9  C15 UNL     1       4.506   0.343   0.953  1.00  0.00    -0.024 A 
HETATM   10  C16 UNL     1       3.693   0.477   2.173  1.00  0.00     0.078 A 
HETATM   11  C17 UNL     1       2.234   0.442   1.923  1.00  0.00     0.016 A 
HETATM   12 CL2  UNL     1       1.726   0.628   3.645  1.00  0.00    -0.089 Cl
HETATM   13  C18 UNL     1       1.251   0.346   1.040  1.00  0.00     0.034 A 
ENDROOT
BRANCH   1  14
HETATM   14  N3  UNL     1      -1.582   0.091  -1.285  1.00  0.00    -0.047 NA
HETATM   15  C1  UNL     1      -1.928   0.958  -2.147  1.00  0.00     0.693 C 
HETATM   16  N1  UNL     1      -2.757   1.173  -3.299  1.00  0.00    -0.233 N 
HETATM   17  N2  UNL     1      -1.361   2.250  -2.065  1.00  0.00    -0.233 N 
HETATM   18  H1  UNL     1      -2.412   1.160  -4.278  1.00  0.00     0.174 HD
HETATM   19  H2  UNL     1      -3.736   1.337  -2.952  1.00  0.00     0.174 HD
HETATM   20  H3  UNL     1      -0.769   3.077  -2.333  1.00  0.00     0.174 HD
HETATM   21  H4  UNL     1      -1.030   3.229  -1.865  1.00  0.00     0.174 HD
ENDBRANCH   1  14
BRANCH   1  22
HETATM   22  N4  UNL     1      -1.728   0.329   0.738  1.00  0.00    -0.340 N 
HETATM   23  H5  UNL     1      -1.808   1.348   1.036  1.00  0.00     0.167 HD
BRANCH  22  24
HETATM   24  C3  UNL     1      -2.556  -0.692   1.281  1.00  0.00     0.036 A 
HETATM   25  C4  UNL     1      -2.360  -1.981   0.834  1.00  0.00     0.029 A 
HETATM   26  C5  UNL     1      -3.197  -2.917   1.402  1.00  0.00     0.005 A 
HETATM   27  C6  UNL     1      -4.167  -2.630   2.345  1.00  0.00     0.042 A 
HETATM   28  C7  UNL     1      -4.287  -1.307   2.728  1.00  0.00     0.118 A 
HETATM   29  F1  UNL     1      -5.226  -0.932   3.661  1.00  0.00    -0.206 F 
HETATM   30  C8  UNL     1      -3.490  -0.298   2.212  1.00  0.00     0.071 A 
ENDBRANCH  22  24
ENDBRANCH   1  22
TORSDOF 3
