REMARK  2 active torsions:
REMARK  status: ('A' for Active; 'I' for Inactive)
REMARK    1  A    between atoms: O1_2  and  C2_3 
REMARK    2  A    between atoms: C7_8  and  O2_9 
ROOT
HETATM    1  C2  UNL     1       2.056  -0.740   0.634  1.00  0.00     0.103 A 
HETATM    2  C3  UNL     1       1.214  -1.811   0.575  1.00  0.00     0.051 A 
HETATM    3  C4  UNL     1      -0.072  -1.432   0.771  1.00  0.00    -0.003 A 
HETATM    4  C5  UNL     1      -0.739  -0.221   1.026  1.00  0.00     0.095 A 
HETATM    5  C6  UNL     1       0.273   0.723   1.030  1.00  0.00     0.052 A 
HETATM    6  C7  UNL     1       1.610   0.573   0.863  1.00  0.00     0.116 A 
HETATM    7  C9  UNL     1      -0.350   2.072   0.876  1.00  0.00     0.029 C 
HETATM    8 BR1  UNL     1       0.036   2.410   2.673  1.00  0.00    -0.050 Br
HETATM    9  C10 UNL     1      -0.715   2.020  -0.451  1.00  0.00     0.050 C 
HETATM   10  P1  UNL     1      -0.732   1.008  -1.994  1.00  0.00     0.052 P 
HETATM   11  N1  UNL     1      -2.041  -0.013  -2.388  1.00  0.00    -0.166 NA
HETATM   12  C11 UNL     1      -3.138   0.046  -1.319  1.00  0.00     0.229 A 
HETATM   13  N2  UNL     1      -3.939   1.057  -1.356  1.00  0.00    -0.243 NA
HETATM   14  C12 UNL     1      -4.257   1.751  -0.171  1.00  0.00     0.227 A 
HETATM   15  N3  UNL     1      -3.434   0.938   0.679  1.00  0.00    -0.234 NA
HETATM   16  C13 UNL     1      -2.874   0.022  -0.085  1.00  0.00     0.253 A 
HETATM   17  C14 UNL     1      -2.308  -0.933  -0.969  1.00  0.00     0.098 A 
HETATM   18  N4  UNL     1      -1.562  -2.037  -1.028  1.00  0.00    -0.385 N 
HETATM   19  C15 UNL     1      -0.973  -2.577   0.288  1.00  0.00     0.161 C 
HETATM   20  O3  UNL     1      -2.197  -0.256   1.215  1.00  0.00    -0.306 OA
HETATM   21  H10 UNL     1      -1.731  -2.055  -2.081  1.00  0.00     0.159 HD
ENDROOT
BRANCH   1  22
HETATM   22  O1  UNL     1       3.428  -0.774   0.484  1.00  0.00    -0.353 OA
HETATM   23  C1  UNL     1       4.057  -2.024   0.247  1.00  0.00     0.210 C 
ENDBRANCH   1  22
BRANCH   6  24
HETATM   24  O2  UNL     1       2.241   1.794   0.967  1.00  0.00    -0.352 OA
HETATM   25  C8  UNL     1       2.435   2.597  -0.183  1.00  0.00     0.210 C 
ENDBRANCH   6  24
TORSDOF 2
