REMARK  6 active torsions:
REMARK  status: ('A' for Active; 'I' for Inactive)
REMARK    1  A    between atoms: N1_1  and  C1_2 
REMARK    2  A    between atoms: C2_4  and  N3_5 
REMARK    3  A    between atoms: N3_5  and  C3_6 
REMARK    4  A    between atoms: C4_7  and  C5_9 
REMARK    5  A    between atoms: C7_12  and  C8_13 
REMARK    6  A    between atoms: C8_13  and  C9_14 
ROOT
HETATM    1  C1  UNL     1       0.667   2.423   0.007  1.00  0.00     0.718 C 
HETATM    2  N2  UNL     1       1.370   2.196  -1.078  1.00  0.00    -0.076 NA
HETATM    3  C2  UNL     1       1.651   0.800  -1.387  1.00  0.00     0.250 C 
HETATM    4  C6  UNL     1       0.353   0.090  -1.212  1.00  0.00     0.049 C 
HETATM    5  C7  UNL     1      -0.968   0.328  -1.013  1.00  0.00     0.039 C 
HETATM    6  N4  UNL     1      -1.407   1.678  -0.909  1.00  0.00    -0.248 NA
HETATM    7  C15 UNL     1      -1.762   2.040   0.287  1.00  0.00     0.120 C 
HETATM    8  C16 UNL     1      -1.007   1.531   1.224  1.00  0.00     0.139 C 
HETATM    9  N5  UNL     1       0.210   1.316   0.829  1.00  0.00    -0.059 NA
ENDROOT
BRANCH   5  10
HETATM   10  C8  UNL     1      -1.827  -0.911  -0.916  1.00  0.00     0.099 C 
BRANCH  10  11
HETATM   11  C9  UNL     1      -2.647  -0.996   0.284  1.00  0.00    -0.031 A 
HETATM   12  C10 UNL     1      -2.252  -1.701   1.409  1.00  0.00     0.011 A 
HETATM   13  C11 UNL     1      -3.035  -1.749   2.564  1.00  0.00     0.024 A 
HETATM   14  C12 UNL     1      -4.257  -1.073   2.610  1.00  0.00     0.035 A 
HETATM   15 CL2  UNL     1      -5.269  -1.106   4.037  1.00  0.00    -0.084 Cl
HETATM   16  C13 UNL     1      -4.613  -0.390   1.482  1.00  0.00     0.048 A 
HETATM   17  C14 UNL     1      -3.872  -0.316   0.320  1.00  0.00     0.042 A 
HETATM   18 CL3  UNL     1      -4.544   0.594  -1.045  1.00  0.00    -0.084 Cl
ENDBRANCH  10  11
ENDBRANCH   5  10
BRANCH   3  19
HETATM   19  N3  UNL     1       2.680   0.307  -0.502  1.00  0.00    -0.370 N 
HETATM   20  H4  UNL     1       3.370   0.527   0.277  1.00  0.00     0.161 HD
BRANCH  19  21
HETATM   21  C3  UNL     1       3.054  -1.060  -0.590  1.00  0.00     0.124 C 
HETATM   22  C4  UNL     1       4.200  -1.651  -0.928  1.00  0.00     0.122 C 
HETATM   23  F1  UNL     1       4.429  -3.004  -0.972  1.00  0.00    -0.208 F 
BRANCH  22  24
HETATM   24  C5  UNL     1       5.475  -0.991  -1.328  1.00  0.00     0.186 C 
HETATM   25 CL1  UNL     1       5.342   0.782  -1.318  1.00  0.00    -0.123 Cl
ENDBRANCH  22  24
ENDBRANCH  19  21
ENDBRANCH   3  19
BRANCH   1  26
HETATM   26  N1  UNL     1       0.354   3.775   0.368  1.00  0.00    -0.231 N 
HETATM   27  H1  UNL     1       0.513   4.063   1.365  1.00  0.00     0.174 HD
HETATM   28  H2  UNL     1      -0.007   4.344  -0.422  1.00  0.00     0.174 HD
ENDBRANCH   1  26
TORSDOF 6
