REMARK  4 active torsions:
REMARK  status: ('A' for Active; 'I' for Inactive)
REMARK    1  A    between atoms: C4_4  and  C5_5 
REMARK    2  A    between atoms: C5_5  and  N1_6 
REMARK       I    between atoms: C6_7  and  N2_8 
REMARK       I    between atoms: C6_7  and  N3_9 
REMARK    3  A    between atoms: C7_10  and  N4_11 
REMARK    4  A    between atoms: N4_11  and  C8_12 
ROOT
HETATM    1  N1  UNL     1      -1.759  -0.401  -0.421  1.00  0.00    -0.101 NA
HETATM    2  C6  UNL     1      -0.630  -0.279  -1.036  1.00  0.00     0.716 C 
HETATM    3  N2  UNL     1       0.047  -0.165  -2.304  1.00  0.00    -0.231 N 
HETATM    4  N3  UNL     1       0.532  -0.218  -0.223  1.00  0.00    -0.059 NA
HETATM    5  C7  UNL     1       0.510  -0.034   1.058  1.00  0.00     0.227 C 
HETATM    6  H7  UNL     1       0.266  -1.104  -2.742  1.00  0.00     0.174 HD
HETATM    7  H8  UNL     1       0.273   0.791  -2.703  1.00  0.00     0.174 HD
ENDROOT
BRANCH   5   8
HETATM    8  N4  UNL     1       1.858  -0.025   1.562  1.00  0.00    -0.353 N 
HETATM    9  H10 UNL     1       2.179  -0.121   2.565  1.00  0.00     0.166 HD
BRANCH   8  10
HETATM   10  C8  UNL     1       3.046   0.118   0.777  1.00  0.00     0.015 C 
HETATM   11  C9  UNL     1       3.816   1.147   1.093  1.00  0.00     0.027 C 
HETATM   12  C10 UNL     1       5.088   1.549   0.471  1.00  0.00     0.026 C 
HETATM   13  C11 UNL     1       5.942   0.752  -0.190  1.00  0.00     0.035 C 
HETATM   14 CL1  UNL     1       7.402   1.468  -0.846  1.00  0.00    -0.084 Cl
HETATM   15  C12 UNL     1       5.796  -0.698  -0.439  1.00  0.00     0.043 C 
HETATM   16  C13 UNL     1       4.628  -1.317  -0.458  1.00  0.00     0.019 C 
HETATM   17 CL2  UNL     1       4.862  -3.035  -0.785  1.00  0.00    -0.089 Cl
HETATM   18  C14 UNL     1       3.225  -0.917  -0.274  1.00  0.00     0.108 C 
ENDBRANCH   8  10
ENDBRANCH   5   8
BRANCH   1  19
HETATM   19  C5  UNL     1      -2.972  -0.467  -1.242  1.00  0.00     0.210 C 
BRANCH  19  20
HETATM   20  C4  UNL     1      -4.146  -0.124  -0.404  1.00  0.00     0.002 A 
HETATM   21  C3  UNL     1      -5.539  -0.071  -0.834  1.00  0.00     0.022 A 
HETATM   22  C2  UNL     1      -5.860   0.273   0.399  1.00  0.00    -0.022 A 
HETATM   23  C1  UNL     1      -7.069   0.601   1.160  1.00  0.00     0.051 C 
HETATM   24  C15 UNL     1      -4.465   0.221   0.833  1.00  0.00     0.130 A 
HETATM   25  F1  UNL     1      -3.648   0.397   1.918  1.00  0.00    -0.205 F 
ENDBRANCH  19  20
ENDBRANCH   1  19
TORSDOF 4
