REMARK  5 active torsions:
REMARK  status: ('A' for Active; 'I' for Inactive)
REMARK    1  A    between atoms: O1_1  and  C1_2 
REMARK    2  A    between atoms: C1_2  and  C2_3 
REMARK    3  A    between atoms: C2_3  and  N1_4 
REMARK    4  A    between atoms: C2_3  and  C19_23 
REMARK    5  A    between atoms: N1_4  and  C3_5 
ROOT
HETATM    1  C3  UNL     1      -0.250  -1.039   0.423  1.00  0.00     0.044 C 
HETATM    2  C4  UNL     1      -1.198  -1.929   0.125  1.00  0.00     0.144 C 
HETATM    3  N2  UNL     1      -2.439  -2.542  -0.066  1.00  0.00    -0.252 NA
HETATM    4  C5  UNL     1      -3.380  -2.215  -0.841  1.00  0.00     0.232 C 
HETATM    5  N3  UNL     1      -4.257  -1.627  -1.791  1.00  0.00    -0.253 NA
HETATM    6  C6  UNL     1      -4.341  -0.338  -1.924  1.00  0.00     0.129 C 
HETATM    7  C7  UNL     1      -3.479   0.440  -1.039  1.00  0.00    -0.018 C 
HETATM    8  C8  UNL     1      -3.324   0.476   0.299  1.00  0.00     0.021 C 
HETATM    9  C9  UNL     1      -2.130   0.300   1.154  1.00  0.00    -0.035 C 
HETATM   10  C10 UNL     1      -2.686   0.121   2.365  1.00  0.00     0.010 C 
HETATM   11  C11 UNL     1      -1.812  -0.094   3.522  1.00  0.00     0.012 C 
HETATM   12  C12 UNL     1      -0.532  -0.213   3.271  1.00  0.00    -0.028 C 
HETATM   13  C13 UNL     1      -0.061   0.495   2.283  1.00  0.00     0.010 C 
HETATM   14  C14 UNL     1      -0.671   0.293   0.919  1.00  0.00     0.067 C 
HETATM   15  C15 UNL     1      -0.197   1.380   0.070  1.00  0.00    -0.002 C 
HETATM   16  C16 UNL     1      -0.390   1.913  -1.143  1.00  0.00    -0.002 C 
HETATM   17  C17 UNL     1      -1.542   1.836  -2.072  1.00  0.00     0.001 C 
HETATM   18  C18 UNL     1      -2.745   1.255  -2.033  1.00  0.00     0.013 C 
ENDROOT
BRANCH   1  19
HETATM   19  N1  UNL     1       1.072  -1.526   0.213  1.00  0.00    -0.380 N 
HETATM   20  H5  UNL     1       1.214  -2.243   0.990  1.00  0.00     0.160 HD
BRANCH  19  21
HETATM   21  C2  UNL     1       2.113  -1.237  -0.755  1.00  0.00     0.138 C 
BRANCH  21  22
HETATM   22  C1  UNL     1       3.266  -2.208  -0.445  1.00  0.00     0.194 C 
BRANCH  22  23
HETATM   23  O1  UNL     1       2.826  -3.511  -0.566  1.00  0.00    -0.399 OA
HETATM   24  H1  UNL     1       2.382  -3.804   0.256  1.00  0.00     0.209 HD
ENDBRANCH  22  23
ENDBRANCH  21  22
BRANCH  21  25
HETATM   25  C19 UNL     1       2.670   0.144  -0.597  1.00  0.00    -0.034 A 
HETATM   26  C20 UNL     1       2.962   0.382   0.739  1.00  0.00     0.009 A 
HETATM   27  C21 UNL     1       3.496   1.611   1.139  1.00  0.00     0.001 A 
HETATM   28  C22 UNL     1       3.728   2.581   0.184  1.00  0.00     0.000 A 
HETATM   29  C23 UNL     1       3.429   2.319  -1.138  1.00  0.00     0.001 A 
HETATM   30  C24 UNL     1       2.902   1.113  -1.550  1.00  0.00     0.009 A 
ENDBRANCH  21  25
ENDBRANCH  19  21
ENDBRANCH   1  19
TORSDOF 5
