REMARK  8 active torsions:
REMARK  status: ('A' for Active; 'I' for Inactive)
REMARK    1  A    between atoms: C4_4  and  N1_5 
REMARK    2  A    between atoms: C6_7  and  C7_8 
REMARK    3  A    between atoms: C7_8  and  C17_23 
REMARK    4  A    between atoms: C8_9  and  C9_10 
REMARK    5  A    between atoms: C12_15  and  N4_16 
REMARK    6  A    between atoms: N4_16  and  C13_17 
REMARK    7  A    between atoms: C14_18  and  C15_19 
REMARK    8  A    between atoms: C17_23  and  N5_24 
ROOT
HETATM    1  C7  UNL     1      -1.168  -1.004   0.300  1.00  0.00    -0.022 C 
HETATM    2  C8  UNL     1       0.018  -0.971  -0.285  1.00  0.00     0.026 C 
ENDROOT
BRANCH   1   3
HETATM    3  C6  UNL     1      -1.996   0.156   0.047  1.00  0.00    -0.026 A 
HETATM    4  C5  UNL     1      -1.503   1.251  -0.827  1.00  0.00     0.097 A 
HETATM    5  C4  UNL     1      -2.483   2.328  -0.988  1.00  0.00     0.004 A 
HETATM    6  C3  UNL     1      -3.693   2.462  -0.479  1.00  0.00     0.008 A 
HETATM    7  C2  UNL     1      -4.184   1.385   0.401  1.00  0.00     0.051 A 
HETATM    8  C1  UNL     1      -5.381   0.761  -0.323  1.00  0.00     0.020 C 
HETATM    9  C18 UNL     1      -3.190   0.302   0.544  1.00  0.00     0.026 A 
HETATM   10 CL2  UNL     1      -3.928  -0.869   1.601  1.00  0.00    -0.088 Cl
BRANCH   5  11
HETATM   11  N1  UNL     1      -1.998   3.359  -1.836  1.00  0.00    -0.402 N 
HETATM   12  H6  UNL     1      -1.089   3.841  -2.002  1.00  0.00     0.156 HD
HETATM   13  H7  UNL     1      -2.579   3.880  -2.545  1.00  0.00     0.156 HD
ENDBRANCH   5  11
ENDBRANCH   1   3
BRANCH   1  14
HETATM   14  C17 UNL     1      -1.393  -2.197   1.128  1.00  0.00     0.305 C 
BRANCH  14  15
HETATM   15  N5  UNL     1      -2.456  -3.055   0.700  1.00  0.00     0.082 N 
HETATM   16  H19 UNL     1      -2.757  -2.880  -0.286  1.00  0.00     0.313 HD
HETATM   17  H20 UNL     1      -2.155  -4.058   0.712  1.00  0.00     0.313 HD
ENDBRANCH  14  15
ENDBRANCH   1  14
BRANCH   2  18
HETATM   18  C9  UNL     1       1.126  -1.898  -0.300  1.00  0.00     0.028 A 
HETATM   19  C10 UNL     1       0.988  -3.270  -0.536  1.00  0.00     0.133 A 
HETATM   20  N2  UNL     1       2.049  -4.099  -0.514  1.00  0.00    -0.253 NA
HETATM   21  C11 UNL     1       3.291  -3.652  -0.266  1.00  0.00     0.234 A 
HETATM   22  N3  UNL     1       3.508  -2.326  -0.027  1.00  0.00    -0.224 NA
HETATM   23  C12 UNL     1       2.449  -1.510  -0.050  1.00  0.00     0.140 A 
BRANCH  23  24
HETATM   24  N4  UNL     1       2.626  -0.123   0.189  1.00  0.00    -0.350 N 
HETATM   25  H13 UNL     1       1.885   0.609   0.192  1.00  0.00     0.166 HD
BRANCH  24  26
HETATM   26  C13 UNL     1       3.832   0.563   0.472  1.00  0.00     0.091 C 
HETATM   27  C14 UNL     1       4.483   1.244   1.390  1.00  0.00     0.043 C 
BRANCH  27  28
HETATM   28  C15 UNL     1       5.811   1.752   1.093  1.00  0.00     0.061 C 
HETATM   29 CL1  UNL     1       6.547   1.479  -0.446  1.00  0.00    -0.082 Cl
HETATM   30  C16 UNL     1       6.299   2.403   2.131  1.00  0.00     0.424 C 
HETATM   31  F1  UNL     1       7.520   2.968   2.100  1.00  0.00    -0.429 F 
ENDBRANCH  27  28
ENDBRANCH  24  26
ENDBRANCH  23  24
ENDBRANCH   2  18
TORSDOF 8
