REMARK  4 active torsions:
REMARK  status: ('A' for Active; 'I' for Inactive)
REMARK    1  A    between atoms: C5_6  and  N1_7 
REMARK    2  A    between atoms: N1_7  and  C6_8 
REMARK    3  A    between atoms: C6_8  and  N2_9 
REMARK    4  A    between atoms: C9_14  and  C10_15 
ROOT
HETATM    1  N2  UNL     1       1.349   0.955  -0.719  1.00  0.00    -0.086 NA
HETATM    2  C7  UNL     1       0.231   0.355  -0.506  1.00  0.00     0.720 C 
HETATM    3  N3  UNL     1       0.234  -0.653   0.529  1.00  0.00    -0.059 NA
HETATM    4  C8  UNL     1      -0.830  -1.158   1.109  1.00  0.00     0.223 C 
HETATM    5  N4  UNL     1      -2.247  -0.959   0.987  1.00  0.00    -0.374 N 
HETATM    6  C9  UNL     1      -2.756   0.140   0.196  1.00  0.00     0.135 C 
HETATM    7  C16 UNL     1      -2.234   0.136  -1.234  1.00  0.00     0.168 C 
HETATM    8  N5  UNL     1      -0.895   0.733  -1.298  1.00  0.00    -0.220 N 
HETATM    9  H8  UNL     1      -2.721  -1.718   1.549  1.00  0.00     0.161 HD
HETATM   10  H15 UNL     1      -0.737   1.510  -1.985  1.00  0.00     0.177 HD
ENDROOT
BRANCH   1  11
HETATM   11  C6  UNL     1       2.476   0.562   0.089  1.00  0.00     0.290 C 
BRANCH  11  12
HETATM   12  N1  UNL     1       3.612   0.360  -0.821  1.00  0.00    -0.371 N 
HETATM   13  H4  UNL     1       3.566   0.486  -1.840  1.00  0.00     0.161 HD
BRANCH  12  14
HETATM   14  C5  UNL     1       4.868  -0.041  -0.250  1.00  0.00     0.032 A 
HETATM   15  C4  UNL     1       5.982  -0.251  -1.042  1.00  0.00     0.029 A 
HETATM   16  C3  UNL     1       7.173  -0.636  -0.444  1.00  0.00     0.005 A 
HETATM   17  C2  UNL     1       7.303  -0.822   0.912  1.00  0.00     0.042 A 
HETATM   18  C1  UNL     1       6.191  -0.614   1.718  1.00  0.00     0.118 A 
HETATM   19  F1  UNL     1       6.143  -0.752   3.079  1.00  0.00    -0.206 F 
HETATM   20  C17 UNL     1       5.019  -0.232   1.112  1.00  0.00     0.071 A 
ENDBRANCH  12  14
ENDBRANCH  11  12
ENDBRANCH   1  11
BRANCH   6  21
HETATM   21  C10 UNL     1      -4.236   0.223   0.183  1.00  0.00    -0.012 A 
HETATM   22  C11 UNL     1      -4.854   1.472   0.322  1.00  0.00     0.012 A 
HETATM   23  C12 UNL     1      -6.210   1.725   0.337  1.00  0.00     0.024 A 
HETATM   24  C13 UNL     1      -7.038   0.629   0.201  1.00  0.00     0.035 A 
HETATM   25 CL1  UNL     1      -8.762   0.940   0.219  1.00  0.00    -0.084 Cl
HETATM   26  C14 UNL     1      -6.495  -0.631   0.060  1.00  0.00     0.048 A 
HETATM   27  C15 UNL     1      -5.129  -0.819   0.052  1.00  0.00     0.044 A 
HETATM   28 CL2  UNL     1      -4.460  -2.421  -0.137  1.00  0.00    -0.084 Cl
ENDBRANCH   6  21
TORSDOF 4
