REMARK  4 active torsions:
REMARK  status: ('A' for Active; 'I' for Inactive)
REMARK    1  A    between atoms: N1_1  and  C1_2 
REMARK    2  A    between atoms: C2_4  and  N3_5 
REMARK    3  A    between atoms: N3_5  and  C3_6 
REMARK    4  A    between atoms: C11_15  and  C12_16 
ROOT
HETATM    1  C1  UNL     1      -0.429   2.090   0.598  1.00  0.00     0.723 C 
HETATM    2  N2  UNL     1      -0.423   1.539  -0.558  1.00  0.00    -0.044 NA
HETATM    3  C2  UNL     1      -0.777   0.180  -0.649  1.00  0.00     0.158 C 
HETATM    4  C9  UNL     1      -0.222  -0.170  -1.794  1.00  0.00     0.023 C 
HETATM    5  C10 UNL     1       0.971   0.326  -2.012  1.00  0.00     0.019 C 
HETATM    6  C11 UNL     1       1.938   0.869  -1.092  1.00  0.00     0.139 C 
HETATM    7  N4  UNL     1       1.679   1.974  -0.263  1.00  0.00    -0.372 N 
HETATM    8  C18 UNL     1       1.307   3.368  -0.390  1.00  0.00     0.223 C 
HETATM    9  N5  UNL     1       0.077   3.373   0.123  1.00  0.00    -0.059 NA
HETATM   10  H14 UNL     1       1.803   1.689   0.744  1.00  0.00     0.161 HD
ENDROOT
BRANCH   3  11
HETATM   11  N3  UNL     1      -1.501  -0.801   0.099  1.00  0.00    -0.340 N 
HETATM   12  H3  UNL     1      -0.989  -1.411   0.752  1.00  0.00     0.167 HD
BRANCH  11  13
HETATM   13  C3  UNL     1      -2.892  -0.920  -0.065  1.00  0.00     0.036 A 
HETATM   14  C4  UNL     1      -3.596  -1.878   0.666  1.00  0.00     0.029 A 
HETATM   15  C5  UNL     1      -4.960  -2.008   0.517  1.00  0.00     0.005 A 
HETATM   16  C6  UNL     1      -5.590  -1.179  -0.358  1.00  0.00     0.042 A 
HETATM   17  C7  UNL     1      -4.940  -0.217  -1.104  1.00  0.00     0.118 A 
HETATM   18  F1  UNL     1      -5.553   0.628  -1.989  1.00  0.00    -0.206 F 
HETATM   19  C8  UNL     1      -3.576  -0.091  -0.951  1.00  0.00     0.071 A 
ENDBRANCH  11  13
ENDBRANCH   3  11
BRANCH   1  20
HETATM   20  N1  UNL     1      -0.516   2.464   1.988  1.00  0.00    -0.231 N 
HETATM   21  H1  UNL     1       0.343   2.282   2.551  1.00  0.00     0.174 HD
HETATM   22  H2  UNL     1      -1.455   2.882   2.259  1.00  0.00     0.174 HD
ENDBRANCH   1  20
BRANCH   6  23
HETATM   23  C12 UNL     1       2.822  -0.164  -0.461  1.00  0.00    -0.032 A 
HETATM   24  C13 UNL     1       3.937   0.273   0.201  1.00  0.00     0.011 A 
HETATM   25  C14 UNL     1       4.730  -0.712   0.771  1.00  0.00     0.024 A 
HETATM   26  C15 UNL     1       4.416  -2.053   0.679  1.00  0.00     0.034 A 
HETATM   27 CL1  UNL     1       5.472  -3.243   1.429  1.00  0.00    -0.084 Cl
HETATM   28  C16 UNL     1       3.284  -2.464   0.004  1.00  0.00     0.024 A 
HETATM   29  C17 UNL     1       2.480  -1.501  -0.572  1.00  0.00     0.011 A 
ENDBRANCH   6  23
TORSDOF 4
