REMARK  4 active torsions:
REMARK  status: ('A' for Active; 'I' for Inactive)
REMARK    1  A    between atoms: C2_2  and  C3_3 
REMARK       I    between atoms: C3_3  and  N1_5 
REMARK    2  A    between atoms: N1_5  and  C4_6 
REMARK    3  A    between atoms: C7_9  and  C8_10 
REMARK    4  A    between atoms: C8_10  and  C9_11 
ROOT
HETATM    1  C8  UNL     1       0.132  -2.154   1.293  1.00  0.00     0.073 C 
ENDROOT
BRANCH   1   2
HETATM    2  C7  UNL     1      -1.047  -1.516   0.699  1.00  0.00    -0.054 A 
HETATM    3  C6  UNL     1      -1.927  -1.886  -0.282  1.00  0.00     0.010 A 
HETATM    4  C5  UNL     1      -3.009  -1.207  -0.795  1.00  0.00     0.030 A 
HETATM    5  C4  UNL     1      -3.204   0.006  -0.221  1.00  0.00     0.035 A 
HETATM    6  C21 UNL     1      -2.425   0.572   0.791  1.00  0.00     0.030 A 
HETATM    7  C20 UNL     1      -1.356  -0.239   1.212  1.00  0.00     0.010 A 
BRANCH   5   8
HETATM    8  N1  UNL     1      -4.253   0.873  -0.673  1.00  0.00    -0.324 N 
HETATM    9  C3  UNL     1      -4.664   1.054  -2.055  1.00  0.00     0.241 C 
HETATM   10  O1  UNL     1      -3.875   0.265  -2.652  1.00  0.00    -0.269 OA
HETATM   11  H4  UNL     1      -4.788   1.438   0.061  1.00  0.00     0.169 HD
BRANCH   9  12
HETATM   12  C2  UNL     1      -5.744   1.970  -2.484  1.00  0.00     0.048 C 
HETATM   13  C1  UNL     1      -6.299   2.600  -1.424  1.00  0.00     0.037 C 
ENDBRANCH   9  12
ENDBRANCH   5   8
ENDBRANCH   1   2
BRANCH   1  14
HETATM   14  C9  UNL     1       1.414  -1.556   1.106  1.00  0.00    -0.065 C 
HETATM   15  C10 UNL     1       2.126  -1.046   2.269  1.00  0.00     0.015 C 
HETATM   16  C11 UNL     1       3.460  -0.452   1.745  1.00  0.00    -0.035 A 
HETATM   17  C12 UNL     1       3.225   0.842   2.154  1.00  0.00     0.011 A 
HETATM   18  C16 UNL     1       4.119  -1.212   0.825  1.00  0.00     0.024 A 
HETATM   19  C13 UNL     1       3.942   1.693   1.264  1.00  0.00     0.002 A 
HETATM   20  C14 UNL     1       4.703   1.168   0.193  1.00  0.00     0.013 A 
HETATM   21  C15 UNL     1       4.708  -0.230   0.079  1.00  0.00    -0.018 A 
HETATM   22  C17 UNL     1       5.181  -0.405  -1.346  1.00  0.00     0.127 C 
HETATM   23  N2  UNL     1       4.100  -1.031  -1.865  1.00  0.00    -0.276 NA
HETATM   24  C18 UNL     1       3.009  -1.346  -1.149  1.00  0.00     0.099 C 
HETATM   25  C19 UNL     1       2.187  -1.509  -0.252  1.00  0.00     0.068 C 
ENDBRANCH   1  14
TORSDOF 4
