REMARK  4 active torsions:
REMARK  status: ('A' for Active; 'I' for Inactive)
REMARK    1  A    between atoms: C2_3  and  C3_4 
REMARK    2  A    between atoms: C11_15  and  C12_16 
REMARK    3  A    between atoms: C12_16  and  O2_17 
REMARK    4  A    between atoms: O2_17  and  C13_18 
ROOT
HETATM    1  F1  UNL     1      -0.526   0.766  -0.292  1.00  0.00    -0.202 F 
HETATM    2  C1  UNL     1      -1.076  -0.441  -0.404  1.00  0.00     0.167 A 
HETATM    3  C2  UNL     1      -2.337  -0.792  -0.049  1.00  0.00     0.127 A 
HETATM    4  O1  UNL     1      -2.478  -2.058  -0.319  1.00  0.00    -0.287 OA
HETATM    5  C9  UNL     1      -1.407  -2.589  -0.830  1.00  0.00     0.186 A 
HETATM    6  N1  UNL     1      -1.077  -3.832  -1.261  1.00  0.00    -0.217 NA
HETATM    7  C10 UNL     1       0.166  -4.027  -1.748  1.00  0.00     0.236 A 
HETATM    8  N2  UNL     1       1.090  -3.052  -1.827  1.00  0.00    -0.243 NA
HETATM    9  C11 UNL     1       0.781  -1.806  -1.403  1.00  0.00     0.077 A 
HETATM   10  C19 UNL     1      -0.485  -1.573  -0.898  1.00  0.00     0.086 A 
ENDROOT
BRANCH   9  11
HETATM   11  C12 UNL     1       1.825  -0.747  -1.500  1.00  0.00     0.236 C 
BRANCH  11  12
HETATM   12  O2  UNL     1       2.400  -0.465  -0.246  1.00  0.00    -0.345 OA
BRANCH  12  13
HETATM   13  C13 UNL     1       3.389   0.498  -0.181  1.00  0.00     0.069 A 
HETATM   14  C14 UNL     1       3.871   1.221  -1.261  1.00  0.00     0.037 A 
HETATM   15  C15 UNL     1       4.870   2.149  -0.994  1.00  0.00     0.003 A 
HETATM   16  C16 UNL     1       5.397   2.385   0.256  1.00  0.00     0.000 A 
HETATM   17  C17 UNL     1       4.880   1.638   1.291  1.00  0.00     0.003 A 
HETATM   18  C18 UNL     1       3.878   0.687   1.112  1.00  0.00     0.037 A 
ENDBRANCH  12  13
ENDBRANCH  11  12
ENDBRANCH   9  11
BRANCH   3  19
HETATM   19  C3  UNL     1      -3.419   0.023   0.539  1.00  0.00     0.001 A 
HETATM   20  C4  UNL     1      -4.621  -0.599   0.807  1.00  0.00     0.014 A 
HETATM   21  C5  UNL     1      -5.715   0.069   1.360  1.00  0.00     0.001 A 
HETATM   22  C6  UNL     1      -5.521   1.416   1.630  1.00  0.00     0.000 A 
HETATM   23  C7  UNL     1      -4.327   2.049   1.368  1.00  0.00     0.001 A 
HETATM   24  C8  UNL     1      -3.251   1.347   0.813  1.00  0.00     0.014 A 
ENDBRANCH   3  19
TORSDOF 4
