REMARK  6 active torsions:
REMARK  status: ('A' for Active; 'I' for Inactive)
REMARK    1  A    between atoms: O1_1  and  C1_2 
REMARK    2  A    between atoms: C1_2  and  C2_3 
REMARK    3  A    between atoms: C2_3  and  N1_4 
REMARK    4  A    between atoms: C2_3  and  C19_24 
REMARK    5  A    between atoms: N1_4  and  C3_5 
REMARK    6  A    between atoms: C12_16  and  C13_17 
ROOT
HETATM    1  C3  UNL     1      -1.060  -0.385  -0.026  1.00  0.00     0.136 A 
HETATM    2  N2  UNL     1      -1.260  -0.246  -1.344  1.00  0.00    -0.224 NA
HETATM    3  C4  UNL     1      -0.267   0.325  -2.082  1.00  0.00     0.238 A 
HETATM    4  N3  UNL     1       0.873   0.735  -1.500  1.00  0.00    -0.217 NA
HETATM    5  C5  UNL     1       1.123   0.618  -0.175  1.00  0.00     0.181 A 
HETATM    6  C6  UNL     1       0.098   0.029   0.579  1.00  0.00     0.044 A 
HETATM    7  C7  UNL     1       0.509  -0.035   2.010  1.00  0.00     0.074 C 
HETATM    8  C8  UNL     1       1.176   1.249   2.404  1.00  0.00    -0.022 C 
HETATM    9  C9  UNL     1       2.434   1.219   2.742  1.00  0.00    -0.003 C 
HETATM   10  C10 UNL     1       3.004  -0.122   2.676  1.00  0.00     0.015 C 
HETATM   11  C11 UNL     1       3.564  -0.603   1.581  1.00  0.00     0.012 C 
HETATM   12  C12 UNL     1       3.408   0.183   0.551  1.00  0.00     0.099 C 
HETATM   13  O2  UNL     1       2.334   1.072   0.333  1.00  0.00    -0.290 OA
ENDROOT
BRANCH   1  14
HETATM   14  N1  UNL     1      -2.014  -0.963   0.840  1.00  0.00    -0.363 N 
HETATM   15  H5  UNL     1      -1.918  -1.098   1.864  1.00  0.00     0.162 HD
BRANCH  14  16
HETATM   16  C2  UNL     1      -3.249  -1.419   0.286  1.00  0.00     0.140 C 
BRANCH  16  17
HETATM   17  C1  UNL     1      -4.203  -2.020   1.285  1.00  0.00     0.194 C 
BRANCH  17  18
HETATM   18  O1  UNL     1      -3.702  -3.122   1.947  1.00  0.00    -0.399 OA
HETATM   19  H1  UNL     1      -3.780  -3.956   1.426  1.00  0.00     0.209 HD
ENDBRANCH  17  18
ENDBRANCH  16  17
BRANCH  16  20
HETATM   20  C19 UNL     1      -4.000  -0.321  -0.408  1.00  0.00    -0.034 A 
HETATM   21  C20 UNL     1      -4.588  -0.507  -1.656  1.00  0.00     0.009 A 
HETATM   22  C21 UNL     1      -5.260   0.556  -2.224  1.00  0.00     0.001 A 
HETATM   23  C22 UNL     1      -5.373   1.787  -1.611  1.00  0.00     0.000 A 
HETATM   24  C23 UNL     1      -4.793   1.990  -0.366  1.00  0.00     0.001 A 
HETATM   25  C24 UNL     1      -4.113   0.914   0.207  1.00  0.00     0.009 A 
ENDBRANCH  16  20
ENDBRANCH  14  16
ENDBRANCH   1  14
BRANCH  12  26
HETATM   26  C13 UNL     1       4.453   0.148  -0.497  1.00  0.00    -0.001 A 
HETATM   27  C14 UNL     1       4.531   1.127  -1.468  1.00  0.00     0.014 A 
HETATM   28  C15 UNL     1       5.524   1.074  -2.446  1.00  0.00     0.001 A 
HETATM   29  C16 UNL     1       6.448   0.051  -2.469  1.00  0.00     0.000 A 
HETATM   30  C17 UNL     1       6.368  -0.925  -1.498  1.00  0.00     0.001 A 
HETATM   31  C18 UNL     1       5.382  -0.871  -0.530  1.00  0.00     0.014 A 
ENDBRANCH  12  26
TORSDOF 6
