REMARK  6 active torsions:
REMARK  status: ('A' for Active; 'I' for Inactive)
REMARK    1  A    between atoms: O1_1  and  C1_2 
REMARK    2  A    between atoms: C1_2  and  C2_3 
REMARK    3  A    between atoms: C2_3  and  N1_4 
REMARK    4  A    between atoms: C2_3  and  C14_19 
REMARK    5  A    between atoms: C6_10  and  C7_11 
REMARK    6  A    between atoms: C7_11  and  C8_13 
ROOT
HETATM    1  N1  UNL     1      -0.241  -0.030  -1.080  1.00  0.00    -0.367 N 
HETATM    2  C3  UNL     1      -0.096   1.040  -0.290  1.00  0.00     0.114 A 
HETATM    3  N2  UNL     1      -1.191   1.542   0.838  1.00  0.00    -0.259 NA
HETATM    4  C4  UNL     1      -0.341   2.389   0.985  1.00  0.00     0.094 A 
HETATM    5  P1  UNL     1       0.519   3.217   1.109  1.00  0.00    -0.111 P 
HETATM    6  C5  UNL     1       0.909   3.580   1.155  1.00  0.00     0.124 A 
HETATM    7  C6  UNL     1       1.100   2.263  -0.060  1.00  0.00     0.086 A 
HETATM    8  H5  UNL     1       0.121   0.332  -2.019  1.00  0.00     0.161 HD
HETATM    9  H6  UNL     1       2.184   4.873   1.395  1.00  0.00     0.048 HD
ENDROOT
BRANCH   1  10
HETATM   10  C2  UNL     1      -0.802  -1.052  -0.202  1.00  0.00     0.139 C 
BRANCH  10  11
HETATM   11  C1  UNL     1      -0.900  -2.283  -1.069  1.00  0.00     0.194 C 
BRANCH  11  12
HETATM   12  O1  UNL     1      -1.429  -3.354  -0.308  1.00  0.00    -0.399 OA
HETATM   13  H1  UNL     1      -1.049  -4.197  -0.637  1.00  0.00     0.209 HD
ENDBRANCH  11  12
ENDBRANCH  10  11
BRANCH  10  14
HETATM   14  C14 UNL     1      -2.096  -0.650   0.356  1.00  0.00    -0.034 A 
HETATM   15  C15 UNL     1      -2.949  -0.092  -0.604  1.00  0.00     0.009 A 
HETATM   16  C16 UNL     1      -4.222   0.348  -0.270  1.00  0.00     0.001 A 
HETATM   17  C17 UNL     1      -4.638   0.228   1.034  1.00  0.00     0.000 A 
HETATM   18  C18 UNL     1      -3.815  -0.320   2.002  1.00  0.00     0.001 A 
HETATM   19  C19 UNL     1      -2.554  -0.758   1.675  1.00  0.00     0.009 A 
ENDBRANCH  10  14
ENDBRANCH   1  10
BRANCH   7  20
HETATM   20  C7  UNL     1       2.098   1.568  -1.223  1.00  0.00     0.224 C 
HETATM   21  F1  UNL     1       3.154   2.429  -1.304  1.00  0.00    -0.243 F 
BRANCH  20  22
HETATM   22  C8  UNL     1       2.513   0.328  -0.584  1.00  0.00    -0.023 A 
HETATM   23  C9  UNL     1       2.498  -0.963  -0.988  1.00  0.00     0.010 A 
HETATM   24  C10 UNL     1       2.920  -2.029  -0.230  1.00  0.00     0.001 A 
HETATM   25  C11 UNL     1       3.399  -1.789   1.039  1.00  0.00     0.000 A 
HETATM   26  C12 UNL     1       3.442  -0.493   1.510  1.00  0.00     0.001 A 
HETATM   27  C13 UNL     1       3.007   0.577   0.721  1.00  0.00     0.010 A 
ENDBRANCH  20  22
ENDBRANCH   7  20
TORSDOF 6
