REMARK  4 active torsions:
REMARK  status: ('A' for Active; 'I' for Inactive)
REMARK    1  A    between atoms: O1_1  and  C1_2 
REMARK    2  A    between atoms: C1_2  and  C2_3 
REMARK    3  A    between atoms: C2_3  and  N1_4 
REMARK    4  A    between atoms: C2_3  and  C20_25 
ROOT
HETATM    1  N1  UNL     1      -1.116   1.090  -0.188  1.00  0.00    -0.360 N 
HETATM    2  C3  UNL     1      -0.647  -0.186  -0.284  1.00  0.00     0.221 C 
HETATM    3  N2  UNL     1      -0.410  -1.381  -0.550  1.00  0.00     0.121 N 
HETATM    4  C4  UNL     1      -0.859  -2.431  -1.353  1.00  0.00     0.379 A 
HETATM    5  N3  UNL     1       0.331  -1.981  -1.594  1.00  0.00    -0.026 NA
HETATM    6  C5  UNL     1       1.084  -0.952  -0.992  1.00  0.00     0.372 A 
HETATM    7  C6  UNL     1       2.005  -1.589  -0.147  1.00  0.00     0.018 C 
HETATM    8  C7  UNL     1       2.765  -2.554   0.762  1.00  0.00     0.034 C 
HETATM    9  C8  UNL     1       2.918  -1.817   1.987  1.00  0.00     0.007 C 
HETATM   10  C9  UNL     1       2.269  -0.493   2.082  1.00  0.00    -0.023 C 
HETATM   11  C10 UNL     1       1.315   0.111   1.468  1.00  0.00     0.035 A 
HETATM   12  C11 UNL     1       0.281   0.464   0.685  1.00  0.00     0.071 A 
HETATM   13  C12 UNL     1       1.151   1.073   1.456  1.00  0.00     0.046 A 
HETATM   14  C13 UNL     1       1.522   1.318  -0.077  1.00  0.00     0.153 A 
HETATM   15  O2  UNL     1       1.067   0.500  -1.092  1.00  0.00    -0.326 OA
HETATM   16  C14 UNL     1       3.031   1.045  -0.335  1.00  0.00    -0.020 A 
HETATM   17  C15 UNL     1       3.961   1.961  -0.555  1.00  0.00     0.010 A 
HETATM   18  C16 UNL     1       5.192   1.404  -0.363  1.00  0.00     0.001 A 
HETATM   19  C17 UNL     1       5.456   0.117  -0.003  1.00  0.00     0.001 A 
HETATM   20  C18 UNL     1       4.351  -0.746   0.192  1.00  0.00     0.012 A 
HETATM   21  C19 UNL     1       2.942  -0.327   0.026  1.00  0.00    -0.018 A 
HETATM   22  H5  UNL     1      -0.744   1.834   0.454  1.00  0.00     0.161 HD
ENDROOT
BRANCH   1  23
HETATM   23  C2  UNL     1      -2.221   0.980  -1.183  1.00  0.00     0.139 C 
BRANCH  23  24
HETATM   24  C1  UNL     1      -2.842   2.358  -1.135  1.00  0.00     0.194 C 
BRANCH  24  25
HETATM   25  O1  UNL     1      -3.877   2.346  -2.018  1.00  0.00    -0.399 OA
HETATM   26  H1  UNL     1      -4.735   2.366  -1.526  1.00  0.00     0.209 HD
ENDBRANCH  24  25
ENDBRANCH  23  24
BRANCH  23  27
HETATM   27  C20 UNL     1      -3.296   0.054  -0.751  1.00  0.00    -0.034 A 
HETATM   28  C21 UNL     1      -3.981  -0.892  -1.460  1.00  0.00     0.009 A 
HETATM   29  C22 UNL     1      -4.959  -1.651  -0.850  1.00  0.00     0.001 A 
HETATM   30  C23 UNL     1      -5.238  -1.439   0.503  1.00  0.00     0.000 A 
HETATM   31  C24 UNL     1      -4.568  -0.492   1.257  1.00  0.00     0.001 A 
HETATM   32  C25 UNL     1      -3.584   0.257   0.600  1.00  0.00     0.009 A 
ENDBRANCH  23  27
ENDBRANCH   1  23
TORSDOF 4
