REMARK  4 active torsions:
REMARK  status: ('A' for Active; 'I' for Inactive)
REMARK    1  A    between atoms: O1_2  and  C2_3 
REMARK    2  A    between atoms: C4_5  and  O2_6 
REMARK    3  A    between atoms: C10_17  and  N4_18 
REMARK    4  A    between atoms: N4_18  and  C11_19 
ROOT
HETATM    1  C2  UNL     1      -3.680   1.263   0.476  1.00  0.00     0.152 C 
HETATM    2  C3  UNL     1      -2.986   0.169   0.370  1.00  0.00     0.072 A 
HETATM    3  C4  UNL     1      -3.592  -1.146   0.449  1.00  0.00     0.174 A 
HETATM    4  N1  UNL     1      -2.871  -2.188   0.339  1.00  0.00    -0.262 NA
HETATM    5  C6  UNL     1      -1.465  -2.199   0.137  1.00  0.00     0.190 A 
HETATM    6  C7  UNL     1      -0.866  -0.847   0.060  1.00  0.00    -0.008 A 
HETATM    7  C8  UNL     1      -1.528   0.303   0.162  1.00  0.00     0.100 A 
HETATM    8  O3  UNL     1      -1.036   1.631   0.099  1.00  0.00    -0.290 OA
HETATM    9  C9  UNL     1       0.268   2.101   0.419  1.00  0.00     0.181 C 
HETATM   10  N2  UNL     1      -0.055   3.419   0.390  1.00  0.00    -0.306 NA
HETATM   11  B1  UNL     1       1.527   3.746   2.179  1.00  0.00     0.467 B 
HETATM   12  N3  UNL     1       2.726   3.064   1.035  1.00  0.00    -0.313 NA
HETATM   13  C10 UNL     1       2.674   1.697   0.970  1.00  0.00     0.140 C 
HETATM   14  C17 UNL     1       1.386   1.296   0.652  1.00  0.00     0.125 C 
HETATM   15  N5  UNL     1       1.367  -0.138   0.582  1.00  0.00    -0.379 N 
HETATM   16  C18 UNL     1       0.563  -1.100  -0.156  1.00  0.00     0.159 C 
HETATM   17  H15 UNL     1       2.115  -0.545   1.218  1.00  0.00     0.160 HD
ENDROOT
BRANCH  13  18
HETATM   18  N4  UNL     1       3.744   0.750   1.179  1.00  0.00    -0.340 N 
HETATM   19  H10 UNL     1       4.025   0.311   2.087  1.00  0.00     0.167 HD
BRANCH  18  20
HETATM   20  C11 UNL     1       4.461   0.406   0.016  1.00  0.00     0.035 A 
HETATM   21  C12 UNL     1       4.124   0.954  -1.217  1.00  0.00     0.029 A 
HETATM   22  C13 UNL     1       4.852   0.595  -2.352  1.00  0.00     0.004 A 
HETATM   23  C14 UNL     1       5.906  -0.302  -2.266  1.00  0.00     0.019 A 
HETATM   24  C15 UNL     1       6.275  -0.872  -1.057  1.00  0.00     0.013 A 
HETATM   25 BR1  UNL     1       7.716  -2.110  -0.877  1.00  0.00    -0.051 Br
HETATM   26  C16 UNL     1       5.510  -0.470   0.026  1.00  0.00     0.048 A 
ENDBRANCH  18  20
ENDBRANCH  13  18
BRANCH   1  27
HETATM   27  O1  UNL     1      -5.052   1.290   0.673  1.00  0.00    -0.367 OA
HETATM   28  C1  UNL     1      -5.973   1.483  -0.381  1.00  0.00     0.208 C 
ENDBRANCH   1  27
BRANCH   3  29
HETATM   29  O2  UNL     1      -4.970  -1.223   0.646  1.00  0.00    -0.339 OA
HETATM   30  C5  UNL     1      -5.653  -2.468   0.482  1.00  0.00     0.211 C 
ENDBRANCH   3  29
TORSDOF 4
