REMARK  7 active torsions:
REMARK  status: ('A' for Active; 'I' for Inactive)
REMARK    1  A    between atoms: O1_1  and  C1_2 
REMARK    2  A    between atoms: C1_2  and  C2_3 
REMARK    3  A    between atoms: C2_3  and  N1_4 
REMARK    4  A    between atoms: C2_3  and  C18_23 
REMARK    5  A    between atoms: N1_4  and  C3_5 
REMARK    6  A    between atoms: C6_10  and  C7_11 
REMARK    7  A    between atoms: C7_11  and  C12_17 
ROOT
HETATM    1  C3  UNL     1      -0.170   1.499   0.218  1.00  0.00     0.138 A 
HETATM    2  N2  UNL     1      -1.039   2.500   0.076  1.00  0.00    -0.224 NA
HETATM    3  C4  UNL     1      -0.751   3.753  -0.272  1.00  0.00     0.234 A 
HETATM    4  N3  UNL     1       0.550   3.986  -0.492  1.00  0.00    -0.253 NA
HETATM    5  C5  UNL     1       1.483   3.026  -0.367  1.00  0.00     0.134 A 
HETATM    6  C6  UNL     1       1.171   1.740  -0.006  1.00  0.00     0.041 A 
ENDROOT
BRANCH   1   7
HETATM    7  N1  UNL     1      -0.839   0.287   0.536  1.00  0.00    -0.363 N 
HETATM    8  H5  UNL     1      -0.082  -0.461   0.515  1.00  0.00     0.162 HD
BRANCH   7   9
HETATM    9  C2  UNL     1      -2.099  -0.301   0.828  1.00  0.00     0.140 C 
BRANCH   9  10
HETATM   10  C1  UNL     1      -1.962  -1.778   1.118  1.00  0.00     0.194 C 
BRANCH  10  11
HETATM   11  O1  UNL     1      -3.239  -2.252   1.396  1.00  0.00    -0.399 OA
HETATM   12  H1  UNL     1      -3.658  -1.648   2.056  1.00  0.00     0.209 HD
ENDBRANCH  10  11
ENDBRANCH   9  10
BRANCH   9  13
HETATM   13  C18 UNL     1      -3.204  -0.009  -0.085  1.00  0.00    -0.034 A 
HETATM   14  C19 UNL     1      -3.606  -1.090  -0.882  1.00  0.00     0.009 A 
HETATM   15  C20 UNL     1      -4.647  -0.996  -1.779  1.00  0.00     0.001 A 
HETATM   16  C21 UNL     1      -5.350   0.195  -1.932  1.00  0.00     0.000 A 
HETATM   17  C22 UNL     1      -4.980   1.271  -1.166  1.00  0.00     0.001 A 
HETATM   18  C23 UNL     1      -3.935   1.136  -0.280  1.00  0.00     0.009 A 
ENDBRANCH   9  13
ENDBRANCH   7   9
ENDBRANCH   1   7
BRANCH   6  19
HETATM   19  C7  UNL     1       2.088   0.631   0.226  1.00  0.00     0.023 C 
HETATM   20  C8  UNL     1       2.069   0.105   1.470  1.00  0.00     0.081 A 
HETATM   21  C9  UNL     1       2.889  -1.000   1.940  1.00  0.00     0.036 A 
HETATM   22  O2  UNL     1       1.291   0.478   2.567  1.00  0.00    -0.347 OA
HETATM   23  C10 UNL     1       2.653  -1.294   3.196  1.00  0.00     0.002 A 
HETATM   24  C11 UNL     1       1.609  -0.348   3.646  1.00  0.00     0.203 A 
BRANCH  19  25
HETATM   25  C12 UNL     1       2.958   0.041  -0.781  1.00  0.00    -0.022 A 
HETATM   26  C13 UNL     1       3.846   0.600  -1.668  1.00  0.00     0.012 A 
HETATM   27  C14 UNL     1       4.567  -0.126  -2.585  1.00  0.00     0.001 A 
HETATM   28  C15 UNL     1       4.416  -1.499  -2.646  1.00  0.00     0.000 A 
HETATM   29  C16 UNL     1       3.518  -2.098  -1.754  1.00  0.00     0.001 A 
HETATM   30  C17 UNL     1       2.801  -1.350  -0.839  1.00  0.00     0.012 A 
ENDBRANCH  19  25
ENDBRANCH   6  19
TORSDOF 7
