REMARK  5 active torsions:
REMARK  status: ('A' for Active; 'I' for Inactive)
REMARK    1  A    between atoms: O1_2  and  C2_3 
REMARK    2  A    between atoms: C3_5  and  C4_6 
REMARK    3  A    between atoms: C4_6  and  O2_7 
REMARK    4  A    between atoms: O2_7  and  C5_8 
REMARK    5  A    between atoms: C8_13  and  N4_14 
ROOT
HETATM    1  C2  UNL     1      -2.159  -1.149   1.356  1.00  0.00     0.164 C 
HETATM    2  N1  UNL     1      -1.178  -1.328   0.483  1.00  0.00    -0.229 NA
HETATM    3  C3  UNL     1      -0.811  -0.553  -0.671  1.00  0.00     0.067 C 
HETATM    4  C9  UNL     1      -1.575   0.377  -1.317  1.00  0.00    -0.029 C 
HETATM    5  C10 UNL     1      -3.023   0.600  -1.676  1.00  0.00     0.042 C 
HETATM    6  C11 UNL     1      -3.022   1.252  -0.476  1.00  0.00     0.061 C 
HETATM    7  O3  UNL     1      -3.476   0.846   0.816  1.00  0.00    -0.346 OA
HETATM    8  C12 UNL     1      -3.350  -0.307   1.638  1.00  0.00     0.261 C 
HETATM    9  C13 UNL     1      -2.445   2.636  -0.471  1.00  0.00     0.115 C 
HETATM   10 BR1  UNL     1      -1.864   3.177   1.272  1.00  0.00    -0.084 Br
HETATM   11  C14 UNL     1      -1.270   2.796  -1.405  1.00  0.00     0.027 C 
HETATM   12  C15 UNL     1      -0.557   1.450  -1.687  1.00  0.00     0.042 C 
ENDROOT
BRANCH   3  13
HETATM   13  C4  UNL     1       0.537  -0.736  -1.262  1.00  0.00     0.237 C 
BRANCH  13  14
HETATM   14  O2  UNL     1       1.465  -0.411  -0.239  1.00  0.00    -0.327 OA
BRANCH  14  15
HETATM   15  C5  UNL     1       2.832  -0.476  -0.460  1.00  0.00     0.194 A 
HETATM   16  N2  UNL     1       3.495  -0.831  -1.590  1.00  0.00    -0.216 NA
HETATM   17  C6  UNL     1       4.857  -0.814  -1.549  1.00  0.00     0.235 A 
HETATM   18  N3  UNL     1       5.602  -0.469  -0.463  1.00  0.00    -0.252 NA
HETATM   19  C7  UNL     1       4.958  -0.109   0.686  1.00  0.00     0.151 A 
HETATM   20  C8  UNL     1       3.576  -0.119   0.667  1.00  0.00     0.097 A 
BRANCH  20  21
HETATM   21  N4  UNL     1       2.986   0.274   1.920  1.00  0.00    -0.394 N 
HETATM   22  H8  UNL     1       3.011   1.292   2.171  1.00  0.00     0.156 HD
HETATM   23  H9  UNL     1       2.625  -0.591   2.363  1.00  0.00     0.156 HD
ENDBRANCH  20  21
ENDBRANCH  14  15
ENDBRANCH  13  14
ENDBRANCH   3  13
BRANCH   1  24
HETATM   24  O1  UNL     1      -2.011  -2.096   2.370  1.00  0.00    -0.341 OA
HETATM   25  C1  UNL     1      -1.340  -3.330   2.113  1.00  0.00     0.211 C 
ENDBRANCH   1  24
TORSDOF 5
