REMARK  7 active torsions:
REMARK  status: ('A' for Active; 'I' for Inactive)
REMARK    1  A    between atoms: C3_3  and  C4_4 
REMARK    2  A    between atoms: C5_5  and  C6_6 
REMARK    3  A    between atoms: C6_6  and  C7_7 
REMARK    4  A    between atoms: C7_7  and  C8_8 
REMARK    5  A    between atoms: C7_7  and  C9_10 
REMARK    6  A    between atoms: C8_8  and  O1_9 
REMARK    7  A    between atoms: C13_16  and  C14_17 
ROOT
HETATM    1  C9  UNL     1       0.292   0.615  -0.258  1.00  0.00     0.168 C 
HETATM    2  O2  UNL     1      -0.069   0.893  -1.582  1.00  0.00    -0.351 OA
HETATM    3  C10 UNL     1      -0.795   0.224  -2.594  1.00  0.00     0.160 C 
HETATM    4  C11 UNL     1      -1.938  -0.436  -2.428  1.00  0.00     0.166 C 
HETATM    5  O3  UNL     1      -2.863  -0.767  -1.391  1.00  0.00    -0.320 OA
HETATM    6  C12 UNL     1      -3.087  -0.012  -0.238  1.00  0.00     0.086 C 
HETATM    7  C13 UNL     1      -4.331   0.444   0.025  1.00  0.00     0.050 C 
HETATM    8  C19 UNL     1      -2.114   0.373   0.773  1.00  0.00     0.007 A 
HETATM    9  C20 UNL     1      -2.831   0.482   1.939  1.00  0.00     0.015 A 
HETATM   10  C21 UNL     1      -2.266   0.866   3.140  1.00  0.00     0.001 A 
HETATM   11  C22 UNL     1      -0.898   1.149   3.133  1.00  0.00     0.001 A 
HETATM   12  C23 UNL     1      -0.166   1.037   1.946  1.00  0.00     0.011 A 
HETATM   13  C24 UNL     1      -0.740   0.650   0.748  1.00  0.00    -0.015 A 
ENDROOT
BRANCH   1  14
HETATM   14  C7  UNL     1       1.160  -0.619  -0.308  1.00  0.00     0.047 C 
BRANCH  14  15
HETATM   15  C6  UNL     1       2.407  -0.314  -1.166  1.00  0.00     0.036 C 
BRANCH  15  16
HETATM   16  C5  UNL     1       3.276   0.696  -0.510  1.00  0.00    -0.026 C 
HETATM   17  C4  UNL     1       4.540   0.433  -0.173  1.00  0.00    -0.004 C 
BRANCH  17  18
HETATM   18  C3  UNL     1       5.506   1.306   0.467  1.00  0.00    -0.005 C 
HETATM   19  C2  UNL     1       6.749   0.974   0.772  1.00  0.00    -0.031 C 
HETATM   20  C1  UNL     1       7.246  -0.375   0.460  1.00  0.00     0.036 C 
ENDBRANCH  17  18
ENDBRANCH  15  16
ENDBRANCH  14  15
BRANCH  14  21
HETATM   21  C8  UNL     1       1.670  -1.133   0.981  1.00  0.00     0.172 C 
BRANCH  21  22
HETATM   22  O1  UNL     1       0.660  -1.482   1.869  1.00  0.00    -0.400 OA
HETATM   23  H13 UNL     1       1.079  -1.641   2.758  1.00  0.00     0.209 HD
ENDBRANCH  21  22
ENDBRANCH  14  21
ENDBRANCH   1  14
BRANCH   7  24
HETATM   24  C14 UNL     1      -5.349   0.075  -0.969  1.00  0.00    -0.022 C 
HETATM   25  C15 UNL     1      -5.135  -0.647  -2.068  1.00  0.00    -0.015 C 
HETATM   26  C16 UNL     1      -6.140  -1.383  -2.445  1.00  0.00     0.013 C 
HETATM   27  C17 UNL     1      -7.290  -0.577  -2.054  1.00  0.00     0.002 C 
HETATM   28  C18 UNL     1      -6.798   0.298  -1.163  1.00  0.00     0.012 C 
ENDBRANCH   7  24
TORSDOF 7
