REMARK  11 active torsions:
REMARK  status: ('A' for Active; 'I' for Inactive)
REMARK    1  A    between atoms: C2_2  and  N1_3 
REMARK    2  A    between atoms: N1_3  and  C3_4 
REMARK    3  A    between atoms: N1_3  and  C5_7 
REMARK    4  A    between atoms: C3_4  and  C4_5 
REMARK    5  A    between atoms: C4_5  and  O1_6 
REMARK    6  A    between atoms: C5_7  and  C6_8 
REMARK    7  A    between atoms: C6_8  and  O2_9 
REMARK    8  A    between atoms: O2_9  and  C7_10 
REMARK    9  A    between atoms: C10_13  and  N2_14 
REMARK   10  A    between atoms: N2_14  and  C11_15 
REMARK   11  A    between atoms: C20_28  and  O3_29 
ROOT
HETATM    1  C7  UNL     1      -0.801  -1.445   0.788  1.00  0.00     0.103 A 
HETATM    2  C8  UNL     1       0.409  -0.823   0.598  1.00  0.00     0.057 A 
HETATM    3  C9  UNL     1       1.516  -1.347  -0.021  1.00  0.00     0.042 A 
HETATM    4  C10 UNL     1       2.674  -0.618  -0.150  1.00  0.00     0.142 A 
HETATM    5  N3  UNL     1       3.660  -1.256  -0.771  1.00  0.00    -0.224 NA
HETATM    6  C17 UNL     1       3.563  -2.503  -1.242  1.00  0.00     0.236 A 
HETATM    7  N4  UNL     1       2.411  -3.228  -1.115  1.00  0.00    -0.241 NA
HETATM    8  C18 UNL     1       1.371  -2.632  -0.491  1.00  0.00     0.075 A 
HETATM    9  C19 UNL     1       0.206  -3.353  -0.356  1.00  0.00     0.072 A 
HETATM   10  C20 UNL     1      -0.880  -2.750   0.287  1.00  0.00     0.103 A 
ENDROOT
BRANCH   1  11
HETATM   11  O2  UNL     1      -1.980  -1.100   1.357  1.00  0.00    -0.347 OA
BRANCH  11  12
HETATM   12  C6  UNL     1      -2.335   0.105   1.949  1.00  0.00     0.195 C 
BRANCH  12  13
HETATM   13  C5  UNL     1      -2.337   1.309   1.070  1.00  0.00     0.149 C 
BRANCH  13  14
HETATM   14  N1  UNL     1      -3.281   1.131  -0.043  1.00  0.00    -0.387 N 
BRANCH  14  15
HETATM   15  C2  UNL     1      -2.648   1.009  -1.325  1.00  0.00     0.075 C 
HETATM   16  C1  UNL     1      -1.799   1.999  -1.598  1.00  0.00     0.029 C 
ENDBRANCH  14  15
BRANCH  14  17
HETATM   17  C3  UNL     1      -4.675   1.103   0.299  1.00  0.00     0.148 C 
BRANCH  17  18
HETATM   18  C4  UNL     1      -5.551   0.912  -0.940  1.00  0.00     0.183 C 
BRANCH  18  19
HETATM   19  O1  UNL     1      -5.180  -0.298  -1.509  1.00  0.00    -0.399 OA
HETATM   20  H8  UNL     1      -5.896  -0.535  -2.165  1.00  0.00     0.209 HD
ENDBRANCH  18  19
ENDBRANCH  17  18
ENDBRANCH  14  17
ENDBRANCH  13  14
ENDBRANCH  12  13
ENDBRANCH  11  12
ENDBRANCH   1  11
BRANCH  10  21
HETATM   21  O3  UNL     1      -2.011  -3.583   0.364  1.00  0.00    -0.353 OA
HETATM   22  C21 UNL     1      -2.029  -4.875  -0.153  1.00  0.00     0.210 C 
ENDBRANCH  10  21
BRANCH   4  23
HETATM   23  N2  UNL     1       2.795   0.698   0.357  1.00  0.00    -0.340 N 
HETATM   24  H14 UNL     1       2.032   1.177   0.874  1.00  0.00     0.167 HD
BRANCH  23  25
HETATM   25  C11 UNL     1       3.923   1.547   0.250  1.00  0.00     0.035 A 
HETATM   26  C12 UNL     1       4.961   1.349  -0.627  1.00  0.00     0.032 A 
HETATM   27  C13 UNL     1       6.075   2.151  -0.739  1.00  0.00     0.046 A 
HETATM   28  C14 UNL     1       6.192   3.251   0.081  1.00  0.00     0.138 A 
HETATM   29  F1  UNL     1       7.259   4.078   0.024  1.00  0.00    -0.204 F 
HETATM   30  C15 UNL     1       5.187   3.506   0.982  1.00  0.00     0.074 A 
HETATM   31 CL1  UNL     1       5.285   4.894   2.053  1.00  0.00    -0.081 Cl
HETATM   32  C16 UNL     1       4.104   2.662   1.037  1.00  0.00     0.056 A 
ENDBRANCH  23  25
ENDBRANCH   4  23
TORSDOF 11
