REMARK  7 active torsions:
REMARK  status: ('A' for Active; 'I' for Inactive)
REMARK    1  A    between atoms: C6_8  and  N3_9 
REMARK    2  A    between atoms: N3_9  and  C7_10 
REMARK    3  A    between atoms: C15_20  and  O1_21 
REMARK    4  A    between atoms: O1_21  and  C16_22 
REMARK    5  A    between atoms: C16_22  and  C17_23 
REMARK    6  A    between atoms: C17_23  and  C18_24 
REMARK    7  A    between atoms: C21_29  and  O3_30 
ROOT
HETATM    1  C1  UNL     1      -1.158  -1.406   3.445  1.00  0.00     0.051 C 
HETATM    2  C2  UNL     1      -0.128  -1.510   2.380  1.00  0.00    -0.026 A 
HETATM    3  C3  UNL     1       0.697  -2.606   2.391  1.00  0.00     0.042 A 
HETATM    4  C4  UNL     1       1.653  -2.724   1.415  1.00  0.00     0.072 A 
HETATM    5  N1  UNL     1       2.474  -3.797   1.407  1.00  0.00    -0.241 NA
HETATM    6  C5  UNL     1       3.423  -3.943   0.458  1.00  0.00     0.236 A 
HETATM    7  N2  UNL     1       3.590  -3.029  -0.515  1.00  0.00    -0.224 NA
HETATM    8  C6  UNL     1       2.816  -1.926  -0.584  1.00  0.00     0.142 A 
HETATM    9  C13 UNL     1       1.855  -1.786   0.386  1.00  0.00     0.041 A 
HETATM   10  C14 UNL     1       0.968  -0.736   0.483  1.00  0.00     0.055 A 
HETATM   11  C15 UNL     1      -0.023  -0.522   1.414  1.00  0.00     0.075 A 
ENDROOT
BRANCH  11  12
HETATM   12  O1  UNL     1      -0.791   0.515   1.394  1.00  0.00    -0.350 OA
BRANCH  12  13
HETATM   13  C16 UNL     1      -1.331   1.650   1.029  1.00  0.00     0.178 C 
BRANCH  13  14
HETATM   14  C17 UNL     1      -1.959   1.739  -0.347  1.00  0.00     0.056 C 
BRANCH  14  15
HETATM   15  C18 UNL     1      -3.081   0.789  -0.595  1.00  0.00     0.133 C 
HETATM   16  N4  UNL     1      -3.648   0.900  -1.896  1.00  0.00    -0.410 N 
HETATM   17  C19 UNL     1      -5.045   1.160  -1.982  1.00  0.00     0.140 C 
HETATM   18  H16 UNL     1      -3.114   1.451  -2.585  1.00  0.00     0.153 HD
HETATM   19  C20 UNL     1      -5.850   0.472  -0.921  1.00  0.00     0.190 C 
HETATM   20  O2  UNL     1      -5.085  -0.187   0.032  1.00  0.00    -0.358 OA
HETATM   21  C21 UNL     1      -4.128   0.766   0.456  1.00  0.00     0.279 C 
BRANCH  21  22
HETATM   22  O3  UNL     1      -4.799   1.948   0.652  1.00  0.00    -0.369 OA
HETATM   23  H22 UNL     1      -5.448   1.837   1.375  1.00  0.00     0.212 HD
ENDBRANCH  21  22
ENDBRANCH  14  15
ENDBRANCH  13  14
ENDBRANCH  12  13
ENDBRANCH  11  12
BRANCH   8  24
HETATM   24  N3  UNL     1       2.811  -0.857  -1.521  1.00  0.00    -0.340 N 
HETATM   25  H6  UNL     1       2.051  -0.658  -2.219  1.00  0.00     0.167 HD
BRANCH  24  26
HETATM   26  C7  UNL     1       3.924   0.034  -1.521  1.00  0.00     0.035 A 
HETATM   27  C8  UNL     1       5.020  -0.333  -0.731  1.00  0.00     0.032 A 
HETATM   28  C9  UNL     1       6.135   0.510  -0.704  1.00  0.00     0.046 A 
HETATM   29  C10 UNL     1       6.172   1.686  -1.436  1.00  0.00     0.138 A 
HETATM   30  F1  UNL     1       7.298   2.437  -1.347  1.00  0.00    -0.204 F 
HETATM   31  C11 UNL     1       5.067   1.986  -2.187  1.00  0.00     0.074 A 
HETATM   32 CL1  UNL     1       5.134   3.473  -3.109  1.00  0.00    -0.081 Cl
HETATM   33  C12 UNL     1       3.935   1.204  -2.262  1.00  0.00     0.056 A 
ENDBRANCH  24  26
ENDBRANCH   8  24
TORSDOF 7
