REMARK  8 active torsions:
REMARK  status: ('A' for Active; 'I' for Inactive)
REMARK    1  A    between atoms: N1_7  and  C6_8 
REMARK    2  A    between atoms: C6_8  and  C7_9 
REMARK    3  A    between atoms: C7_9  and  C8_10 
REMARK    4  A    between atoms: C8_10  and  O2_11 
REMARK    5  A    between atoms: O2_11  and  C9_12 
REMARK    6  A    between atoms: C10_13  and  O3_14 
REMARK    7  A    between atoms: C14_18  and  N2_19 
REMARK    8  A    between atoms: N2_19  and  C15_20 
ROOT
HETATM    1  C9  UNL     1      -1.392   1.560   0.286  1.00  0.00     0.230 C 
HETATM    2  C10 UNL     1      -1.209   2.534  -0.898  1.00  0.00     0.101 C 
HETATM    3  C12 UNL     1      -2.262   2.051  -1.618  1.00  0.00     0.046 C 
HETATM    4  C13 UNL     1      -1.955   0.537  -1.659  1.00  0.00     0.118 C 
HETATM    5  C14 UNL     1      -2.466   0.591  -0.167  1.00  0.00     0.164 C 
HETATM    6  N3  UNL     1      -3.800   1.031  -0.335  1.00  0.00    -0.249 NA
HETATM    7  C21 UNL     1      -4.405   1.700  -1.271  1.00  0.00     0.204 C 
HETATM    8  N4  UNL     1      -3.537   2.456  -2.224  1.00  0.00    -0.352 N 
HETATM    9  H26 UNL     1      -3.389   3.097  -3.023  1.00  0.00     0.166 HD
ENDROOT
BRANCH   1  10
HETATM   10  O2  UNL     1      -0.236   0.842   0.471  1.00  0.00    -0.375 OA
BRANCH  10  11
HETATM   11  C8  UNL     1       0.369   0.979   1.693  1.00  0.00     0.170 C 
BRANCH  11  12
HETATM   12  C7  UNL     1       1.617   0.103   1.674  1.00  0.00     0.046 C 
BRANCH  12  13
HETATM   13  C6  UNL     1       2.568   0.534   0.578  1.00  0.00     0.125 C 
BRANCH  13  14
HETATM   14  N1  UNL     1       3.762  -0.253   0.508  1.00  0.00    -0.381 N 
HETATM   15  C2  UNL     1       5.116   0.142   0.806  1.00  0.00     0.021 C 
HETATM   16  C1  UNL     1       5.244   1.416   1.135  1.00  0.00     0.040 C 
HETATM   17  C3  UNL     1       6.195  -0.907   0.711  1.00  0.00     0.223 C 
HETATM   18  O1  UNL     1       5.850  -1.671  -0.386  1.00  0.00    -0.384 OA
HETATM   19  C4  UNL     1       4.710  -2.422  -0.200  1.00  0.00     0.187 C 
HETATM   20  C5  UNL     1       3.482  -1.624   0.067  1.00  0.00     0.149 C 
ENDBRANCH  13  14
ENDBRANCH  12  13
ENDBRANCH  11  12
ENDBRANCH  10  11
ENDBRANCH   1  10
BRANCH   2  21
HETATM   21  O3  UNL     1      -0.597   3.603  -1.634  1.00  0.00    -0.355 OA
HETATM   22  C11 UNL     1      -1.025   4.898  -1.220  1.00  0.00     0.209 C 
ENDBRANCH   2  21
BRANCH   5  23
HETATM   23  N2  UNL     1      -2.314  -0.683   0.434  1.00  0.00    -0.359 N 
HETATM   24  H21 UNL     1      -1.516  -0.757   1.124  1.00  0.00     0.162 HD
BRANCH  23  25
HETATM   25  C15 UNL     1      -3.027  -1.880   0.291  1.00  0.00     0.031 A 
HETATM   26  C16 UNL     1      -2.716  -3.053   0.995  1.00  0.00     0.032 A 
HETATM   27  C17 UNL     1      -3.463  -4.192   0.798  1.00  0.00     0.046 A 
HETATM   28  C18 UNL     1      -4.527  -4.249  -0.071  1.00  0.00     0.138 A 
HETATM   29  F1  UNL     1      -5.179  -5.423  -0.176  1.00  0.00    -0.204 F 
HETATM   30  C19 UNL     1      -4.850  -3.115  -0.769  1.00  0.00     0.074 A 
HETATM   31 CL1  UNL     1      -6.207  -3.217  -1.868  1.00  0.00    -0.081 Cl
HETATM   32  C20 UNL     1      -4.096  -1.978  -0.567  1.00  0.00     0.056 A 
ENDBRANCH  23  25
ENDBRANCH   5  23
TORSDOF 8
