REMARK  10 active torsions:
REMARK  status: ('A' for Active; 'I' for Inactive)
REMARK    1  A    between atoms: O1_2  and  C2_3 
REMARK    2  A    between atoms: C6_9  and  N3_10 
REMARK    3  A    between atoms: N3_10  and  C7_11 
REMARK    4  A    between atoms: C7_11  and  C8_12 
REMARK    5  A    between atoms: C9_13  and  C10_14 
REMARK    6  A    between atoms: C10_14  and  C11_15 
REMARK    7  A    between atoms: C14_19  and  O2_20 
REMARK    8  A    between atoms: O2_20  and  C15_21 
REMARK    9  A    between atoms: C15_21  and  C16_22 
REMARK   10  A    between atoms: C16_22  and  N4_23 
ROOT
HETATM    1  C2  UNL     1      -0.988  -2.671  -1.375  1.00  0.00     0.103 A 
HETATM    2  C3  UNL     1       0.360  -2.892  -1.683  1.00  0.00     0.072 A 
HETATM    3  C4  UNL     1       1.346  -2.192  -0.987  1.00  0.00     0.075 A 
HETATM    4  N1  UNL     1       2.638  -2.409  -1.288  1.00  0.00    -0.241 NA
HETATM    5  C5  UNL     1       3.578  -1.713  -0.592  1.00  0.00     0.235 A 
HETATM    6  N2  UNL     1       3.259  -0.816   0.386  1.00  0.00    -0.224 NA
HETATM    7  C6  UNL     1       1.978  -0.572   0.714  1.00  0.00     0.137 A 
HETATM    8  C12 UNL     1       1.038  -1.284   0.001  1.00  0.00     0.041 A 
HETATM    9  C13 UNL     1      -0.287  -1.114   0.254  1.00  0.00     0.057 A 
HETATM   10  C14 UNL     1      -1.339  -1.752  -0.372  1.00  0.00     0.103 A 
ENDROOT
BRANCH   7  11
HETATM   11  N3  UNL     1       1.668   0.364   1.737  1.00  0.00    -0.371 N 
HETATM   12  H6  UNL     1       0.721   0.626   2.070  1.00  0.00     0.161 HD
BRANCH  11  13
HETATM   13  C7  UNL     1       2.751   1.050   2.413  1.00  0.00     0.148 C 
BRANCH  13  14
HETATM   14  C8  UNL     1       3.501   1.822   1.374  1.00  0.00    -0.011 C 
HETATM   15  C9  UNL     1       4.783   1.708   1.032  1.00  0.00    -0.027 C 
BRANCH  15  16
HETATM   16  C10 UNL     1       5.817   2.237   0.136  1.00  0.00     0.058 C 
BRANCH  16  17
HETATM   17  C11 UNL     1       6.424   1.227  -0.783  1.00  0.00     0.225 C 
HETATM   18  F1  UNL     1       5.444   0.686  -1.587  1.00  0.00    -0.255 F 
ENDBRANCH  16  17
ENDBRANCH  15  16
ENDBRANCH  13  14
ENDBRANCH  11  13
ENDBRANCH   7  11
BRANCH  10  19
HETATM   19  O2  UNL     1      -2.668  -1.668  -0.212  1.00  0.00    -0.347 OA
BRANCH  19  20
HETATM   20  C15 UNL     1      -3.517  -0.950   0.585  1.00  0.00     0.206 C 
BRANCH  20  21
HETATM   21  C16 UNL     1      -3.478   0.548   0.447  1.00  0.00     0.301 C 
BRANCH  21  22
HETATM   22  N4  UNL     1      -4.416   1.227   1.337  1.00  0.00     0.115 N 
HETATM   23  C17 UNL     1      -4.290   2.677   1.185  1.00  0.00     0.301 C 
HETATM   24  C18 UNL     1      -5.234   2.952   0.059  1.00  0.00     0.200 C 
HETATM   25  O3  UNL     1      -6.124   1.899  -0.005  1.00  0.00    -0.361 OA
HETATM   26  C19 UNL     1      -5.790   1.018   1.017  1.00  0.00     0.440 C 
ENDBRANCH  21  22
ENDBRANCH  20  21
ENDBRANCH  19  20
ENDBRANCH  10  19
BRANCH   1  27
HETATM   27  O1  UNL     1      -1.928  -3.398  -2.103  1.00  0.00    -0.353 OA
HETATM   28  C1  UNL     1      -1.434  -4.289  -3.082  1.00  0.00     0.210 C 
ENDBRANCH   1  27
TORSDOF 10
