REMARK  4 active torsions:
REMARK  status: ('A' for Active; 'I' for Inactive)
REMARK    1  A    between atoms: C2_2  and  C3_3 
REMARK       I    between atoms: C3_3  and  N1_5 
REMARK    2  A    between atoms: N1_5  and  C4_6 
REMARK    3  A    between atoms: C8_10  and  C9_11 
REMARK    4  A    between atoms: C10_12  and  C11_13 
ROOT
HETATM    1  C9  UNL     1      -1.291   0.976   0.090  1.00  0.00     0.025 A 
HETATM    2  C10 UNL     1      -2.170   0.731  -0.932  1.00  0.00     0.100 A 
HETATM    3  O2  UNL     1      -2.660   1.852  -1.401  1.00  0.00    -0.289 OA
HETATM    4  C17 UNL     1      -2.161   2.851  -0.751  1.00  0.00     0.183 A 
HETATM    5  N2  UNL     1      -2.376   4.184  -0.889  1.00  0.00    -0.217 NA
HETATM    6  C18 UNL     1      -1.716   5.042  -0.067  1.00  0.00     0.235 A 
HETATM    7  N3  UNL     1      -0.867   4.625   0.869  1.00  0.00    -0.253 NA
HETATM    8  C19 UNL     1      -0.663   3.302   0.995  1.00  0.00     0.134 A 
HETATM    9  C20 UNL     1      -1.282   2.350   0.212  1.00  0.00     0.049 A 
ENDROOT
BRANCH   1  10
HETATM   10  C8  UNL     1      -0.497   0.081   0.922  1.00  0.00    -0.020 A 
HETATM   11  C7  UNL     1      -0.862  -0.881   1.839  1.00  0.00     0.012 A 
HETATM   12  C6  UNL     1       0.102  -1.606   2.501  1.00  0.00     0.003 A 
HETATM   13  C5  UNL     1       1.450  -1.411   2.287  1.00  0.00     0.029 A 
HETATM   14  C4  UNL     1       1.828  -0.448   1.369  1.00  0.00     0.035 A 
HETATM   15  C21 UNL     1       0.868   0.296   0.689  1.00  0.00     0.042 A 
BRANCH  14  16
HETATM   16  N1  UNL     1       3.239  -0.253   1.154  1.00  0.00    -0.324 N 
HETATM   17  C3  UNL     1       3.754  -1.076   0.110  1.00  0.00     0.244 C 
HETATM   18  O1  UNL     1       3.045  -1.881  -0.546  1.00  0.00    -0.268 OA
HETATM   19  H4  UNL     1       3.793   0.422   1.716  1.00  0.00     0.169 HD
BRANCH  17  20
HETATM   20  C2  UNL     1       5.198  -0.948  -0.186  1.00  0.00     0.064 C 
HETATM   21  C1  UNL     1       6.025  -0.132   0.447  1.00  0.00     0.017 C 
ENDBRANCH  17  20
ENDBRANCH  14  16
ENDBRANCH   1  10
BRANCH   2  22
HETATM   22  C11 UNL     1      -2.516  -0.584  -1.433  1.00  0.00    -0.001 A 
HETATM   23  C12 UNL     1      -3.180  -1.632  -0.830  1.00  0.00     0.014 A 
HETATM   24  C13 UNL     1      -3.385  -2.803  -1.532  1.00  0.00     0.001 A 
HETATM   25  C14 UNL     1      -2.954  -2.985  -2.830  1.00  0.00     0.000 A 
HETATM   26  C15 UNL     1      -2.293  -1.943  -3.432  1.00  0.00     0.001 A 
HETATM   27  C16 UNL     1      -2.074  -0.752  -2.744  1.00  0.00     0.014 A 
ENDBRANCH   2  22
TORSDOF 4
