REMARK  5 active torsions:
REMARK  status: ('A' for Active; 'I' for Inactive)
REMARK    1  A    between atoms: C2_2  and  C3_3 
REMARK    2  A    between atoms: C4_4  and  C5_5 
REMARK    3  A    between atoms: C5_5  and  C6_6 
REMARK    4  A    between atoms: C9_13  and  N4_14 
REMARK    5  A    between atoms: N4_14  and  C10_15 
ROOT
HETATM    1  C6  UNL     1       0.738   1.674  -1.485  1.00  0.00     0.133 C 
HETATM    2  N1  UNL     1       0.374   2.188  -2.650  1.00  0.00    -0.214 NA
HETATM    3  C7  UNL     1      -1.053   2.110  -2.918  1.00  0.00     0.171 C 
HETATM    4  N2  UNL     1      -1.640   2.983  -3.669  1.00  0.00    -0.151 NA
HETATM    5  N3  UNL     1      -3.012   2.788  -3.835  1.00  0.00    -0.248 N 
HETATM    6  S1  UNL     1      -3.425   2.004  -2.243  1.00  0.00    -0.016 SA
HETATM    7  C8  UNL     1      -1.895   1.021  -2.286  1.00  0.00     0.213 C 
HETATM    8  C9  UNL     1      -1.354   0.582  -1.029  1.00  0.00     0.129 C 
HETATM    9  N5  UNL     1      -0.132   0.880  -0.667  1.00  0.00    -0.218 NA
HETATM   10  H8  UNL     1      -3.509   3.082  -4.721  1.00  0.00     0.197 HD
ENDROOT
BRANCH   8  11
HETATM   11  N4  UNL     1      -2.237  -0.182  -0.237  1.00  0.00    -0.343 N 
HETATM   12  H10 UNL     1      -3.218  -0.414  -0.498  1.00  0.00     0.167 HD
BRANCH  11  13
HETATM   13  C10 UNL     1      -1.781  -0.695   1.034  1.00  0.00     0.035 A 
HETATM   14  C11 UNL     1      -1.181  -1.940   1.112  1.00  0.00     0.029 A 
HETATM   15  C12 UNL     1      -0.757  -2.399   2.343  1.00  0.00     0.004 A 
HETATM   16  C13 UNL     1      -0.909  -1.658   3.510  1.00  0.00     0.024 A 
HETATM   17  C14 UNL     1      -1.515  -0.404   3.425  1.00  0.00     0.036 A 
HETATM   18 CL1  UNL     1      -1.688   0.492   4.901  1.00  0.00    -0.084 Cl
HETATM   19  C15 UNL     1      -1.935   0.048   2.192  1.00  0.00     0.053 A 
ENDBRANCH  11  13
ENDBRANCH   8  11
BRANCH   1  20
HETATM   20  C5  UNL     1       2.107   1.606  -0.885  1.00  0.00     0.108 C 
BRANCH  20  21
HETATM   21  C4  UNL     1       2.619   0.211  -0.833  1.00  0.00    -0.019 C 
HETATM   22  C3  UNL     1       2.955  -0.408   0.290  1.00  0.00    -0.004 C 
BRANCH  22  23
HETATM   23  C2  UNL     1       3.463  -1.770   0.431  1.00  0.00    -0.011 C 
HETATM   24  C1  UNL     1       3.771  -2.295   1.613  1.00  0.00     0.011 C 
ENDBRANCH  22  23
ENDBRANCH  20  21
ENDBRANCH   1  20
TORSDOF 5
