REMARK  7 active torsions:
REMARK  status: ('A' for Active; 'I' for Inactive)
REMARK    1  A    between atoms: O1_2  and  C2_3 
REMARK    2  A    between atoms: C6_9  and  N3_10 
REMARK    3  A    between atoms: N3_10  and  C7_11 
REMARK    4  A    between atoms: C15_21  and  O2_22 
REMARK    5  A    between atoms: O2_22  and  C16_23 
REMARK    6  A    between atoms: C16_23  and  C17_24 
REMARK    7  A    between atoms: C17_24  and  C18_25 
ROOT
HETATM    1  C2  UNL     1       0.123   2.882  -2.109  1.00  0.00     0.103 A 
HETATM    2  C3  UNL     1      -1.190   3.366  -2.093  1.00  0.00     0.072 A 
HETATM    3  C4  UNL     1      -2.208   2.598  -1.543  1.00  0.00     0.075 A 
HETATM    4  N1  UNL     1      -3.453   3.105  -1.550  1.00  0.00    -0.241 NA
HETATM    5  C5  UNL     1      -4.480   2.412  -1.033  1.00  0.00     0.236 A 
HETATM    6  N2  UNL     1      -4.206   1.211  -0.519  1.00  0.00    -0.224 NA
HETATM    7  C6  UNL     1      -3.003   0.633  -0.471  1.00  0.00     0.142 A 
HETATM    8  C13 UNL     1      -1.966   1.354  -1.003  1.00  0.00     0.042 A 
HETATM    9  C14 UNL     1      -0.665   0.939  -1.050  1.00  0.00     0.057 A 
HETATM   10  C15 UNL     1       0.411   1.614  -1.566  1.00  0.00     0.103 A 
ENDROOT
BRANCH   7  11
HETATM   11  N3  UNL     1      -2.746  -0.644   0.082  1.00  0.00    -0.340 N 
HETATM   12  H6  UNL     1      -1.792  -1.049   0.091  1.00  0.00     0.167 HD
BRANCH  11  13
HETATM   13  C7  UNL     1      -3.629  -1.571   0.689  1.00  0.00     0.035 A 
HETATM   14  C8  UNL     1      -3.270  -2.826   1.179  1.00  0.00     0.032 A 
HETATM   15  C9  UNL     1      -4.160  -3.692   1.762  1.00  0.00     0.046 A 
HETATM   16  C10 UNL     1      -5.489  -3.360   1.897  1.00  0.00     0.138 A 
HETATM   17  F1  UNL     1      -6.263  -4.295   2.485  1.00  0.00    -0.204 F 
HETATM   18  C11 UNL     1      -5.894  -2.129   1.427  1.00  0.00     0.074 A 
HETATM   19 CL1  UNL     1      -7.592  -1.763   1.626  1.00  0.00    -0.081 Cl
HETATM   20  C12 UNL     1      -4.967  -1.291   0.849  1.00  0.00     0.056 A 
ENDBRANCH  11  13
ENDBRANCH   7  11
BRANCH  10  21
HETATM   21  O2  UNL     1       1.723   1.344  -1.680  1.00  0.00    -0.348 OA
BRANCH  21  22
HETATM   22  C16 UNL     1       2.500   0.269  -1.288  1.00  0.00     0.176 C 
BRANCH  22  23
HETATM   23  C17 UNL     1       2.501   0.113   0.192  1.00  0.00     0.031 C 
BRANCH  23  24
HETATM   24  C18 UNL     1       3.347  -1.056   0.658  1.00  0.00    -0.009 C 
HETATM   25  C19 UNL     1       3.243  -1.077   2.172  1.00  0.00     0.031 C 
HETATM   26  C20 UNL     1       4.117  -2.159   2.786  1.00  0.00     0.168 C 
HETATM   27  O3  UNL     1       5.424  -1.896   2.407  1.00  0.00    -0.391 OA
HETATM   28  C21 UNL     1       5.574  -1.980   1.034  1.00  0.00     0.168 C 
HETATM   29  C22 UNL     1       4.791  -0.915   0.292  1.00  0.00     0.031 C 
ENDBRANCH  23  24
ENDBRANCH  22  23
ENDBRANCH  21  22
ENDBRANCH  10  21
BRANCH   1  30
HETATM   30  O1  UNL     1       1.105   3.713  -2.683  1.00  0.00    -0.353 OA
HETATM   31  C1  UNL     1       0.667   4.955  -3.185  1.00  0.00     0.210 C 
ENDBRANCH   1  30
TORSDOF 7
