REMARK  3 active torsions:
REMARK  status: ('A' for Active; 'I' for Inactive)
REMARK    1  A    between atoms: C2_2  and  C3_3 
REMARK    2  A    between atoms: C6_8  and  N3_9 
REMARK    3  A    between atoms: N3_9  and  C7_10 
ROOT
HETATM    1  C3  UNL     1       2.670  -0.977  -0.723  1.00  0.00     0.117 C 
HETATM    2  C4  UNL     1       2.403  -0.982   0.735  1.00  0.00     0.058 C 
HETATM    3  N1  UNL     1       1.628  -1.041   1.729  1.00  0.00    -0.245 NA
HETATM    4  C5  UNL     1       0.214  -1.171   1.627  1.00  0.00     0.235 C 
HETATM    5  N2  UNL     1      -0.128  -0.367   0.682  1.00  0.00    -0.222 NA
HETATM    6  C6  UNL     1      -1.395  -0.106   0.174  1.00  0.00     0.154 C 
HETATM    7  C13 UNL     1      -1.536   1.183  -0.128  1.00  0.00     0.077 C 
HETATM    8  C14 UNL     1      -2.734   1.861  -0.692  1.00  0.00     0.228 C 
HETATM    9  O1  UNL     1      -3.174   2.893   0.147  1.00  0.00    -0.384 OA
HETATM   10  C15 UNL     1      -2.253   3.907   0.209  1.00  0.00     0.187 C 
HETATM   11  C16 UNL     1      -1.003   3.331   0.866  1.00  0.00     0.149 C 
HETATM   12  N4  UNL     1      -0.577   2.248  -0.014  1.00  0.00    -0.377 N 
HETATM   13  C17 UNL     1       0.714   2.322  -0.682  1.00  0.00     0.125 C 
HETATM   14  C18 UNL     1       1.832   2.626   0.274  1.00  0.00     0.046 C 
HETATM   15  C19 UNL     1       3.146   2.616  -0.498  1.00  0.00     0.176 C 
HETATM   16  O2  UNL     1       3.235   1.302  -1.045  1.00  0.00    -0.354 OA
HETATM   17  C20 UNL     1       3.469   0.205  -0.256  1.00  0.00     0.068 C 
HETATM   18  C21 UNL     1       3.833  -0.722   0.619  1.00  0.00    -0.006 C 
HETATM   19  C22 UNL     1       5.173  -1.081   1.083  1.00  0.00     0.053 C 
ENDROOT
BRANCH   6  20
HETATM   20  N3  UNL     1      -2.459  -0.968  -0.061  1.00  0.00    -0.339 N 
HETATM   21  H6  UNL     1      -1.933  -1.275  -0.939  1.00  0.00     0.167 HD
BRANCH  20  22
HETATM   22  C7  UNL     1      -3.536  -1.819  -0.270  1.00  0.00     0.035 A 
HETATM   23  C8  UNL     1      -4.620  -1.590  -1.074  1.00  0.00     0.032 A 
HETATM   24  C9  UNL     1      -5.612  -2.526  -1.170  1.00  0.00     0.046 A 
HETATM   25  C10 UNL     1      -5.428  -3.665  -0.423  1.00  0.00     0.138 A 
HETATM   26  F1  UNL     1      -6.417  -4.608  -0.521  1.00  0.00    -0.204 F 
HETATM   27  C11 UNL     1      -4.389  -4.004   0.411  1.00  0.00     0.074 A 
HETATM   28 CL1  UNL     1      -4.329  -5.512   1.288  1.00  0.00    -0.081 Cl
HETATM   29  C12 UNL     1      -3.417  -2.994   0.455  1.00  0.00     0.056 A 
ENDBRANCH  20  22
ENDBRANCH   6  20
BRANCH   1  30
HETATM   30  C2  UNL     1       3.446  -2.082  -1.243  1.00  0.00    -0.019 C 
HETATM   31  C1  UNL     1       4.659  -2.431  -1.477  1.00  0.00     0.008 C 
ENDBRANCH   1  30
TORSDOF 3
