REMARK  2 active torsions:
REMARK  status: ('A' for Active; 'I' for Inactive)
REMARK    1  A    between atoms: C4_6  and  C5_7 
REMARK    2  A    between atoms: N2_12  and  C10_13 
ROOT
HETATM    1  C1  UNL     1      -3.190   2.586   0.205  1.00  0.00     0.153 C 
HETATM    2  N1  UNL     1      -2.128   1.588   0.213  1.00  0.00    -0.341 N 
HETATM    3  C2  UNL     1      -1.218   1.178   1.179  1.00  0.00     0.237 C 
HETATM    4  O1  UNL     1      -0.697   1.799   2.085  1.00  0.00    -0.272 OA
HETATM    5  C3  UNL     1      -1.355  -0.183   0.468  1.00  0.00     0.107 A 
HETATM    6  C4  UNL     1      -0.189  -1.203   0.462  1.00  0.00    -0.019 C 
HETATM    7  C10 UNL     1       0.035   0.728  -0.908  1.00  0.00     0.116 A 
HETATM    8  C11 UNL     1       0.904  -0.074  -1.936  1.00  0.00     0.204 C 
HETATM    9  O2  UNL     1       1.342  -1.312  -1.633  1.00  0.00    -0.387 OA
HETATM   10  C12 UNL     1       0.461  -2.447  -1.740  1.00  0.00     0.184 C 
HETATM   11  C13 UNL     1      -0.701  -1.853  -0.962  1.00  0.00     0.032 A 
HETATM   12  C14 UNL     1      -1.962  -1.435  -0.804  1.00  0.00     0.002 A 
HETATM   13  C15 UNL     1      -3.386  -1.066  -0.615  1.00  0.00     0.016 A 
HETATM   14  C16 UNL     1      -2.508  -0.071  -0.738  1.00  0.00     0.027 A 
HETATM   15  C17 UNL     1      -1.199   0.553  -0.242  1.00  0.00     0.097 A 
HETATM   16  N3  UNL     1      -0.785  -0.357  -1.011  1.00  0.00     0.000 N 
ENDROOT
BRANCH   7  17
HETATM   17  N2  UNL     1       1.108   0.286   0.283  1.00  0.00    -0.340 N 
HETATM   18  C5  UNL     1       1.063  -1.079   1.216  1.00  0.00     0.036 A 
HETATM   19  C6  UNL     1       1.995  -1.294   1.998  1.00  0.00     0.007 A 
HETATM   20  C7  UNL     1       3.136  -0.346   2.078  1.00  0.00     0.058 A 
HETATM   21  C8  UNL     1       3.052   0.817   1.215  1.00  0.00    -0.006 A 
HETATM   22  C9  UNL     1       2.217   1.302   0.318  1.00  0.00     0.089 A 
ENDBRANCH   7  17
TORSDOF 2
