REMARK  1 active torsions:
REMARK  status: ('A' for Active; 'I' for Inactive)
REMARK    1  A    between atoms: C2_2  and  C3_3 
ROOT
HETATM    1  C3  UNL     1      -0.129  -1.213  -0.543  1.00  0.00     0.170 C 
HETATM    2  C4  UNL     1       1.006  -0.792  -1.399  1.00  0.00     0.157 C 
HETATM    3  N1  UNL     1       2.117  -0.240  -0.661  1.00  0.00    -0.373 N 
HETATM    4  C5  UNL     1       1.597   1.047  -0.194  1.00  0.00     0.162 C 
HETATM    5  C6  UNL     1       2.555   1.612   0.779  1.00  0.00    -0.023 C 
HETATM    6  C7  UNL     1       2.126   2.643   1.475  1.00  0.00     0.084 C 
HETATM    7  C8  UNL     1       0.880   3.384   1.510  1.00  0.00     0.245 C 
HETATM    8  O1  UNL     1       0.366   4.311   2.116  1.00  0.00    -0.268 OA
HETATM    9  N2  UNL     1      -0.276   3.265   0.773  1.00  0.00    -0.334 N 
HETATM   10  C9  UNL     1      -1.464   3.142   0.017  1.00  0.00     0.092 C 
HETATM   11  C10 UNL     1      -2.188   2.053   0.072  1.00  0.00     0.031 C 
HETATM   12  C11 UNL     1      -3.299   1.198  -0.268  1.00  0.00    -0.006 A 
HETATM   13  C12 UNL     1      -4.403   1.988  -0.284  1.00  0.00     0.014 A 
HETATM   14  C13 UNL     1      -5.634   1.478  -0.653  1.00  0.00     0.001 A 
HETATM   15  C14 UNL     1      -5.749   0.163  -1.006  1.00  0.00     0.002 A 
HETATM   16  C15 UNL     1      -4.588  -0.581  -0.964  1.00  0.00     0.032 A 
HETATM   17  C16 UNL     1      -3.331  -0.133  -0.605  1.00  0.00     0.067 A 
HETATM   18  N3  UNL     1      -2.393  -1.204  -0.652  1.00  0.00    -0.262 N 
HETATM   19  C17 UNL     1      -2.793  -2.216   0.341  1.00  0.00     0.186 C 
HETATM   20  O2  UNL     1      -1.248  -1.657  -1.271  1.00  0.00    -0.271 OA
HETATM   21  C18 UNL     1       3.734   0.810   0.696  1.00  0.00    -0.002 A 
HETATM   22  C19 UNL     1       4.971   0.922   1.268  1.00  0.00     0.014 A 
HETATM   23  C20 UNL     1       5.887  -0.061   0.965  1.00  0.00     0.001 A 
HETATM   24  C21 UNL     1       5.572  -1.126   0.112  1.00  0.00     0.002 A 
HETATM   25  C22 UNL     1       4.302  -1.230  -0.468  1.00  0.00     0.030 A 
HETATM   26  C23 UNL     1       3.431  -0.226  -0.132  1.00  0.00     0.041 A 
HETATM   27  H12 UNL     1      -0.058   2.722  -0.043  1.00  0.00     0.168 HD
ENDROOT
BRANCH   1  28
HETATM   28  C2  UNL     1       0.393  -2.343   0.366  1.00  0.00     0.032 C 
HETATM   29  C1  UNL     1       0.878  -3.543  -0.344  1.00  0.00     0.007 C 
ENDBRANCH   1  28
TORSDOF 1
