REMARK  9 active torsions:
REMARK  status: ('A' for Active; 'I' for Inactive)
REMARK    1  A    between atoms: N1_2  and  C3_4 
REMARK    2  A    between atoms: C3_4  and  C4_5 
REMARK    3  A    between atoms: C5_6  and  C6_7 
REMARK    4  A    between atoms: C6_7  and  C7_9 
REMARK    5  A    between atoms: C10_12  and  N2_13 
REMARK    6  A    between atoms: C10_12  and  N3_14 
REMARK    7  A    between atoms: N3_14  and  C11_15 
REMARK    8  A    between atoms: C20_27  and  O2_28 
REMARK    9  A    between atoms: O2_28  and  C21_29 
ROOT
HETATM    1  C7  UNL     1      -0.112   0.335   1.117  1.00  0.00     0.048 C 
HETATM    2  C8  UNL     1       1.005  -0.313   0.806  1.00  0.00     0.034 C 
HETATM    3  C9  UNL     1       2.437   0.025   0.765  1.00  0.00     0.020 C 
HETATM    4  C10 UNL     1       3.107  -1.059   0.418  1.00  0.00     0.090 C 
HETATM    5  C17 UNL     1       3.233   1.211   1.007  1.00  0.00     0.125 C 
HETATM    6  N4  UNL     1       2.945   2.216   1.763  1.00  0.00    -0.297 NA
HETATM    7  C18 UNL     1       1.933   2.708   2.631  1.00  0.00     0.178 C 
HETATM    8  C19 UNL     1       0.553   2.622   2.150  1.00  0.00     0.032 C 
HETATM    9  C20 UNL     1      -0.277   1.740   1.565  1.00  0.00     0.081 C 
ENDROOT
BRANCH   4  10
HETATM   10  N2  UNL     1       2.440  -2.285   0.154  1.00  0.00    -0.288 NA
HETATM   11  H12 UNL     1       2.212  -2.752  -0.757  1.00  0.00     0.125 HD
HETATM   12  H13 UNL     1       2.210  -2.756  -0.764  1.00  0.00     0.125 HD
ENDBRANCH   4  10
BRANCH   4  13
HETATM   13  N3  UNL     1       4.469  -1.389   0.207  1.00  0.00    -0.346 N 
HETATM   14  H14 UNL     1       5.006  -1.816   1.012  1.00  0.00     0.167 HD
BRANCH  13  15
HETATM   15  C11 UNL     1       5.457  -1.339  -0.814  1.00  0.00     0.035 A 
HETATM   16  C12 UNL     1       6.347  -0.339  -1.106  1.00  0.00     0.032 A 
HETATM   17  C13 UNL     1       7.238  -0.479  -2.149  1.00  0.00     0.046 A 
HETATM   18  C14 UNL     1       7.221  -1.657  -2.904  1.00  0.00     0.138 A 
HETATM   19  F1  UNL     1       8.123  -1.750  -3.928  1.00  0.00    -0.204 F 
HETATM   20  C15 UNL     1       6.329  -2.683  -2.627  1.00  0.00     0.074 A 
HETATM   21 CL1  UNL     1       6.378  -4.122  -3.626  1.00  0.00    -0.081 Cl
HETATM   22  C16 UNL     1       5.439  -2.505  -1.561  1.00  0.00     0.056 A 
ENDBRANCH  13  15
ENDBRANCH   4  13
BRANCH   1  23
HETATM   23  C6  UNL     1      -1.355  -0.363   1.028  1.00  0.00     0.184 C 
HETATM   24  O1  UNL     1      -2.402   0.261   1.325  1.00  0.00    -0.287 OA
BRANCH  23  25
HETATM   25  C5  UNL     1      -1.709  -1.696   0.655  1.00  0.00     0.053 C 
HETATM   26  C4  UNL     1      -2.911  -2.218   0.617  1.00  0.00     0.007 C 
BRANCH  26  27
HETATM   27  C3  UNL     1      -4.338  -1.910   0.856  1.00  0.00     0.299 C 
BRANCH  27  28
HETATM   28  N1  UNL     1      -5.171  -2.083  -0.321  1.00  0.00     0.083 N 
HETATM   29  C1  UNL     1      -6.547  -1.781  -0.072  1.00  0.00     0.309 C 
HETATM   30  C2  UNL     1      -4.991  -3.354  -0.948  1.00  0.00     0.309 C 
ENDBRANCH  27  28
ENDBRANCH  26  27
ENDBRANCH  23  25
ENDBRANCH   1  23
BRANCH   9  31
HETATM   31  O2  UNL     1      -1.574   2.225   1.314  1.00  0.00    -0.343 OA
BRANCH  31  32
HETATM   32  C21 UNL     1      -2.006   2.797   0.130  1.00  0.00     0.154 C 
HETATM   33  C22 UNL     1      -3.472   3.230   0.180  1.00  0.00     0.061 C 
HETATM   34  C23 UNL     1      -3.489   4.331  -0.829  1.00  0.00     0.170 C 
HETATM   35  O3  UNL     1      -2.188   4.665  -1.162  1.00  0.00    -0.389 OA
HETATM   36  C24 UNL     1      -1.358   4.132  -0.188  1.00  0.00     0.200 C 
ENDBRANCH  31  32
ENDBRANCH   9  31
TORSDOF 9
