REMARK  6 active torsions:
REMARK  status: ('A' for Active; 'I' for Inactive)
REMARK    1  A    between atoms: N1_1  and  C1_2 
REMARK    2  A    between atoms: C1_2  and  C2_3 
REMARK    3  A    between atoms: C2_3  and  C3_4 
REMARK    4  A    between atoms: C9_12  and  N3_13 
REMARK    5  A    between atoms: N3_13  and  C10_14 
REMARK    6  A    between atoms: C10_14  and  C11_15 
ROOT
HETATM    1  C1  UNL     1      -2.240   0.553   0.918  1.00  0.00     0.223 C 
HETATM    2  C4  UNL     1      -3.013   0.143  -0.320  1.00  0.00     0.021 C 
HETATM    3  C5  UNL     1      -2.929  -0.838  -1.248  1.00  0.00     0.000 C 
HETATM    4  C6  UNL     1      -2.118  -1.972  -1.571  1.00  0.00     0.017 C 
HETATM    5  C7  UNL     1      -1.085  -2.689  -1.237  1.00  0.00     0.088 C 
HETATM    6  N2  UNL     1      -0.113  -2.658  -0.197  1.00  0.00    -0.366 N 
HETATM    7  C8  UNL     1       0.178  -1.696   0.831  1.00  0.00     0.057 C 
HETATM    8  C9  UNL     1      -0.239  -0.612   0.260  1.00  0.00     0.082 C 
HETATM    9  C17 UNL     1      -1.344  -0.619   1.216  1.00  0.00     0.124 C 
HETATM   10  N4  UNL     1      -1.192  -1.660   1.994  1.00  0.00    -0.178 NA
HETATM   11  N5  UNL     1      -0.293  -1.607   3.103  1.00  0.00    -0.308 N 
HETATM   12  C18 UNL     1       0.765  -1.969   2.140  1.00  0.00     0.201 C 
HETATM   13  H11 UNL     1       0.593  -3.403  -0.023  1.00  0.00     0.165 HD
HETATM   14  H18 UNL     1       0.127  -1.505   4.037  1.00  0.00     0.182 HD
ENDROOT
BRANCH   8  15
HETATM   15  N3  UNL     1       0.480  -0.059  -0.827  1.00  0.00    -0.382 N 
HETATM   16  H12 UNL     1       0.049   0.073  -1.769  1.00  0.00     0.160 HD
BRANCH  15  17
HETATM   17  C10 UNL     1       1.826   0.243  -0.338  1.00  0.00     0.160 C 
BRANCH  17  18
HETATM   18  C11 UNL     1       2.634   0.832  -1.418  1.00  0.00    -0.019 A 
HETATM   19  C12 UNL     1       3.601   0.134  -2.110  1.00  0.00     0.012 A 
HETATM   20  C13 UNL     1       4.370   0.681  -3.134  1.00  0.00     0.024 A 
HETATM   21  C14 UNL     1       4.132   2.016  -3.467  1.00  0.00     0.035 A 
HETATM   22 CL1  UNL     1       5.130   2.644  -4.763  1.00  0.00    -0.084 Cl
HETATM   23  C15 UNL     1       3.176   2.768  -2.810  1.00  0.00     0.048 A 
HETATM   24  C16 UNL     1       2.452   2.144  -1.798  1.00  0.00     0.043 A 
HETATM   25 CL2  UNL     1       1.267   3.182  -1.026  1.00  0.00    -0.084 Cl
ENDBRANCH  17  18
ENDBRANCH  15  17
ENDBRANCH   8  15
BRANCH   1  26
HETATM   26  N1  UNL     1      -1.476   1.705   0.566  1.00  0.00     0.098 N 
HETATM   27  H1  UNL     1      -1.228   1.633  -0.452  1.00  0.00     0.314 HD
HETATM   28  H2  UNL     1      -0.546   1.655   1.080  1.00  0.00     0.314 HD
ENDBRANCH   1  26
BRANCH   1  29
HETATM   29  C2  UNL     1      -3.226   0.810   2.034  1.00  0.00     0.084 C 
BRANCH  29  30
HETATM   30  C3  UNL     1      -2.558   1.263   3.283  1.00  0.00     0.225 C 
HETATM   31  F1  UNL     1      -1.870   2.445   3.011  1.00  0.00    -0.255 F 
ENDBRANCH  29  30
ENDBRANCH   1  29
TORSDOF 6
