REMARK  3 active torsions:
REMARK  status: ('A' for Active; 'I' for Inactive)
REMARK    1  A    between atoms: N1_2  and  C2_3 
REMARK    2  A    between atoms: C12_13  and  C13_14 
REMARK    3  A    between atoms: C23_27  and  O3_28 
ROOT
HETATM    1  C2  UNL     1      -2.260  -0.980   0.504  1.00  0.00     0.112 C 
HETATM    2  C3  UNL     1      -1.257  -1.735   1.414  1.00  0.00     0.063 C 
HETATM    3  C4  UNL     1       0.092  -1.098   1.113  1.00  0.00     0.146 C 
HETATM    4  C5  UNL     1       1.181  -2.002   1.485  1.00  0.00    -0.011 C 
HETATM    5  C6  UNL     1       2.439  -2.496   0.798  1.00  0.00    -0.005 A 
HETATM    6  C7  UNL     1       2.878  -3.279   1.757  1.00  0.00    -0.004 A 
HETATM    7  C8  UNL     1       3.237  -3.682   0.418  1.00  0.00     0.021 A 
HETATM    8  C9  UNL     1       2.744  -2.771  -0.783  1.00  0.00     0.021 A 
HETATM    9  C10 UNL     1       1.968  -1.620  -0.398  1.00  0.00     0.001 A 
HETATM   10  C11 UNL     1       2.418  -2.436   0.641  1.00  0.00    -0.004 A 
HETATM   11  C12 UNL     1       2.817  -1.049   0.641  1.00  0.00     0.027 A 
HETATM   12  C14 UNL     1       2.929   0.363   0.306  1.00  0.00    -0.012 C 
HETATM   13  C15 UNL     1       2.223   0.962  -0.650  1.00  0.00     0.010 C 
HETATM   14  C16 UNL     1       1.697   1.977  -1.547  1.00  0.00    -0.010 A 
HETATM   15  C17 UNL     1       2.514   2.697  -2.374  1.00  0.00     0.013 A 
HETATM   16  C18 UNL     1       1.858   3.630  -3.104  1.00  0.00     0.001 A 
HETATM   17  C19 UNL     1       0.513   3.821  -3.015  1.00  0.00     0.002 A 
HETATM   18  C20 UNL     1      -0.292   3.106  -2.207  1.00  0.00     0.030 A 
HETATM   19  C21 UNL     1       0.281   2.126  -1.403  1.00  0.00     0.040 A 
HETATM   20  N2  UNL     1      -0.410   1.249  -0.465  1.00  0.00    -0.361 N 
HETATM   21  C22 UNL     1      -0.792   0.974   0.873  1.00  0.00     0.253 C 
HETATM   22  O2  UNL     1       0.120   0.177   1.613  1.00  0.00    -0.355 OA
HETATM   23  C23 UNL     1      -2.211   0.444   0.946  1.00  0.00     0.191 C 
HETATM   24  H19 UNL     1      -0.815   0.472  -1.077  1.00  0.00     0.162 HD
ENDROOT
BRANCH   1  25
HETATM   25  N1  UNL     1      -3.514  -1.622   0.580  1.00  0.00    -0.419 N 
HETATM   26  C1  UNL     1      -4.510  -1.203  -0.352  1.00  0.00     0.140 C 
HETATM   27  H4  UNL     1      -3.820  -1.994   1.478  1.00  0.00     0.153 HD
ENDBRANCH   1  25
BRANCH  23  28
HETATM   28  O3  UNL     1      -2.943   1.250   0.037  1.00  0.00    -0.384 OA
HETATM   29  C24 UNL     1      -3.978   1.934   0.644  1.00  0.00     0.202 C 
ENDBRANCH  23  28
BRANCH  11  30
HETATM   30  C13 UNL     1       3.683  -0.800   1.843  1.00  0.00     0.406 C 
HETATM   31  O1  UNL     1       4.283  -1.166   2.877  1.00  0.00    -0.429 OA
ENDBRANCH  11  30
TORSDOF 3
