REMARK  2 active torsions:
REMARK  status: ('A' for Active; 'I' for Inactive)
REMARK    1  A    between atoms: N1_2  and  C2_3 
REMARK    2  A    between atoms: C14_17  and  N3_18 
ROOT
HETATM    1  C2  UNL     1       3.233  -0.898  -0.353  1.00  0.00     0.298 C 
HETATM    2  C3  UNL     1       1.960  -1.799  -0.281  1.00  0.00     0.097 C 
HETATM    3  C4  UNL     1       0.970  -0.871  -0.671  1.00  0.00     0.230 C 
HETATM    4  O1  UNL     1       1.134   0.190   0.293  1.00  0.00    -0.330 OA
HETATM    5  C5  UNL     1       1.690   1.219  -0.448  1.00  0.00     0.193 C 
HETATM    6  C6  UNL     1       2.213   2.345   0.387  1.00  0.00     0.080 C 
HETATM    7  N2  UNL     1       0.681   1.590  -1.377  1.00  0.00    -0.372 N 
HETATM    8  C7  UNL     1      -0.661   1.334  -1.132  1.00  0.00     0.080 A 
HETATM    9  C8  UNL     1      -0.875   1.303   0.413  1.00  0.00     0.037 A 
HETATM   10  C9  UNL     1      -1.410   1.350   1.647  1.00  0.00    -0.011 C 
HETATM   11  C10 UNL     1      -2.854   1.630   1.809  1.00  0.00     0.009 C 
HETATM   12  C11 UNL     1      -3.453   2.032   0.702  1.00  0.00    -0.029 C 
HETATM   13  C12 UNL     1      -2.781   2.608  -0.281  1.00  0.00     0.002 C 
HETATM   14  C13 UNL     1      -1.880   1.501  -0.637  1.00  0.00     0.063 A 
HETATM   15  C14 UNL     1      -2.440   0.219  -1.182  1.00  0.00     0.221 A 
HETATM   16  C15 UNL     1      -2.663  -0.946  -0.340  1.00  0.00     0.010 A 
HETATM   17  C16 UNL     1      -3.761  -1.542   0.288  1.00  0.00     0.012 A 
HETATM   18  C17 UNL     1      -3.658  -2.720   1.034  1.00  0.00     0.001 A 
HETATM   19  C18 UNL     1      -2.426  -3.353   1.178  1.00  0.00     0.002 A 
HETATM   20  C19 UNL     1      -1.287  -2.822   0.585  1.00  0.00     0.030 A 
HETATM   21  C20 UNL     1      -1.495  -1.679  -0.114  1.00  0.00     0.041 A 
HETATM   22  N4  UNL     1      -0.430  -0.955  -0.762  1.00  0.00    -0.343 N 
HETATM   23  C21 UNL     1      -1.121  -0.037  -1.726  1.00  0.00     0.161 A 
HETATM   24  C22 UNL     1       2.877   0.441  -0.997  1.00  0.00     0.214 C 
HETATM   25  O2  UNL     1       3.439   0.993  -1.929  1.00  0.00    -0.290 OA
HETATM   26  H12 UNL     1       0.900   2.461  -1.883  1.00  0.00     0.157 HD
ENDROOT
BRANCH   1  27
HETATM   27  N1  UNL     1       3.819  -0.699   0.934  1.00  0.00     0.091 N 
HETATM   28  C1  UNL     1       4.990   0.144   0.778  1.00  0.00     0.307 C 
HETATM   29  H4  UNL     1       4.039  -1.606   1.377  1.00  0.00     0.316 HD
ENDBRANCH   1  27
BRANCH  15  30
HETATM   30  N3  UNL     1      -3.460   0.407  -2.203  1.00  0.00     0.096 N 
HETATM   31  H16 UNL     1      -4.426   0.326  -1.832  1.00  0.00     0.314 HD
HETATM   32  H17 UNL     1      -3.295   1.247  -2.774  1.00  0.00     0.314 HD
ENDBRANCH  15  30
TORSDOF 2
