REMARK  5 active torsions:
REMARK  status: ('A' for Active; 'I' for Inactive)
REMARK    1  A    between atoms: C2_2  and  N1_3 
REMARK    2  A    between atoms: C2_2  and  C15_21 
REMARK       I    between atoms: C3_4  and  N2_5 
REMARK       I    between atoms: C3_4  and  N3_6 
REMARK    3  A    between atoms: C7_10  and  C8_11 
REMARK    4  A    between atoms: C8_11  and  C9_12 
REMARK    5  A    between atoms: C15_21  and  C16_23 
ROOT
HETATM    1  N1  UNL     1      -3.542  -0.054   0.318  1.00  0.00    -0.098 NA
HETATM    2  C3  UNL     1      -2.432   0.569   0.194  1.00  0.00     0.717 C 
HETATM    3  N2  UNL     1      -2.802   1.122   1.458  1.00  0.00    -0.231 N 
HETATM    4  N3  UNL     1      -1.198   1.040  -0.300  1.00  0.00    -0.050 NA
HETATM    5  C4  UNL     1      -0.165   0.848   0.491  1.00  0.00     0.127 A 
HETATM    6  C5  UNL     1      -0.003   0.228   1.830  1.00  0.00     0.108 A 
HETATM    7  C6  UNL     1       1.454   0.400   2.047  1.00  0.00     0.006 A 
HETATM    8  C7  UNL     1       2.144   1.003   1.069  1.00  0.00     0.011 A 
HETATM    9  N4  UNL     1       1.135   1.273   0.118  1.00  0.00    -0.347 N 
HETATM   10  H5  UNL     1      -3.016   1.399   2.451  1.00  0.00     0.174 HD
HETATM   11  H6  UNL     1      -3.121   1.641   2.303  1.00  0.00     0.174 HD
HETATM   12  H15 UNL     1       1.338   1.748  -0.784  1.00  0.00     0.167 HD
ENDROOT
BRANCH   8  13
HETATM   13  C8  UNL     1       3.593   1.214   1.202  1.00  0.00     0.097 C 
BRANCH  13  14
HETATM   14  C9  UNL     1       4.434   0.577   0.193  1.00  0.00    -0.031 A 
HETATM   15  C10 UNL     1       5.003  -0.633   0.611  1.00  0.00     0.011 A 
HETATM   16  C11 UNL     1       5.813  -1.399  -0.203  1.00  0.00     0.024 A 
HETATM   17  C12 UNL     1       6.082  -0.969  -1.485  1.00  0.00     0.035 A 
HETATM   18 CL1  UNL     1       7.091  -1.829  -2.637  1.00  0.00    -0.084 Cl
HETATM   19  C13 UNL     1       5.545   0.216  -1.943  1.00  0.00     0.048 A 
HETATM   20  C14 UNL     1       4.743   0.946  -1.094  1.00  0.00     0.042 A 
HETATM   21 CL2  UNL     1       4.060   2.469  -1.614  1.00  0.00    -0.084 Cl
ENDBRANCH  13  14
ENDBRANCH   8  13
BRANCH   1  22
HETATM   22  C2  UNL     1      -3.953  -0.964  -0.730  1.00  0.00     0.159 C 
HETATM   23  C1  UNL     1      -3.586  -2.377  -0.269  1.00  0.00     0.038 C 
BRANCH  22  24
HETATM   24  C15 UNL     1      -5.444  -0.859  -0.979  1.00  0.00     0.223 C 
HETATM   25  F1  UNL     1      -5.775  -1.763  -1.951  1.00  0.00    -0.245 F 
BRANCH  24  26
HETATM   26  C16 UNL     1      -5.696   0.571  -1.450  1.00  0.00     0.261 C 
HETATM   27  F2  UNL     1      -5.306   1.471  -0.503  1.00  0.00    -0.252 F 
ENDBRANCH  24  26
ENDBRANCH  22  24
ENDBRANCH   1  22
TORSDOF 5
