REMARK  2 active torsions:
REMARK  status: ('A' for Active; 'I' for Inactive)
REMARK    1  A    between atoms: N1_2  and  C2_3 
REMARK    2  A    between atoms: C23_29  and  O3_30 
ROOT
HETATM    1  C2  UNL     1      -0.775  -0.658   0.151  1.00  0.00     0.202 C 
HETATM    2  C3  UNL     1       0.410  -1.073   0.895  1.00  0.00     0.065 C 
HETATM    3  C4  UNL     1       1.666  -0.287   1.066  1.00  0.00     0.123 C 
HETATM    4  N2  UNL     1       2.414  -0.030  -0.059  1.00  0.00    -0.376 N 
HETATM    5  C5  UNL     1       2.564   1.089  -0.827  1.00  0.00     0.226 C 
HETATM    6  C6  UNL     1       3.691   0.693  -1.807  1.00  0.00     0.090 C 
HETATM    7  C7  UNL     1       4.610   0.018  -0.818  1.00  0.00    -0.050 A 
HETATM    8  C8  UNL     1       5.710  -0.259  -0.136  1.00  0.00     0.005 A 
HETATM    9  C9  UNL     1       5.403  -1.349   0.784  1.00  0.00    -0.001 A 
HETATM   10  C10 UNL     1       4.116  -1.708   0.624  1.00  0.00     0.002 A 
HETATM   11  C11 UNL     1       3.488  -0.892  -0.416  1.00  0.00     0.134 A 
HETATM   12  O1  UNL     1       1.496   1.418  -1.706  1.00  0.00    -0.340 OA
HETATM   13  C12 UNL     1       0.376   1.275  -1.013  1.00  0.00     0.255 C 
HETATM   14  N3  UNL     1      -0.713   2.239  -1.261  1.00  0.00    -0.361 N 
HETATM   15  C13 UNL     1      -1.861   2.434  -0.392  1.00  0.00     0.037 A 
HETATM   16  C14 UNL     1      -2.467   3.677  -0.524  1.00  0.00     0.030 A 
HETATM   17  C15 UNL     1      -3.542   3.916   0.303  1.00  0.00     0.002 A 
HETATM   18  C16 UNL     1      -3.972   2.964   1.201  1.00  0.00     0.001 A 
HETATM   19  C17 UNL     1      -3.362   1.731   1.324  1.00  0.00     0.010 A 
HETATM   20  C18 UNL     1      -2.258   1.425   0.505  1.00  0.00    -0.018 A 
HETATM   21  C19 UNL     1      -1.880   0.058   0.878  1.00  0.00     0.052 C 
HETATM   22  C20 UNL     1      -1.635   0.100   2.379  1.00  0.00     0.140 C 
HETATM   23  N4  UNL     1      -2.358  -1.021   2.934  1.00  0.00    -0.360 N 
HETATM   24  C21 UNL     1      -3.487  -1.250   2.108  1.00  0.00     0.218 C 
HETATM   25  O2  UNL     1      -4.572  -1.830   2.366  1.00  0.00    -0.274 OA
HETATM   26  C22 UNL     1      -3.229  -0.683   0.792  1.00  0.00     0.121 C 
HETATM   27  C23 UNL     1      -0.361  -0.054  -1.125  1.00  0.00     0.209 C 
HETATM   28  H17 UNL     1      -0.742   2.863  -2.090  1.00  0.00     0.162 HD
HETATM   29  H24 UNL     1      -2.127  -1.591   3.789  1.00  0.00     0.162 HD
ENDROOT
BRANCH   1  30
HETATM   30  N1  UNL     1      -1.417  -1.942  -0.104  1.00  0.00     0.092 N 
HETATM   31  C1  UNL     1      -0.804  -3.016  -0.718  1.00  0.00     0.307 C 
HETATM   32  H4  UNL     1      -1.638  -2.288   0.863  1.00  0.00     0.316 HD
ENDBRANCH   1  30
BRANCH  27  33
HETATM   33  O3  UNL     1       0.498  -0.778  -1.912  1.00  0.00    -0.384 OA
HETATM   34  C24 UNL     1      -0.048  -0.978  -3.207  1.00  0.00     0.202 C 
ENDBRANCH  27  33
TORSDOF 2
