REMARK  2 active torsions:
REMARK  status: ('A' for Active; 'I' for Inactive)
REMARK    1  A    between atoms: C13_15  and  C14_16 
REMARK    2  A    between atoms: C14_16  and  C15_17 
ROOT
HETATM    1  C1  UNL     1       5.950   3.328  -0.184  1.00  0.00     0.018 C 
HETATM    2  C2  UNL     1       5.404   2.269   0.051  1.00  0.00    -0.078 C 
HETATM    3  C3  UNL     1       4.785   1.019   0.319  1.00  0.00     0.017 C 
HETATM    4  C4  UNL     1       5.507  -0.139   0.186  1.00  0.00     0.020 C 
HETATM    5  C5  UNL     1       4.914  -1.376   0.304  1.00  0.00     0.003 C 
HETATM    6  C6  UNL     1       3.595  -1.763   0.240  1.00  0.00     0.025 C 
HETATM    7  C7  UNL     1       2.412  -1.974  -0.430  1.00  0.00     0.018 C 
HETATM    8  C8  UNL     1       2.326  -3.099  -1.117  1.00  0.00     0.063 C 
HETATM    9  N1  UNL     1       1.389  -1.105  -0.404  1.00  0.00    -0.309 N 
HETATM   10  C9  UNL     1       1.300  -0.096   0.482  1.00  0.00     0.055 C 
HETATM   11  C10 UNL     1       2.338   0.474   1.190  1.00  0.00     0.033 C 
HETATM   12  C11 UNL     1       3.487   1.052   0.697  1.00  0.00     0.023 C 
HETATM   13  C12 UNL     1       0.178   0.546   0.836  1.00  0.00     0.115 C 
HETATM   14  N2  UNL     1      -1.175   0.336   0.377  1.00  0.00    -0.374 N 
HETATM   15  C13 UNL     1      -1.559  -0.008  -0.977  1.00  0.00     0.210 C 
HETATM   16  N3  UNL     1      -0.684  -0.972  -1.605  1.00  0.00    -0.258 NA
HETATM   17  C21 UNL     1       0.477  -1.437  -1.421  1.00  0.00     0.211 C 
HETATM   18  H10 UNL     1      -1.889   0.461   1.157  1.00  0.00     0.161 HD
ENDROOT
BRANCH  15  19
HETATM   19  C14 UNL     1      -2.945  -0.583  -1.012  1.00  0.00     0.089 C 
BRANCH  19  20
HETATM   20  C15 UNL     1      -4.019   0.271  -0.535  1.00  0.00    -0.033 A 
HETATM   21  C16 UNL     1      -4.015   1.585  -0.130  1.00  0.00     0.011 A 
HETATM   22  C17 UNL     1      -5.120   2.265   0.295  1.00  0.00     0.024 A 
HETATM   23  C18 UNL     1      -6.327   1.600   0.323  1.00  0.00     0.035 A 
HETATM   24 CL1  UNL     1      -7.756   2.476   0.871  1.00  0.00    -0.084 Cl
HETATM   25  C19 UNL     1      -6.392   0.280  -0.072  1.00  0.00     0.048 A 
HETATM   26  C20 UNL     1      -5.249  -0.401  -0.504  1.00  0.00     0.042 A 
HETATM   27 CL2  UNL     1      -5.570  -2.070  -0.957  1.00  0.00    -0.084 Cl
ENDBRANCH  19  20
ENDBRANCH  15  19
TORSDOF 2
