REMARK  2 active torsions:
REMARK  status: ('A' for Active; 'I' for Inactive)
REMARK    1  A    between atoms: N1_1  and  N2_2 
REMARK    2  A    between atoms: C14_17  and  C15_18 
ROOT
HETATM    1  N2  UNL     1       0.719   2.014   1.198  1.00  0.00    -0.197 N 
HETATM    2  N3  UNL     1       0.231   1.190   2.347  1.00  0.00    -0.141 NA
HETATM    3  C1  UNL     1      -0.565   0.112   2.011  1.00  0.00     0.148 C 
HETATM    4  C2  UNL     1      -1.989  -0.039   2.463  1.00  0.00     0.119 C 
HETATM    5  C3  UNL     1      -2.494  -0.427   1.082  1.00  0.00    -0.039 C 
HETATM    6  C4  UNL     1      -3.714  -0.513   0.585  1.00  0.00     0.006 C 
HETATM    7  C5  UNL     1      -4.028  -0.932  -0.773  1.00  0.00    -0.004 C 
HETATM    8  C6  UNL     1      -2.961  -1.258  -1.482  1.00  0.00    -0.024 C 
HETATM    9  C7  UNL     1      -1.514  -1.255  -1.041  1.00  0.00     0.069 C 
HETATM   10  C8  UNL     1      -1.278  -0.508   0.216  1.00  0.00     0.102 C 
HETATM   11  C9  UNL     1      -0.856   0.911  -0.259  1.00  0.00     0.044 C 
HETATM   12  C10 UNL     1       0.389   1.517  -0.155  1.00  0.00     0.070 C 
HETATM   13  C11 UNL     1       1.425   1.705  -1.227  1.00  0.00     0.029 C 
HETATM   14  C12 UNL     1       2.396   1.137  -1.970  1.00  0.00    -0.020 C 
HETATM   15  C13 UNL     1       2.865  -0.310  -1.908  1.00  0.00     0.072 C 
HETATM   16  C14 UNL     1       2.102  -0.918  -0.797  1.00  0.00     0.046 C 
HETATM   17  C16 UNL     1       1.172  -1.701  -0.327  1.00  0.00     0.119 C 
HETATM   18  N4  UNL     1       0.578  -2.143   0.856  1.00  0.00    -0.306 N 
HETATM   19  N5  UNL     1      -0.250  -0.998   1.105  1.00  0.00    -0.258 N 
HETATM   20  H16 UNL     1       0.664  -2.958   1.392  1.00  0.00     0.186 HD
ENDROOT
BRANCH  16  21
HETATM   21  C15 UNL     1       2.922  -0.547   0.379  1.00  0.00     0.415 C 
HETATM   22  F1  UNL     1       3.343   0.759   0.405  1.00  0.00    -0.166 F 
HETATM   23  F2  UNL     1       4.127  -1.322   0.297  1.00  0.00    -0.166 F 
HETATM   24  F3  UNL     1       2.393  -0.836   1.608  1.00  0.00    -0.166 F 
ENDBRANCH  16  21
BRANCH   1  25
HETATM   25  N1  UNL     1       1.429   3.155   1.007  1.00  0.00    -0.226 NA
HETATM   26  H1  UNL     1       0.809   3.991   0.802  1.00  0.00     0.145 HD
HETATM   27  H2  UNL     1       1.954   3.402   1.858  1.00  0.00     0.145 HD
ENDBRANCH   1  25
TORSDOF 2
