REMARK  0 active torsions:
REMARK  status: ('A' for Active; 'I' for Inactive)
ROOT
HETATM    1  C1  UNL     1       6.379  -1.871   1.101  1.00  0.00    -0.062 C 
HETATM    2  B1  UNL     1       4.880  -0.873   1.096  1.00  0.00     0.181 B 
HETATM    3  C2  UNL     1       3.352  -0.051   1.155  1.00  0.00    -0.105 A 
HETATM    4  C3  UNL     1       3.003   0.797   2.179  1.00  0.00    -0.003 A 
HETATM    5  C4  UNL     1       1.790   1.437   2.270  1.00  0.00     0.033 A 
HETATM    6  C5  UNL     1       0.921   1.200   1.290  1.00  0.00     0.074 A 
HETATM    7  C6  UNL     1       1.363   0.309   0.262  1.00  0.00     0.061 A 
HETATM    8  C7  UNL     1       2.532  -0.376   0.074  1.00  0.00     0.026 A 
HETATM    9  N1  UNL     1       0.681  -0.195  -0.951  1.00  0.00    -0.339 N 
HETATM   10  C8  UNL     1      -0.617   0.237  -1.235  1.00  0.00     0.132 C 
HETATM   11  N2  UNL     1      -1.128   1.526  -1.109  1.00  0.00    -0.240 NA
HETATM   12  C9  UNL     1      -2.265   1.467  -0.128  1.00  0.00     0.254 C 
HETATM   13  N3  UNL     1      -1.677   1.343   1.070  1.00  0.00    -0.307 N 
HETATM   14  N4  UNL     1      -0.413   1.812   1.406  1.00  0.00    -0.301 N 
HETATM   15  C10 UNL     1      -3.030   0.221  -0.745  1.00  0.00    -0.014 C 
HETATM   16  C11 UNL     1      -3.515  -0.956  -0.184  1.00  0.00     0.022 C 
HETATM   17 CL1  UNL     1      -4.623  -1.886   0.839  1.00  0.00    -0.088 Cl
HETATM   18  C12 UNL     1      -2.446  -1.876  -0.873  1.00  0.00     0.093 C 
HETATM   19  C13 UNL     1      -1.587  -0.788  -1.621  1.00  0.00    -0.011 C 
HETATM   20  C14 UNL     1      -2.099  -0.672  -2.904  1.00  0.00    -0.011 C 
HETATM   21  C15 UNL     1      -3.238   0.199  -2.293  1.00  0.00     0.067 C 
HETATM   22  H6  UNL     1       0.914  -0.837  -1.651  1.00  0.00     0.167 HD
HETATM   23  H8  UNL     1      -2.131   0.805   1.840  1.00  0.00     0.183 HD
HETATM   24  H9  UNL     1      -0.124   2.739   1.859  1.00  0.00     0.186 HD
ENDROOT
TORSDOF 0
