REMARK  6 active torsions:
REMARK  status: ('A' for Active; 'I' for Inactive)
REMARK    1  A    between atoms: C2_2  and  P1_3 
REMARK    2  A    between atoms: P1_3  and  C3_5 
REMARK    3  A    between atoms: C3_5  and  C4_6 
REMARK    4  A    between atoms: C4_6  and  C5_7 
REMARK    5  A    between atoms: C6_8  and  N1_9 
REMARK    6  A    between atoms: N1_9  and  C7_10 
ROOT
HETATM    1  C7  UNL     1      -0.778   0.909   1.112  1.00  0.00     0.159 A 
HETATM    2  N2  UNL     1      -0.198   2.113   1.149  1.00  0.00    -0.222 NA
HETATM    3  C8  UNL     1      -0.814   3.090   0.423  1.00  0.00     0.238 A 
HETATM    4  N3  UNL     1      -1.933   2.847  -0.281  1.00  0.00    -0.215 NA
HETATM    5  C9  UNL     1      -2.513   1.631  -0.315  1.00  0.00     0.201 A 
HETATM    6  C10 UNL     1      -1.919   0.620   0.406  1.00  0.00     0.129 A 
HETATM    7  N4  UNL     1      -2.356  -0.709   0.505  1.00  0.00    -0.379 N 
HETATM    8  C11 UNL     1      -3.285  -1.508  -0.267  1.00  0.00     0.157 C 
HETATM    9  C12 UNL     1      -4.497  -0.777  -0.671  1.00  0.00    -0.026 A 
HETATM   10  C13 UNL     1      -4.611   0.497  -1.009  1.00  0.00     0.064 A 
HETATM   11  C14 UNL     1      -5.815  -0.267  -1.039  1.00  0.00     0.103 A 
HETATM   12  O1  UNL     1      -3.679   1.543  -1.099  1.00  0.00    -0.294 OA
HETATM   13  H10 UNL     1      -1.912  -1.223   1.308  1.00  0.00     0.160 HD
ENDROOT
BRANCH   1  14
HETATM   14  N1  UNL     1      -0.134  -0.095   1.866  1.00  0.00    -0.349 N 
HETATM   15  H8  UNL     1      -0.093  -1.063   2.190  1.00  0.00     0.167 HD
BRANCH  14  16
HETATM   16  C6  UNL     1       1.054   0.215   2.600  1.00  0.00     0.090 C 
HETATM   17  C5  UNL     1       2.214   0.119   1.926  1.00  0.00     0.025 C 
BRANCH  17  18
HETATM   18  C4  UNL     1       2.003  -0.292   0.551  1.00  0.00     0.058 C 
BRANCH  18  19
HETATM   19  C3  UNL     1       2.722  -1.044  -0.280  1.00  0.00    -0.109 C 
BRANCH  19  20
HETATM   20  P1  UNL     1       3.905  -1.990  -0.919  1.00  0.00     0.048 P 
HETATM   21 BR1  UNL     1       3.821  -4.039  -0.065  1.00  0.00    -0.042 Br
BRANCH  20  22
HETATM   22  C2  UNL     1       5.248  -1.040  -0.947  1.00  0.00    -0.001 C 
HETATM   23  C1  UNL     1       5.383   0.337  -1.506  1.00  0.00     0.038 C 
ENDBRANCH  20  22
ENDBRANCH  19  20
ENDBRANCH  18  19
ENDBRANCH  17  18
ENDBRANCH  14  16
ENDBRANCH   1  14
TORSDOF 6
