REMARK  4 active torsions:
REMARK  status: ('A' for Active; 'I' for Inactive)
REMARK    1  A    between atoms: C2_2  and  C3_3 
REMARK    2  A    between atoms: N1_5  and  C5_6 
REMARK    3  A    between atoms: C9_10  and  C10_11 
REMARK    4  A    between atoms: C10_11  and  N2_14 
ROOT
HETATM    1  C3  UNL     1      -2.027   1.054  -0.322  1.00  0.00     0.100 C 
HETATM    2  C4  UNL     1      -1.163   0.328   0.640  1.00  0.00     0.150 C 
HETATM    3  N1  UNL     1       0.203   0.752   0.655  1.00  0.00    -0.361 N 
HETATM    4  C12 UNL     1       0.785   2.041   1.047  1.00  0.00     0.276 C 
HETATM    5  N3  UNL     1       0.709   2.907  -0.089  1.00  0.00    -0.241 NA
HETATM    6  C13 UNL     1       0.030   3.959  -0.256  1.00  0.00     0.221 C 
HETATM    7 CL1  UNL     1      -0.778   5.421  -0.770  1.00  0.00    -0.041 Cl
HETATM    8  N4  UNL     1      -0.786   4.196   0.909  1.00  0.00    -0.214 NA
HETATM    9  C14 UNL     1      -1.816   3.387   1.052  1.00  0.00     0.206 C 
HETATM   10  N5  UNL     1      -2.396   2.312   0.386  1.00  0.00    -0.378 N 
HETATM   11  H17 UNL     1      -3.403   2.646   0.504  1.00  0.00     0.160 HD
ENDROOT
BRANCH   3  12
HETATM   12  C5  UNL     1       1.225  -0.184   0.233  1.00  0.00     0.032 A 
HETATM   13  C6  UNL     1       2.470   0.248  -0.247  1.00  0.00     0.029 A 
HETATM   14  C7  UNL     1       3.497  -0.560  -0.653  1.00  0.00     0.003 A 
HETATM   15  C8  UNL     1       3.301  -1.921  -0.588  1.00  0.00     0.015 A 
HETATM   16  C9  UNL     1       2.101  -2.451  -0.125  1.00  0.00     0.034 A 
HETATM   17  C11 UNL     1       1.139  -1.560   0.256  1.00  0.00     0.044 A 
BRANCH  16  18
HETATM   18  C10 UNL     1       1.888  -3.902  -0.049  1.00  0.00     0.354 C 
HETATM   19  F1  UNL     1       0.907  -4.279  -0.974  1.00  0.00    -0.181 F 
HETATM   20  F2  UNL     1       1.446  -4.225   1.202  1.00  0.00    -0.181 F 
BRANCH  18  21
HETATM   21  N2  UNL     1       3.095  -4.604  -0.367  1.00  0.00    -0.091 NA
HETATM   22  F3  UNL     1       4.046  -4.287   0.536  1.00  0.00    -0.130 F 
HETATM   23  H12 UNL     1       3.407  -4.491  -1.337  1.00  0.00     0.166 HD
ENDBRANCH  18  21
ENDBRANCH  16  18
ENDBRANCH   3  12
BRANCH   1  24
HETATM   24  C2  UNL     1      -3.397   0.448  -0.550  1.00  0.00     0.022 C 
HETATM   25  C1  UNL     1      -3.390  -0.927  -1.077  1.00  0.00     0.007 C 
ENDBRANCH   1  24
TORSDOF 4
