REMARK  2 active torsions:
REMARK  status: ('A' for Active; 'I' for Inactive)
REMARK    1  A    between atoms: C9_11  and  C10_12 
REMARK    2  A    between atoms: C10_12  and  C11_13 
ROOT
HETATM    1  C1  UNL     1      -0.259   3.150   2.135  1.00  0.00     0.018 C 
HETATM    2  C2  UNL     1      -1.098   2.643   1.412  1.00  0.00    -0.075 C 
HETATM    3  C3  UNL     1      -2.116   2.050   0.564  1.00  0.00     0.047 A 
HETATM    4  C4  UNL     1      -3.352   2.702   0.663  1.00  0.00     0.023 A 
HETATM    5  C5  UNL     1      -4.373   2.228  -0.108  1.00  0.00     0.004 A 
HETATM    6  C6  UNL     1      -4.138   1.155  -0.930  1.00  0.00     0.033 A 
HETATM    7  C7  UNL     1      -2.921   0.527  -1.015  1.00  0.00     0.077 A 
HETATM    8  C8  UNL     1      -1.876   0.952  -0.274  1.00  0.00     0.094 A 
HETATM    9  N1  UNL     1      -0.539   0.577  -0.089  1.00  0.00    -0.297 N 
HETATM   10  N2  UNL     1       0.251  -0.373   0.496  1.00  0.00    -0.304 N 
HETATM   11  C9  UNL     1       1.059  -1.341   1.090  1.00  0.00     0.030 C 
HETATM   12  C17 UNL     1       0.959  -2.626   1.216  1.00  0.00     0.028 C 
HETATM   13  C18 UNL     1       0.169  -3.792   0.935  1.00  0.00     0.021 C 
HETATM   14  C19 UNL     1      -0.968  -3.862   0.292  1.00  0.00     0.118 C 
HETATM   15  N3  UNL     1      -1.902  -3.005  -0.371  1.00  0.00    -0.255 NA
HETATM   16  C20 UNL     1      -1.756  -2.812  -1.659  1.00  0.00     0.222 C 
HETATM   17  N4  UNL     1      -2.835  -1.935  -1.937  1.00  0.00    -0.294 N 
HETATM   18  N5  UNL     1      -2.934  -0.548  -1.931  1.00  0.00    -0.298 N 
HETATM   19  H5  UNL     1       0.085   1.275  -0.536  1.00  0.00     0.187 HD
HETATM   20  H6  UNL     1      -0.404  -0.401   1.336  1.00  0.00     0.186 HD
HETATM   21  H16 UNL     1      -3.680  -2.493  -2.187  1.00  0.00     0.187 HD
HETATM   22  H17 UNL     1      -3.066  -0.172  -2.897  1.00  0.00     0.187 HD
ENDROOT
BRANCH  11  23
HETATM   23  C10 UNL     1       2.176  -0.506   1.598  1.00  0.00     0.099 C 
BRANCH  23  24
HETATM   24  C11 UNL     1       2.886   0.196   0.487  1.00  0.00    -0.031 A 
HETATM   25  C12 UNL     1       2.722   0.135  -0.867  1.00  0.00     0.011 A 
HETATM   26  C13 UNL     1       3.519   0.889  -1.689  1.00  0.00     0.024 A 
HETATM   27  C14 UNL     1       4.506   1.730  -1.214  1.00  0.00     0.035 A 
HETATM   28 CL1  UNL     1       5.448   2.632  -2.383  1.00  0.00    -0.084 Cl
HETATM   29  C15 UNL     1       4.666   1.787   0.157  1.00  0.00     0.048 A 
HETATM   30  C16 UNL     1       3.875   1.037   1.005  1.00  0.00     0.042 A 
HETATM   31 CL2  UNL     1       4.252   1.266   2.703  1.00  0.00    -0.084 Cl
ENDBRANCH  23  24
ENDBRANCH  11  23
TORSDOF 2
