REMARK  5 active torsions:
REMARK  status: ('A' for Active; 'I' for Inactive)
REMARK    1  A    between atoms: C7_7  and  N1_8 
REMARK    2  A    between atoms: N1_8  and  C8_9 
REMARK    3  A    between atoms: C9_11  and  N3_12 
REMARK    4  A    between atoms: C10_14  and  N5_15 
REMARK    5  A    between atoms: N5_15  and  C11_16 
ROOT
HETATM    1  C1  UNL     1       7.872   2.052   1.036  1.00  0.00     0.018 C 
HETATM    2  C2  UNL     1       6.965   1.419   0.549  1.00  0.00    -0.078 C 
HETATM    3  C3  UNL     1       5.874   0.676  -0.016  1.00  0.00     0.019 A 
HETATM    4  C4  UNL     1       6.141  -0.323  -0.924  1.00  0.00     0.021 A 
HETATM    5  C5  UNL     1       5.078  -1.023  -1.452  1.00  0.00     0.004 A 
HETATM    6  C6  UNL     1       3.804  -0.695  -1.052  1.00  0.00     0.029 A 
HETATM    7  C7  UNL     1       3.464   0.288  -0.151  1.00  0.00     0.035 A 
HETATM    8  C19 UNL     1       4.573   0.945   0.335  1.00  0.00     0.050 A 
ENDROOT
BRANCH   7   9
HETATM    9  N1  UNL     1       2.153   0.598   0.254  1.00  0.00    -0.340 N 
HETATM   10  H5  UNL     1       2.122   1.484   0.798  1.00  0.00     0.167 HD
BRANCH   9  11
HETATM   11  C8  UNL     1       0.979  -0.145  -0.007  1.00  0.00     0.157 A 
HETATM   12  N2  UNL     1       0.940  -1.282  -0.675  1.00  0.00    -0.045 NA
HETATM   13  C9  UNL     1      -0.097  -2.042  -0.968  1.00  0.00     0.724 A 
HETATM   14  N4  UNL     1      -1.238  -1.532  -0.492  1.00  0.00    -0.045 NA
HETATM   15  C10 UNL     1      -1.345  -0.392   0.200  1.00  0.00     0.153 A 
HETATM   16  C17 UNL     1      -0.219   0.346   0.466  1.00  0.00     0.031 A 
HETATM   17  C18 UNL     1      -0.436   1.587   1.237  1.00  0.00     0.056 C 
BRANCH  13  18
HETATM   18  N3  UNL     1       0.005  -3.253  -1.701  1.00  0.00    -0.231 N 
HETATM   19  H6  UNL     1       0.024  -4.182  -1.213  1.00  0.00     0.174 HD
HETATM   20  H7  UNL     1       0.057  -3.104  -2.741  1.00  0.00     0.174 HD
ENDBRANCH  13  18
BRANCH  15  21
HETATM   21  N5  UNL     1      -2.635   0.014   0.635  1.00  0.00    -0.364 N 
HETATM   22  H8  UNL     1      -2.673   0.896   1.191  1.00  0.00     0.162 HD
BRANCH  21  23
HETATM   23  C11 UNL     1      -3.952  -0.568   0.453  1.00  0.00     0.131 A 
HETATM   24  C12 UNL     1      -4.977   0.081   1.340  1.00  0.00     0.059 A 
HETATM   25  C13 UNL     1      -6.063   0.700   0.561  1.00  0.00    -0.001 A 
HETATM   26  C14 UNL     1      -6.386   0.828  -0.738  1.00  0.00     0.031 A 
HETATM   27 CL1  UNL     1      -7.809   1.664  -1.269  1.00  0.00    -0.085 Cl
HETATM   28  C15 UNL     1      -5.357   0.168  -1.553  1.00  0.00     0.045 A 
HETATM   29  C16 UNL     1      -4.321  -0.423  -0.972  1.00  0.00     0.036 A 
HETATM   30 CL2  UNL     1      -3.337  -1.103  -2.278  1.00  0.00    -0.087 Cl
ENDBRANCH  21  23
ENDBRANCH  15  21
ENDBRANCH   9  11
ENDBRANCH   7   9
TORSDOF 5
