REMARK  3 active torsions:
REMARK  status: ('A' for Active; 'I' for Inactive)
REMARK    1  A    between atoms: C9_10  and  N2_11 
REMARK    2  A    between atoms: C10_12  and  N3_13 
REMARK    3  A    between atoms: N3_13  and  C11_14 
ROOT
HETATM    1  C1  UNL     1      -5.494   0.824   0.927  1.00  0.00     0.019 C 
HETATM    2  C2  UNL     1      -4.327  -0.118   0.613  1.00  0.00    -0.025 A 
HETATM    3  C3  UNL     1      -4.499  -1.353   1.504  1.00  0.00     0.019 C 
HETATM    4  C4  UNL     1      -4.449  -0.530  -0.795  1.00  0.00    -0.015 A 
HETATM    5  C5  UNL     1      -3.567  -0.430  -1.777  1.00  0.00     0.028 A 
HETATM    6  C6  UNL     1      -2.301   0.175  -1.391  1.00  0.00     0.050 A 
HETATM    7  C7  UNL     1      -2.076   0.584  -0.151  1.00  0.00     0.034 A 
HETATM    8  C8  UNL     1      -3.026   0.498   0.990  1.00  0.00     0.072 A 
HETATM    9  N1  UNL     1      -0.912   1.200   0.435  1.00  0.00    -0.357 N 
HETATM   10  C9  UNL     1       0.481   1.317   0.196  1.00  0.00     0.366 C 
HETATM   11  C10 UNL     1       1.065   0.239  -0.635  1.00  0.00     0.055 C 
HETATM   12  C18 UNL     1       0.747  -0.037  -1.888  1.00  0.00     0.021 C 
HETATM   13  C19 UNL     1      -0.155   0.447  -2.941  1.00  0.00     0.149 C 
HETATM   14  N4  UNL     1      -1.555   0.161  -2.601  1.00  0.00    -0.385 N 
HETATM   15  H11 UNL     1      -1.159   1.733   1.317  1.00  0.00     0.162 HD
HETATM   16  H26 UNL     1      -2.116  -0.105  -3.411  1.00  0.00     0.160 HD
ENDROOT
BRANCH  11  17
HETATM   17  N3  UNL     1       2.050  -0.623  -0.138  1.00  0.00    -0.385 N 
HETATM   18  H15 UNL     1       1.665  -0.886   0.806  1.00  0.00     0.160 HD
BRANCH  17  19
HETATM   19  C11 UNL     1       3.279  -1.042  -0.759  1.00  0.00     0.090 C 
HETATM   20  C12 UNL     1       3.942  -1.962   0.204  1.00  0.00     0.054 C 
HETATM   21  C13 UNL     1       4.047  -1.505   1.603  1.00  0.00    -0.001 C 
HETATM   22  C14 UNL     1       4.603  -0.335   1.975  1.00  0.00     0.031 C 
HETATM   23 CL1  UNL     1       4.659   0.079   3.690  1.00  0.00    -0.085 Cl
HETATM   24  C15 UNL     1       5.206   0.714   1.131  1.00  0.00     0.043 C 
HETATM   25  C16 UNL     1       4.867   0.832  -0.166  1.00  0.00     0.015 C 
HETATM   26 CL2  UNL     1       5.747   2.172  -0.921  1.00  0.00    -0.089 Cl
HETATM   27  C17 UNL     1       3.991   0.193  -1.149  1.00  0.00     0.076 C 
ENDBRANCH  17  19
ENDBRANCH  11  17
BRANCH  10  28
HETATM   28  N2  UNL     1       1.269   1.374   1.427  1.00  0.00     0.107 N 
HETATM   29  H13 UNL     1       0.878   0.730   2.153  1.00  0.00     0.316 HD
HETATM   30  H14 UNL     1       2.270   1.227   1.255  1.00  0.00     0.316 HD
ENDBRANCH  10  28
TORSDOF 3
