REMARK  5 active torsions:
REMARK  status: ('A' for Active; 'I' for Inactive)
REMARK    1  A    between atoms: C3_3  and  C4_4 
REMARK    2  A    between atoms: C5_5  and  C6_7 
REMARK    3  A    between atoms: C6_7  and  C7_8 
REMARK    4  A    between atoms: C7_8  and  C8_9 
REMARK    5  A    between atoms: C12_14  and  N2_15 
ROOT
HETATM    1  C8  UNL     1      -0.220  -0.599  -0.302  1.00  0.00    -0.068 C 
HETATM    2  C9  UNL     1      -0.802   0.539   0.233  1.00  0.00     0.020 C 
HETATM    3  C10 UNL     1      -2.198   0.733   0.735  1.00  0.00     0.028 A 
HETATM    4  C11 UNL     1      -2.028   1.537   1.860  1.00  0.00     0.135 A 
HETATM    5  N1  UNL     1      -3.001   1.987   2.716  1.00  0.00    -0.230 NA
HETATM    6  C12 UNL     1      -4.250   1.593   2.410  1.00  0.00     0.201 A 
HETATM    7  N3  UNL     1      -4.446   0.821   1.336  1.00  0.00    -0.200 NA
HETATM    8  C13 UNL     1      -3.491   0.389   0.510  1.00  0.00     0.142 A 
HETATM    9  N4  UNL     1      -4.240  -0.419  -0.483  1.00  0.00    -0.344 N 
HETATM   10  C14 UNL     1      -3.616  -1.671  -0.864  1.00  0.00     0.007 C 
HETATM   11  C15 UNL     1      -3.080  -2.917  -1.194  1.00  0.00    -0.001 C 
HETATM   12  C16 UNL     1      -1.558  -3.158  -0.832  1.00  0.00     0.044 C 
HETATM   13  C17 UNL     1      -0.765  -1.938  -0.619  1.00  0.00     0.003 C 
HETATM   14  C18 UNL     1      -1.815  -1.435  -0.122  1.00  0.00     0.011 C 
HETATM   15  C19 UNL     1      -2.460  -0.923  -1.463  1.00  0.00     0.062 C 
HETATM   16  H15 UNL     1      -5.131  -0.218  -0.945  1.00  0.00     0.167 HD
ENDROOT
BRANCH   1  17
HETATM   17  C7  UNL     1       1.157  -0.681  -0.755  1.00  0.00     0.040 C 
BRANCH  17  18
HETATM   18  C6  UNL     1       1.897   0.647  -0.568  1.00  0.00     0.055 C 
BRANCH  18  19
HETATM   19  C5  UNL     1       3.290   0.431  -1.069  1.00  0.00     0.012 C 
HETATM   20  C4  UNL     1       4.396   0.554  -0.383  1.00  0.00     0.019 C 
HETATM   21 CL1  UNL     1       3.175  -0.027  -2.773  1.00  0.00    -0.089 Cl
BRANCH  20  22
HETATM   22  C3  UNL     1       4.571   0.925   1.017  1.00  0.00    -0.003 C 
HETATM   23  C2  UNL     1       5.788   1.002   1.557  1.00  0.00    -0.031 C 
HETATM   24  C1  UNL     1       6.885   0.679   0.603  1.00  0.00     0.036 C 
ENDBRANCH  20  22
ENDBRANCH  18  19
ENDBRANCH  17  18
ENDBRANCH   1  17
BRANCH   6  25
HETATM   25  N2  UNL     1      -5.254   2.055   3.302  1.00  0.00    -0.271 NA
HETATM   26  H13 UNL     1      -5.624   3.016   3.067  1.00  0.00     0.127 HD
HETATM   27  H14 UNL     1      -5.637   3.012   3.086  1.00  0.00     0.127 HD
ENDBRANCH   6  25
TORSDOF 5
