REMARK  5 active torsions:
REMARK  status: ('A' for Active; 'I' for Inactive)
REMARK    1  A    between atoms: N1_1  and  C1_2 
REMARK    2  A    between atoms: C4_6  and  N3_7 
REMARK    3  A    between atoms: C11_14  and  N4_15 
REMARK    4  A    between atoms: C13_18  and  C14_19 
REMARK    5  A    between atoms: C14_19  and  C15_20 
ROOT
HETATM    1  C1  UNL     1       0.269   2.000   1.672  1.00  0.00     0.722 A 
HETATM    2  N2  UNL     1       1.177   1.002   1.545  1.00  0.00    -0.062 NA
HETATM    3  C2  UNL     1       0.887  -0.122   0.867  1.00  0.00     0.096 A 
HETATM    4  C3  UNL     1      -0.390  -0.209   0.302  1.00  0.00     0.041 A 
HETATM    5  C4  UNL     1      -1.355   0.802   0.411  1.00  0.00     0.159 A 
HETATM    6  N5  UNL     1      -0.956   1.896   1.119  1.00  0.00    -0.044 NA
HETATM    7  C12 UNL     1       0.051  -1.535  -0.177  1.00  0.00     0.027 A 
HETATM    8  C13 UNL     1       1.254  -1.440   0.362  1.00  0.00    -0.022 A 
ENDROOT
BRANCH   5   9
HETATM    9  N3  UNL     1      -2.640   0.604  -0.232  1.00  0.00    -0.331 N 
HETATM   10  C5  UNL     1      -2.102   0.614  -1.601  1.00  0.00     0.154 A 
HETATM   11  C6  UNL     1      -3.112   0.415  -2.707  1.00  0.00     0.002 A 
HETATM   12  C7  UNL     1      -4.477   0.189  -3.045  1.00  0.00     0.062 A 
HETATM   13  C8  UNL     1      -4.615   0.217  -1.713  1.00  0.00    -0.079 A 
HETATM   14  C9  UNL     1      -4.704   0.242  -0.651  1.00  0.00    -0.098 A 
HETATM   15  C10 UNL     1      -4.794   0.280   0.741  1.00  0.00     0.151 A 
HETATM   16  C11 UNL     1      -3.267   0.584   1.156  1.00  0.00     0.331 A 
BRANCH  16  17
HETATM   17  N4  UNL     1      -2.813  -0.486   1.933  1.00  0.00     0.102 N 
HETATM   18  H10 UNL     1      -3.493  -1.277   1.909  1.00  0.00     0.315 HD
HETATM   19  H11 UNL     1      -2.663  -0.245   2.937  1.00  0.00     0.315 HD
ENDBRANCH  16  17
ENDBRANCH   5   9
BRANCH   1  20
HETATM   20  N1  UNL     1       0.523   3.216   2.381  1.00  0.00    -0.231 N 
HETATM   21  H1  UNL     1       0.894   4.028   1.844  1.00  0.00     0.174 HD
HETATM   22  H2  UNL     1       0.442   3.569   3.363  1.00  0.00     0.174 HD
ENDBRANCH   1  20
BRANCH   8  23
HETATM   23  C14 UNL     1       2.479  -2.281   0.444  1.00  0.00     0.081 C 
BRANCH  23  24
HETATM   24  C15 UNL     1       3.606  -1.526  -0.183  1.00  0.00    -0.032 A 
HETATM   25  C16 UNL     1       4.609  -0.889   0.507  1.00  0.00     0.011 A 
HETATM   26  C17 UNL     1       5.593  -0.227  -0.175  1.00  0.00     0.024 A 
HETATM   27  C18 UNL     1       5.602  -0.182  -1.554  1.00  0.00     0.035 A 
HETATM   28 CL1  UNL     1       6.864   0.667  -2.433  1.00  0.00    -0.084 Cl
HETATM   29  C19 UNL     1       4.596  -0.820  -2.252  1.00  0.00     0.048 A 
HETATM   30  C20 UNL     1       3.603  -1.489  -1.579  1.00  0.00     0.042 A 
HETATM   31 CL2  UNL     1       2.344  -2.286  -2.501  1.00  0.00    -0.084 Cl
ENDBRANCH  23  24
ENDBRANCH   8  23
TORSDOF 5
