REMARK  10 active torsions:
REMARK  status: ('A' for Active; 'I' for Inactive)
REMARK    1  A    between atoms: C2_2  and  C3_3 
REMARK    2  A    between atoms: C3_3  and  C4_4 
REMARK    3  A    between atoms: C4_4  and  C5_5 
REMARK    4  A    between atoms: C5_5  and  C6_7 
REMARK    5  A    between atoms: C6_7  and  C7_8 
REMARK    6  A    between atoms: C11_15  and  N4_16 
REMARK    7  A    between atoms: N4_16  and  C12_17 
REMARK    8  A    between atoms: C17_22  and  C18_23 
REMARK    9  A    between atoms: C18_23  and  C19_24 
REMARK   10  A    between atoms: C19_24  and  C20_25 
ROOT
HETATM    1  C7  UNL     1       1.411  -0.472   0.694  1.00  0.00     0.296 C 
HETATM    2  N1  UNL     1       2.686  -1.101   0.533  1.00  0.00     0.115 N 
HETATM    3  C8  UNL     1       2.925  -2.208   1.440  1.00  0.00     0.420 C 
HETATM    4  N2  UNL     1       2.551  -3.406   0.670  1.00  0.00    -0.245 NA
HETATM    5  C9  UNL     1       1.353  -3.562   0.159  1.00  0.00     0.120 C 
HETATM    6  C10 UNL     1       1.156  -4.847  -0.596  1.00  0.00     0.093 C 
HETATM    7  N3  UNL     1       0.236  -2.685   0.228  1.00  0.00    -0.219 NA
HETATM    8  C11 UNL     1       0.291  -1.392   0.454  1.00  0.00     0.140 C 
HETATM    9  H8  UNL     1       3.456  -0.428   0.693  1.00  0.00     0.319 HD
ENDROOT
BRANCH   8  10
HETATM   10  N4  UNL     1      -1.021  -0.841   0.463  1.00  0.00    -0.342 N 
HETATM   11  H14 UNL     1      -1.213  -0.103   1.185  1.00  0.00     0.167 HD
BRANCH  10  12
HETATM   12  C12 UNL     1      -2.075  -1.202  -0.414  1.00  0.00     0.039 A 
HETATM   13  C13 UNL     1      -1.995  -2.111  -1.442  1.00  0.00     0.030 A 
HETATM   14  C14 UNL     1      -3.025  -2.476  -2.279  1.00  0.00     0.002 A 
HETATM   15  C15 UNL     1      -4.260  -1.894  -2.094  1.00  0.00     0.001 A 
HETATM   16  C16 UNL     1      -4.392  -0.975  -1.077  1.00  0.00     0.009 A 
HETATM   17  C17 UNL     1      -3.326  -0.642  -0.263  1.00  0.00    -0.031 A 
BRANCH  17  18
HETATM   18  C18 UNL     1      -3.644   0.383   0.758  1.00  0.00     0.041 C 
BRANCH  18  19
HETATM   19  C19 UNL     1      -3.145   1.713   0.256  1.00  0.00     0.004 C 
BRANCH  19  20
HETATM   20  C20 UNL     1      -3.407   2.846   1.225  1.00  0.00    -0.004 C 
HETATM   21  C21 UNL     1      -2.840   4.104   0.559  1.00  0.00     0.005 C 
ENDBRANCH  19  20
ENDBRANCH  18  19
ENDBRANCH  17  18
ENDBRANCH  10  12
ENDBRANCH   8  10
BRANCH   1  22
HETATM   22  C6  UNL     1       1.363   0.652  -0.340  1.00  0.00     0.095 C 
BRANCH  22  23
HETATM   23  C5  UNL     1       2.463   1.619  -0.099  1.00  0.00     0.015 C 
HETATM   24 CL1  UNL     1       2.625   2.505   1.394  1.00  0.00    -0.089 Cl
BRANCH  23  25
HETATM   25  C4  UNL     1       3.442   1.948  -0.925  1.00  0.00     0.027 C 
BRANCH  25  26
HETATM   26  C3  UNL     1       4.365   2.927  -0.394  1.00  0.00     0.052 C 
BRANCH  26  27
HETATM   27  C2  UNL     1       5.643   2.824  -0.651  1.00  0.00    -0.155 C 
HETATM   28  C1  UNL     1       6.864   2.523  -1.065  1.00  0.00     0.096 C 
ENDBRANCH  26  27
ENDBRANCH  25  26
ENDBRANCH  23  25
ENDBRANCH  22  23
ENDBRANCH   1  22
TORSDOF 10
