REMARK  7 active torsions:
REMARK  status: ('A' for Active; 'I' for Inactive)
REMARK    1  A    between atoms: C2_2  and  C4_4 
REMARK    2  A    between atoms: C7_7  and  N1_8 
REMARK    3  A    between atoms: N1_8  and  C8_9 
REMARK    4  A    between atoms: C8_9  and  C9_10 
REMARK    5  A    between atoms: C10_11  and  N2_12 
REMARK    6  A    between atoms: N2_12  and  B1_13 
REMARK    7  A    between atoms: B1_13  and  C11_14 
ROOT
HETATM    1  C8  UNL     1      -0.372  -0.230  -0.973  1.00  0.00     0.148 C 
ENDROOT
BRANCH   1   2
HETATM    2  N1  UNL     1       0.629  -1.021  -0.335  1.00  0.00    -0.386 N 
HETATM    3  H10 UNL     1       0.351  -1.891   0.212  1.00  0.00     0.160 HD
BRANCH   2   4
HETATM    4  C7  UNL     1       2.023  -0.750  -0.361  1.00  0.00     0.028 A 
HETATM    5  C6  UNL     1       2.584   0.319  -1.027  1.00  0.00     0.029 A 
HETATM    6  C5  UNL     1       3.928   0.621  -1.074  1.00  0.00     0.010 A 
HETATM    7  C4  UNL     1       4.803  -0.208  -0.400  1.00  0.00    -0.055 A 
HETATM    8  C18 UNL     1       4.308  -1.297   0.288  1.00  0.00     0.010 A 
HETATM    9  C17 UNL     1       2.950  -1.537   0.290  1.00  0.00     0.029 A 
BRANCH   7  10
HETATM   10  C2  UNL     1       6.271   0.013  -0.377  1.00  0.00     0.010 C 
HETATM   11  C1  UNL     1       6.786   0.245   1.029  1.00  0.00     0.015 C 
HETATM   12  C3  UNL     1       7.048  -1.161  -0.941  1.00  0.00     0.015 C 
ENDBRANCH   7  10
ENDBRANCH   2   4
ENDBRANCH   1   2
BRANCH   1  13
HETATM   13  C9  UNL     1      -0.489   1.147  -0.471  1.00  0.00     0.010 C 
HETATM   14  C10 UNL     1      -1.670   1.520   0.050  1.00  0.00     0.086 C 
BRANCH  14  15
HETATM   15  N2  UNL     1      -2.572   0.453  -0.006  1.00  0.00    -0.373 NA
BRANCH  15  16
HETATM   16  B1  UNL     1      -4.135   0.489   0.542  1.00  0.00     0.315 B 
BRANCH  16  17
HETATM   17  C11 UNL     1      -5.804   0.354   1.068  1.00  0.00     0.014 A 
HETATM   18  C12 UNL     1      -6.560   1.599   0.761  1.00  0.00     0.029 A 
HETATM   19  C13 UNL     1      -7.753   1.263  -0.045  1.00  0.00    -0.027 A 
HETATM   20  C14 UNL     1      -8.296   0.169  -0.544  1.00  0.00    -0.003 A 
HETATM   21  C15 UNL     1      -7.546  -1.036  -0.236  1.00  0.00     0.019 A 
HETATM   22  C16 UNL     1      -6.471  -0.810   0.480  1.00  0.00     0.009 A 
HETATM   23 CL1  UNL     1      -5.469  -2.185   0.923  1.00  0.00    -0.089 Cl
ENDBRANCH  16  17
ENDBRANCH  15  16
ENDBRANCH  14  15
ENDBRANCH   1  13
TORSDOF 7
