REMARK  2 active torsions:
REMARK  status: ('A' for Active; 'I' for Inactive)
REMARK    1  A    between atoms: C5_5  and  C6_6 
REMARK    2  A    between atoms: C6_6  and  C7_7 
ROOT
HETATM    1  C7  UNL     1      -0.533   0.268   0.252  1.00  0.00    -0.061 C 
HETATM    2  C8  UNL     1      -1.103  -0.872   0.602  1.00  0.00     0.021 C 
HETATM    3  C9  UNL     1      -2.426  -1.416   0.890  1.00  0.00     0.028 A 
HETATM    4  C10 UNL     1      -2.322  -2.534   1.680  1.00  0.00     0.135 A 
HETATM    5  N1  UNL     1      -3.534  -3.067   1.967  1.00  0.00    -0.230 NA
HETATM    6  C11 UNL     1      -4.696  -2.545   1.519  1.00  0.00     0.224 A 
HETATM    7 CL1  UNL     1      -6.228  -3.309   1.945  1.00  0.00    -0.041 Cl
HETATM    8  N2  UNL     1      -4.747  -1.428   0.734  1.00  0.00    -0.200 NA
HETATM    9  C12 UNL     1      -3.585  -0.814   0.386  1.00  0.00     0.142 A 
HETATM   10  N3  UNL     1      -3.752   0.342  -0.435  1.00  0.00    -0.343 N 
HETATM   11  C13 UNL     1      -2.660   1.249  -0.637  1.00  0.00     0.022 A 
HETATM   12  C14 UNL     1      -2.765   2.102  -1.679  1.00  0.00     0.026 A 
HETATM   13  C15 UNL     1      -1.571   2.939  -1.724  1.00  0.00    -0.001 A 
HETATM   14  C16 UNL     1      -0.809   2.551  -0.711  1.00  0.00    -0.011 A 
HETATM   15  C17 UNL     1      -1.411   1.454   0.074  1.00  0.00     0.087 A 
HETATM   16  H10 UNL     1      -4.703   0.444  -0.846  1.00  0.00     0.167 HD
ENDROOT
BRANCH   1  17
HETATM   17  C6  UNL     1       0.824   0.703  -0.013  1.00  0.00     0.071 C 
BRANCH  17  18
HETATM   18  C5  UNL     1       1.946  -0.203   0.093  1.00  0.00    -0.054 A 
HETATM   19  C4  UNL     1       2.417  -1.402   0.350  1.00  0.00     0.005 A 
HETATM   20  C3  UNL     1       3.845  -1.609   0.239  1.00  0.00     0.004 A 
HETATM   21  C2  UNL     1       4.318  -0.434  -0.120  1.00  0.00    -0.061 A 
HETATM   22  C1  UNL     1       5.704  -0.020  -0.387  1.00  0.00     0.045 C 
HETATM   23  C18 UNL     1       3.222   0.548  -0.244  1.00  0.00     0.140 A 
HETATM   24 CL2  UNL     1       3.171   1.050  -1.959  1.00  0.00    -0.115 Cl
ENDBRANCH  17  18
ENDBRANCH   1  17
TORSDOF 2
