REMARK  4 active torsions:
REMARK  status: ('A' for Active; 'I' for Inactive)
REMARK    1  A    between atoms: C3_4  and  C4_5 
REMARK    2  A    between atoms: C5_6  and  C6_8 
REMARK    3  A    between atoms: C6_8  and  C7_9 
REMARK    4  A    between atoms: C14_19  and  N3_20 
ROOT
HETATM    1  C4  UNL     1      -0.594   0.199  -0.381  1.00  0.00     0.028 C 
HETATM    2  C5  UNL     1      -0.053  -0.660  -1.209  1.00  0.00     0.015 C 
HETATM    3 CL1  UNL     1      -0.736  -2.092  -1.948  1.00  0.00    -0.089 Cl
ENDROOT
BRANCH   1   4
HETATM    4  C3  UNL     1      -1.959   0.092   0.094  1.00  0.00    -0.034 A 
HETATM    5  C2  UNL     1      -2.855  -1.011  -0.328  1.00  0.00     0.102 A 
HETATM    6  C1  UNL     1      -4.182  -0.822   0.347  1.00  0.00     0.075 A 
HETATM    7  N1  UNL     1      -5.088  -1.711   0.088  1.00  0.00    -0.300 NA
HETATM    8  C14 UNL     1      -4.544   0.255   1.257  1.00  0.00     0.145 A 
HETATM    9  H1  UNL     1      -4.851  -2.500  -0.567  1.00  0.00     0.186 HD
HETATM   10  N2  UNL     1      -3.665   1.153   1.538  1.00  0.00    -0.241 NA
HETATM   11  C13 UNL     1      -2.386   1.040   0.940  1.00  0.00     0.126 A 
BRANCH   8  12
HETATM   12  N3  UNL     1      -5.837   0.306   1.816  1.00  0.00    -0.382 N 
HETATM   13  H12 UNL     1      -6.198  -0.038   2.744  1.00  0.00     0.157 HD
HETATM   14  H13 UNL     1      -6.372   0.790   1.047  1.00  0.00     0.157 HD
ENDBRANCH   8  12
ENDBRANCH   1   4
BRANCH   2  15
HETATM   15  C6  UNL     1       1.324  -0.585  -1.713  1.00  0.00     0.079 C 
BRANCH  15  16
HETATM   16  C7  UNL     1       2.052   0.603  -1.170  1.00  0.00    -0.003 C 
HETATM   17  C8  UNL     1       3.142   0.414  -0.463  1.00  0.00     0.003 A 
HETATM   18  C9  UNL     1       3.898   1.524   0.093  1.00  0.00     0.042 A 
HETATM   19  S1  UNL     1       3.766  -1.228  -0.141  1.00  0.00    -0.102 SA
HETATM   20  C10 UNL     1       4.998   1.530   0.817  1.00  0.00     0.035 A 
HETATM   21 CL2  UNL     1       5.715   3.021   1.368  1.00  0.00    -0.084 Cl
HETATM   22  C11 UNL     1       5.595   0.249   1.142  1.00  0.00     0.031 A 
HETATM   23  C12 UNL     1       5.236  -0.982   0.840  1.00  0.00     0.052 A 
ENDBRANCH  15  16
ENDBRANCH   2  15
TORSDOF 4
