REMARK  6 active torsions:
REMARK  status: ('A' for Active; 'I' for Inactive)
REMARK    1  A    between atoms: C2_2  and  C3_3 
REMARK    2  A    between atoms: C5_5  and  N1_6 
REMARK    3  A    between atoms: N1_6  and  C6_7 
REMARK    4  A    between atoms: C14_18  and  O1_19 
REMARK    5  A    between atoms: C14_18  and  C15_20 
REMARK    6  A    between atoms: C15_20  and  O2_21 
ROOT
HETATM    1  C3  UNL     1      -2.318  -0.066  -0.677  1.00  0.00    -0.016 C 
HETATM    2  C4  UNL     1      -1.548  -0.630  -1.670  1.00  0.00     0.045 C 
HETATM    3  C5  UNL     1      -0.363  -1.094  -0.953  1.00  0.00     0.191 A 
HETATM    4  N2  UNL     1       0.320  -2.277  -1.430  1.00  0.00    -0.241 NA
HETATM    5  C12 UNL     1       0.224  -3.148  -0.468  1.00  0.00     0.230 A 
HETATM    6  N3  UNL     1      -0.499  -2.678   0.674  1.00  0.00    -0.243 NA
HETATM    7  C13 UNL     1      -0.857  -1.453   0.364  1.00  0.00     0.109 A 
HETATM    8  C14 UNL     1      -1.683  -0.229   0.672  1.00  0.00     0.151 C 
ENDROOT
BRANCH   3   9
HETATM    9  N1  UNL     1       0.604   0.006  -1.000  1.00  0.00    -0.354 N 
HETATM   10  H5  UNL     1       0.286   0.810  -1.629  1.00  0.00     0.163 HD
BRANCH   9  11
HETATM   11  C6  UNL     1       1.894   0.229  -0.404  1.00  0.00     0.031 A 
HETATM   12  C7  UNL     1       2.554  -0.605   0.454  1.00  0.00     0.029 A 
HETATM   13  C8  UNL     1       3.791  -0.396   1.009  1.00  0.00     0.004 A 
HETATM   14  C9  UNL     1       4.423   0.777   0.661  1.00  0.00     0.019 A 
HETATM   15  C10 UNL     1       3.811   1.655  -0.196  1.00  0.00     0.013 A 
HETATM   16 BR1  UNL     1       4.702   3.273  -0.666  1.00  0.00    -0.051 Br
HETATM   17  C11 UNL     1       2.569   1.387  -0.719  1.00  0.00     0.048 A 
ENDBRANCH   9  11
ENDBRANCH   3   9
BRANCH   1  18
HETATM   18  C2  UNL     1      -3.612   0.549  -0.903  1.00  0.00     0.000 C 
HETATM   19  C1  UNL     1      -4.300   1.071   0.081  1.00  0.00     0.012 C 
ENDBRANCH   1  18
BRANCH   8  20
HETATM   20  O1  UNL     1      -2.645  -0.597   1.642  1.00  0.00    -0.376 OA
HETATM   21  H11 UNL     1      -2.788   0.090   2.316  1.00  0.00     0.211 HD
ENDBRANCH   8  20
BRANCH   8  22
HETATM   22  C15 UNL     1      -0.885   0.876   1.149  1.00  0.00     0.213 C 
BRANCH  22  23
HETATM   23  O2  UNL     1      -0.147   0.486   2.279  1.00  0.00    -0.397 OA
HETATM   24  H14 UNL     1      -0.335  -0.454   2.531  1.00  0.00     0.209 HD
ENDBRANCH  22  23
ENDBRANCH   8  22
TORSDOF 6
