REMARK  4 active torsions:
REMARK  status: ('A' for Active; 'I' for Inactive)
REMARK    1  A    between atoms: C2_2  and  O1_3 
REMARK    2  A    between atoms: O1_3  and  C3_4 
REMARK    3  A    between atoms: N2_11  and  C9_12 
REMARK    4  A    between atoms: C15_19  and  O2_20 
ROOT
HETATM    1  C3  UNL     1      -1.496  -0.038  -0.196  1.00  0.00     0.100 C 
HETATM    2  C4  UNL     1      -0.237   0.356  -0.097  1.00  0.00     0.044 C 
HETATM    3  C5  UNL     1       0.735  -0.458  -0.776  1.00  0.00     0.167 A 
HETATM    4  C6  UNL     1       0.185  -1.742  -1.215  1.00  0.00     0.064 A 
HETATM    5  N1  UNL     1       0.904  -2.811  -1.377  1.00  0.00    -0.262 NA
HETATM    6  C7  UNL     1       2.299  -2.809  -1.101  1.00  0.00     0.134 A 
HETATM    7  C8  UNL     1       2.857  -1.698  -0.642  1.00  0.00     0.111 A 
HETATM    8  N2  UNL     1       2.083  -0.526  -0.410  1.00  0.00    -0.343 N 
HETATM    9  C14 UNL     1      -1.236  -2.085  -1.368  1.00  0.00     0.069 C 
HETATM   10  C15 UNL     1      -2.102  -1.207  -0.818  1.00  0.00     0.103 C 
ENDROOT
BRANCH   8  11
HETATM   11  C9  UNL     1       2.749   0.563   0.209  1.00  0.00     0.030 A 
HETATM   12  C10 UNL     1       2.687   1.720  -0.464  1.00  0.00     0.026 A 
HETATM   13  C11 UNL     1       3.415   2.733   0.298  1.00  0.00    -0.001 A 
HETATM   14  C12 UNL     1       3.894   2.172   1.398  1.00  0.00    -0.005 A 
HETATM   15  C13 UNL     1       3.525   0.725   1.469  1.00  0.00     0.130 A 
HETATM   16 BR1  UNL     1       5.098  -0.391   1.528  1.00  0.00    -0.080 Br
ENDBRANCH   8  11
BRANCH   1  17
HETATM   17  O1  UNL     1      -2.434   0.793   0.446  1.00  0.00    -0.349 OA
BRANCH  17  18
HETATM   18  C2  UNL     1      -2.497   0.925   1.839  1.00  0.00     0.171 C 
HETATM   19  C1  UNL     1      -3.638   1.907   2.129  1.00  0.00     0.034 C 
ENDBRANCH  17  18
ENDBRANCH   1  17
BRANCH  10  20
HETATM   20  O2  UNL     1      -3.476  -1.409  -0.847  1.00  0.00    -0.353 OA
HETATM   21  C16 UNL     1      -4.039  -1.595  -2.142  1.00  0.00     0.210 C 
ENDBRANCH  10  20
TORSDOF 4
