REMARK  6 active torsions:
REMARK  status: ('A' for Active; 'I' for Inactive)
REMARK    1  A    between atoms: O1_2  and  C2_3 
REMARK    2  A    between atoms: C6_9  and  N3_10 
REMARK    3  A    between atoms: N3_10  and  C7_11 
REMARK    4  A    between atoms: C7_11  and  C8_12 
REMARK    5  A    between atoms: C9_13  and  C10_14 
REMARK    6  A    between atoms: C13_18  and  O2_19 
ROOT
HETATM    1  C2  UNL     1       3.333  -0.217   0.482  1.00  0.00     0.103 A 
HETATM    2  C3  UNL     1       2.898   1.061   0.764  1.00  0.00     0.072 A 
HETATM    3  C4  UNL     1       1.592   1.448   0.546  1.00  0.00     0.075 A 
HETATM    4  N1  UNL     1       1.213   2.708   0.836  1.00  0.00    -0.241 NA
HETATM    5  C5  UNL     1      -0.083   3.065   0.612  1.00  0.00     0.235 A 
HETATM    6  N2  UNL     1      -0.943   2.177   0.118  1.00  0.00    -0.224 NA
HETATM    7  C6  UNL     1      -0.664   0.907  -0.201  1.00  0.00     0.137 A 
HETATM    8  C11 UNL     1       0.654   0.575   0.036  1.00  0.00     0.041 A 
HETATM    9  C12 UNL     1       1.089  -0.695  -0.242  1.00  0.00     0.057 A 
HETATM   10  C13 UNL     1       2.387  -1.099  -0.032  1.00  0.00     0.102 A 
ENDROOT
BRANCH   7  11
HETATM   11  N3  UNL     1      -1.640   0.018  -0.725  1.00  0.00    -0.371 N 
HETATM   12  H6  UNL     1      -1.455  -0.972  -0.983  1.00  0.00     0.161 HD
BRANCH  11  13
HETATM   13  C7  UNL     1      -2.973   0.554  -0.903  1.00  0.00     0.148 C 
BRANCH  13  14
HETATM   14  C8  UNL     1      -3.595   1.027   0.331  1.00  0.00    -0.011 C 
HETATM   15  C9  UNL     1      -4.730   0.531   0.807  1.00  0.00    -0.018 C 
BRANCH  15  16
HETATM   16  C10 UNL     1      -5.621  -0.538   0.291  1.00  0.00     0.112 C 
HETATM   17 BR1  UNL     1      -5.712  -1.936   1.652  1.00  0.00    -0.092 Br
ENDBRANCH  15  16
ENDBRANCH  13  14
ENDBRANCH  11  13
ENDBRANCH   7  11
BRANCH  10  18
HETATM   18  O2  UNL     1       2.797  -2.411  -0.330  1.00  0.00    -0.353 OA
HETATM   19  C14 UNL     1       1.881  -3.336  -0.850  1.00  0.00     0.210 C 
ENDBRANCH  10  18
BRANCH   1  20
HETATM   20  O1  UNL     1       4.625  -0.684   0.671  1.00  0.00    -0.353 OA
HETATM   21  C1  UNL     1       5.625   0.180   1.194  1.00  0.00     0.210 C 
ENDBRANCH   1  20
TORSDOF 6
