REMARK  6 active torsions:
REMARK  status: ('A' for Active; 'I' for Inactive)
REMARK    1  A    between atoms: O1_2  and  C2_3 
REMARK    2  A    between atoms: C6_9  and  N3_10 
REMARK    3  A    between atoms: N3_10  and  C7_11 
REMARK    4  A    between atoms: C8_12  and  C9_13 
REMARK    5  A    between atoms: C10_14  and  C11_15 
REMARK    6  A    between atoms: C14_19  and  O2_20 
ROOT
HETATM    1  C2  UNL     1      -3.368   1.059  -0.639  1.00  0.00     0.103 A 
HETATM    2  C3  UNL     1      -2.563   2.167  -0.353  1.00  0.00     0.072 A 
HETATM    3  C4  UNL     1      -1.265   1.975   0.057  1.00  0.00     0.075 A 
HETATM    4  N1  UNL     1      -0.371   2.908   0.377  1.00  0.00    -0.241 NA
HETATM    5  C5  UNL     1       0.887   2.705   0.784  1.00  0.00     0.236 A 
HETATM    6  N2  UNL     1       1.305   1.422   0.882  1.00  0.00    -0.224 NA
HETATM    7  C6  UNL     1       0.451   0.400   0.570  1.00  0.00     0.141 A 
HETATM    8  C12 UNL     1      -0.832   0.683   0.160  1.00  0.00     0.042 A 
HETATM    9  C13 UNL     1      -1.576  -0.444  -0.108  1.00  0.00     0.057 A 
HETATM   10  C14 UNL     1      -2.888  -0.234  -0.520  1.00  0.00     0.102 A 
ENDROOT
BRANCH   7  11
HETATM   11  N3  UNL     1       1.146  -0.796   0.749  1.00  0.00    -0.350 N 
HETATM   12  H6  UNL     1       0.539  -1.398   0.191  1.00  0.00     0.166 HD
BRANCH  11  13
HETATM   13  C7  UNL     1       1.709  -2.073   0.842  1.00  0.00     0.090 C 
HETATM   14  C8  UNL     1       2.971  -2.218   0.584  1.00  0.00     0.017 C 
BRANCH  14  15
HETATM   15  C9  UNL     1       4.109  -1.348   0.178  1.00  0.00    -0.002 C 
HETATM   16  C10 UNL     1       5.399  -1.338  -0.109  1.00  0.00    -0.016 C 
BRANCH  16  17
HETATM   17  C11 UNL     1       6.117  -0.113  -0.482  1.00  0.00     0.112 C 
HETATM   18 BR1  UNL     1       7.569   0.224   0.790  1.00  0.00    -0.092 Br
ENDBRANCH  16  17
ENDBRANCH  14  15
ENDBRANCH  11  13
ENDBRANCH   7  11
BRANCH  10  19
HETATM   19  O2  UNL     1      -3.734  -1.286  -0.814  1.00  0.00    -0.353 OA
HETATM   20  C15 UNL     1      -3.383  -2.633  -0.731  1.00  0.00     0.210 C 
ENDBRANCH  10  19
BRANCH   1  21
HETATM   21  O1  UNL     1      -4.678   1.227  -1.053  1.00  0.00    -0.353 OA
HETATM   22  C1  UNL     1      -5.275   2.496  -1.213  1.00  0.00     0.210 C 
ENDBRANCH   1  21
TORSDOF 6
