REMARK  3 active torsions:
REMARK  status: ('A' for Active; 'I' for Inactive)
REMARK    1  A    between atoms: O1_2  and  C2_3 
REMARK    2  A    between atoms: C7_8  and  O2_9 
REMARK    3  A    between atoms: N1_11  and  C9_12 
ROOT
HETATM    1  C2  UNL     1      -2.894  -0.070   0.135  1.00  0.00     0.103 A 
HETATM    2  C3  UNL     1      -2.423  -1.355   0.309  1.00  0.00     0.071 A 
HETATM    3  C4  UNL     1      -1.089  -1.627   0.100  1.00  0.00     0.064 A 
HETATM    4  C5  UNL     1      -0.168  -0.686  -0.282  1.00  0.00     0.083 A 
HETATM    5  C6  UNL     1      -0.696   0.579  -0.441  1.00  0.00     0.073 A 
HETATM    6  C7  UNL     1      -2.016   0.923  -0.249  1.00  0.00     0.103 A 
HETATM    7  N1  UNL     1       1.227  -0.954  -0.509  1.00  0.00    -0.257 N 
HETATM    8  N2  UNL     1       1.542  -2.294  -0.296  1.00  0.00    -0.166 NA
HETATM    9  C14 UNL     1       0.708  -3.205   0.060  1.00  0.00     0.230 A 
HETATM   10  N3  UNL     1      -0.674  -2.967   0.292  1.00  0.00    -0.348 N 
HETATM   11  H16 UNL     1      -1.253  -3.785   0.578  1.00  0.00     0.167 HD
ENDROOT
BRANCH   7  12
HETATM   12  C9  UNL     1       2.106   0.128  -0.906  1.00  0.00     0.152 A 
HETATM   13  C10 UNL     1       2.272   1.233  -0.005  1.00  0.00     0.005 A 
HETATM   14  C11 UNL     1       3.513   0.963   0.250  1.00  0.00    -0.069 A 
HETATM   15  C12 UNL     1       4.741   1.360   1.006  1.00  0.00     0.044 C 
HETATM   16  C13 UNL     1       3.526  -0.208  -0.616  1.00  0.00     0.114 A 
HETATM   17 BR1  UNL     1       3.773  -1.822   0.425  1.00  0.00    -0.084 Br
ENDBRANCH   7  12
BRANCH   6  18
HETATM   18  O2  UNL     1      -2.500   2.207  -0.421  1.00  0.00    -0.353 OA
HETATM   19  C8  UNL     1      -1.572   3.221  -0.819  1.00  0.00     0.210 C 
ENDBRANCH   6  18
BRANCH   1  20
HETATM   20  O1  UNL     1      -4.233   0.233   0.340  1.00  0.00    -0.353 OA
HETATM   21  C1  UNL     1      -5.087  -0.826   0.732  1.00  0.00     0.210 C 
ENDBRANCH   1  20
TORSDOF 3
