REMARK  2 active torsions:
REMARK  status: ('A' for Active; 'I' for Inactive)
REMARK    1  A    between atoms: C2_2  and  C3_3 
REMARK    2  A    between atoms: N1_6  and  C6_7 
ROOT
HETATM    1  C6  UNL     1       0.042   0.245  -0.172  1.00  0.00     0.147 C 
HETATM    2  N2  UNL     1       0.183   1.475   0.030  1.00  0.00    -0.223 NA
HETATM    3  C7  UNL     1       1.342   2.243   0.230  1.00  0.00     0.231 C 
HETATM    4  N3  UNL     1       0.810   3.415   0.553  1.00  0.00    -0.257 NA
HETATM    5  C8  UNL     1      -0.654   3.390   0.557  1.00  0.00     0.317 C 
HETATM    6  O1  UNL     1      -1.110   3.872  -0.627  1.00  0.00    -0.368 OA
HETATM    7  C9  UNL     1      -2.454   3.730  -0.896  1.00  0.00     0.196 C 
HETATM    8  C10 UNL     1      -2.840   2.316  -1.173  1.00  0.00     0.201 C 
HETATM    9  O2  UNL     1      -2.581   1.416  -0.141  1.00  0.00    -0.350 OA
HETATM   10  C11 UNL     1      -2.351   0.064  -0.341  1.00  0.00     0.084 C 
HETATM   11  C12 UNL     1      -1.178  -0.528  -0.365  1.00  0.00     0.041 C 
HETATM   12  C13 UNL     1      -0.792  -1.921  -0.543  1.00  0.00     0.011 C 
HETATM   13  C14 UNL     1      -0.895  -2.959   0.277  1.00  0.00    -0.111 C 
HETATM   14  B1  UNL     1      -0.743  -2.304   2.024  1.00  0.00     0.185 B 
HETATM   15  C15 UNL     1      -2.434  -1.221   2.231  1.00  0.00    -0.034 C 
HETATM   16  C16 UNL     1      -3.597  -0.574   1.901  1.00  0.00     0.156 C 
HETATM   17  O3  UNL     1      -4.386  -0.327   0.734  1.00  0.00    -0.377 OA
HETATM   18  C17 UNL     1      -3.700  -0.595  -0.528  1.00  0.00     0.233 C 
ENDROOT
BRANCH   1  19
HETATM   19  N1  UNL     1       1.345  -0.319  -0.176  1.00  0.00    -0.317 N 
HETATM   20  C5  UNL     1       2.101  -0.534   1.008  1.00  0.00     0.095 A 
HETATM   21  C4  UNL     1       3.310  -1.069   0.887  1.00  0.00     0.003 A 
HETATM   22  C3  UNL     1       3.951  -1.469  -0.378  1.00  0.00     0.055 A 
HETATM   23  C19 UNL     1       3.079  -1.205  -1.567  1.00  0.00     0.003 A 
HETATM   24  C18 UNL     1       1.872  -0.671  -1.461  1.00  0.00     0.095 A 
BRANCH  22  25
HETATM   25  C2  UNL     1       4.335  -2.918  -0.330  1.00  0.00    -0.024 C 
HETATM   26  C1  UNL     1       4.008  -3.677   0.714  1.00  0.00     0.008 C 
ENDBRANCH  22  25
ENDBRANCH   1  19
TORSDOF 2
