REMARK  3 active torsions:
REMARK  status: ('A' for Active; 'I' for Inactive)
REMARK    1  A    between atoms: C7_7  and  N1_8 
REMARK    2  A    between atoms: N1_8  and  C8_9 
REMARK    3  A    between atoms: C10_11  and  C11_12 
ROOT
HETATM    1  C1  UNL     1       8.677   2.167   0.340  1.00  0.00     0.018 C 
HETATM    2  C2  UNL     1       7.780   1.333   0.307  1.00  0.00    -0.078 C 
HETATM    3  C3  UNL     1       6.723   0.367   0.249  1.00  0.00     0.019 A 
HETATM    4  C4  UNL     1       7.038  -0.975   0.292  1.00  0.00     0.021 A 
HETATM    5  C5  UNL     1       6.021  -1.878   0.236  1.00  0.00     0.004 A 
HETATM    6  C6  UNL     1       4.722  -1.435   0.139  1.00  0.00     0.029 A 
HETATM    7  C7  UNL     1       4.331  -0.127   0.092  1.00  0.00     0.035 A 
HETATM    8  C19 UNL     1       5.417   0.747   0.153  1.00  0.00     0.050 A 
ENDROOT
BRANCH   7   9
HETATM    9  N1  UNL     1       3.021   0.363  -0.006  1.00  0.00    -0.341 N 
HETATM   10  H5  UNL     1       2.939   1.420  -0.028  1.00  0.00     0.167 HD
BRANCH   9  11
HETATM   11  C8  UNL     1       1.831  -0.392  -0.077  1.00  0.00     0.131 A 
HETATM   12  C9  UNL     1       0.624   0.286  -0.171  1.00  0.00     0.085 A 
HETATM   13  C10 UNL     1      -0.593  -0.326  -0.245  1.00  0.00     0.097 A 
HETATM   14  N2  UNL     1      -0.607  -1.669  -0.225  1.00  0.00    -0.239 NA
HETATM   15  C18 UNL     1       0.560  -2.326  -0.135  1.00  0.00     0.236 A 
HETATM   16  N3  UNL     1       1.740  -1.710  -0.063  1.00  0.00    -0.224 NA
BRANCH  13  17
HETATM   17  C11 UNL     1      -1.900   0.296  -0.346  1.00  0.00     0.119 C 
HETATM   18  C12 UNL     1      -1.925   1.656  -0.373  1.00  0.00     0.173 C 
HETATM   19  O1  UNL     1      -3.055   2.555  -0.465  1.00  0.00    -0.358 OA
HETATM   20  C13 UNL     1      -4.197   1.803  -0.488  1.00  0.00     0.200 C 
HETATM   21  C14 UNL     1      -5.597   2.076  -0.369  1.00  0.00     0.194 C 
HETATM   22  O2  UNL     1      -6.255   0.917  -0.499  1.00  0.00    -0.389 OA
HETATM   23  C15 UNL     1      -6.248  -0.267   0.020  1.00  0.00     0.169 C 
HETATM   24  C16 UNL     1      -5.261  -1.354  -0.116  1.00  0.00     0.053 C 
HETATM   25  C17 UNL     1      -3.826  -1.254   0.280  1.00  0.00     0.178 C 
HETATM   26  O3  UNL     1      -3.051  -0.368  -0.413  1.00  0.00    -0.347 OA
ENDBRANCH  13  17
ENDBRANCH   9  11
ENDBRANCH   7   9
TORSDOF 3
