REMARK  9 active torsions:
REMARK  status: ('A' for Active; 'I' for Inactive)
REMARK    1  A    between atoms: O1_2  and  C2_3 
REMARK    2  A    between atoms: C2_3  and  C3_4 
REMARK    3  A    between atoms: C3_4  and  O2_5 
REMARK    4  A    between atoms: O2_5  and  C4_6 
REMARK    5  A    between atoms: C8_11  and  O3_12 
REMARK    6  A    between atoms: O3_12  and  C9_13 
REMARK    7  A    between atoms: C9_13  and  C10_14 
REMARK    8  A    between atoms: C10_14  and  O4_15 
REMARK    9  A    between atoms: C21_28  and  N4_29 
ROOT
HETATM    1  C4  UNL     1      -1.230   0.644   0.562  1.00  0.00     0.122 A 
HETATM    2  C5  UNL     1       0.058   0.635   1.116  1.00  0.00     0.054 A 
HETATM    3  C6  UNL     1       1.238   0.166   0.507  1.00  0.00     0.026 A 
HETATM    4  C7  UNL     1       0.975  -0.325  -0.803  1.00  0.00     0.161 A 
HETATM    5  N1  UNL     1      -0.243  -0.304  -1.296  1.00  0.00    -0.202 NA
HETATM    6  C8  UNL     1      -1.365   0.137  -0.727  1.00  0.00     0.200 A 
HETATM    7  N2  UNL     1       1.865  -0.889  -1.750  1.00  0.00    -0.229 NA
HETATM    8  C12 UNL     1       2.361  -0.106  -2.696  1.00  0.00     0.190 C 
HETATM    9  N3  UNL     1       3.300  -0.476  -3.752  1.00  0.00    -0.219 NA
HETATM   10  C13 UNL     1       4.113  -0.531  -2.673  1.00  0.00    -0.057 C 
HETATM   11  C14 UNL     1       4.774  -0.575  -1.762  1.00  0.00     0.016 A 
HETATM   12  C15 UNL     1       5.535  -0.627  -0.671  1.00  0.00    -0.032 A 
HETATM   13  C16 UNL     1       6.280  -0.676   0.416  1.00  0.00     0.009 A 
HETATM   14  C17 UNL     1       5.905  -0.426   1.707  1.00  0.00    -0.003 A 
HETATM   15  C18 UNL     1       4.605  -0.068   2.035  1.00  0.00    -0.018 A 
HETATM   16  C19 UNL     1       3.633   0.048   1.035  1.00  0.00     0.014 A 
HETATM   17  C20 UNL     1       4.282  -0.256  -0.160  1.00  0.00     0.115 A 
HETATM   18  C21 UNL     1       2.292   0.417   1.578  1.00  0.00     0.263 C 
HETATM   19  H17 UNL     1       4.187  -0.740  -4.139  1.00  0.00     0.143 HD
ENDROOT
BRANCH   1  20
HETATM   20  O2  UNL     1      -2.382   1.111   1.178  1.00  0.00    -0.345 OA
BRANCH  20  21
HETATM   21  C3  UNL     1      -2.270   1.630   2.489  1.00  0.00     0.202 C 
BRANCH  21  22
HETATM   22  C2  UNL     1      -3.583   2.100   3.034  1.00  0.00     0.193 C 
BRANCH  22  23
HETATM   23  O1  UNL     1      -4.501   1.079   3.089  1.00  0.00    -0.394 OA
HETATM   24  C1  UNL     1      -5.732   1.534   3.603  1.00  0.00     0.201 C 
ENDBRANCH  22  23
ENDBRANCH  21  22
ENDBRANCH  20  21
ENDBRANCH   1  20
BRANCH   6  25
HETATM   25  O3  UNL     1      -2.625   0.138  -1.290  1.00  0.00    -0.330 OA
BRANCH  25  26
HETATM   26  C9  UNL     1      -2.817  -0.366  -2.584  1.00  0.00     0.203 C 
BRANCH  26  27
HETATM   27  C10 UNL     1      -2.455  -1.821  -2.730  1.00  0.00     0.193 C 
BRANCH  27  28
HETATM   28  O4  UNL     1      -2.666  -2.251  -4.024  1.00  0.00    -0.394 OA
HETATM   29  C11 UNL     1      -3.957  -2.168  -4.495  1.00  0.00     0.201 C 
ENDBRANCH  27  28
ENDBRANCH  26  27
ENDBRANCH  25  26
ENDBRANCH   6  25
BRANCH  18  30
HETATM   30  N4  UNL     1       1.925  -0.434   2.684  1.00  0.00     0.088 N 
HETATM   31  H23 UNL     1       2.261  -1.419   2.483  1.00  0.00     0.313 HD
HETATM   32  H24 UNL     1       2.227  -0.113   3.611  1.00  0.00     0.313 HD
ENDBRANCH  18  30
TORSDOF 9
