REMARK  8 active torsions:
REMARK  status: ('A' for Active; 'I' for Inactive)
REMARK    1  A    between atoms: O1_2  and  C2_3 
REMARK    2  A    between atoms: C2_3  and  C3_4 
REMARK    3  A    between atoms: C3_4  and  O2_5 
REMARK    4  A    between atoms: O2_5  and  C4_6 
REMARK    5  A    between atoms: C11_15  and  O3_16 
REMARK    6  A    between atoms: O3_16  and  C12_17 
REMARK    7  A    between atoms: C12_17  and  C13_18 
REMARK    8  A    between atoms: C13_18  and  O4_19 
ROOT
HETATM    1  C4  UNL     1      -0.718   0.218  -0.564  1.00  0.00     0.103 A 
HETATM    2  C5  UNL     1      -1.550   1.288  -0.788  1.00  0.00     0.055 A 
HETATM    3  C6  UNL     1      -1.233   2.612  -0.625  1.00  0.00     0.013 A 
HETATM    4  C7  UNL     1      -2.222   3.516  -0.905  1.00  0.00     0.132 A 
HETATM    5  N1  UNL     1      -1.899   4.829  -0.741  1.00  0.00    -0.253 NA
HETATM    6  C8  UNL     1      -0.677   5.202  -0.328  1.00  0.00     0.233 A 
HETATM    7  N2  UNL     1       0.256   4.271  -0.066  1.00  0.00    -0.241 NA
HETATM    8  C9  UNL     1       0.029   2.954  -0.199  1.00  0.00     0.072 A 
HETATM    9  C10 UNL     1       0.928   1.942   0.047  1.00  0.00     0.072 A 
HETATM   10  C11 UNL     1       0.557   0.605  -0.133  1.00  0.00     0.104 A 
ENDROOT
BRANCH   1  11
HETATM   11  O2  UNL     1      -0.773  -1.132  -0.639  1.00  0.00    -0.346 OA
BRANCH  11  12
HETATM   12  C3  UNL     1      -1.882  -1.877  -0.998  1.00  0.00     0.201 C 
BRANCH  12  13
HETATM   13  C2  UNL     1      -3.077  -1.780  -0.086  1.00  0.00     0.193 C 
BRANCH  13  14
HETATM   14  O1  UNL     1      -2.614  -2.239   1.173  1.00  0.00    -0.394 OA
HETATM   15  C1  UNL     1      -3.681  -2.172   2.064  1.00  0.00     0.201 C 
ENDBRANCH  13  14
ENDBRANCH  12  13
ENDBRANCH  11  12
ENDBRANCH   1  11
BRANCH  10  16
HETATM   16  O3  UNL     1       1.594  -0.267   0.164  1.00  0.00    -0.346 OA
BRANCH  16  17
HETATM   17  C12 UNL     1       2.855   0.135   0.592  1.00  0.00     0.201 C 
BRANCH  17  18
HETATM   18  C13 UNL     1       3.751  -1.074   0.828  1.00  0.00     0.193 C 
BRANCH  18  19
HETATM   19  O4  UNL     1       3.901  -1.811  -0.342  1.00  0.00    -0.394 OA
HETATM   20  C14 UNL     1       4.710  -2.909  -0.141  1.00  0.00     0.201 C 
ENDBRANCH  18  19
ENDBRANCH  17  18
ENDBRANCH  16  17
ENDBRANCH  10  16
TORSDOF 8
