REMARK  5 active torsions:
REMARK  status: ('A' for Active; 'I' for Inactive)
REMARK    1  A    between atoms: C16_20  and  O2_21 
REMARK    2  A    between atoms: C18_23  and  O3_24 
REMARK    3  A    between atoms: O3_24  and  C19_25 
REMARK    4  A    between atoms: C19_25  and  C20_26 
REMARK    5  A    between atoms: C20_26  and  O4_27 
ROOT
HETATM    1  C1  UNL     1       3.609  -3.203   0.596  1.00  0.00     0.017 C 
HETATM    2  C2  UNL     1       2.589  -2.530   0.535  1.00  0.00    -0.079 C 
HETATM    3  C3  UNL     1       1.389  -1.750   0.483  1.00  0.00     0.039 C 
HETATM    4  C4  UNL     1       0.141  -2.218   0.613  1.00  0.00     0.065 C 
HETATM    5  C5  UNL     1      -0.822  -3.397   0.824  1.00  0.00    -0.018 C 
HETATM    6  C6  UNL     1      -2.172  -3.110   0.821  1.00  0.00    -0.011 C 
HETATM    7  C7  UNL     1      -3.547  -2.583   0.779  1.00  0.00     0.148 C 
HETATM    8  N1  UNL     1      -3.636  -1.229   0.614  1.00  0.00    -0.374 N 
HETATM    9  C8  UNL     1      -3.721   0.134   0.435  1.00  0.00     0.106 C 
HETATM   10  N2  UNL     1      -4.376  -0.109  -0.690  1.00  0.00    -0.217 NA
HETATM   11  C9  UNL     1      -4.767   1.148  -1.359  1.00  0.00     0.300 C 
HETATM   12  N3  UNL     1      -3.700   1.489  -1.877  1.00  0.00    -0.411 NA
HETATM   13  C10 UNL     1      -2.719   2.048  -2.509  1.00  0.00     0.186 C 
HETATM   14  C11 UNL     1      -1.649   2.474  -1.838  1.00  0.00     0.068 C 
HETATM   15  C12 UNL     1      -1.311   2.473  -0.393  1.00  0.00     0.068 C 
HETATM   16  C13 UNL     1      -2.237   2.050   0.435  1.00  0.00     0.017 C 
HETATM   17  C14 UNL     1      -3.590   1.531   0.664  1.00  0.00     0.108 C 
HETATM   18  O1  UNL     1      -0.035   2.949  -0.389  1.00  0.00    -0.345 OA
HETATM   19  C15 UNL     1       0.916   2.442   0.538  1.00  0.00     0.243 C 
HETATM   20  C16 UNL     1       1.041   0.978   0.532  1.00  0.00     0.104 C 
HETATM   21  C18 UNL     1       1.321  -0.305   0.486  1.00  0.00     0.115 C 
HETATM   22  H7  UNL     1      -4.006  -0.862   1.568  1.00  0.00     0.161 HD
ENDROOT
BRANCH  21  23
HETATM   23  O3  UNL     1       2.568  -0.041   0.213  1.00  0.00    -0.345 OA
BRANCH  23  24
HETATM   24  C19 UNL     1       3.476   0.633  -0.506  1.00  0.00     0.202 C 
BRANCH  24  25
HETATM   25  C20 UNL     1       4.773  -0.229  -0.526  1.00  0.00     0.193 C 
BRANCH  25  26
HETATM   26  O4  UNL     1       5.753   0.352  -1.212  1.00  0.00    -0.394 OA
HETATM   27  C21 UNL     1       5.573   0.561  -2.533  1.00  0.00     0.201 C 
ENDBRANCH  25  26
ENDBRANCH  24  25
ENDBRANCH  23  24
ENDBRANCH  21  23
BRANCH  20  28
HETATM   28  O2  UNL     1      -0.161   0.248   0.969  1.00  0.00    -0.355 OA
HETATM   29  C17 UNL     1      -0.059   0.309   2.489  1.00  0.00     0.209 C 
ENDBRANCH  20  28
TORSDOF 5
