REMARK  4 active torsions:
REMARK  status: ('A' for Active; 'I' for Inactive)
REMARK    1  A    between atoms: O1_2  and  C2_3 
REMARK    2  A    between atoms: C7_8  and  O2_9 
REMARK    3  A    between atoms: C11_16  and  C12_17 
REMARK    4  A    between atoms: C12_17  and  N3_18 
ROOT
HETATM    1  C2  UNL     1       3.524  -0.948   0.527  1.00  0.00     0.102 A 
HETATM    2  C3  UNL     1       2.193  -1.102   0.858  1.00  0.00     0.051 A 
HETATM    3  C4  UNL     1       1.226  -0.165   0.535  1.00  0.00    -0.004 A 
HETATM    4  C5  UNL     1       1.678   0.954  -0.151  1.00  0.00     0.088 A 
HETATM    5  C6  UNL     1       2.995   1.136  -0.495  1.00  0.00     0.077 A 
HETATM    6  C7  UNL     1       3.944   0.188  -0.162  1.00  0.00     0.104 A 
HETATM    7  O3  UNL     1       0.844   2.013  -0.565  1.00  0.00    -0.289 OA
HETATM    8  C9  UNL     1      -0.497   1.931  -0.858  1.00  0.00     0.200 A 
HETATM    9  N1  UNL     1      -0.865   2.938  -1.689  1.00  0.00    -0.215 NA
HETATM   10  C10 UNL     1      -2.143   2.966  -2.046  1.00  0.00     0.236 A 
HETATM   11  N2  UNL     1      -3.046   2.092  -1.647  1.00  0.00    -0.241 NA
HETATM   12  C11 UNL     1      -2.830   1.025  -0.812  1.00  0.00     0.112 A 
HETATM   13  C17 UNL     1      -1.475   1.023  -0.455  1.00  0.00     0.110 A 
HETATM   14  N4  UNL     1      -1.206  -0.055   0.399  1.00  0.00    -0.380 N 
HETATM   15  C18 UNL     1      -0.064  -0.645   1.034  1.00  0.00     0.161 C 
HETATM   16  H16 UNL     1      -2.032  -0.582   0.654  1.00  0.00     0.160 HD
ENDROOT
BRANCH  12  17
HETATM   17  C12 UNL     1      -3.831   0.107  -0.405  1.00  0.00     0.237 A 
HETATM   18  C13 UNL     1      -4.370   0.105   0.972  1.00  0.00     0.025 A 
HETATM   19  C14 UNL     1      -4.701  -1.172   1.267  1.00  0.00    -0.001 A 
HETATM   20  C15 UNL     1      -4.386  -2.035   0.105  1.00  0.00    -0.001 A 
HETATM   21  C16 UNL     1      -3.868  -1.279  -0.887  1.00  0.00     0.025 A 
BRANCH  17  22
HETATM   22  N3  UNL     1      -5.071   0.612  -1.105  1.00  0.00     0.101 N 
HETATM   23  H10 UNL     1      -5.006   0.430  -2.113  1.00  0.00     0.315 HD
HETATM   24  H11 UNL     1      -5.115   1.640  -0.958  1.00  0.00     0.315 HD
ENDBRANCH  17  22
ENDBRANCH  12  17
BRANCH   6  25
HETATM   25  O2  UNL     1       5.263   0.376  -0.510  1.00  0.00    -0.353 OA
HETATM   26  C8  UNL     1       5.608   1.556  -1.209  1.00  0.00     0.210 C 
ENDBRANCH   6  25
BRANCH   1  27
HETATM   27  O1  UNL     1       4.524  -1.857   0.829  1.00  0.00    -0.353 OA
HETATM   28  C1  UNL     1       4.230  -3.068   1.535  1.00  0.00     0.210 C 
ENDBRANCH   1  27
TORSDOF 4
