REMARK  6 active torsions:
REMARK  status: ('A' for Active; 'I' for Inactive)
REMARK    1  A    between atoms: C2_2  and  N1_3 
REMARK    2  A    between atoms: N1_3  and  C3_4 
REMARK    3  A    between atoms: N1_3  and  C5_6 
REMARK    4  A    between atoms: C11_14  and  O2_15 
REMARK    5  A    between atoms: O2_15  and  N3_16 
REMARK    6  A    between atoms: C20_26  and  N4_27 
ROOT
HETATM    1  C5  UNL     1      -1.357  -0.372   0.042  1.00  0.00     0.115 C 
HETATM    2  C6  UNL     1      -1.359  -1.730  -0.515  1.00  0.00     0.149 C 
HETATM    3  N2  UNL     1      -0.244  -2.158  -1.308  1.00  0.00    -0.359 N 
HETATM    4  C7  UNL     1       1.144  -2.246  -1.181  1.00  0.00     0.221 C 
HETATM    5  O1  UNL     1       1.247  -1.757  -0.030  1.00  0.00    -0.273 OA
HETATM    6  C8  UNL     1       2.598  -2.373  -1.128  1.00  0.00     0.139 C 
HETATM    7  C9  UNL     1       3.183  -1.252  -0.306  1.00  0.00    -0.040 C 
HETATM    8  C10 UNL     1       4.574  -1.730  -0.116  1.00  0.00     0.047 C 
HETATM    9  C11 UNL     1       2.866  -0.054   0.239  1.00  0.00     0.094 C 
HETATM   10  C13 UNL     1       1.756   0.925   0.367  1.00  0.00     0.036 C 
HETATM   11  C14 UNL     1       0.499   1.279   0.093  1.00  0.00    -0.006 C 
HETATM   12  C15 UNL     1      -0.732   0.770  -0.652  1.00  0.00     0.051 A 
HETATM   13  C16 UNL     1      -1.663   1.967  -0.494  1.00  0.00    -0.006 A 
HETATM   14  C17 UNL     1      -2.126   2.863  -1.355  1.00  0.00     0.039 A 
HETATM   15  C18 UNL     1      -1.695   2.716  -2.726  1.00  0.00     0.114 A 
HETATM   16  F1  UNL     1      -2.098   3.573  -3.681  1.00  0.00    -0.206 F 
HETATM   17  C19 UNL     1      -0.903   1.713  -2.964  1.00  0.00     0.051 A 
HETATM   18  C20 UNL     1      -0.325   0.634  -2.072  1.00  0.00     0.261 A 
HETATM   19  H14 UNL     1       0.004  -2.556  -2.234  1.00  0.00     0.162 HD
ENDROOT
BRANCH   1  20
HETATM   20  N1  UNL     1      -2.516   0.025   0.762  1.00  0.00    -0.406 N 
BRANCH  20  21
HETATM   21  C2  UNL     1      -2.670  -0.598   2.057  1.00  0.00     0.113 C 
HETATM   22  C1  UNL     1      -3.419   0.380   2.935  1.00  0.00     0.026 C 
ENDBRANCH  20  21
BRANCH  20  23
HETATM   23  C3  UNL     1      -3.777   0.120   0.169  1.00  0.00     0.113 C 
HETATM   24  C4  UNL     1      -4.472  -1.170  -0.206  1.00  0.00     0.026 C 
ENDBRANCH  20  23
ENDBRANCH   1  20
BRANCH  18  25
HETATM   25  N4  UNL     1       1.131   0.819  -2.238  1.00  0.00     0.087 N 
HETATM   26  H30 UNL     1       1.304   1.828  -2.220  1.00  0.00     0.313 HD
HETATM   27  H31 UNL     1       1.475   0.331  -3.089  1.00  0.00     0.313 HD
ENDBRANCH  18  25
BRANCH   9  28
HETATM   28  O2  UNL     1       4.003   0.458   0.931  1.00  0.00    -0.264 OA
BRANCH  28  29
HETATM   29  N3  UNL     1       3.871   0.727   2.248  1.00  0.00    -0.204 NA
HETATM   30  C12 UNL     1       5.102   1.339   2.720  1.00  0.00     0.141 C 
HETATM   31  H20 UNL     1       3.705  -0.157   2.776  1.00  0.00     0.153 HD
ENDBRANCH  28  29
ENDBRANCH   9  28
TORSDOF 6
