REMARK  11 active torsions:
REMARK  status: ('A' for Active; 'I' for Inactive)
REMARK    1  A    between atoms: O1_2  and  C2_3 
REMARK    2  A    between atoms: C2_3  and  C3_4 
REMARK    3  A    between atoms: C3_4  and  O2_5 
REMARK    4  A    between atoms: O2_5  and  C4_6 
REMARK    5  A    between atoms: C4_6  and  C5_7 
REMARK    6  A    between atoms: C5_7  and  C6_8 
REMARK    7  A    between atoms: C10_12  and  C11_13 
REMARK    8  A    between atoms: C11_13  and  O3_14 
REMARK    9  A    between atoms: O3_14  and  C12_15 
REMARK   10  A    between atoms: C12_15  and  C13_16 
REMARK   11  A    between atoms: C13_16  and  O4_17 
ROOT
HETATM    1  C6  UNL     1       0.899  -2.324  -0.062  1.00  0.00    -0.050 C 
HETATM    2  C7  UNL     1       0.593  -3.608  -0.061  1.00  0.00    -0.009 C 
HETATM    3  C8  UNL     1      -0.747  -3.475   0.474  1.00  0.00     0.053 C 
HETATM    4  C9  UNL     1      -0.497  -2.029   0.233  1.00  0.00    -0.017 C 
HETATM    5  C10 UNL     1      -1.668  -1.424   0.510  1.00  0.00     0.065 C 
HETATM    6  N1  UNL     1      -2.988  -1.940   0.520  1.00  0.00    -0.266 NA
HETATM    7  C15 UNL     1      -3.167  -3.190   0.208  1.00  0.00     0.095 C 
HETATM    8  C16 UNL     1      -1.956  -4.005  -0.152  1.00  0.00     0.034 C 
HETATM    9  C17 UNL     1      -1.836  -4.177  -1.646  1.00  0.00     0.016 C 
ENDROOT
BRANCH   1  10
HETATM   10  C5  UNL     1       1.841  -1.167  -0.314  1.00  0.00     0.065 C 
BRANCH  10  11
HETATM   11  C4  UNL     1       2.157  -0.407   0.939  1.00  0.00     0.172 C 
BRANCH  11  12
HETATM   12  O2  UNL     1       2.983   0.648   0.688  1.00  0.00    -0.389 OA
BRANCH  12  13
HETATM   13  C3  UNL     1       4.206   0.341   0.149  1.00  0.00     0.193 C 
BRANCH  13  14
HETATM   14  C2  UNL     1       5.010   1.644  -0.030  1.00  0.00     0.193 C 
BRANCH  14  15
HETATM   15  O1  UNL     1       4.266   2.435  -0.881  1.00  0.00    -0.394 OA
HETATM   16  C1  UNL     1       4.881   3.664  -1.136  1.00  0.00     0.201 C 
ENDBRANCH  14  15
ENDBRANCH  13  14
ENDBRANCH  12  13
ENDBRANCH  11  12
ENDBRANCH  10  11
ENDBRANCH   1  10
BRANCH   5  17
HETATM   17  C11 UNL     1      -1.742   0.068   0.668  1.00  0.00     0.227 C 
BRANCH  17  18
HETATM   18  O3  UNL     1      -2.618   0.572  -0.281  1.00  0.00    -0.383 OA
BRANCH  18  19
HETATM   19  C12 UNL     1      -2.755   1.944  -0.234  1.00  0.00     0.194 C 
BRANCH  19  20
HETATM   20  C13 UNL     1      -3.275   2.488   1.062  1.00  0.00     0.193 C 
BRANCH  20  21
HETATM   21  O4  UNL     1      -3.402   3.871   1.084  1.00  0.00    -0.394 OA
HETATM   22  C14 UNL     1      -4.265   4.363   0.126  1.00  0.00     0.201 C 
ENDBRANCH  20  21
ENDBRANCH  19  20
ENDBRANCH  18  19
ENDBRANCH  17  18
ENDBRANCH   5  17
TORSDOF 11
