REMARK  5 active torsions:
REMARK  status: ('A' for Active; 'I' for Inactive)
REMARK    1  A    between atoms: C2_2  and  C3_3 
REMARK    2  A    between atoms: C4_4  and  C5_5 
REMARK    3  A    between atoms: C5_5  and  N1_6 
REMARK    4  A    between atoms: N1_6  and  C6_7 
REMARK    5  A    between atoms: C12_16  and  C13_17 
ROOT
HETATM    1  C6  UNL     1       1.740  -0.871   1.282  1.00  0.00     0.140 A 
HETATM    2  N2  UNL     1       2.363  -2.028   1.483  1.00  0.00    -0.204 NA
HETATM    3  C7  UNL     1       1.711  -3.201   1.511  1.00  0.00     0.201 A 
HETATM    4 BR1  UNL     1       2.742  -4.794   1.810  1.00  0.00    -0.006 Br
HETATM    5  N3  UNL     1       0.380  -3.287   1.337  1.00  0.00    -0.203 NA
HETATM    6  C8  UNL     1      -0.318  -2.176   1.131  1.00  0.00     0.154 A 
HETATM    7  C9  UNL     1       0.379  -0.982   1.107  1.00  0.00     0.056 A 
HETATM    8  C10 UNL     1      -0.225   0.326   0.902  1.00  0.00     0.017 C 
HETATM    9  C11 UNL     1      -1.416   0.594   0.343  1.00  0.00    -0.000 C 
HETATM   10  C12 UNL     1      -2.379  -0.436  -0.191  1.00  0.00     0.128 C 
HETATM   11  N4  UNL     1      -2.705  -1.414   0.825  1.00  0.00    -0.227 NA
HETATM   12  N5  UNL     1      -1.732  -2.412   0.959  1.00  0.00    -0.304 N 
HETATM   13  H19 UNL     1      -2.748  -0.883   1.746  1.00  0.00     0.147 HD
HETATM   14  H20 UNL     1      -1.959  -3.449   0.944  1.00  0.00     0.182 HD
ENDROOT
BRANCH   1  15
HETATM   15  N1  UNL     1       2.470   0.345   1.256  1.00  0.00    -0.370 N 
HETATM   16  H8  UNL     1       2.242   1.345   1.116  1.00  0.00     0.161 HD
BRANCH  15  17
HETATM   17  C5  UNL     1       3.907   0.268   1.461  1.00  0.00     0.148 C 
BRANCH  17  18
HETATM   18  C4  UNL     1       4.603  -0.500   0.398  1.00  0.00    -0.007 C 
HETATM   19  C3  UNL     1       5.541  -0.009  -0.392  1.00  0.00    -0.003 C 
BRANCH  19  20
HETATM   20  C2  UNL     1       6.023   1.363  -0.324  1.00  0.00    -0.011 C 
HETATM   21  C1  UNL     1       6.962   1.832  -1.123  1.00  0.00     0.011 C 
ENDBRANCH  19  20
ENDBRANCH  17  18
ENDBRANCH  15  17
ENDBRANCH   1  15
BRANCH  10  22
HETATM   22  C13 UNL     1      -3.600   0.206  -0.682  1.00  0.00    -0.057 A 
HETATM   23  C14 UNL     1      -3.981   0.088  -1.944  1.00  0.00     0.004 A 
HETATM   24  C15 UNL     1      -5.206   0.753  -2.365  1.00  0.00    -0.004 A 
HETATM   25  C16 UNL     1      -5.844   1.432  -1.430  1.00  0.00    -0.026 A 
HETATM   26  C17 UNL     1      -5.517   1.630  -0.012  1.00  0.00     0.031 A 
HETATM   27  C18 UNL     1      -4.248   0.943   0.432  1.00  0.00     0.040 A 
ENDBRANCH  10  22
TORSDOF 5
