REMARK  3 active torsions:
REMARK  status: ('A' for Active; 'I' for Inactive)
REMARK    1  A    between atoms: C7_7  and  C8_8 
REMARK    2  A    between atoms: C12_13  and  N2_14 
REMARK    3  A    between atoms: N3_16  and  C14_17 
ROOT
HETATM    1  C8  UNL     1       1.313  -0.046  -0.452  1.00  0.00     0.043 C 
HETATM    2  C9  UNL     1       0.228  -0.273   0.278  1.00  0.00     0.036 C 
HETATM    3  C10 UNL     1      -0.832   0.373  -0.484  1.00  0.00     0.184 A 
HETATM    4  C11 UNL     1      -0.215   1.492  -1.179  1.00  0.00     0.134 A 
HETATM    5  N1  UNL     1      -0.832   2.641  -1.362  1.00  0.00    -0.214 NA
HETATM    6  C12 UNL     1      -2.159   2.852  -0.845  1.00  0.00     0.139 A 
HETATM    7  C13 UNL     1      -2.731   1.894  -0.168  1.00  0.00     0.142 A 
HETATM    8  N3  UNL     1      -2.095   0.629   0.103  1.00  0.00    -0.338 N 
HETATM    9  N4  UNL     1       1.141   1.029  -1.415  1.00  0.00    -0.342 N 
HETATM   10  H17 UNL     1       1.603   1.570  -2.167  1.00  0.00     0.167 HD
ENDROOT
BRANCH   1  11
HETATM   11  C7  UNL     1       2.674  -0.486  -0.195  1.00  0.00    -0.004 A 
HETATM   12  C2  UNL     1       3.831  -0.442  -0.917  1.00  0.00    -0.050 A 
HETATM   13  C1  UNL     1       3.702   0.073  -2.303  1.00  0.00     0.049 C 
HETATM   14  C3  UNL     1       5.056  -0.853  -0.511  1.00  0.00     0.007 A 
HETATM   15  C4  UNL     1       5.216  -1.382   0.749  1.00  0.00     0.001 A 
HETATM   16  C5  UNL     1       4.112  -1.470   1.549  1.00  0.00     0.001 A 
HETATM   17  C6  UNL     1       2.897  -1.034   1.077  1.00  0.00     0.014 A 
ENDBRANCH   1  11
BRANCH   8  18
HETATM   18  C14 UNL     1      -2.781  -0.280   0.946  1.00  0.00     0.036 A 
HETATM   19  C15 UNL     1      -3.853   0.071   1.740  1.00  0.00     0.030 A 
HETATM   20  C16 UNL     1      -4.555  -0.784   2.564  1.00  0.00     0.004 A 
HETATM   21  C17 UNL     1      -4.166  -2.108   2.611  1.00  0.00     0.019 A 
HETATM   22  C18 UNL     1      -3.101  -2.539   1.846  1.00  0.00     0.013 A 
HETATM   23 BR1  UNL     1      -2.579  -4.369   1.925  1.00  0.00    -0.051 Br
HETATM   24  C19 UNL     1      -2.454  -1.616   1.049  1.00  0.00     0.048 A 
ENDBRANCH   8  18
BRANCH   6  25
HETATM   25  N2  UNL     1      -2.722   4.121  -1.136  1.00  0.00    -0.383 N 
HETATM   26  H10 UNL     1      -3.685   4.247  -1.551  1.00  0.00     0.157 HD
HETATM   27  H11 UNL     1      -2.126   4.967  -0.918  1.00  0.00     0.157 HD
ENDBRANCH   6  25
TORSDOF 3
