REMARK  1 active torsions:
REMARK  status: ('A' for Active; 'I' for Inactive)
REMARK    1  A    between atoms: C2_2  and  N1_3 
ROOT
HETATM    1  N1  UNL     1       2.948   0.815   0.683  1.00  0.00    -0.383 N 
HETATM    2  C3  UNL     1       3.163  -0.642   0.838  1.00  0.00     0.142 C 
HETATM    3  C4  UNL     1       1.868  -1.240   0.443  1.00  0.00     0.142 C 
HETATM    4  N2  UNL     1       1.798  -2.685   0.457  1.00  0.00    -0.359 N 
HETATM    5  C5  UNL     1       0.487  -3.146   0.073  1.00  0.00     0.221 C 
HETATM    6  O1  UNL     1      -0.136  -2.075  -0.139  1.00  0.00    -0.273 OA
HETATM    7  C6  UNL     1      -0.840  -3.785  -0.312  1.00  0.00     0.131 C 
HETATM    8  C7  UNL     1      -1.705  -2.629  -0.569  1.00  0.00     0.007 C 
HETATM    9  C8  UNL     1      -2.778  -2.117  -0.086  1.00  0.00     0.001 C 
HETATM   10  C9  UNL     1      -3.387  -2.813   1.045  1.00  0.00     0.068 C 
HETATM   11  N3  UNL     1      -3.656  -1.032  -0.237  1.00  0.00    -0.372 N 
HETATM   12  C10 UNL     1      -4.189   0.034   0.480  1.00  0.00     0.074 C 
HETATM   13  C11 UNL     1      -4.255   1.057  -0.309  1.00  0.00     0.040 A 
HETATM   14  C12 UNL     1      -4.008   0.960  -1.584  1.00  0.00     0.069 A 
HETATM   15  C13 UNL     1      -3.023   1.254  -2.544  1.00  0.00     0.150 A 
HETATM   16  O2  UNL     1      -2.911   1.142  -3.813  1.00  0.00    -0.296 OA
HETATM   17  C14 UNL     1      -2.826   1.517  -1.115  1.00  0.00     0.060 A 
HETATM   18  C15 UNL     1      -1.841   2.013  -0.324  1.00  0.00     0.050 C 
HETATM   19  C16 UNL     1      -0.490   2.604  -0.407  1.00  0.00     0.200 C 
HETATM   20  F1  UNL     1      -0.599   3.944   0.003  1.00  0.00    -0.245 F 
HETATM   21  C17 UNL     1       0.492   1.875   0.381  1.00  0.00     0.034 C 
HETATM   22  C18 UNL     1       1.769   1.484   0.187  1.00  0.00     0.002 C 
HETATM   23  C19 UNL     1       2.051   2.000  -1.161  1.00  0.00     0.067 C 
HETATM   24  H10 UNL     1       1.811  -3.723   0.486  1.00  0.00     0.162 HD
HETATM   25  H17 UNL     1      -3.855  -1.293  -1.221  1.00  0.00     0.164 HD
ENDROOT
BRANCH   1  26
HETATM   26  C2  UNL     1       4.042   1.689   1.046  1.00  0.00     0.118 C 
HETATM   27  C1  UNL     1       3.740   3.136   0.866  1.00  0.00     0.026 C 
ENDBRANCH   1  26
TORSDOF 1
