REMARK  4 active torsions:
REMARK  status: ('A' for Active; 'I' for Inactive)
REMARK    1  A    between atoms: C7_7  and  C8_8 
REMARK    2  A    between atoms: C8_8  and  N1_9 
REMARK    3  A    between atoms: C18_21  and  N3_22 
REMARK    4  A    between atoms: C19_23  and  N4_24 
ROOT
HETATM    1  N1  UNL     1      -0.232  -0.422  -0.931  1.00  0.00    -0.342 N 
HETATM    2  C9  UNL     1       0.966  -1.097  -0.553  1.00  0.00     0.076 A 
HETATM    3  C10 UNL     1       0.970  -2.347  -1.199  1.00  0.00     0.039 A 
HETATM    4 BR1  UNL     1      -0.459  -2.846  -2.385  1.00  0.00    -0.049 Br
HETATM    5  C11 UNL     1       1.939  -3.366  -1.123  1.00  0.00     0.021 A 
HETATM    6  C12 UNL     1       3.030  -3.078  -0.289  1.00  0.00     0.004 A 
HETATM    7  C13 UNL     1       3.007  -1.820   0.349  1.00  0.00     0.032 A 
HETATM    8  C14 UNL     1       2.027  -0.843   0.241  1.00  0.00     0.060 A 
HETATM    9  N2  UNL     1       2.614   0.144   1.085  1.00  0.00    -0.364 N 
HETATM   10  C15 UNL     1       3.520   1.156   0.675  1.00  0.00     0.085 C 
HETATM   11  C16 UNL     1       3.150   1.930  -0.345  1.00  0.00    -0.002 C 
HETATM   12  C17 UNL     1       2.050   2.178  -1.322  1.00  0.00     0.143 C 
HETATM   13  C18 UNL     1       0.829   1.676  -1.632  1.00  0.00     0.189 C 
HETATM   14  C19 UNL     1      -0.406   0.847  -1.610  1.00  0.00     0.353 C 
HETATM   15  H13 UNL     1       2.468   0.205   2.103  1.00  0.00     0.165 HD
ENDROOT
BRANCH   1  16
HETATM   16  C8  UNL     1      -1.452  -1.170  -0.619  1.00  0.00     0.164 C 
BRANCH  16  17
HETATM   17  C7  UNL     1      -2.300  -0.465   0.389  1.00  0.00    -0.034 A 
HETATM   18  C2  UNL     1      -1.990  -0.410   1.738  1.00  0.00    -0.054 A 
HETATM   19  C1  UNL     1      -0.769  -1.042   2.296  1.00  0.00     0.049 C 
HETATM   20  C3  UNL     1      -2.772   0.218   2.671  1.00  0.00     0.007 A 
HETATM   21  C4  UNL     1      -3.940   0.839   2.279  1.00  0.00     0.001 A 
HETATM   22  C5  UNL     1      -4.358   0.852   0.957  1.00  0.00     0.001 A 
HETATM   23  C6  UNL     1      -3.497   0.193   0.110  1.00  0.00     0.009 A 
ENDBRANCH  16  17
ENDBRANCH   1  16
BRANCH  14  24
HETATM   24  N4  UNL     1      -1.446   1.649  -0.982  1.00  0.00     0.103 N 
HETATM   25  H20 UNL     1      -1.441   2.579  -1.493  1.00  0.00     0.315 HD
HETATM   26  H21 UNL     1      -1.134   1.848   0.011  1.00  0.00     0.315 HD
ENDBRANCH  14  24
BRANCH  13  27
HETATM   27  N3  UNL     1       0.795   2.697  -2.668  1.00  0.00     0.088 NA
HETATM   28  H17 UNL     1       0.599   3.685  -2.928  1.00  0.00     0.313 HD
HETATM   29  H18 UNL     1       0.571   3.701  -2.825  1.00  0.00     0.313 HD
ENDBRANCH  13  27
TORSDOF 4
