REMARK  4 active torsions:
REMARK  status: ('A' for Active; 'I' for Inactive)
REMARK    1  A    between atoms: C7_7  and  C8_8 
REMARK    2  A    between atoms: C8_8  and  C9_9 
REMARK    3  A    between atoms: C14_17  and  N3_18 
REMARK    4  A    between atoms: N3_18  and  C15_19 
ROOT
HETATM    1  C9  UNL     1      -1.079  -0.920  -0.828  1.00  0.00     0.031 A 
HETATM    2  C10 UNL     1       0.073  -0.380  -0.476  1.00  0.00     0.046 A 
HETATM    3  C11 UNL     1       1.191  -1.130   0.070  1.00  0.00     0.059 A 
HETATM    4  C12 UNL     1       0.955  -2.478   0.196  1.00  0.00     0.159 A 
HETATM    5  N1  UNL     1       1.890  -3.297   0.682  1.00  0.00    -0.202 NA
HETATM    6  C13 UNL     1       3.069  -2.774   1.045  1.00  0.00     0.201 A 
HETATM    7 BR1  UNL     1       4.426  -3.934   1.743  1.00  0.00    -0.006 Br
HETATM    8  N2  UNL     1       3.258  -1.462   0.906  1.00  0.00    -0.204 NA
HETATM    9  C14 UNL     1       2.399  -0.582   0.440  1.00  0.00     0.145 A 
HETATM   10  N4  UNL     1      -0.264  -3.096  -0.169  1.00  0.00    -0.283 N 
HETATM   11  N5  UNL     1      -1.319  -2.314  -0.695  1.00  0.00    -0.303 N 
HETATM   12  H17 UNL     1      -0.425  -4.139  -0.063  1.00  0.00     0.188 HD
HETATM   13  H18 UNL     1      -2.206  -2.780  -0.958  1.00  0.00     0.186 HD
ENDROOT
BRANCH   1  14
HETATM   14  C8  UNL     1      -2.222  -0.154  -1.386  1.00  0.00     0.097 C 
BRANCH  14  15
HETATM   15  C7  UNL     1      -3.400  -0.271  -0.511  1.00  0.00    -0.047 A 
HETATM   16  C2  UNL     1      -4.621   0.238  -0.966  1.00  0.00    -0.055 A 
HETATM   17  C1  UNL     1      -4.800   0.883  -2.284  1.00  0.00     0.049 C 
HETATM   18  C3  UNL     1      -5.669   0.095  -0.084  1.00  0.00     0.007 A 
HETATM   19  C4  UNL     1      -5.669  -0.477   1.167  1.00  0.00     0.001 A 
HETATM   20  C5  UNL     1      -4.429  -0.974   1.587  1.00  0.00     0.001 A 
HETATM   21  C6  UNL     1      -3.324  -0.858   0.735  1.00  0.00     0.008 A 
ENDBRANCH  14  15
ENDBRANCH   1  14
BRANCH   9  22
HETATM   22  N3  UNL     1       2.594   0.801   0.299  1.00  0.00    -0.340 N 
HETATM   23  H11 UNL     1       1.862   1.413  -0.060  1.00  0.00     0.167 HD
BRANCH  22  24
HETATM   24  C15 UNL     1       3.739   1.589   0.594  1.00  0.00     0.033 A 
HETATM   25  C16 UNL     1       3.818   2.963   0.515  1.00  0.00     0.029 A 
HETATM   26  C17 UNL     1       4.947   3.689   0.805  1.00  0.00     0.002 A 
HETATM   27  C18 UNL     1       6.100   3.050   1.206  1.00  0.00     0.000 A 
HETATM   28  C19 UNL     1       6.051   1.678   1.294  1.00  0.00     0.002 A 
HETATM   29  C20 UNL     1       4.904   0.974   0.996  1.00  0.00     0.029 A 
ENDBRANCH  22  24
ENDBRANCH   9  22
TORSDOF 4
