REMARK  4 active torsions:
REMARK  status: ('A' for Active; 'I' for Inactive)
REMARK    1  A    between atoms: N1_2  and  C2_3 
REMARK    2  A    between atoms: C3_5  and  N3_6 
REMARK    3  A    between atoms: N3_6  and  C4_7 
REMARK    4  A    between atoms: C17_23  and  O2_24 
ROOT
HETATM    1  C2  UNL     1      -0.096   2.977   0.692  1.00  0.00     0.712 C 
HETATM    2  N2  UNL     1      -0.034   1.778   1.160  1.00  0.00    -0.065 NA
HETATM    3  C3  UNL     1       0.303   0.605   0.359  1.00  0.00     0.214 C 
HETATM    4  C10 UNL     1       0.088   1.031  -1.105  1.00  0.00     0.207 C 
HETATM    5  N4  UNL     1      -1.036   1.899  -1.091  1.00  0.00    -0.309 N 
HETATM    6  C11 UNL     1      -2.067   1.811  -2.020  1.00  0.00     0.147 C 
HETATM    7  C12 UNL     1      -2.365   0.442  -2.600  1.00  0.00     0.055 C 
HETATM    8  C13 UNL     1      -2.604  -0.476  -1.419  1.00  0.00    -0.074 C 
HETATM    9  C14 UNL     1      -3.535  -0.000  -0.555  1.00  0.00     0.003 C 
HETATM   10  C15 UNL     1      -3.386  -0.231   0.935  1.00  0.00     0.203 C 
HETATM   11  O1  UNL     1      -2.008  -0.234   1.351  1.00  0.00    -0.345 OA
HETATM   12  C16 UNL     1      -0.839  -0.402   0.547  1.00  0.00     0.129 C 
HETATM   13  C17 UNL     1      -0.967  -1.630  -0.006  1.00  0.00     0.083 C 
HETATM   14  C19 UNL     1      -1.807  -1.753  -1.263  1.00  0.00     0.101 C 
HETATM   15  N5  UNL     1      -0.684   3.152  -0.615  1.00  0.00    -0.133 N 
HETATM   16  H24 UNL     1      -0.727   4.122  -0.931  1.00  0.00     0.205 HD
ENDROOT
BRANCH   3  17
HETATM   17  N3  UNL     1       1.524  -0.010   0.641  1.00  0.00    -0.355 N 
HETATM   18  H5  UNL     1       1.852   0.480   1.530  1.00  0.00     0.162 HD
BRANCH  17  19
HETATM   19  C4  UNL     1       2.417  -0.992   0.191  1.00  0.00     0.031 A 
HETATM   20  C5  UNL     1       2.257  -1.755  -0.946  1.00  0.00     0.029 A 
HETATM   21  C6  UNL     1       3.118  -2.727  -1.400  1.00  0.00     0.004 A 
HETATM   22  C7  UNL     1       4.222  -2.918  -0.614  1.00  0.00     0.019 A 
HETATM   23  C8  UNL     1       4.486  -2.217   0.540  1.00  0.00     0.013 A 
HETATM   24 BR1  UNL     1       6.047  -2.545   1.576  1.00  0.00    -0.051 Br
HETATM   25  C9  UNL     1       3.564  -1.269   0.906  1.00  0.00     0.048 A 
ENDBRANCH  17  19
ENDBRANCH   3  17
BRANCH   1  26
HETATM   26  N1  UNL     1       0.409   4.050   1.479  1.00  0.00    -0.228 N 
HETATM   27  C1  UNL     1       0.971   3.899   2.807  1.00  0.00     0.165 C 
HETATM   28  H4  UNL     1       0.342   4.987   1.014  1.00  0.00     0.177 HD
ENDBRANCH   1  26
BRANCH  13  29
HETATM   29  O2  UNL     1      -0.500  -2.898   0.297  1.00  0.00    -0.357 OA
HETATM   30  C18 UNL     1      -0.292  -3.281   1.658  1.00  0.00     0.209 C 
ENDBRANCH  13  29
TORSDOF 4
