REMARK  7 active torsions:
REMARK  status: ('A' for Active; 'I' for Inactive)
REMARK    1  A    between atoms: C2_2  and  O1_3 
REMARK    2  A    between atoms: O1_3  and  N1_4 
REMARK    3  A    between atoms: C8_11  and  C9_12 
REMARK    4  A    between atoms: C9_12  and  C10_13 
REMARK    5  A    between atoms: C11_14  and  C12_15 
REMARK    6  A    between atoms: C12_15  and  C13_16 
REMARK    7  A    between atoms: C16_20  and  N3_21 
ROOT
HETATM    1  C9  UNL     1      -0.384  -0.360   0.961  1.00  0.00     0.040 C 
ENDROOT
BRANCH   1   2
HETATM    2  C8  UNL     1      -1.825   0.045   0.738  1.00  0.00     0.072 A 
HETATM    3  C3  UNL     1      -2.000   1.521   0.635  1.00  0.00     0.214 A 
HETATM    4  N1  UNL     1      -1.735   2.276  -0.457  1.00  0.00    -0.023 NA
HETATM    5  O2  UNL     1      -0.771   2.229   0.628  1.00  0.00    -0.239 OA
HETATM    6  C4  UNL     1      -3.020   1.972   1.607  1.00  0.00     0.035 A 
HETATM    7  C5  UNL     1      -3.796   1.409   2.516  1.00  0.00     0.000 A 
HETATM    8  C6  UNL     1      -3.630  -0.049   2.620  1.00  0.00    -0.004 A 
HETATM    9  C7  UNL     1      -2.725  -0.501   1.771  1.00  0.00    -0.017 A 
BRANCH   4  10
HETATM   10  O1  UNL     1      -2.236   3.524  -0.508  1.00  0.00    -0.276 OA
BRANCH  10  11
HETATM   11  C2  UNL     1      -1.977   4.202  -1.676  1.00  0.00     0.192 C 
HETATM   12  C1  UNL     1      -2.593   5.581  -1.604  1.00  0.00     0.035 C 
ENDBRANCH  10  11
ENDBRANCH   4  10
ENDBRANCH   1   2
BRANCH   1  13
HETATM   13  C10 UNL     1      -0.175  -1.814   1.067  1.00  0.00    -0.029 C 
HETATM   14  C11 UNL     1       0.582  -2.536   0.275  1.00  0.00    -0.025 C 
BRANCH  14  15
HETATM   15  C12 UNL     1       1.405  -2.136  -0.892  1.00  0.00     0.086 C 
BRANCH  15  16
HETATM   16  C13 UNL     1       2.843  -2.461  -0.693  1.00  0.00     0.058 A 
HETATM   17  C14 UNL     1       3.643  -1.503  -0.104  1.00  0.00     0.048 A 
HETATM   18  C15 UNL     1       4.998  -1.713   0.124  1.00  0.00     0.138 A 
HETATM   19  N2  UNL     1       5.543  -2.899  -0.246  1.00  0.00    -0.075 NA
HETATM   20  C16 UNL     1       4.747  -3.842  -0.828  1.00  0.00     0.720 A 
HETATM   21  N4  UNL     1       3.438  -3.622  -1.041  1.00  0.00    -0.068 NA
BRANCH  20  22
HETATM   22  N3  UNL     1       5.282  -5.113  -1.237  1.00  0.00    -0.231 N 
HETATM   23  H19 UNL     1       5.217  -5.238  -2.253  1.00  0.00     0.174 HD
HETATM   24  H20 UNL     1       5.712  -5.914  -0.726  1.00  0.00     0.174 HD
ENDBRANCH  20  22
ENDBRANCH  15  16
ENDBRANCH  14  15
ENDBRANCH   1  13
TORSDOF 7
