REMARK  6 active torsions:
REMARK  status: ('A' for Active; 'I' for Inactive)
REMARK    1  A    between atoms: C7_7  and  C8_8 
REMARK    2  A    between atoms: C8_8  and  C9_9 
REMARK    3  A    between atoms: C12_12  and  N1_13 
REMARK    4  A    between atoms: N1_13  and  C13_14 
REMARK    5  A    between atoms: C13_14  and  C14_15 
REMARK    6  A    between atoms: C15_16  and  C16_18 
ROOT
HETATM    1  C16 UNL     1       6.002   0.933   0.628  1.00  0.00     0.029 C 
HETATM    2  C17 UNL     1       7.251   1.287   0.955  1.00  0.00     0.095 C 
HETATM    3  C18 UNL     1       7.886   2.428   0.349  1.00  0.00     0.087 C 
HETATM    4  N2  UNL     1       8.384   3.349  -0.141  1.00  0.00    -0.192 NA
ENDROOT
BRANCH   1   5
HETATM    5  C15 UNL     1       5.197  -0.166   1.118  1.00  0.00     0.009 C 
HETATM    6  C14 UNL     1       3.942  -0.442   0.726  1.00  0.00     0.012 C 
HETATM    7 BR1  UNL     1       6.137  -1.226   2.422  1.00  0.00    -0.051 Br
BRANCH   6   8
HETATM    8  C13 UNL     1       3.069   0.233  -0.238  1.00  0.00     0.150 C 
BRANCH   8   9
HETATM    9  N1  UNL     1       2.634  -0.575  -1.344  1.00  0.00    -0.371 N 
HETATM   10  H11 UNL     1       2.789  -0.628  -2.376  1.00  0.00     0.161 HD
BRANCH   9  11
HETATM   11  C12 UNL     1       1.748  -1.685  -1.332  1.00  0.00     0.133 C 
HETATM   12  C11 UNL     1       0.479  -1.377  -1.007  1.00  0.00     0.016 C 
HETATM   13  C10 UNL     1      -0.188  -0.122  -0.659  1.00  0.00     0.038 C 
HETATM   14  C21 UNL     1      -0.628  -2.388  -0.932  1.00  0.00     0.144 C 
HETATM   15  C9  UNL     1      -1.312  -0.366   0.038  1.00  0.00     0.010 C 
HETATM   16  N4  UNL     1      -1.398  -1.782   0.153  1.00  0.00    -0.381 N 
HETATM   17  H19 UNL     1      -1.944  -2.230   0.920  1.00  0.00     0.160 HD
HETATM   18  C20 UNL     1      -0.087  -3.713  -0.600  1.00  0.00     0.037 C 
HETATM   19  C19 UNL     1       1.164  -3.935  -0.968  1.00  0.00     0.086 C 
HETATM   20  N3  UNL     1       1.874  -3.097  -1.587  1.00  0.00    -0.229 NA
BRANCH  15  21
HETATM   21  C8  UNL     1      -2.229   0.645   0.551  1.00  0.00     0.095 C 
BRANCH  21  22
HETATM   22  C7  UNL     1      -3.606   0.585   0.077  1.00  0.00    -0.047 A 
HETATM   23  C2  UNL     1      -4.443   1.545   0.605  1.00  0.00    -0.055 A 
HETATM   24  C1  UNL     1      -3.960   2.566   1.587  1.00  0.00     0.049 C 
HETATM   25  C3  UNL     1      -5.792   1.610   0.243  1.00  0.00     0.007 A 
HETATM   26  C4  UNL     1      -6.235   0.679  -0.654  1.00  0.00     0.001 A 
HETATM   27  C5  UNL     1      -5.372  -0.279  -1.173  1.00  0.00     0.001 A 
HETATM   28  C6  UNL     1      -4.054  -0.343  -0.820  1.00  0.00     0.008 A 
ENDBRANCH  21  22
ENDBRANCH  15  21
ENDBRANCH   9  11
ENDBRANCH   8   9
ENDBRANCH   6   8
ENDBRANCH   1   5
TORSDOF 6
