REMARK  3 active torsions:
REMARK  status: ('A' for Active; 'I' for Inactive)
REMARK    1  A    between atoms: C9_11  and  N2_12 
REMARK    2  A    between atoms: N2_12  and  C10_13 
REMARK    3  A    between atoms: C10_13  and  C11_14 
ROOT
HETATM    1 BR1  UNL     1      -4.317   3.376   0.377  1.00  0.00    -0.051 Br
HETATM    2  C1  UNL     1      -3.636   1.641   0.433  1.00  0.00     0.013 C 
HETATM    3  C2  UNL     1      -4.354   0.553   0.037  1.00  0.00     0.021 C 
HETATM    4  C3  UNL     1      -3.763  -0.821  -0.155  1.00  0.00     0.034 C 
HETATM    5  C4  UNL     1      -2.658  -1.213   0.457  1.00  0.00     0.061 C 
HETATM    6  C5  UNL     1      -2.221  -0.715   1.872  1.00  0.00     0.122 C 
HETATM    7  C6  UNL     1      -1.596   0.558   1.211  1.00  0.00     0.017 C 
HETATM    8  C7  UNL     1      -2.209   1.727   0.925  1.00  0.00     0.044 C 
HETATM    9  N1  UNL     1      -0.262   0.587   0.650  1.00  0.00    -0.353 N 
HETATM   10  C8  UNL     1       0.314  -0.572  -0.056  1.00  0.00     0.132 A 
HETATM   11  C9  UNL     1       1.609  -0.217  -0.266  1.00  0.00     0.156 A 
HETATM   12  N3  UNL     1       2.236  -1.181  -0.947  1.00  0.00    -0.222 NA
HETATM   13  C12 UNL     1       1.626  -2.312  -1.342  1.00  0.00     0.238 A 
HETATM   14  N4  UNL     1       0.316  -2.631  -1.109  1.00  0.00    -0.215 NA
HETATM   15  C13 UNL     1      -0.412  -1.748  -0.438  1.00  0.00     0.202 A 
HETATM   16  O1  UNL     1      -1.808  -2.124  -0.211  1.00  0.00    -0.294 OA
HETATM   17  H6  UNL     1       0.068   1.524   0.838  1.00  0.00     0.166 HD
ENDROOT
BRANCH  11  18
HETATM   18  N2  UNL     1       2.145   0.991   0.168  1.00  0.00    -0.372 N 
HETATM   19  H7  UNL     1       1.835   1.820   0.668  1.00  0.00     0.161 HD
BRANCH  18  20
HETATM   20  C10 UNL     1       3.532   1.135  -0.166  1.00  0.00     0.131 C 
BRANCH  20  21
HETATM   21  C11 UNL     1       4.402   0.137   0.555  1.00  0.00     0.099 C 
HETATM   22  I1  UNL     1       6.435   0.445  -0.006  1.00  0.00    -0.088 I 
ENDBRANCH  20  21
ENDBRANCH  18  20
ENDBRANCH  11  18
TORSDOF 3
