REMARK  6 active torsions:
REMARK  status: ('A' for Active; 'I' for Inactive)
REMARK    1  A    between atoms: N1_1  and  C1_2 
REMARK    2  A    between atoms: C2_3  and  C3_4 
REMARK    3  A    between atoms: C3_4  and  C4_5 
REMARK    4  A    between atoms: C4_5  and  C5_6 
REMARK    5  A    between atoms: C4_5  and  C6_8 
REMARK    6  A    between atoms: C6_8  and  C7_9 
ROOT
HETATM    1  C1  UNL     1      -0.035   1.077   0.331  1.00  0.00     0.091 A 
HETATM    2  C2  UNL     1      -0.871   0.347  -0.479  1.00  0.00     0.067 A 
HETATM    3  N2  UNL     1      -0.191  -0.535  -1.233  1.00  0.00    -0.232 NA
HETATM    4  C8  UNL     1       1.139  -0.694  -1.206  1.00  0.00     0.151 A 
HETATM    5  N3  UNL     1       1.933   0.033  -0.404  1.00  0.00    -0.215 NA
HETATM    6  C9  UNL     1       1.326   0.936   0.378  1.00  0.00     0.131 A 
HETATM    7  N4  UNL     1       2.070   1.775   1.261  1.00  0.00    -0.266 NA
HETATM    8  C10 UNL     1       3.340   1.647   1.242  1.00  0.00     0.219 A 
HETATM    9  C11 UNL     1       4.714   1.285   1.002  1.00  0.00     0.013 A 
HETATM   10  C12 UNL     1       5.322   0.421   0.222  1.00  0.00    -0.002 A 
HETATM   11  C13 UNL     1       5.243  -0.645  -0.804  1.00  0.00    -0.017 A 
HETATM   12  C14 UNL     1       3.932  -0.854  -1.110  1.00  0.00     0.042 A 
HETATM   13  C15 UNL     1       3.213  -1.777  -2.048  1.00  0.00    -0.013 A 
HETATM   14  C16 UNL     1       1.901  -1.616  -2.010  1.00  0.00     0.049 A 
ENDROOT
BRANCH   2  15
HETATM   15  C3  UNL     1      -2.318   0.486  -0.551  1.00  0.00     0.067 C 
BRANCH  15  16
HETATM   16  C4  UNL     1      -3.013  -0.146   0.612  1.00  0.00     0.001 C 
BRANCH  16  17
HETATM   17  C5  UNL     1      -2.691  -1.609   0.640  1.00  0.00     0.084 C 
HETATM   18  I1  UNL     1      -3.698  -2.486   2.298  1.00  0.00    -0.090 I 
ENDBRANCH  16  17
BRANCH  16  19
HETATM   19  C6  UNL     1      -4.456   0.204   0.716  1.00  0.00     0.016 C 
BRANCH  19  20
HETATM   20  C7  UNL     1      -5.314  -0.169  -0.441  1.00  0.00     0.085 C 
HETATM   21 BR1  UNL     1      -5.365  -2.054  -0.819  1.00  0.00    -0.096 Br
ENDBRANCH  19  20
ENDBRANCH  16  19
ENDBRANCH  15  16
ENDBRANCH   2  15
BRANCH   1  22
HETATM   22  N1  UNL     1      -0.585   2.052   1.190  1.00  0.00    -0.395 N 
HETATM   23  H1  UNL     1      -1.003   2.741   1.843  1.00  0.00     0.156 HD
HETATM   24  H2  UNL     1      -1.131   2.350   2.052  1.00  0.00     0.156 HD
ENDBRANCH   1  22
TORSDOF 6
