REMARK  4 active torsions:
REMARK  status: ('A' for Active; 'I' for Inactive)
REMARK    1  A    between atoms: C2_2  and  C3_3 
REMARK    2  A    between atoms: C6_6  and  O1_7 
REMARK    3  A    between atoms: C9_10  and  N1_11 
REMARK    4  A    between atoms: N1_11  and  C10_12 
ROOT
HETATM    1  C3  UNL     1      -2.775   0.276   0.456  1.00  0.00    -0.062 C 
HETATM    2  C4  UNL     1      -2.156  -0.731   1.080  1.00  0.00    -0.015 C 
HETATM    3  C5  UNL     1      -1.252  -1.862   0.988  1.00  0.00     0.093 C 
HETATM    4  C6  UNL     1      -0.105  -1.801   0.072  1.00  0.00     0.163 A 
HETATM    5  C8  UNL     1       1.029  -1.046   0.680  1.00  0.00     0.082 A 
HETATM    6  C9  UNL     1       1.074  -0.104  -0.221  1.00  0.00     0.107 A 
HETATM    7  N2  UNL     1      -0.026  -0.764  -0.893  1.00  0.00    -0.328 N 
HETATM    8  C16 UNL     1      -0.684  -0.374  -2.132  1.00  0.00     0.161 C 
HETATM    9  C17 UNL     1      -1.898   0.412  -1.947  1.00  0.00    -0.065 C 
HETATM   10  C18 UNL     1      -2.330   1.093  -3.194  1.00  0.00     0.045 C 
HETATM   11  C19 UNL     1      -2.724   0.672  -0.937  1.00  0.00     0.010 C 
ENDROOT
BRANCH   6  12
HETATM   12  N1  UNL     1       1.861   1.057  -0.451  1.00  0.00    -0.342 N 
HETATM   13  H13 UNL     1       1.477   1.902  -0.935  1.00  0.00     0.167 HD
BRANCH  12  14
HETATM   14  C10 UNL     1       3.203   1.179  -0.056  1.00  0.00     0.051 A 
HETATM   15  C11 UNL     1       4.172   0.400  -0.689  1.00  0.00     0.031 A 
HETATM   16  C12 UNL     1       5.530   0.455  -0.381  1.00  0.00     0.002 A 
HETATM   17  C13 UNL     1       5.956   1.319   0.596  1.00  0.00     0.002 A 
HETATM   18  C14 UNL     1       5.035   2.125   1.266  1.00  0.00     0.021 A 
HETATM   19  C15 UNL     1       3.704   2.027   0.918  1.00  0.00     0.037 A 
HETATM   20 BR1  UNL     1       2.466   3.145   1.835  1.00  0.00    -0.049 Br
ENDBRANCH  12  14
ENDBRANCH   6  12
BRANCH   4  21
HETATM   21  O1  UNL     1       0.267  -3.068  -0.401  1.00  0.00    -0.361 OA
HETATM   22  C7  UNL     1       0.622  -3.834   0.700  1.00  0.00     0.205 C 
ENDBRANCH   4  21
BRANCH   1  23
HETATM   23  C2  UNL     1      -3.658   1.135   1.258  1.00  0.00     0.034 C 
HETATM   24  C1  UNL     1      -5.062   1.056   0.678  1.00  0.00     0.010 C 
ENDBRANCH   1  23
TORSDOF 4
