REMARK  4 active torsions:
REMARK  status: ('A' for Active; 'I' for Inactive)
REMARK    1  A    between atoms: N1_2  and  C2_3 
REMARK    2  A    between atoms: C4_6  and  C5_7 
REMARK    3  A    between atoms: C16_19  and  O1_20 
REMARK    4  A    between atoms: C20_24  and  O2_25 
ROOT
HETATM    1  C2  UNL     1      -0.047   0.149  -1.303  1.00  0.00     0.129 C 
HETATM    2  N2  UNL     1       1.090   0.520  -1.786  1.00  0.00    -0.268 NA
HETATM    3  C3  UNL     1       2.304   0.979  -1.132  1.00  0.00     0.190 C 
HETATM    4  C4  UNL     1       2.792   0.106  -0.065  1.00  0.00    -0.028 C 
HETATM    5  C11 UNL     1       1.991  -0.385   0.900  1.00  0.00     0.011 C 
HETATM    6  C12 UNL     1       0.539  -0.156   1.071  1.00  0.00     0.017 C 
HETATM    7  C13 UNL     1      -0.390   0.083   0.132  1.00  0.00     0.022 C 
HETATM    8  C14 UNL     1      -1.795   0.222   0.442  1.00  0.00     0.014 A 
HETATM    9  C15 UNL     1      -2.650   0.837  -0.437  1.00  0.00     0.052 A 
HETATM   10  C16 UNL     1      -4.005   0.980  -0.276  1.00  0.00     0.069 A 
HETATM   11  C18 UNL     1      -4.611   0.479   0.853  1.00  0.00     0.039 A 
HETATM   12  C19 UNL     1      -3.803  -0.144   1.763  1.00  0.00     0.040 A 
HETATM   13  C20 UNL     1      -2.444  -0.267   1.563  1.00  0.00     0.079 A 
ENDROOT
BRANCH   1  14
HETATM   14  N1  UNL     1      -1.049  -0.257  -2.267  1.00  0.00    -0.379 N 
HETATM   15  C1  UNL     1      -0.860   0.303  -3.614  1.00  0.00     0.147 C 
HETATM   16  H4  UNL     1      -1.757  -0.909  -1.803  1.00  0.00     0.160 HD
ENDBRANCH   1  14
BRANCH  13  17
HETATM   17  O2  UNL     1      -1.759  -0.910   2.541  1.00  0.00    -0.355 OA
HETATM   18  C21 UNL     1      -2.368  -1.416   3.681  1.00  0.00     0.210 C 
ENDBRANCH  13  17
BRANCH   4  19
HETATM   19  C5  UNL     1       4.186  -0.297   0.023  1.00  0.00    -0.027 A 
HETATM   20  C6  UNL     1       5.130   0.164  -0.866  1.00  0.00     0.012 A 
HETATM   21  C7  UNL     1       6.467  -0.173  -0.861  1.00  0.00     0.002 A 
HETATM   22  C8  UNL     1       6.948  -1.047   0.102  1.00  0.00     0.019 A 
HETATM   23  C9  UNL     1       6.030  -1.532   1.013  1.00  0.00     0.011 A 
HETATM   24 BR1  UNL     1       6.695  -2.732   2.333  1.00  0.00    -0.051 Br
HETATM   25  C10 UNL     1       4.719  -1.155   0.949  1.00  0.00     0.031 A 
ENDBRANCH   4  19
BRANCH  10  26
HETATM   26  O1  UNL     1      -4.837   1.607  -1.187  1.00  0.00    -0.356 OA
HETATM   27  C17 UNL     1      -6.212   1.748  -1.017  1.00  0.00     0.210 C 
ENDBRANCH  10  26
TORSDOF 4
