REMARK  2 active torsions:
REMARK  status: ('A' for Active; 'I' for Inactive)
REMARK    1  A    between atoms: C11_15  and  C12_16 
REMARK    2  A    between atoms: C12_16  and  C13_17 
ROOT
HETATM    1  C1  UNL     1      -2.063  -1.336   1.076  1.00  0.00     0.042 C 
HETATM    2  C2  UNL     1      -1.896  -1.729  -0.174  1.00  0.00     0.019 C 
HETATM    3  C3  UNL     1      -2.563  -1.277  -1.335  1.00  0.00     0.047 C 
HETATM    4  C4  UNL     1      -3.133  -0.916  -2.440  1.00  0.00     0.012 C 
HETATM    5 BR1  UNL     1      -2.605  -1.862  -3.988  1.00  0.00    -0.051 Br
HETATM    6  C5  UNL     1      -3.994   0.222  -2.845  1.00  0.00     0.017 C 
HETATM    7  C6  UNL     1      -4.396   1.235  -2.053  1.00  0.00    -0.004 C 
HETATM    8  C7  UNL     1      -4.369   1.856  -0.688  1.00  0.00     0.177 C 
HETATM    9  N1  UNL     1      -3.679   3.163  -0.782  1.00  0.00    -0.279 NA
HETATM   10  C8  UNL     1      -2.358   3.082  -0.974  1.00  0.00     0.228 C 
HETATM   11  N2  UNL     1      -1.221   2.243  -1.144  1.00  0.00    -0.238 NA
HETATM   12  C9  UNL     1      -0.848   1.432  -0.189  1.00  0.00     0.208 C 
HETATM   13  N3  UNL     1       0.182   0.451   0.066  1.00  0.00    -0.353 N 
HETATM   14  C10 UNL     1       0.714  -0.782  -0.479  1.00  0.00     0.024 C 
HETATM   15  C11 UNL     1       2.066  -0.795  -0.400  1.00  0.00     0.001 C 
HETATM   16  C19 UNL     1       0.127  -2.007  -1.093  1.00  0.00     0.176 C 
HETATM   17  N4  UNL     1      -0.819  -2.694  -0.236  1.00  0.00    -0.385 N 
HETATM   18  H10 UNL     1       0.707   0.749   0.949  1.00  0.00     0.166 HD
HETATM   19  H21 UNL     1      -1.108  -3.514   0.345  1.00  0.00     0.160 HD
ENDROOT
BRANCH  15  20
HETATM   20  C12 UNL     1       3.199   0.040   0.067  1.00  0.00     0.041 C 
BRANCH  20  21
HETATM   21  C13 UNL     1       4.051  -0.724   1.042  1.00  0.00     0.035 C 
HETATM   22  C14 UNL     1       3.262  -1.136   2.212  1.00  0.00    -0.006 C 
HETATM   23  C15 UNL     1       3.205  -0.355   3.251  1.00  0.00    -0.029 C 
HETATM   24  C16 UNL     1       4.099   0.570   3.444  1.00  0.00     0.011 C 
HETATM   25  C17 UNL     1       5.209   0.766   2.568  1.00  0.00    -0.002 C 
HETATM   26  C18 UNL     1       5.217   0.155   1.405  1.00  0.00    -0.018 C 
ENDBRANCH  20  21
ENDBRANCH  15  20
TORSDOF 2
