REMARK  1 active torsions:
REMARK  status: ('A' for Active; 'I' for Inactive)
REMARK    1  A    between atoms: C1_2  and  C2_3 
ROOT
HETATM    1  C2  UNL     1      -2.421   0.627   0.243  1.00  0.00     0.021 C 
HETATM    2  C3  UNL     1      -1.699   1.907  -0.166  1.00  0.00     0.140 C 
HETATM    3  N1  UNL     1      -0.301   1.821  -0.127  1.00  0.00    -0.347 N 
HETATM    4  N2  UNL     1       0.346   1.409   0.993  1.00  0.00    -0.188 NA
HETATM    5  S1  UNL     1       1.980   0.754   0.758  1.00  0.00    -0.081 SA
HETATM    6  C4  UNL     1       2.964   2.013   0.323  1.00  0.00     0.169 C 
HETATM    7  N3  UNL     1       4.370   1.921   0.037  1.00  0.00    -0.247 NA
HETATM    8  C5  UNL     1       5.012   0.847  -0.261  1.00  0.00     0.232 C 
HETATM    9  N4  UNL     1       4.776  -0.525  -0.438  1.00  0.00    -0.257 NA
HETATM   10  C6  UNL     1       3.704  -1.156  -0.218  1.00  0.00     0.107 C 
HETATM   11  C7  UNL     1       2.337  -0.966   0.246  1.00  0.00     0.103 C 
HETATM   12  C8  UNL     1       1.441  -1.462  -0.914  1.00  0.00     0.056 C 
HETATM   13  C9  UNL     1       0.151  -1.608  -0.399  1.00  0.00    -0.067 C 
HETATM   14  C10 UNL     1      -0.992  -2.517  -0.838  1.00  0.00    -0.007 C 
HETATM   15  C11 UNL     1      -2.118  -1.907   0.017  1.00  0.00     0.016 A 
HETATM   16  C12 UNL     1      -2.877  -1.961   1.053  1.00  0.00    -0.014 A 
HETATM   17  C13 UNL     1      -1.505  -1.223   1.701  1.00  0.00    -0.014 A 
HETATM   18  C14 UNL     1      -0.796  -1.224   0.556  1.00  0.00     0.021 A 
HETATM   19  C15 UNL     1      -1.807  -0.479  -0.443  1.00  0.00     0.027 A 
HETATM   20  H6  UNL     1       0.249   2.321  -0.837  1.00  0.00     0.174 HD
HETATM   21  H7  UNL     1       0.361   2.130   1.773  1.00  0.00     0.160 HD
ENDROOT
BRANCH   1  22
HETATM   22  C1  UNL     1      -3.877   0.843  -0.033  1.00  0.00     0.091 C 
HETATM   23 BR1  UNL     1      -4.183   1.209  -1.928  1.00  0.00    -0.096 Br
ENDBRANCH   1  22
TORSDOF 1
