REMARK  6 active torsions:
REMARK  status: ('A' for Active; 'I' for Inactive)
REMARK    1  A    between atoms: O1_2  and  C2_3 
REMARK    2  A    between atoms: C5_6  and  O2_7 
REMARK    3  A    between atoms: O2_7  and  C6_8 
REMARK    4  A    between atoms: C6_8  and  N1_9 
REMARK    5  A    between atoms: C7_10  and  C8_11 
REMARK    6  A    between atoms: N2_15  and  C12_16 
ROOT
HETATM    1  C8  UNL     1      -0.506   0.391   1.142  1.00  0.00    -0.016 A 
HETATM    2  C9  UNL     1       0.281   0.559   2.268  1.00  0.00     0.013 A 
HETATM    3  C10 UNL     1       1.582   0.159   2.013  1.00  0.00     0.034 A 
HETATM    4  C11 UNL     1       1.668  -0.281   0.710  1.00  0.00     0.083 A 
HETATM    5  N2  UNL     1       2.650  -0.769  -0.060  1.00  0.00    -0.255 N 
HETATM    6  N3  UNL     1       2.388  -1.106  -1.312  1.00  0.00    -0.164 NA
HETATM    7  C17 UNL     1       1.136  -0.966  -1.832  1.00  0.00     0.255 A 
HETATM    8  N4  UNL     1       0.095  -0.485  -1.127  1.00  0.00    -0.237 NA
HETATM    9  C18 UNL     1       0.326  -0.129   0.157  1.00  0.00     0.093 A 
ENDROOT
BRANCH   1  10
HETATM   10  C7  UNL     1      -1.949   0.677   0.932  1.00  0.00     0.084 A 
HETATM   11  C5  UNL     1      -2.478  -0.305  -0.037  1.00  0.00     0.057 A 
HETATM   12  C4  UNL     1      -3.106  -0.272  -1.197  1.00  0.00     0.035 A 
HETATM   13  C3  UNL     1      -3.364   1.074  -1.682  1.00  0.00     0.035 A 
HETATM   14  C2  UNL     1      -2.913   1.996  -0.855  1.00  0.00     0.046 A 
HETATM   15  C19 UNL     1      -2.210   2.052   0.443  1.00  0.00     0.080 A 
BRANCH  11  16
HETATM   16  O2  UNL     1      -2.203  -1.579   0.479  1.00  0.00    -0.326 OA
BRANCH  16  17
HETATM   17  C6  UNL     1      -2.279  -2.760  -0.260  1.00  0.00     0.441 C 
BRANCH  17  18
HETATM   18  N1  UNL     1      -1.935  -3.915   0.551  1.00  0.00     0.101 N 
HETATM   19  H8  UNL     1      -1.498  -4.673  -0.030  1.00  0.00     0.315 HD
HETATM   20  H9  UNL     1      -1.276  -3.565   1.280  1.00  0.00     0.315 HD
ENDBRANCH  17  18
ENDBRANCH  16  17
ENDBRANCH  11  16
BRANCH  14  21
HETATM   21  O1  UNL     1      -3.143   3.303  -1.288  1.00  0.00    -0.360 OA
HETATM   22  C1  UNL     1      -4.246   4.031  -0.768  1.00  0.00     0.209 C 
ENDBRANCH  14  21
ENDBRANCH   1  10
BRANCH   5  23
HETATM   23  C12 UNL     1       3.987  -0.927   0.467  1.00  0.00     0.157 A 
HETATM   24  C13 UNL     1       4.811  -1.834  -0.362  1.00  0.00     0.005 A 
HETATM   25  C14 UNL     1       5.898  -1.207  -0.789  1.00  0.00     0.017 A 
HETATM   26  C15 UNL     1       5.881   0.168  -0.278  1.00  0.00     0.009 A 
HETATM   27 BR1  UNL     1       7.060   1.651  -0.449  1.00  0.00    -0.051 Br
HETATM   28  C16 UNL     1       4.767   0.322   0.451  1.00  0.00     0.023 A 
ENDBRANCH   5  23
TORSDOF 6
