REMARK  3 active torsions:
REMARK  status: ('A' for Active; 'I' for Inactive)
REMARK    1  A    between atoms: N5_11  and  C7_12 
REMARK    2  A    between atoms: C7_12  and  C8_13 
REMARK    3  A    between atoms: C8_13  and  C9_14 
ROOT
HETATM    1  C1  UNL     1      -4.551   2.086   1.747  1.00  0.00     0.043 C 
HETATM    2  C2  UNL     1      -3.787   1.220   0.814  1.00  0.00    -0.084 C 
HETATM    3  C3  UNL     1      -4.309   0.921  -0.366  1.00  0.00    -0.008 C 
HETATM    4  C4  UNL     1      -3.652   0.083  -1.358  1.00  0.00     0.143 C 
HETATM    5  N1  UNL     1      -2.227  -0.165  -1.107  1.00  0.00    -0.200 NA
HETATM    6  N2  UNL     1      -1.998  -1.274  -1.972  1.00  0.00    -0.237 N 
HETATM    7  N3  UNL     1      -1.520  -1.096  -3.276  1.00  0.00    -0.157 NA
HETATM    8  C5  UNL     1      -0.267  -0.815  -3.387  1.00  0.00     0.257 C 
HETATM    9  N4  UNL     1      -0.042  -0.844  -1.983  1.00  0.00    -0.236 NA
HETATM   10  C6  UNL     1       0.256  -1.978  -1.440  1.00  0.00     0.206 C 
HETATM   11  N5  UNL     1       0.328  -1.322  -0.177  1.00  0.00    -0.368 N 
HETATM   12  C15 UNL     1      -0.755  -1.061   0.698  1.00  0.00     0.112 A 
HETATM   13  C16 UNL     1      -2.030  -1.843   0.668  1.00  0.00     0.057 A 
HETATM   14  C17 UNL     1      -1.967  -0.420   0.252  1.00  0.00     0.060 A 
HETATM   15  C18 UNL     1      -2.473   0.681   1.135  1.00  0.00     0.062 C 
HETATM   16  H7  UNL     1      -2.024  -2.328  -2.128  1.00  0.00     0.204 HD
ENDROOT
BRANCH  11  17
HETATM   17  C7  UNL     1       1.694  -0.945   0.135  1.00  0.00     0.129 C 
BRANCH  17  18
HETATM   18  C8  UNL     1       1.931   0.547   0.142  1.00  0.00     0.060 C 
BRANCH  18  19
HETATM   19  C9  UNL     1       3.394   0.695   0.473  1.00  0.00    -0.035 A 
HETATM   20  C10 UNL     1       3.892   1.060   1.704  1.00  0.00     0.010 A 
HETATM   21  C11 UNL     1       5.245   1.170   1.945  1.00  0.00     0.024 A 
HETATM   22  C12 UNL     1       6.173   0.910   0.930  1.00  0.00     0.035 A 
HETATM   23 CL1  UNL     1       7.866   1.061   1.280  1.00  0.00    -0.084 Cl
HETATM   24  C13 UNL     1       5.700   0.543  -0.312  1.00  0.00     0.048 A 
HETATM   25  C14 UNL     1       4.344   0.441  -0.524  1.00  0.00     0.042 A 
HETATM   26 CL2  UNL     1       3.836  -0.033  -2.143  1.00  0.00    -0.084 Cl
ENDBRANCH  18  19
ENDBRANCH  17  18
ENDBRANCH  11  17
TORSDOF 3
