REMARK  4 active torsions:
REMARK  status: ('A' for Active; 'I' for Inactive)
REMARK    1  A    between atoms: C3_3  and  C4_4 
REMARK    2  A    between atoms: C5_5  and  C6_6 
REMARK    3  A    between atoms: C6_6  and  N1_7 
REMARK    4  A    between atoms: N1_7  and  C7_8 
ROOT
HETATM    1  C7  UNL     1       0.499   0.322  -0.578  1.00  0.00     0.154 A 
HETATM    2  N2  UNL     1      -0.417   0.676   0.366  1.00  0.00    -0.222 NA
HETATM    3  C8  UNL     1      -0.041   1.053   1.592  1.00  0.00     0.236 A 
HETATM    4  N3  UNL     1       1.236   1.116   1.997  1.00  0.00    -0.240 NA
HETATM    5  C9  UNL     1       2.176   0.771   1.086  1.00  0.00     0.088 A 
HETATM    6  C10 UNL     1       1.852   0.365  -0.218  1.00  0.00     0.104 A 
HETATM    7  N4  UNL     1       2.700  -0.043  -1.291  1.00  0.00    -0.372 N 
HETATM    8  C11 UNL     1       4.050   0.503  -1.372  1.00  0.00     0.157 A 
HETATM    9  C12 UNL     1       5.219  -0.389  -1.514  1.00  0.00     0.024 A 
HETATM   10 BR1  UNL     1       6.525  -1.538  -2.254  1.00  0.00    -0.052 Br
HETATM   11  C13 UNL     1       4.860   0.204  -0.237  1.00  0.00    -0.015 A 
HETATM   12  C14 UNL     1       4.720   0.664   1.145  1.00  0.00     0.013 C 
HETATM   13  C15 UNL     1       3.516   0.904   1.695  1.00  0.00     0.035 C 
HETATM   14  H12 UNL     1       2.190  -0.722  -1.889  1.00  0.00     0.161 HD
ENDROOT
BRANCH   1  15
HETATM   15  N1  UNL     1       0.038  -0.054  -1.875  1.00  0.00    -0.369 N 
HETATM   16  H10 UNL     1       0.538  -0.332  -2.736  1.00  0.00     0.161 HD
BRANCH  15  17
HETATM   17  C6  UNL     1      -1.369  -0.059  -2.100  1.00  0.00     0.148 C 
BRANCH  17  18
HETATM   18  C5  UNL     1      -2.086  -1.008  -1.179  1.00  0.00    -0.007 C 
HETATM   19  C4  UNL     1      -3.022  -0.632  -0.321  1.00  0.00    -0.003 C 
BRANCH  19  20
HETATM   20  C3  UNL     1      -3.680  -1.600   0.544  1.00  0.00    -0.005 C 
HETATM   21  C2  UNL     1      -4.613  -1.221   1.400  1.00  0.00    -0.031 C 
HETATM   22  C1  UNL     1      -5.031   0.188   1.519  1.00  0.00     0.036 C 
ENDBRANCH  19  20
ENDBRANCH  17  18
ENDBRANCH  15  17
ENDBRANCH   1  15
TORSDOF 4
