REMARK  6 active torsions:
REMARK  status: ('A' for Active; 'I' for Inactive)
REMARK    1  A    between atoms: N1_1  and  C1_2 
REMARK    2  A    between atoms: C3_4  and  C4_5 
REMARK    3  A    between atoms: C4_5  and  C5_6 
REMARK    4  A    between atoms: C13_19  and  N5_20 
REMARK    5  A    between atoms: N5_20  and  C14_21 
REMARK    6  A    between atoms: C14_21  and  C15_22 
ROOT
HETATM    1  C1  UNL     1       0.151  -1.000   1.059  1.00  0.00     0.283 A 
HETATM    2  C2  UNL     1       1.242  -0.261   1.696  1.00  0.00     0.051 C 
HETATM    3  C3  UNL     1       2.324  -0.760   1.057  1.00  0.00     0.014 C 
HETATM    4  N2  UNL     1       2.102  -1.978   0.313  1.00  0.00    -0.345 N 
HETATM    5  C11 UNL     1       0.710  -2.267   0.561  1.00  0.00     0.152 A 
HETATM    6  N3  UNL     1       0.058  -3.409   0.521  1.00  0.00    -0.226 NA
HETATM    7  C12 UNL     1      -1.293  -3.408   1.036  1.00  0.00     0.231 A 
HETATM    8  N4  UNL     1      -1.827  -2.361   1.529  1.00  0.00    -0.244 NA
HETATM    9  C13 UNL     1      -1.179  -1.049   1.656  1.00  0.00     0.393 A 
HETATM   10  H9  UNL     1       2.643  -2.608  -0.276  1.00  0.00     0.167 HD
ENDROOT
BRANCH   9  11
HETATM   11  N5  UNL     1      -2.190  -0.119   1.205  1.00  0.00     0.116 N 
HETATM   12  H12 UNL     1      -2.937  -0.154   1.958  1.00  0.00     0.319 HD
BRANCH  11  13
HETATM   13  C14 UNL     1      -2.792  -0.565   0.005  1.00  0.00     0.312 C 
BRANCH  13  14
HETATM   14  C15 UNL     1      -3.964   0.258  -0.416  1.00  0.00    -0.013 A 
HETATM   15  C16 UNL     1      -5.274  -0.201  -0.208  1.00  0.00     0.010 A 
HETATM   16  C17 UNL     1      -6.426   0.450  -0.538  1.00  0.00     0.001 A 
HETATM   17  C18 UNL     1      -6.301   1.685  -1.138  1.00  0.00     0.001 A 
HETATM   18  C19 UNL     1      -5.035   2.210  -1.381  1.00  0.00     0.019 A 
HETATM   19  C20 UNL     1      -3.952   1.480  -1.012  1.00  0.00     0.018 A 
HETATM   20 BR1  UNL     1      -2.259   2.267  -1.385  1.00  0.00    -0.051 Br
ENDBRANCH  13  14
ENDBRANCH  11  13
ENDBRANCH   9  11
BRANCH   1  21
HETATM   21  N1  UNL     1      -0.034  -0.161  -0.212  1.00  0.00     0.103 N 
HETATM   22  H1  UNL     1       0.911  -0.297  -0.678  1.00  0.00     0.315 HD
HETATM   23  H2  UNL     1      -0.070   0.808   0.176  1.00  0.00     0.315 HD
ENDBRANCH   1  21
BRANCH   3  24
HETATM   24  C4  UNL     1       3.695  -0.271   1.356  1.00  0.00     0.097 C 
BRANCH  24  25
HETATM   25  C5  UNL     1       4.385   0.380   0.230  1.00  0.00    -0.031 A 
HETATM   26  C6  UNL     1       4.236   1.777   0.261  1.00  0.00     0.011 A 
HETATM   27  C7  UNL     1       4.742   2.621  -0.681  1.00  0.00     0.024 A 
HETATM   28  C8  UNL     1       5.452   2.118  -1.747  1.00  0.00     0.035 A 
HETATM   29 CL1  UNL     1       6.170   3.042  -3.043  1.00  0.00    -0.084 Cl
HETATM   30  C9  UNL     1       5.623   0.763  -1.818  1.00  0.00     0.048 A 
HETATM   31  C10 UNL     1       5.099  -0.063  -0.851  1.00  0.00     0.042 A 
HETATM   32 CL2  UNL     1       5.341  -1.792  -0.890  1.00  0.00    -0.084 Cl
ENDBRANCH  24  25
ENDBRANCH   3  24
TORSDOF 6
