REMARK  6 active torsions:
REMARK  status: ('A' for Active; 'I' for Inactive)
REMARK    1  A    between atoms: C1_2  and  C2_3 
REMARK    2  A    between atoms: C2_3  and  C3_4 
REMARK    3  A    between atoms: C4_5  and  N1_6 
REMARK    4  A    between atoms: N1_6  and  C5_7 
REMARK    5  A    between atoms: C10_13  and  C11_14 
REMARK    6  A    between atoms: C11_14  and  C12_15 
ROOT
HETATM    1  C5  UNL     1       1.104  -1.030   0.738  1.00  0.00     0.132 C 
HETATM    2  C6  UNL     1       1.772  -2.240  -0.012  1.00  0.00     0.180 C 
HETATM    3  N2  UNL     1       0.954  -2.697  -1.248  1.00  0.00    -0.274 NA
HETATM    4  C7  UNL     1       0.024  -1.850  -1.549  1.00  0.00     0.102 C 
HETATM    5  C8  UNL     1      -0.662  -2.113  -0.195  1.00  0.00     0.116 C 
HETATM    6  C9  UNL     1      -0.086  -0.662  -0.041  1.00  0.00    -0.026 C 
HETATM    7  C10 UNL     1      -0.993   0.027  -0.765  1.00  0.00     0.019 C 
HETATM    8  N3  UNL     1      -0.973  -0.864  -1.990  1.00  0.00    -0.347 N 
HETATM    9  H16 UNL     1      -1.449  -0.798  -2.871  1.00  0.00     0.167 HD
ENDROOT
BRANCH   7  10
HETATM   10  C11 UNL     1      -1.551   1.285  -0.286  1.00  0.00     0.097 C 
BRANCH  10  11
HETATM   11  C12 UNL     1      -3.018   1.145  -0.139  1.00  0.00    -0.031 A 
HETATM   12  C13 UNL     1      -3.586   0.938   1.115  1.00  0.00     0.011 A 
HETATM   13  C14 UNL     1      -4.947   0.789   1.279  1.00  0.00     0.024 A 
HETATM   14  C15 UNL     1      -5.813   0.836   0.224  1.00  0.00     0.035 A 
HETATM   15 CL2  UNL     1      -7.531   0.645   0.450  1.00  0.00    -0.084 Cl
HETATM   16  C16 UNL     1      -5.275   1.042  -1.035  1.00  0.00     0.048 A 
HETATM   17  C17 UNL     1      -3.926   1.186  -1.169  1.00  0.00     0.042 A 
HETATM   18 CL3  UNL     1      -3.356   1.460  -2.798  1.00  0.00    -0.084 Cl
ENDBRANCH  10  11
ENDBRANCH   7  10
BRANCH   1  19
HETATM   19  N1  UNL     1       2.051   0.018   0.924  1.00  0.00    -0.389 N 
HETATM   20  H5  UNL     1       1.787   0.927   0.487  1.00  0.00     0.159 HD
BRANCH  19  21
HETATM   21  C4  UNL     1       3.287   0.426   1.475  1.00  0.00     0.083 C 
HETATM   22  C3  UNL     1       4.356   0.500   0.663  1.00  0.00     0.017 C 
BRANCH  22  23
HETATM   23  C2  UNL     1       5.657   0.911   1.164  1.00  0.00     0.013 C 
BRANCH  23  24
HETATM   24  C1  UNL     1       6.697   0.983   0.373  1.00  0.00     0.084 C 
HETATM   25 CL1  UNL     1       7.785   0.941  -0.994  1.00  0.00    -0.097 Cl
ENDBRANCH  23  24
ENDBRANCH  22  23
ENDBRANCH  19  21
ENDBRANCH   1  19
TORSDOF 6
