REMARK  2 active torsions:
REMARK  status: ('A' for Active; 'I' for Inactive)
REMARK    1  A    between atoms: N1_6  and  C5_7 
REMARK    2  A    between atoms: C10_14  and  C11_15 
ROOT
HETATM    1  C5  UNL     1      -1.512   0.397   0.592  1.00  0.00     0.129 A 
HETATM    2  N2  UNL     1      -1.607   1.269   1.612  1.00  0.00    -0.225 NA
HETATM    3  C6  UNL     1      -0.553   1.795   2.260  1.00  0.00     0.235 A 
HETATM    4  N3  UNL     1       0.688   1.427   1.866  1.00  0.00    -0.240 NA
HETATM    5  C7  UNL     1       0.876   0.553   0.847  1.00  0.00     0.083 A 
HETATM    6  C8  UNL     1      -0.236   0.039   0.211  1.00  0.00     0.039 A 
HETATM    7  C9  UNL     1       0.720  -0.687  -0.611  1.00  0.00     0.032 A 
HETATM    8  C10 UNL     1       1.781  -0.205  -0.013  1.00  0.00     0.007 A 
ENDROOT
BRANCH   8   9
HETATM    9  C11 UNL     1       3.254  -0.261  -0.034  1.00  0.00    -0.002 A 
HETATM   10  C12 UNL     1       4.058   0.468   0.845  1.00  0.00     0.016 A 
HETATM   11  C13 UNL     1       5.432   0.373   0.776  1.00  0.00     0.025 A 
HETATM   12  C14 UNL     1       6.056  -0.434  -0.151  1.00  0.00     0.035 A 
HETATM   13 CL1  UNL     1       7.799  -0.566  -0.253  1.00  0.00    -0.084 Cl
HETATM   14  C15 UNL     1       5.232  -1.148  -1.014  1.00  0.00     0.048 A 
HETATM   15  C16 UNL     1       3.848  -1.089  -0.987  1.00  0.00     0.046 A 
HETATM   16 CL2  UNL     1       2.960  -2.048  -2.138  1.00  0.00    -0.083 Cl
ENDBRANCH   8   9
BRANCH   1  17
HETATM   17  N1  UNL     1      -2.646  -0.144  -0.078  1.00  0.00    -0.392 N 
HETATM   18  B1  UNL     1      -4.093   0.187   0.266  1.00  0.00     0.298 B 
HETATM   19  C1  UNL     1      -4.599   1.472   1.044  1.00  0.00    -0.026 C 
HETATM   20  C2  UNL     1      -4.932  -0.689  -0.786  1.00  0.00     0.005 A 
HETATM   21  C3  UNL     1      -3.825  -1.350  -1.527  1.00  0.00    -0.018 A 
HETATM   22  C4  UNL     1      -2.614  -1.061  -1.152  1.00  0.00     0.071 A 
ENDBRANCH   1  17
TORSDOF 2
