REMARK  2 active torsions:
REMARK  status: ('A' for Active; 'I' for Inactive)
REMARK    1  A    between atoms: C7_7  and  N1_8 
REMARK    2  A    between atoms: N1_8  and  C8_9 
ROOT
HETATM    1  C1  UNL     1       7.295   2.511   0.254  1.00  0.00     0.018 C 
HETATM    2  C2  UNL     1       6.534   1.620  -0.041  1.00  0.00    -0.078 C 
HETATM    3  C3  UNL     1       5.609   0.566  -0.377  1.00  0.00     0.019 A 
HETATM    4  C4  UNL     1       5.859  -0.337  -1.382  1.00  0.00     0.021 A 
HETATM    5  C5  UNL     1       4.979  -1.345  -1.714  1.00  0.00     0.004 A 
HETATM    6  C6  UNL     1       3.806  -1.386  -0.954  1.00  0.00     0.029 A 
HETATM    7  C7  UNL     1       3.554  -0.462   0.073  1.00  0.00     0.035 A 
HETATM    8  C21 UNL     1       4.458   0.520   0.365  1.00  0.00     0.050 A 
ENDROOT
BRANCH   7   9
HETATM    9  N1  UNL     1       2.312  -0.857   0.530  1.00  0.00    -0.340 N 
HETATM   10  H5  UNL     1       2.351  -0.247   1.418  1.00  0.00     0.167 HD
BRANCH   9  11
HETATM   11  C8  UNL     1       1.075  -1.251   0.982  1.00  0.00     0.143 A 
HETATM   12  N2  UNL     1       0.847  -2.321   1.805  1.00  0.00    -0.223 NA
HETATM   13  C9  UNL     1      -0.407  -2.655   2.157  1.00  0.00     0.237 A 
HETATM   14  N3  UNL     1      -1.433  -1.956   1.715  1.00  0.00    -0.223 NA
HETATM   15  C10 UNL     1      -1.350  -0.906   0.920  1.00  0.00     0.150 A 
HETATM   16  C11 UNL     1      -0.070  -0.561   0.557  1.00  0.00     0.058 A 
HETATM   17  N4  UNL     1      -2.166  -0.018   0.324  1.00  0.00    -0.299 N 
HETATM   18  C12 UNL     1      -0.141   0.545  -0.263  1.00  0.00     0.044 A 
HETATM   19  C13 UNL     1      -1.464   0.889  -0.411  1.00  0.00     0.020 A 
HETATM   20  C20 UNL     1      -1.892   2.031  -1.222  1.00  0.00     0.063 C 
HETATM   21  C19 UNL     1      -3.209   1.843  -1.906  1.00  0.00     0.057 C 
HETATM   22  C18 UNL     1      -4.335   1.807  -0.912  1.00  0.00     0.014 C 
HETATM   23  C17 UNL     1      -4.510   0.977   0.127  1.00  0.00     0.049 C 
HETATM   24 CL1  UNL     1      -5.614   3.004  -1.109  1.00  0.00    -0.089 Cl
HETATM   25  C14 UNL     1      -3.593  -0.102   0.504  1.00  0.00     0.038 C 
HETATM   26  C15 UNL     1      -4.120  -1.191   1.039  1.00  0.00    -0.001 C 
HETATM   27  C16 UNL     1      -5.523  -1.506   1.317  1.00  0.00     0.038 C 
ENDBRANCH   9  11
ENDBRANCH   7   9
TORSDOF 2
