REMARK  2 active torsions:
REMARK  status: ('A' for Active; 'I' for Inactive)
REMARK    1  A    between atoms: C1_2  and  C4_7 
REMARK    2  A    between atoms: C4_7  and  C5_8 
ROOT
HETATM    1  C5  UNL     1       1.019   0.267   0.475  1.00  0.00     0.228 C 
HETATM    2  C6  UNL     1      -0.291  -0.123   1.191  1.00  0.00     0.054 C 
HETATM    3  C7  UNL     1      -0.897  -1.267   0.465  1.00  0.00     0.033 A 
HETATM    4  C8  UNL     1      -2.395  -0.727   0.089  1.00  0.00     0.064 A 
HETATM    5  C9  UNL     1      -4.041  -0.788  -0.603  1.00  0.00     0.043 A 
HETATM    6  C10 UNL     1      -3.657  -2.489  -1.164  1.00  0.00     0.040 A 
HETATM    7  C11 UNL     1      -2.565  -2.038  -0.533  1.00  0.00    -0.043 A 
HETATM    8  C12 UNL     1      -1.816  -1.704  -0.091  1.00  0.00    -0.031 A 
HETATM    9  N1  UNL     1      -2.767   0.610   0.581  1.00  0.00    -0.369 N 
HETATM   10  C13 UNL     1      -2.816   1.958   0.157  1.00  0.00     0.205 C 
HETATM   11  N2  UNL     1      -2.200   2.966  -0.303  1.00  0.00    -0.238 NA
HETATM   12  C14 UNL     1      -0.810   2.905  -0.585  1.00  0.00     0.229 C 
HETATM   13  N3  UNL     1      -0.268   2.773   0.588  1.00  0.00    -0.253 NA
HETATM   14  C15 UNL     1       1.160   2.670   0.740  1.00  0.00     0.419 C 
HETATM   15  N4  UNL     1       1.572   1.361   1.197  1.00  0.00     0.107 N 
HETATM   16  H12 UNL     1      -3.087   0.416   1.565  1.00  0.00     0.161 HD
HETATM   17  H17 UNL     1       1.285   1.330   2.222  1.00  0.00     0.318 HD
ENDROOT
BRANCH   1  18
HETATM   18  C4  UNL     1       1.903  -0.970   0.686  1.00  0.00     0.086 C 
BRANCH  18  19
HETATM   19  C1  UNL     1       3.227  -0.789   0.061  1.00  0.00     0.007 C 
HETATM   20 CL1  UNL     1       4.197   0.546   0.630  1.00  0.00    -0.115 Cl
HETATM   21 BR1  UNL     1       5.824   0.179  -1.350  1.00  0.00    -0.043 Br
HETATM   22  C3  UNL     1       4.948  -1.508  -1.566  1.00  0.00     0.182 C 
HETATM   23  C2  UNL     1       3.648  -1.613  -0.890  1.00  0.00     0.024 C 
HETATM   24 CL2  UNL     1       6.055  -2.802  -1.007  1.00  0.00    -0.108 Cl
ENDBRANCH  18  19
ENDBRANCH   1  18
TORSDOF 2
