REMARK  6 active torsions:
REMARK  status: ('A' for Active; 'I' for Inactive)
REMARK    1  A    between atoms: C1_2  and  C2_3 
REMARK    2  A    between atoms: C5_7  and  C6_8 
REMARK    3  A    between atoms: C11_13  and  C12_14 
REMARK    4  A    between atoms: C12_14  and  C13_15 
REMARK    5  A    between atoms: C13_15  and  C14_16 
REMARK    6  A    between atoms: C14_16  and  C15_17 
ROOT
HETATM    1  C6  UNL     1       0.140   1.448  -0.367  1.00  0.00    -0.044 A 
HETATM    2  C7  UNL     1      -0.338   2.664   0.073  1.00  0.00     0.008 A 
HETATM    3  C8  UNL     1       0.486   3.769   0.061  1.00  0.00     0.001 A 
HETATM    4  C9  UNL     1       1.777   3.618  -0.397  1.00  0.00     0.001 A 
HETATM    5  C10 UNL     1       2.211   2.393  -0.825  1.00  0.00     0.008 A 
HETATM    6  C11 UNL     1       1.413   1.246  -0.832  1.00  0.00    -0.048 A 
ENDROOT
BRANCH   1   7
HETATM    7  C5  UNL     1      -0.804   0.333  -0.313  1.00  0.00     0.061 C 
HETATM    8  C4  UNL     1      -0.861  -0.300   1.038  1.00  0.00     0.179 C 
HETATM    9  O2  UNL     1      -1.146  -1.665   0.983  1.00  0.00    -0.384 OA
HETATM   10  C3  UNL     1      -2.539  -1.883   0.924  1.00  0.00     0.228 C 
HETATM   11  C2  UNL     1      -2.966  -1.583  -0.473  1.00  0.00     0.084 C 
HETATM   12  N1  UNL     1      -2.869  -0.359  -1.231  1.00  0.00    -0.387 N 
HETATM   13  C16 UNL     1      -2.161   0.833  -0.773  1.00  0.00     0.131 C 
HETATM   14  H18 UNL     1      -3.326  -0.302  -2.167  1.00  0.00     0.159 HD
BRANCH  11  15
HETATM   15  C1  UNL     1      -3.521  -2.575  -1.138  1.00  0.00     0.247 C 
HETATM   16  O1  UNL     1      -4.449  -3.283  -1.600  1.00  0.00    -0.282 OA
ENDBRANCH  11  15
ENDBRANCH   1   7
BRANCH   6  17
HETATM   17  C12 UNL     1       1.970  -0.014  -1.312  1.00  0.00     0.066 C 
BRANCH  17  18
HETATM   18  C13 UNL     1       2.315  -0.930  -0.201  1.00  0.00    -0.025 C 
BRANCH  18  19
HETATM   19  C14 UNL     1       2.342  -1.988   0.588  1.00  0.00    -0.020 C 
BRANCH  19  20
HETATM   20  C15 UNL     1       2.943  -2.573   1.804  1.00  0.00     0.112 C 
HETATM   21 BR1  UNL     1       1.510  -2.947   3.046  1.00  0.00    -0.092 Br
ENDBRANCH  19  20
ENDBRANCH  18  19
ENDBRANCH  17  18
ENDBRANCH   6  17
TORSDOF 6
