REMARK  0 active torsions:
REMARK  status: ('A' for Active; 'I' for Inactive)
ROOT
HETATM    1 CL1  UNL     1       4.744  -1.657   0.098  1.00  0.00    -0.088 Cl
HETATM    2  C1  UNL     1       3.775  -0.294   0.688  1.00  0.00     0.022 A 
HETATM    3  C2  UNL     1       4.198   0.691   1.460  1.00  0.00     0.044 A 
HETATM    4  C3  UNL     1       3.026   1.527   1.645  1.00  0.00     0.038 A 
HETATM    5 CL2  UNL     1       3.244   2.974   2.648  1.00  0.00    -0.084 Cl
HETATM    6  C4  UNL     1       1.952   1.031   0.994  1.00  0.00    -0.047 A 
HETATM    7  C5  UNL     1       0.627   1.778   1.062  1.00  0.00     0.056 C 
HETATM    8  C6  UNL     1       0.062   1.811  -0.325  1.00  0.00     0.121 C 
HETATM    9  N1  UNL     1      -1.290   2.376  -0.412  1.00  0.00    -0.388 N 
HETATM   10  C7  UNL     1      -1.942   1.840  -1.628  1.00  0.00     0.187 C 
HETATM   11  C8  UNL     1      -2.328   0.775  -2.373  1.00  0.00     0.034 C 
HETATM   12  C9  UNL     1      -2.337  -0.698  -2.501  1.00  0.00     0.017 C 
HETATM   13  C10 UNL     1      -1.808  -1.689  -1.814  1.00  0.00     0.088 C 
HETATM   14  N2  UNL     1      -0.994  -1.687  -0.661  1.00  0.00    -0.360 N 
HETATM   15  C11 UNL     1       0.386  -2.003  -0.582  1.00  0.00     0.130 A 
HETATM   16  C12 UNL     1       1.635  -2.310  -0.617  1.00  0.00     0.024 C 
HETATM   17  C13 UNL     1       1.737  -1.509   0.683  1.00  0.00     0.013 C 
HETATM   18  C14 UNL     1       0.489  -1.640   1.418  1.00  0.00     0.041 C 
HETATM   19  C15 UNL     1      -0.505  -1.548   0.648  1.00  0.00     0.113 A 
HETATM   20  C16 UNL     1      -1.760  -1.021   0.814  1.00  0.00    -0.100 C 
HETATM   21  C17 UNL     1      -2.813  -0.560   0.940  1.00  0.00     0.312 A 
HETATM   22  N3  UNL     1      -4.041  -0.006   1.069  1.00  0.00     0.140 N 
HETATM   23  C18 UNL     1      -3.284   0.738   0.034  1.00  0.00     0.396 A 
HETATM   24  N4  UNL     1      -2.119   0.756  -0.678  1.00  0.00    -0.251 NA
HETATM   25  C19 UNL     1       2.291  -0.206   0.306  1.00  0.00     0.066 A 
HETATM   26  H6  UNL     1      -1.863   3.061   0.176  1.00  0.00     0.156 HD
HETATM   27  H14 UNL     1      -3.962  -0.786   1.714  1.00  0.00     0.321 HD
ENDROOT
TORSDOF 0
