REMARK  6 active torsions:
REMARK  status: ('A' for Active; 'I' for Inactive)
REMARK    1  A    between atoms: C7_7  and  N1_8 
REMARK    2  A    between atoms: N1_8  and  C8_9 
REMARK    3  A    between atoms: C10_11  and  N2_12 
REMARK    4  A    between atoms: N2_12  and  C11_13 
REMARK    5  A    between atoms: C11_13  and  C12_14 
REMARK    6  A    between atoms: C12_14  and  C13_15 
ROOT
HETATM    1  C1  UNL     1      -7.726   1.927  -2.063  1.00  0.00     0.018 C 
HETATM    2  C2  UNL     1      -6.743   1.445  -1.518  1.00  0.00    -0.078 C 
HETATM    3  C3  UNL     1      -5.603   0.869  -0.859  1.00  0.00     0.019 A 
HETATM    4  C4  UNL     1      -5.736  -0.401  -0.315  1.00  0.00     0.021 A 
HETATM    5  C5  UNL     1      -4.664  -0.989   0.326  1.00  0.00     0.004 A 
HETATM    6  C6  UNL     1      -3.475  -0.272   0.400  1.00  0.00     0.029 A 
HETATM    7  C7  UNL     1      -3.306   0.992  -0.129  1.00  0.00     0.035 A 
HETATM    8  C19 UNL     1      -4.401   1.538  -0.758  1.00  0.00     0.050 A 
ENDROOT
BRANCH   7   9
HETATM    9  N1  UNL     1      -2.040   1.670  -0.010  1.00  0.00    -0.341 N 
HETATM   10  H5  UNL     1      -2.008   2.631  -0.439  1.00  0.00     0.167 HD
BRANCH   9  11
HETATM   11  C8  UNL     1      -1.029   0.921   0.676  1.00  0.00     0.133 A 
HETATM   12  C9  UNL     1      -0.258   0.142  -0.173  1.00  0.00     0.100 A 
HETATM   13  C10 UNL     1       0.778  -0.663   0.293  1.00  0.00     0.128 A 
HETATM   14  N3  UNL     1       1.000  -0.655   1.601  1.00  0.00    -0.225 NA
HETATM   15  C18 UNL     1       0.253   0.096   2.400  1.00  0.00     0.237 A 
HETATM   16  N4  UNL     1      -0.759   0.890   1.998  1.00  0.00    -0.224 NA
BRANCH  13  17
HETATM   17  N2  UNL     1       1.585  -1.470  -0.551  1.00  0.00    -0.374 N 
HETATM   18  H7  UNL     1       1.358  -1.427  -1.580  1.00  0.00     0.161 HD
BRANCH  17  19
HETATM   19  C11 UNL     1       2.640  -2.292  -0.056  1.00  0.00     0.125 C 
BRANCH  19  20
HETATM   20  C12 UNL     1       3.733  -1.580   0.672  1.00  0.00     0.056 C 
BRANCH  20  21
HETATM   21  C13 UNL     1       4.451  -0.566  -0.113  1.00  0.00    -0.053 A 
HETATM   22  C14 UNL     1       5.758  -0.554  -0.393  1.00  0.00     0.036 A 
HETATM   23 CL1  UNL     1       7.075  -1.648   0.017  1.00  0.00    -0.084 Cl
HETATM   24  C15 UNL     1       6.066   0.626  -1.196  1.00  0.00     0.020 A 
HETATM   25  C16 UNL     1       4.964   1.337  -1.411  1.00  0.00    -0.021 A 
HETATM   26  C17 UNL     1       3.822   0.629  -0.730  1.00  0.00     0.063 A 
ENDBRANCH  20  21
ENDBRANCH  19  20
ENDBRANCH  17  19
ENDBRANCH  13  17
ENDBRANCH   9  11
ENDBRANCH   7   9
TORSDOF 6
