REMARK  2 active torsions:
REMARK  status: ('A' for Active; 'I' for Inactive)
REMARK    1  A    between atoms: C1_2  and  C2_3 
REMARK    2  A    between atoms: C2_3  and  C3_5 
ROOT
HETATM    1  C3  UNL     1      -2.251   0.567  -0.278  1.00  0.00     0.064 C 
HETATM    2  C4  UNL     1      -1.436   0.365   0.915  1.00  0.00    -0.001 C 
HETATM    3  C5  UNL     1      -0.302   0.942   1.127  1.00  0.00     0.085 C 
HETATM    4  N1  UNL     1       0.475   1.863   0.388  1.00  0.00    -0.366 N 
HETATM    5  C6  UNL     1       1.781   1.947  -0.155  1.00  0.00     0.040 A 
HETATM    6  C7  UNL     1       2.391   3.108   0.273  1.00  0.00     0.053 A 
HETATM    7  C8  UNL     1       3.671   3.484  -0.078  1.00  0.00     0.036 A 
HETATM    8 CL1  UNL     1       4.480   4.946   0.444  1.00  0.00    -0.084 Cl
HETATM    9  C9  UNL     1       4.361   2.620  -0.916  1.00  0.00     0.024 A 
HETATM   10  C10 UNL     1       3.739   1.470  -1.332  1.00  0.00     0.011 A 
HETATM   11  C11 UNL     1       2.464   1.108  -0.974  1.00  0.00    -0.028 A 
HETATM   12  C12 UNL     1       1.942  -0.174  -1.514  1.00  0.00     0.069 C 
HETATM   13  C13 UNL     1       1.914  -1.211  -0.466  1.00  0.00    -0.007 C 
HETATM   14  C14 UNL     1       0.998  -1.985   0.062  1.00  0.00     0.007 A 
HETATM   15  C15 UNL     1       1.440  -2.888   1.112  1.00  0.00     0.036 A 
HETATM   16  C16 UNL     1       0.642  -3.722   1.722  1.00  0.00     0.032 A 
HETATM   17 CL2  UNL     1       1.183  -4.806   2.985  1.00  0.00    -0.087 Cl
HETATM   18  C17 UNL     1      -0.779  -3.799   1.381  1.00  0.00     0.202 A 
HETATM   19  N2  UNL     1      -1.173  -2.884   0.334  1.00  0.00    -0.267 NA
HETATM   20  C18 UNL     1      -0.408  -2.060  -0.277  1.00  0.00     0.128 A 
HETATM   21  N3  UNL     1      -1.273  -1.426  -1.199  1.00  0.00    -0.374 N 
HETATM   22  C19 UNL     1      -2.507  -0.717  -1.004  1.00  0.00     0.132 C 
HETATM   23  H7  UNL     1      -0.169   2.679   0.254  1.00  0.00     0.165 HD
HETATM   24  H17 UNL     1      -0.677  -1.690  -2.013  1.00  0.00     0.161 HD
ENDROOT
BRANCH   1  25
HETATM   25  C2  UNL     1      -3.529   1.351  -0.035  1.00  0.00     0.208 C 
HETATM   26  F2  UNL     1      -3.177   2.601   0.399  1.00  0.00    -0.246 F 
BRANCH  25  27
HETATM   27  C1  UNL     1      -4.443   0.693   0.952  1.00  0.00     0.260 C 
HETATM   28  F1  UNL     1      -5.564   1.493   1.061  1.00  0.00    -0.253 F 
ENDBRANCH  25  27
ENDBRANCH   1  25
TORSDOF 2
