REMARK  9 active torsions:
REMARK  status: ('A' for Active; 'I' for Inactive)
REMARK    1  A    between atoms: C7_7  and  N1_8 
REMARK    2  A    between atoms: N1_8  and  C8_9 
REMARK    3  A    between atoms: C11_14  and  C12_15 
REMARK    4  A    between atoms: C12_15  and  C13_16 
REMARK    5  A    between atoms: C13_16  and  O1_17 
REMARK    6  A    between atoms: O1_17  and  C14_18 
REMARK    7  A    between atoms: C14_18  and  C15_19 
REMARK    8  A    between atoms: C15_19  and  O2_20 
REMARK    9  A    between atoms: C18_23  and  O3_24 
ROOT
HETATM    1  C1  UNL     1       7.398  -0.298  -1.879  1.00  0.00     0.018 C 
HETATM    2  C2  UNL     1       6.445  -0.973  -1.544  1.00  0.00    -0.078 C 
HETATM    3  C3  UNL     1       5.315  -1.779  -1.134  1.00  0.00     0.019 A 
HETATM    4  C4  UNL     1       5.379  -3.143  -0.936  1.00  0.00     0.021 A 
HETATM    5  C5  UNL     1       4.251  -3.841  -0.523  1.00  0.00     0.004 A 
HETATM    6  C6  UNL     1       3.063  -3.175  -0.312  1.00  0.00     0.029 A 
HETATM    7  C7  UNL     1       3.033  -1.800  -0.522  1.00  0.00     0.035 A 
HETATM    8  C20 UNL     1       4.129  -1.069  -0.930  1.00  0.00     0.050 A 
ENDROOT
BRANCH   7   9
HETATM    9  N1  UNL     1       1.860  -1.018  -0.330  1.00  0.00    -0.340 N 
HETATM   10  H5  UNL     1       1.148  -1.131  -1.054  1.00  0.00     0.167 HD
BRANCH   9  11
HETATM   11  C8  UNL     1       1.837  -0.207   0.826  1.00  0.00     0.137 A 
HETATM   12  N2  UNL     1       2.669  -0.120   1.787  1.00  0.00    -0.224 NA
HETATM   13  C9  UNL     1       2.392   0.789   2.839  1.00  0.00     0.229 A 
HETATM   14  N3  UNL     1       1.404   1.578   3.007  1.00  0.00    -0.278 NA
HETATM   15  C10 UNL     1       0.345   1.629   2.032  1.00  0.00     0.192 A 
HETATM   16  C11 UNL     1       0.677   0.704   0.920  1.00  0.00     0.007 A 
BRANCH  16  17
HETATM   17  C12 UNL     1      -0.293   0.916   0.057  1.00  0.00     0.026 C 
BRANCH  17  18
HETATM   18  C13 UNL     1      -1.456   1.279  -0.791  1.00  0.00     0.108 A 
HETATM   19  C17 UNL     1      -1.316   2.270  -1.879  1.00  0.00     0.080 A 
HETATM   20  C18 UNL     1      -2.023   2.656  -0.657  1.00  0.00     0.162 A 
BRANCH  18  21
HETATM   21  O1  UNL     1      -2.434   0.259  -0.861  1.00  0.00    -0.371 OA
BRANCH  21  22
HETATM   22  C14 UNL     1      -2.913  -0.015   0.429  1.00  0.00     0.195 C 
BRANCH  22  23
HETATM   23  C15 UNL     1      -3.890  -1.178   0.391  1.00  0.00     0.193 C 
BRANCH  23  24
HETATM   24  O2  UNL     1      -4.988  -0.933  -0.419  1.00  0.00    -0.394 OA
HETATM   25  C16 UNL     1      -5.843  -2.033  -0.467  1.00  0.00     0.201 C 
ENDBRANCH  23  24
ENDBRANCH  22  23
ENDBRANCH  21  22
ENDBRANCH  18  21
BRANCH  20  26
HETATM   26  O3  UNL     1      -3.402   2.817  -0.723  1.00  0.00    -0.387 OA
HETATM   27  C19 UNL     1      -3.803   3.799   0.192  1.00  0.00     0.202 C 
ENDBRANCH  20  26
ENDBRANCH  17  18
ENDBRANCH  16  17
ENDBRANCH   9  11
ENDBRANCH   7   9
TORSDOF 9
