REMARK  3 active torsions:
REMARK  status: ('A' for Active; 'I' for Inactive)
REMARK    1  A    between atoms: C3_3  and  N1_4 
REMARK    2  A    between atoms: N1_4  and  C4_5 
REMARK    3  A    between atoms: C4_5  and  N2_6 
ROOT
HETATM    1  C1  UNL     1       2.936  -1.911  -2.285  1.00  0.00     0.026 C 
HETATM    2  C2  UNL     1       2.692  -0.793  -1.647  1.00  0.00     0.020 C 
HETATM    3  C3  UNL     1       3.663   0.290  -1.548  1.00  0.00     0.074 C 
HETATM    4  C6  UNL     1       3.145   1.055  -0.631  1.00  0.00     0.112 C 
HETATM    5  N3  UNL     1       2.012   0.747  -0.179  1.00  0.00    -0.240 NA
HETATM    6  C7  UNL     1       1.483  -0.413  -0.943  1.00  0.00     0.251 C 
HETATM    7  C8  UNL     1       0.456   0.249  -1.864  1.00  0.00     0.071 C 
HETATM    8  C9  UNL     1      -0.823   0.790  -1.374  1.00  0.00     0.035 C 
HETATM    9  C10 UNL     1      -0.921   1.982  -0.517  1.00  0.00     0.273 C 
HETATM   10  N4  UNL     1      -2.078   2.479   0.075  1.00  0.00     0.095 NA
HETATM   11  C11 UNL     1      -3.406   2.186  -0.407  1.00  0.00     0.292 C 
HETATM   12  C12 UNL     1      -4.475   2.516   0.687  1.00  0.00     0.152 C 
HETATM   13  N5  UNL     1      -4.569   1.347   1.599  1.00  0.00    -0.382 N 
HETATM   14  C13 UNL     1      -5.304   0.378   2.395  1.00  0.00     0.149 C 
HETATM   15  C14 UNL     1      -3.180   1.129   1.617  1.00  0.00     0.087 C 
HETATM   16  C15 UNL     1      -3.023  -0.166   1.574  1.00  0.00     0.168 A 
HETATM   17  N6  UNL     1      -3.332  -1.510   1.530  1.00  0.00    -0.336 N 
HETATM   18  C16 UNL     1      -2.045  -2.116   1.394  1.00  0.00     0.051 A 
HETATM   19  C17 UNL     1      -1.595  -3.398   1.157  1.00  0.00     0.027 A 
HETATM   20  C18 UNL     1      -0.169  -3.442   0.933  1.00  0.00     0.020 A 
HETATM   21  C19 UNL     1       0.254  -2.175   1.050  1.00  0.00     0.220 A 
HETATM   22  C20 UNL     1       0.305  -0.828   1.238  1.00  0.00     0.281 A 
HETATM   23  C21 UNL     1      -1.027  -1.197   1.368  1.00  0.00     0.182 A 
HETATM   24  O1  UNL     1      -1.682  -0.027   1.493  1.00  0.00    -0.311 OA
HETATM   25  N7  UNL     1       0.892  -1.253   0.017  1.00  0.00    -0.010 N 
HETATM   26  C22 UNL     1      -2.140   2.257   1.564  1.00  0.00     0.333 C 
HETATM   27  H21 UNL     1      -4.258  -1.794   1.582  1.00  0.00     0.168 HD
HETATM   28  H25 UNL     1       1.236  -2.057  -0.647  1.00  0.00     0.285 HD
ENDROOT
BRANCH   3  29
HETATM   29  N1  UNL     1       4.873   0.437  -2.295  1.00  0.00    -0.349 N 
HETATM   30  H3  UNL     1       4.960   0.850  -3.254  1.00  0.00     0.167 HD
BRANCH  29  31
HETATM   31  C4  UNL     1       6.084  -0.019  -1.690  1.00  0.00     0.200 C 
BRANCH  31  32
HETATM   32  N2  UNL     1       6.036  -0.563  -0.500  1.00  0.00    -0.289 NA
HETATM   33  C5  UNL     1       7.215  -1.037   0.155  1.00  0.00     0.179 C 
ENDBRANCH  31  32
ENDBRANCH  29  31
ENDBRANCH   3  29
TORSDOF 3
