REMARK  3 active torsions:
REMARK  status: ('A' for Active; 'I' for Inactive)
REMARK    1  A    between atoms: C5_5  and  B1_6 
REMARK    2  A    between atoms: B1_6  and  N1_7 
REMARK    3  A    between atoms: C8_11  and  N3_12 
ROOT
HETATM    1  C1  UNL     1      -2.898   2.292  -1.196  1.00  0.00     0.017 C 
HETATM    2  C2  UNL     1      -2.853   1.067  -0.388  1.00  0.00    -0.026 C 
HETATM    3  C3  UNL     1      -1.519   0.810   0.206  1.00  0.00     0.011 C 
HETATM    4  C4  UNL     1      -0.474   0.353  -0.770  1.00  0.00     0.002 C 
HETATM    5  C5  UNL     1       0.638  -0.251   0.111  1.00  0.00     0.009 C 
HETATM    6  C10 UNL     1       0.062  -1.453   0.827  1.00  0.00     0.110 C 
HETATM    7  N4  UNL     1      -0.995  -1.816   0.225  1.00  0.00    -0.166 NA
HETATM    8  N5  UNL     1      -1.902  -2.810   0.420  1.00  0.00    -0.146 NA
HETATM    9  C11 UNL     1      -3.179  -2.500   0.337  1.00  0.00     0.229 C 
HETATM   10  N6  UNL     1      -3.436  -1.099   0.044  1.00  0.00    -0.373 N 
HETATM   11  C12 UNL     1      -3.843  -0.401   1.244  1.00  0.00     0.124 C 
HETATM   12  C13 UNL     1      -3.827   1.063   0.816  1.00  0.00     0.030 C 
HETATM   13  C14 UNL     1      -3.400  -0.162  -1.100  1.00  0.00     0.132 C 
ENDROOT
BRANCH   5  14
HETATM   14  B1  UNL     1       1.851  -0.772  -0.744  1.00  0.00     0.281 B 
HETATM   15  H9  UNL     1       1.725  -0.906  -1.907  1.00  0.00     0.000 HD
BRANCH  14  16
HETATM   16  N1  UNL     1       3.229  -0.685  -0.081  1.00  0.00    -0.435 N 
HETATM   17  C6  UNL     1       3.657  -1.681   0.871  1.00  0.00     0.089 A 
HETATM   18  C7  UNL     1       4.868  -1.545   1.410  1.00  0.00     0.134 A 
HETATM   19  N2  UNL     1       5.733  -0.451   1.069  1.00  0.00    -0.245 NA
HETATM   20  C8  UNL     1       5.354   0.448   0.214  1.00  0.00     0.114 A 
HETATM   21  C9  UNL     1       4.052   0.455  -0.478  1.00  0.00     0.182 A 
BRANCH  20  22
HETATM   22  N3  UNL     1       6.265   1.487  -0.063  1.00  0.00    -0.386 N 
HETATM   23  H12 UNL     1       6.873   2.023   0.622  1.00  0.00     0.157 HD
HETATM   24  H13 UNL     1       6.425   1.835  -1.024  1.00  0.00     0.157 HD
ENDBRANCH  20  22
ENDBRANCH  14  16
ENDBRANCH   5  14
TORSDOF 3
