REMARK  7 active torsions:
REMARK  status: ('A' for Active; 'I' for Inactive)
REMARK    1  A    between atoms: C3_3  and  N1_4 
REMARK    2  A    between atoms: N1_4  and  C4_5 
REMARK    3  A    between atoms: C4_5  and  C5_6 
REMARK    4  A    between atoms: C5_6  and  N2_7 
REMARK       I    between atoms: N2_7  and  C6_8 
REMARK       I    between atoms: C6_8  and  N3_10 
REMARK    5  A    between atoms: N3_10  and  C7_11 
REMARK    6  A    between atoms: C10_14  and  O2_15 
REMARK    7  A    between atoms: O2_15  and  C11_16 
ROOT
HETATM    1  N2  UNL     1      -2.649  -0.887   0.470  1.00  0.00    -0.341 N 
HETATM    2  C6  UNL     1      -1.271  -0.742   0.174  1.00  0.00     0.320 C 
HETATM    3  O1  UNL     1      -0.998  -0.875  -1.035  1.00  0.00    -0.247 OA
HETATM    4  N3  UNL     1      -0.248  -0.470   1.109  1.00  0.00    -0.309 N 
HETATM    5  H11 UNL     1      -2.938  -0.786   1.484  1.00  0.00     0.164 HD
HETATM    6  H12 UNL     1      -0.648  -0.391   2.069  1.00  0.00     0.170 HD
ENDROOT
BRANCH   4   7
HETATM    7  C7  UNL     1       1.138  -0.310   0.898  1.00  0.00     0.036 A 
HETATM    8  C8  UNL     1       1.784  -0.410  -0.306  1.00  0.00     0.032 A 
HETATM    9  C9  UNL     1       3.134  -0.241  -0.499  1.00  0.00     0.039 A 
HETATM   10  C10 UNL     1       3.943   0.055   0.571  1.00  0.00     0.069 A 
HETATM   11  C14 UNL     1       3.309   0.164   1.814  1.00  0.00     0.039 A 
HETATM   12  C15 UNL     1       1.938  -0.015   1.973  1.00  0.00     0.032 A 
BRANCH  10  13
HETATM   13  O2  UNL     1       5.279   0.274   0.681  1.00  0.00    -0.347 OA
BRANCH  13  14
HETATM   14  C11 UNL     1       6.125   0.215  -0.441  1.00  0.00     0.120 C 
HETATM   15  C12 UNL     1       6.747   1.595  -0.674  1.00  0.00     0.040 C 
HETATM   16  C13 UNL     1       7.268  -0.737  -0.103  1.00  0.00     0.040 C 
ENDBRANCH  13  14
ENDBRANCH  10  13
ENDBRANCH   4   7
BRANCH   1  17
HETATM   17  C5  UNL     1      -3.466  -1.160  -0.717  1.00  0.00     0.144 C 
BRANCH  17  18
HETATM   18  C4  UNL     1      -4.894  -1.277  -0.205  1.00  0.00     0.138 C 
BRANCH  18  19
HETATM   19  N1  UNL     1      -5.259  -0.008   0.437  1.00  0.00    -0.398 N 
HETATM   20  H6  UNL     1      -5.424   0.097   1.470  1.00  0.00     0.158 HD
BRANCH  19  21
HETATM   21  C3  UNL     1      -5.401   1.154  -0.360  1.00  0.00     0.078 C 
HETATM   22  C2  UNL     1      -6.524   1.634  -0.867  1.00  0.00    -0.014 C 
HETATM   23  C1  UNL     1      -7.812   0.953  -0.628  1.00  0.00     0.037 C 
ENDBRANCH  19  21
ENDBRANCH  18  19
ENDBRANCH  17  18
ENDBRANCH   1  17
TORSDOF 7
