REMARK  6 active torsions:
REMARK  status: ('A' for Active; 'I' for Inactive)
REMARK    1  A    between atoms: N2_5  and  C4_6 
REMARK    2  A    between atoms: C7_9  and  N3_10 
REMARK    3  A    between atoms: C10_13  and  C11_14 
REMARK    4  A    between atoms: C11_14  and  C12_15 
REMARK    5  A    between atoms: C12_15  and  C13_16 
REMARK    6  A    between atoms: C13_16  and  C14_17 
ROOT
HETATM    1  N3  UNL     1      -0.821   0.665  -1.443  1.00  0.00    -0.300 N 
HETATM    2  C8  UNL     1      -1.119  -0.124  -0.263  1.00  0.00     0.151 C 
HETATM    3  C9  UNL     1      -2.448  -0.742  -0.698  1.00  0.00     0.078 C 
HETATM    4  C10 UNL     1      -3.027   0.364  -1.499  1.00  0.00     0.037 C 
HETATM    5  N5  UNL     1      -2.066   1.103  -1.878  1.00  0.00    -0.186 NA
ENDROOT
BRANCH   1   6
HETATM    6  C7  UNL     1       0.547   0.837  -1.901  1.00  0.00     0.104 C 
HETATM    7  C6  UNL     1       1.302   1.490  -0.792  1.00  0.00     0.029 C 
HETATM    8  C5  UNL     1       2.779   1.289  -0.803  1.00  0.00     0.027 C 
HETATM    9  C4  UNL     1       3.023  -0.211  -0.896  1.00  0.00     0.079 C 
HETATM   10  C20 UNL     1       2.583  -0.618  -2.252  1.00  0.00     0.027 C 
HETATM   11  C19 UNL     1       1.123  -0.389  -2.475  1.00  0.00     0.029 C 
BRANCH   9  12
HETATM   12  N2  UNL     1       4.319  -0.557  -0.515  1.00  0.00    -0.405 N 
HETATM   13  C3  UNL     1       4.738  -0.243   0.813  1.00  0.00     0.147 C 
HETATM   14  C2  UNL     1       5.834  -1.207   1.215  1.00  0.00     0.291 C 
HETATM   15  N1  UNL     1       6.936  -1.033   0.287  1.00  0.00     0.087 N 
HETATM   16  C1  UNL     1       8.127  -1.681   0.740  1.00  0.00     0.310 C 
HETATM   17  C22 UNL     1       6.564  -1.316  -1.066  1.00  0.00     0.291 C 
HETATM   18  C21 UNL     1       5.050  -1.541  -1.195  1.00  0.00     0.147 C 
ENDBRANCH   9  12
ENDBRANCH   1   6
BRANCH   4  19
HETATM   19  C11 UNL     1      -4.463   0.617  -1.831  1.00  0.00     0.083 C 
BRANCH  19  20
HETATM   20  C12 UNL     1      -5.277   0.827  -0.643  1.00  0.00    -0.019 C 
BRANCH  20  21
HETATM   21  C13 UNL     1      -5.646   0.957   0.593  1.00  0.00     0.027 C 
BRANCH  21  22
HETATM   22  C14 UNL     1      -6.589   1.185   1.665  1.00  0.00     0.050 A 
HETATM   23  C15 UNL     1      -7.863   1.408   1.411  1.00  0.00     0.060 A 
HETATM   24 CL1  UNL     1      -8.588   1.463  -0.157  1.00  0.00    -0.082 Cl
HETATM   25  C16 UNL     1      -8.748   1.631   2.548  1.00  0.00     0.024 A 
HETATM   26  C17 UNL     1      -8.146   1.581   3.724  1.00  0.00    -0.006 A 
HETATM   27  C18 UNL     1      -6.741   1.342   4.122  1.00  0.00     0.147 A 
HETATM   28  N4  UNL     1      -5.963   1.132   2.928  1.00  0.00    -0.385 N 
HETATM   29  H26 UNL     1      -4.961   0.951   3.119  1.00  0.00     0.160 HD
ENDBRANCH  21  22
ENDBRANCH  20  21
ENDBRANCH  19  20
ENDBRANCH   4  19
TORSDOF 6
