REMARK  7 active torsions:
REMARK  status: ('A' for Active; 'I' for Inactive)
REMARK    1  A    between atoms: C2_2  and  C3_3 
REMARK    2  A    between atoms: C3_3  and  C4_4 
REMARK    3  A    between atoms: C4_4  and  C5_5 
REMARK    4  A    between atoms: C5_5  and  C6_6 
REMARK    5  A    between atoms: N2_8  and  C7_9 
REMARK    6  A    between atoms: C10_12  and  N3_13 
REMARK    7  A    between atoms: C20_26  and  N7_27 
ROOT
HETATM    1  C6  UNL     1       3.520  -0.451   0.131  1.00  0.00     0.094 A 
HETATM    2  N1  UNL     1       2.356  -0.968   0.518  1.00  0.00    -0.170 NA
HETATM    3  N2  UNL     1       1.356  -0.293   0.027  1.00  0.00    -0.246 N 
HETATM    4  C18 UNL     1       1.878   0.694  -0.703  1.00  0.00     0.163 A 
HETATM    5  N5  UNL     1       1.238   1.643  -1.399  1.00  0.00    -0.222 NA
HETATM    6  C19 UNL     1       1.881   2.585  -2.097  1.00  0.00     0.237 A 
HETATM    7  N6  UNL     1       3.234   2.531  -2.065  1.00  0.00    -0.229 NA
HETATM    8  C20 UNL     1       3.868   1.584  -1.370  1.00  0.00     0.118 A 
HETATM    9  C21 UNL     1       3.241   0.614  -0.652  1.00  0.00     0.082 A 
ENDROOT
BRANCH   3  10
HETATM   10  C7  UNL     1      -0.026  -0.591   0.252  1.00  0.00     0.112 C 
HETATM   11  C8  UNL     1      -0.624   0.344   1.280  1.00  0.00     0.029 C 
HETATM   12  C9  UNL     1      -1.969  -0.266   1.679  1.00  0.00     0.038 C 
HETATM   13  C10 UNL     1      -2.824  -0.470   0.470  1.00  0.00     0.223 C 
HETATM   14  C16 UNL     1      -2.130   0.113  -0.738  1.00  0.00     0.038 C 
HETATM   15  C17 UNL     1      -0.824  -0.595  -1.029  1.00  0.00     0.029 C 
BRANCH  13  16
HETATM   16  N3  UNL     1      -4.136   0.064   0.551  1.00  0.00     0.096 N 
HETATM   17  C11 UNL     1      -4.831  -0.196  -0.685  1.00  0.00     0.303 C 
HETATM   18  C12 UNL     1      -6.317  -0.393  -0.480  1.00  0.00     0.302 C 
HETATM   19  N4  UNL     1      -6.826   0.579   0.468  1.00  0.00     0.087 N 
HETATM   20  C13 UNL     1      -8.254   0.600   0.521  1.00  0.00     0.310 C 
HETATM   21  C14 UNL     1      -6.187   0.404   1.739  1.00  0.00     0.302 C 
HETATM   22  C15 UNL     1      -4.903  -0.397   1.682  1.00  0.00     0.303 C 
ENDBRANCH  13  16
ENDBRANCH   3  10
BRANCH   1  23
HETATM   23  C5  UNL     1       4.774  -0.972   0.506  1.00  0.00     0.034 C 
BRANCH  23  24
HETATM   24  C4  UNL     1       6.015  -1.227   0.687  1.00  0.00     0.002 C 
BRANCH  24  25
HETATM   25  C3  UNL     1       7.313  -0.801   0.370  1.00  0.00    -0.004 C 
BRANCH  25  26
HETATM   26  C2  UNL     1       8.539  -0.457   0.114  1.00  0.00    -0.031 C 
HETATM   27  C1  UNL     1       9.572  -1.343   0.756  1.00  0.00     0.036 C 
ENDBRANCH  25  26
ENDBRANCH  24  25
ENDBRANCH  23  24
ENDBRANCH   1  23
BRANCH   8  28
HETATM   28  N7  UNL     1       5.275   1.536  -1.343  1.00  0.00    -0.286 NA
HETATM   29  H30 UNL     1       6.218   1.922  -1.439  1.00  0.00     0.125 HD
HETATM   30  H31 UNL     1       5.865   2.386  -1.569  1.00  0.00     0.125 HD
ENDBRANCH   8  28
TORSDOF 7
