REMARK  5 active torsions:
REMARK  status: ('A' for Active; 'I' for Inactive)
REMARK    1  A    between atoms: C7_7  and  N1_8 
REMARK    2  A    between atoms: N1_8  and  C8_9 
REMARK    3  A    between atoms: C13_16  and  C14_17 
REMARK    4  A    between atoms: C14_17  and  C15_18 
REMARK    5  A    between atoms: C15_18  and  O1_19 
ROOT
HETATM    1  C1  UNL     1       6.968   3.500   1.159  1.00  0.00     0.018 C 
HETATM    2  C2  UNL     1       6.289   2.681   0.560  1.00  0.00    -0.078 C 
HETATM    3  C3  UNL     1       5.511   1.708  -0.149  1.00  0.00     0.019 A 
HETATM    4  C4  UNL     1       6.145   0.882  -1.019  1.00  0.00     0.021 A 
HETATM    5  C5  UNL     1       5.389  -0.067  -1.708  1.00  0.00     0.004 A 
HETATM    6  C6  UNL     1       4.037  -0.147  -1.496  1.00  0.00     0.029 A 
HETATM    7  C7  UNL     1       3.346   0.685  -0.609  1.00  0.00     0.035 A 
HETATM    8  C22 UNL     1       4.159   1.600   0.037  1.00  0.00     0.050 A 
ENDROOT
BRANCH   7   9
HETATM    9  N1  UNL     1       1.951   0.493  -0.448  1.00  0.00    -0.340 N 
HETATM   10  H5  UNL     1       1.619   1.480  -0.417  1.00  0.00     0.167 HD
BRANCH   9  11
HETATM   11  C8  UNL     1       1.438  -0.849  -0.382  1.00  0.00     0.142 A 
HETATM   12  N2  UNL     1       2.380  -1.795  -0.389  1.00  0.00    -0.224 NA
HETATM   13  C9  UNL     1       1.961  -3.063  -0.324  1.00  0.00     0.235 A 
HETATM   14  N3  UNL     1       0.620  -3.341  -0.254  1.00  0.00    -0.241 NA
HETATM   15  C10 UNL     1      -0.272  -2.333  -0.251  1.00  0.00     0.070 A 
HETATM   16  C11 UNL     1       0.085  -1.018  -0.316  1.00  0.00     0.039 A 
HETATM   17  C21 UNL     1      -1.292  -3.139  -0.173  1.00  0.00     0.032 C 
HETATM   18  C12 UNL     1      -0.780  -0.065  -0.322  1.00  0.00     0.026 C 
HETATM   19  C13 UNL     1      -2.075   0.481  -0.290  1.00  0.00    -0.033 C 
HETATM   20  C17 UNL     1      -3.302  -0.071  -0.202  1.00  0.00     0.141 C 
HETATM   21  O2  UNL     1      -3.957  -1.291  -0.105  1.00  0.00    -0.360 OA
HETATM   22  C18 UNL     1      -4.440  -1.903   1.032  1.00  0.00     0.200 C 
HETATM   23  C19 UNL     1      -4.489  -3.397   0.839  1.00  0.00     0.194 C 
HETATM   24  O3  UNL     1      -3.399  -4.004   0.627  1.00  0.00    -0.385 OA
HETATM   25  C20 UNL     1      -2.328  -4.160  -0.086  1.00  0.00     0.197 C 
BRANCH  19  26
HETATM   26  C14 UNL     1      -2.258   1.990  -0.379  1.00  0.00     0.066 C 
BRANCH  26  27
HETATM   27  C15 UNL     1      -1.599   2.662   0.771  1.00  0.00     0.171 C 
BRANCH  27  28
HETATM   28  O1  UNL     1      -1.728   4.021   0.714  1.00  0.00    -0.396 OA
HETATM   29  C16 UNL     1      -3.034   4.440   0.752  1.00  0.00     0.201 C 
ENDBRANCH  27  28
ENDBRANCH  26  27
ENDBRANCH  19  26
ENDBRANCH   9  11
ENDBRANCH   7   9
TORSDOF 5
