REMARK  1 active torsions:
REMARK  status: ('A' for Active; 'I' for Inactive)
REMARK    1  A    between atoms: C10_15  and  C11_16 
ROOT
HETATM    1  N1  UNL     1      -0.103   5.027   1.964  1.00  0.00    -0.192 NA
HETATM    2  C1  UNL     1      -0.333   4.014   1.405  1.00  0.00     0.095 C 
HETATM    3  C2  UNL     1      -0.642   2.769   0.710  1.00  0.00     0.025 A 
HETATM    4  C3  UNL     1      -1.663   2.855  -0.125  1.00  0.00     0.020 A 
HETATM    5  C4  UNL     1      -1.955   1.603  -0.809  1.00  0.00     0.029 A 
HETATM    6  C5  UNL     1      -1.185   0.564  -0.523  1.00  0.00     0.050 A 
HETATM    7  N2  UNL     1      -1.677  -0.518  -1.313  1.00  0.00    -0.373 N 
HETATM    8  C6  UNL     1      -1.578  -1.958  -1.118  1.00  0.00     0.269 C 
HETATM    9  N3  UNL     1      -1.580  -2.279   0.300  1.00  0.00    -0.250 N 
HETATM   10  N4  UNL     1      -1.710  -3.559   0.838  1.00  0.00    -0.171 NA
HETATM   11  C7  UNL     1      -1.702  -3.456   2.124  1.00  0.00     0.107 C 
HETATM   12  C8  UNL     1      -1.420  -2.242   2.566  1.00  0.00     0.067 C 
HETATM   13  C9  UNL     1      -1.447  -1.311   1.401  1.00  0.00     0.367 C 
HETATM   14  N5  UNL     1      -0.142  -0.735   1.251  1.00  0.00     0.132 N 
HETATM   15  C10 UNL     1      -0.037   0.378   0.368  1.00  0.00     0.236 A 
HETATM   16  C17 UNL     1       0.243   1.661   1.086  1.00  0.00     0.103 A 
HETATM   17  H3  UNL     1      -2.219  -0.330  -2.209  1.00  0.00     0.161 HD
HETATM   18  H8  UNL     1       0.506  -1.483   0.973  1.00  0.00     0.321 HD
ENDROOT
BRANCH  15  19
HETATM   19  C11 UNL     1       1.174   0.108  -0.500  1.00  0.00     0.025 A 
HETATM   20  C12 UNL     1       1.316  -0.028  -1.863  1.00  0.00     0.013 A 
HETATM   21  C13 UNL     1       2.563  -0.271  -2.368  1.00  0.00     0.001 A 
HETATM   22  C14 UNL     1       3.680  -0.387  -1.591  1.00  0.00     0.003 A 
HETATM   23  C15 UNL     1       3.550  -0.253  -0.224  1.00  0.00     0.043 A 
HETATM   24  C16 UNL     1       2.297  -0.004   0.328  1.00  0.00     0.125 A 
HETATM   25  F1  UNL     1       2.351   0.099   1.679  1.00  0.00    -0.205 F 
ENDBRANCH  15  19
TORSDOF 1
