REMARK  2 active torsions:
REMARK  status: ('A' for Active; 'I' for Inactive)
REMARK    1  A    between atoms: N1_1  and  N2_2 
REMARK    2  A    between atoms: C8_14  and  C9_15 
ROOT
HETATM    1  N2  UNL     1       3.481  -1.739  -0.086  1.00  0.00    -0.161 N 
HETATM    2  N3  UNL     1       3.182  -2.959   0.337  1.00  0.00    -0.160 NA
HETATM    3  C1  UNL     1       1.840  -3.045   0.545  1.00  0.00     0.176 A 
HETATM    4  C2  UNL     1       1.285  -1.814   0.233  1.00  0.00     0.124 A 
HETATM    5  C3  UNL     1       2.342  -1.003  -0.163  1.00  0.00     0.178 A 
HETATM    6  N4  UNL     1       2.307   0.374  -0.591  1.00  0.00    -0.336 N 
HETATM    7  C4  UNL     1       1.295   1.352  -0.285  1.00  0.00     0.065 A 
HETATM    8  C5  UNL     1       1.821   2.598  -0.411  1.00  0.00     0.035 A 
HETATM    9  C6  UNL     1       1.161   3.809  -0.201  1.00  0.00     0.039 A 
HETATM   10  P1  UNL     1      -0.516   3.612   0.271  1.00  0.00     0.088 P 
HETATM   11  N5  UNL     1      -0.952   1.973   0.364  1.00  0.00    -0.246 NA
HETATM   12  C7  UNL     1      -0.004   1.065   0.078  1.00  0.00     0.113 A 
HETATM   13  C8  UNL     1      -0.644  -0.260   0.235  1.00  0.00     0.100 C 
HETATM   14  N6  UNL     1      -0.083  -1.422   0.295  1.00  0.00    -0.240 NA
HETATM   15  H4  UNL     1       3.108   0.679  -1.185  1.00  0.00     0.168 HD
ENDROOT
BRANCH  13  16
HETATM   16  C9  UNL     1      -2.100  -0.273   0.336  1.00  0.00     0.017 A 
HETATM   17  C10 UNL     1      -2.671  -0.427  -0.933  1.00  0.00     0.015 A 
HETATM   18  C11 UNL     1      -4.059  -0.467  -1.079  1.00  0.00     0.001 A 
HETATM   19  C12 UNL     1      -4.876  -0.353   0.051  1.00  0.00     0.002 A 
HETATM   20  C13 UNL     1      -4.266  -0.205   1.262  1.00  0.00     0.025 A 
HETATM   21  C14 UNL     1      -2.903  -0.162   1.432  1.00  0.00     0.046 A 
HETATM   22 CL1  UNL     1      -2.043   0.023   2.934  1.00  0.00    -0.083 Cl
ENDBRANCH  13  16
BRANCH   1  23
HETATM   23  N1  UNL     1       4.736  -1.224  -0.416  1.00  0.00    -0.321 N 
HETATM   24  H1  UNL     1       5.031  -0.291  -0.060  1.00  0.00     0.179 HD
HETATM   25  H2  UNL     1       5.292  -1.883  -1.037  1.00  0.00     0.179 HD
ENDBRANCH   1  23
TORSDOF 2
