REMARK  0 active torsions:
REMARK  status: ('A' for Active; 'I' for Inactive)
ROOT
HETATM    1  C1  UNL     1      -2.314   3.076  -0.439  1.00  0.00     0.043 C 
HETATM    2  C2  UNL     1      -1.608   1.894   0.187  1.00  0.00    -0.083 C 
HETATM    3  C3  UNL     1      -0.290   2.086  -0.013  1.00  0.00    -0.017 C 
HETATM    4  C4  UNL     1       1.003   1.546   0.431  1.00  0.00     0.034 C 
HETATM    5  C5  UNL     1       0.888   0.289   1.243  1.00  0.00     0.071 C 
HETATM    6  C6  UNL     1       0.272  -0.823   0.440  1.00  0.00     0.058 C 
HETATM    7  N1  UNL     1       0.917  -1.708  -0.245  1.00  0.00    -0.203 N 
HETATM    8  P1  UNL     1       2.504  -1.304  -1.062  1.00  0.00     0.143 P 
HETATM    9  C7  UNL     1       3.842  -1.975   0.094  1.00  0.00     0.131 C 
HETATM   10  C8  UNL     1       4.723  -0.750  -0.011  1.00  0.00     0.119 C 
HETATM   11  N2  UNL     1       4.318   0.401  -0.374  1.00  0.00    -0.188 NA
HETATM   12  N3  UNL     1       2.953   0.442  -0.677  1.00  0.00    -0.258 N 
HETATM   13  C9  UNL     1       1.921   1.460  -0.743  1.00  0.00     0.160 C 
HETATM   14  C10 UNL     1      -1.123  -1.217   0.174  1.00  0.00     0.034 A 
HETATM   15  C11 UNL     1      -0.962  -2.505  -0.284  1.00  0.00     0.119 A 
HETATM   16  F1  UNL     1       0.258  -3.061  -0.378  1.00  0.00    -0.250 F 
HETATM   17  C12 UNL     1      -2.167  -3.106  -0.616  1.00  0.00     0.042 A 
HETATM   18  C13 UNL     1      -3.377  -2.429  -0.478  1.00  0.00     0.004 A 
HETATM   19  C14 UNL     1      -3.456  -1.135  -0.010  1.00  0.00     0.008 A 
HETATM   20  C15 UNL     1      -2.309  -0.481   0.335  1.00  0.00    -0.039 A 
HETATM   21  C16 UNL     1      -2.519   0.904   0.813  1.00  0.00     0.073 C 
ENDROOT
TORSDOF 0
