REMARK  8 active torsions:
REMARK  status: ('A' for Active; 'I' for Inactive)
REMARK    1  A    between atoms: C2_2  and  C3_4 
REMARK    2  A    between atoms: C4_5  and  C5_6 
REMARK    3  A    between atoms: C5_6  and  C6_7 
REMARK    4  A    between atoms: C6_7  and  C7_8 
REMARK    5  A    between atoms: C7_8  and  N1_9 
REMARK    6  A    between atoms: N1_9  and  C8_10 
REMARK    7  A    between atoms: C8_10  and  C9_11 
REMARK    8  A    between atoms: C9_11  and  S1_12 
ROOT
HETATM    1  C3  UNL     1      -3.000   0.603  -0.063  1.00  0.00     0.093 C 
HETATM    2  C4  UNL     1      -2.047  -0.168   0.431  1.00  0.00    -0.023 C 
HETATM    3  C11 UNL     1      -2.160  -1.347   1.277  1.00  0.00     0.010 C 
HETATM    4  C12 UNL     1      -3.142  -1.867   2.001  1.00  0.00     0.000 C 
HETATM    5  C13 UNL     1      -4.531  -1.443   2.235  1.00  0.00    -0.002 C 
HETATM    6  C14 UNL     1      -5.437  -0.794   1.522  1.00  0.00    -0.000 C 
HETATM    7  C15 UNL     1      -5.462  -0.201   0.161  1.00  0.00     0.203 C 
HETATM    8  O3  UNL     1      -4.382   0.680  -0.054  1.00  0.00    -0.345 OA
ENDROOT
BRANCH   2   9
HETATM    9  C5  UNL     1      -0.652   0.163   0.135  1.00  0.00     0.043 C 
BRANCH   9  10
HETATM   10  C6  UNL     1       0.042  -0.939  -0.620  1.00  0.00     0.034 C 
BRANCH  10  11
HETATM   11  C7  UNL     1       1.470  -0.423  -0.858  1.00  0.00     0.270 C 
BRANCH  11  12
HETATM   12  N1  UNL     1       2.029  -0.186   0.460  1.00  0.00     0.084 N 
HETATM   13  H9  UNL     1       1.990  -1.043   1.052  1.00  0.00     0.315 HD
BRANCH  12  14
HETATM   14  C8  UNL     1       3.365   0.318   0.377  1.00  0.00     0.284 C 
BRANCH  14  15
HETATM   15  C9  UNL     1       4.298  -0.728  -0.142  1.00  0.00     0.169 C 
BRANCH  15  16
HETATM   16  S1  UNL     1       5.924  -0.013  -0.220  1.00  0.00     0.142 S 
HETATM   17  C10 UNL     1       5.948   1.399  -1.305  1.00  0.00     0.161 C 
HETATM   18  O1  UNL     1       6.351   0.458   1.131  1.00  0.00    -0.228 OA
HETATM   19  O2  UNL     1       6.857  -1.038  -0.792  1.00  0.00    -0.228 OA
ENDBRANCH  15  16
ENDBRANCH  14  15
ENDBRANCH  12  14
ENDBRANCH  11  12
ENDBRANCH  10  11
ENDBRANCH   9  10
ENDBRANCH   2   9
BRANCH   1  20
HETATM   20  C2  UNL     1      -2.463   1.697  -0.850  1.00  0.00     0.043 A 
HETATM   21  C1  UNL     1      -3.212   2.605  -1.452  1.00  0.00     0.155 A 
HETATM   22 CL1  UNL     1      -1.579   2.914  -1.736  1.00  0.00    -0.179 Cl
ENDBRANCH   1  20
TORSDOF 8
