REMARK  8 active torsions:
REMARK  status: ('A' for Active; 'I' for Inactive)
REMARK    1  A    between atoms: O1_2  and  C2_3 
REMARK    2  A    between atoms: C2_3  and  C3_4 
REMARK    3  A    between atoms: C3_4  and  O2_5 
REMARK    4  A    between atoms: O2_5  and  C4_6 
REMARK    5  A    between atoms: C9_11  and  O3_12 
REMARK    6  A    between atoms: O3_12  and  C10_13 
REMARK    7  A    between atoms: C10_13  and  C11_14 
REMARK    8  A    between atoms: C11_14  and  O4_15 
ROOT
HETATM    1  C4  UNL     1       1.478  -1.060   0.671  1.00  0.00     0.104 A 
HETATM    2  C5  UNL     1       0.801  -2.232   0.327  1.00  0.00     0.072 A 
HETATM    3  C6  UNL     1      -0.560  -2.243   0.101  1.00  0.00     0.072 A 
HETATM    4  C7  UNL     1      -1.171  -1.039   0.241  1.00  0.00     0.009 A 
HETATM    5  C8  UNL     1      -0.605   0.211   0.579  1.00  0.00     0.054 A 
HETATM    6  C9  UNL     1       0.782   0.166   0.799  1.00  0.00     0.103 A 
HETATM    7  C13 UNL     1      -2.623  -0.783   0.094  1.00  0.00     0.019 C 
HETATM    8  C14 UNL     1      -2.719   0.134   1.093  1.00  0.00    -0.010 C 
HETATM    9  C15 UNL     1      -3.989   0.844   1.488  1.00  0.00     0.032 C 
HETATM   10  C16 UNL     1      -4.520   1.697   0.397  1.00  0.00     0.032 C 
HETATM   11  C17 UNL     1      -5.509   1.056  -0.502  1.00  0.00    -0.009 C 
HETATM   12  C18 UNL     1      -5.607  -0.033  -1.287  1.00  0.00     0.085 C 
HETATM   13  N1  UNL     1      -4.673  -1.102  -1.574  1.00  0.00    -0.350 N 
HETATM   14  C19 UNL     1      -3.486  -1.481  -0.871  1.00  0.00     0.139 C 
HETATM   15  N2  UNL     1      -3.363  -2.718  -1.305  1.00  0.00    -0.224 NA
HETATM   16  C20 UNL     1      -2.314  -3.609  -0.871  1.00  0.00     0.236 C 
HETATM   17  N3  UNL     1      -1.149  -3.477  -0.292  1.00  0.00    -0.241 NA
HETATM   18  H24 UNL     1      -4.813  -1.733  -2.383  1.00  0.00     0.166 HD
ENDROOT
BRANCH   1  19
HETATM   19  O2  UNL     1       2.809  -1.062   0.889  1.00  0.00    -0.346 OA
BRANCH  19  20
HETATM   20  C3  UNL     1       3.800  -1.998   0.850  1.00  0.00     0.201 C 
BRANCH  20  21
HETATM   21  C2  UNL     1       4.078  -2.671  -0.458  1.00  0.00     0.193 C 
BRANCH  21  22
HETATM   22  O1  UNL     1       4.447  -1.801  -1.481  1.00  0.00    -0.394 OA
HETATM   23  C1  UNL     1       5.598  -1.079  -1.218  1.00  0.00     0.201 C 
ENDBRANCH  21  22
ENDBRANCH  20  21
ENDBRANCH  19  20
ENDBRANCH   1  19
BRANCH   6  24
HETATM   24  O3  UNL     1       1.583   1.198   1.132  1.00  0.00    -0.346 OA
BRANCH  24  25
HETATM   25  C10 UNL     1       1.383   2.531   1.329  1.00  0.00     0.201 C 
BRANCH  25  26
HETATM   26  C11 UNL     1       0.932   3.243   0.087  1.00  0.00     0.193 C 
BRANCH  26  27
HETATM   27  O4  UNL     1       1.830   3.145  -0.959  1.00  0.00    -0.394 OA
HETATM   28  C12 UNL     1       3.080   3.674  -0.700  1.00  0.00     0.201 C 
ENDBRANCH  26  27
ENDBRANCH  25  26
ENDBRANCH  24  25
ENDBRANCH   6  24
TORSDOF 8
