REMARK  6 active torsions:
REMARK  status: ('A' for Active; 'I' for Inactive)
REMARK    1  A    between atoms: C2_2  and  C3_3 
REMARK    2  A    between atoms: C5_6  and  C6_7 
REMARK    3  A    between atoms: C6_7  and  O2_8 
REMARK    4  A    between atoms: C8_10  and  O3_11 
REMARK    5  A    between atoms: C11_14  and  N1_15 
REMARK    6  A    between atoms: N1_15  and  C12_16 
ROOT
HETATM    1  C3  UNL     1       2.160  -1.612  -0.103  1.00  0.00    -0.048 C 
HETATM    2  C4  UNL     1       1.678  -0.438   0.144  1.00  0.00     0.185 C 
HETATM    3  O1  UNL     1       1.262   0.853   0.236  1.00  0.00    -0.365 OA
HETATM    4  C5  UNL     1       0.382   1.433  -0.734  1.00  0.00     0.202 C 
HETATM    5  C8  UNL     1      -0.966   0.868  -0.643  1.00  0.00     0.080 C 
HETATM    6  C10 UNL     1      -1.846   0.152  -0.005  1.00  0.00     0.085 C 
HETATM    7  C11 UNL     1      -2.187  -0.659   1.148  1.00  0.00     0.133 C 
HETATM    8  N2  UNL     1      -1.860  -1.111   2.237  1.00  0.00    -0.224 NA
HETATM    9  C13 UNL     1      -0.903  -1.177   3.188  1.00  0.00     0.234 C 
HETATM   10  N3  UNL     1       0.320  -1.378   3.018  1.00  0.00    -0.254 NA
HETATM   11  C14 UNL     1       1.046  -1.589   1.846  1.00  0.00     0.118 C 
HETATM   12  C15 UNL     1       1.717  -2.384   1.049  1.00  0.00     0.025 C 
ENDROOT
BRANCH   7  13
HETATM   13  N1  UNL     1      -3.549  -1.173   1.055  1.00  0.00    -0.319 N 
HETATM   14  H17 UNL     1      -4.223  -1.010   0.232  1.00  0.00     0.169 HD
BRANCH  13  15
HETATM   15  C12 UNL     1      -4.238  -1.962   2.014  1.00  0.00     0.354 C 
HETATM   16  O4  UNL     1      -3.580  -2.232   3.039  1.00  0.00    -0.283 OA
ENDBRANCH  13  15
ENDBRANCH   7  13
BRANCH   5  17
HETATM   17  O3  UNL     1      -1.369   1.466  -1.872  1.00  0.00    -0.357 OA
HETATM   18  C9  UNL     1      -1.140   0.695  -3.027  1.00  0.00     0.209 C 
ENDBRANCH   5  17
BRANCH   4  19
HETATM   19  C6  UNL     1       0.395   2.946  -0.579  1.00  0.00     0.205 C 
BRANCH  19  20
HETATM   20  O2  UNL     1      -0.006   3.274   0.702  1.00  0.00    -0.393 OA
HETATM   21  C7  UNL     1      -0.040   4.615   0.992  1.00  0.00     0.201 C 
ENDBRANCH  19  20
ENDBRANCH   4  19
BRANCH   1  22
HETATM   22  C2  UNL     1       2.913  -2.685  -0.822  1.00  0.00     0.032 C 
HETATM   23  C1  UNL     1       3.484  -1.986  -2.065  1.00  0.00     0.010 C 
ENDBRANCH   1  22
TORSDOF 6
