REMARK  4 active torsions:
REMARK  status: ('A' for Active; 'I' for Inactive)
REMARK    1  A    between atoms: C2_2  and  C3_4 
REMARK    2  A    between atoms: C8_9  and  C9_10 
REMARK    3  A    between atoms: C9_10  and  C10_11 
REMARK    4  A    between atoms: C11_12  and  C12_13 
ROOT
HETATM    1  C3  UNL     1      -3.288   0.240   0.238  1.00  0.00     0.106 C 
HETATM    2  C4  UNL     1      -2.535   0.880  -0.763  1.00  0.00     0.037 C 
HETATM    3  C5  UNL     1      -1.031   1.115  -0.761  1.00  0.00     0.027 C 
HETATM    4  C6  UNL     1      -0.295   1.080   0.399  1.00  0.00     0.013 C 
HETATM    5  C7  UNL     1       1.084   0.518   0.422  1.00  0.00     0.093 C 
HETATM    6  C8  UNL     1       1.341  -0.381   1.644  1.00  0.00     0.090 C 
HETATM    7  N1  UNL     1       0.619  -0.884   2.772  1.00  0.00    -0.270 NA
HETATM    8  C14 UNL     1      -0.846  -1.066   2.486  1.00  0.00     0.117 A 
HETATM    9  C15 UNL     1      -1.792  -2.130   2.424  1.00  0.00     0.174 A 
HETATM   10  N2  UNL     1      -2.925  -1.708   1.712  1.00  0.00    -0.175 NA
HETATM   11  N3  UNL     1      -2.625  -0.436   1.381  1.00  0.00    -0.212 N 
HETATM   12  C16 UNL     1      -1.406   0.073   1.816  1.00  0.00     0.160 A 
HETATM   13  N4  UNL     1      -0.885   1.489   1.697  1.00  0.00    -0.342 N 
HETATM   14  H15 UNL     1      -1.034   2.326   2.426  1.00  0.00     0.167 HD
ENDROOT
BRANCH   6  15
HETATM   15  C9  UNL     1       2.804  -0.753   1.442  1.00  0.00     0.063 C 
BRANCH  15  16
HETATM   16  C10 UNL     1       2.999  -1.437   0.166  1.00  0.00    -0.024 C 
HETATM   17  C11 UNL     1       3.751  -1.099  -0.865  1.00  0.00    -0.003 C 
BRANCH  17  18
HETATM   18  C12 UNL     1       4.549   0.092  -0.871  1.00  0.00     0.011 C 
HETATM   19  C13 UNL     1       5.292   0.404  -1.920  1.00  0.00     0.217 C 
HETATM   20 CL1  UNL     1       6.298   1.823  -2.037  1.00  0.00    -0.230 Cl
ENDBRANCH  17  18
ENDBRANCH  15  16
ENDBRANCH   6  15
BRANCH   1  21
HETATM   21  C2  UNL     1      -4.659   0.143   0.133  1.00  0.00     0.174 C 
HETATM   22  C1  UNL     1      -5.266   0.731  -1.075  1.00  0.00     0.098 C 
HETATM   23  O1  UNL     1      -5.249  -0.423   1.050  1.00  0.00    -0.291 OA
ENDBRANCH   1  21
TORSDOF 4
