REMARK  5 active torsions:
REMARK  status: ('A' for Active; 'I' for Inactive)
REMARK    1  A    between atoms: C1_2  and  C2_3 
REMARK    2  A    between atoms: C2_3  and  N1_4 
REMARK    3  A    between atoms: N1_4  and  C3_5 
REMARK    4  A    between atoms: C4_6  and  C5_7 
REMARK    5  A    between atoms: C8_10  and  C9_11 
ROOT
HETATM    1  C5  UNL     1       1.281   0.294  -0.207  1.00  0.00     0.029 C 
HETATM    2  C6  UNL     1       0.189  -0.106   0.430  1.00  0.00     0.039 C 
HETATM    3  C7  UNL     1      -1.050   0.537  -0.001  1.00  0.00     0.118 C 
HETATM    4  C8  UNL     1      -2.288  -0.197   0.322  1.00  0.00     0.046 C 
HETATM    5  N2  UNL     1      -2.694  -1.228   0.943  1.00  0.00    -0.288 NA
HETATM    6  C15 UNL     1      -1.943  -2.196   1.668  1.00  0.00     0.195 C 
HETATM    7  C16 UNL     1      -0.526  -1.893   1.872  1.00  0.00     0.111 C 
HETATM    8  N3  UNL     1       0.381  -1.089   1.426  1.00  0.00    -0.268 NA
ENDROOT
BRANCH   1   9
HETATM    9  C4  UNL     1       2.576  -0.280   0.140  1.00  0.00     0.019 C 
HETATM   10  C3  UNL     1       3.717   0.044  -0.428  1.00  0.00     0.083 C 
BRANCH  10  11
HETATM   11  N1  UNL     1       5.009  -0.461  -0.153  1.00  0.00    -0.393 N 
HETATM   12  H4  UNL     1       5.248  -1.386  -0.576  1.00  0.00     0.159 HD
BRANCH  11  13
HETATM   13  C2  UNL     1       5.903   0.322   0.680  1.00  0.00     0.188 C 
BRANCH  13  14
HETATM   14  C1  UNL     1       7.201  -0.352   0.861  1.00  0.00     0.250 C 
HETATM   15  O1  UNL     1       7.996   0.276   1.564  1.00  0.00    -0.305 OA
ENDBRANCH  13  14
ENDBRANCH  11  13
ENDBRANCH  10  11
ENDBRANCH   1   9
BRANCH   4  16
HETATM   16  C9  UNL     1      -3.407   0.545  -0.302  1.00  0.00     0.010 A 
HETATM   17  C10 UNL     1      -3.739   1.864  -0.081  1.00  0.00     0.015 A 
HETATM   18  C11 UNL     1      -4.820   2.401  -0.750  1.00  0.00     0.001 A 
HETATM   19  C12 UNL     1      -5.555   1.615  -1.631  1.00  0.00     0.002 A 
HETATM   20  C13 UNL     1      -5.260   0.301  -1.879  1.00  0.00     0.025 A 
HETATM   21  C14 UNL     1      -4.162  -0.227  -1.193  1.00  0.00     0.046 A 
HETATM   22 CL1  UNL     1      -3.790  -1.919  -1.520  1.00  0.00    -0.083 Cl
ENDBRANCH   4  16
TORSDOF 5
