REMARK  2 active torsions:
REMARK  status: ('A' for Active; 'I' for Inactive)
REMARK    1  A    between atoms: C3_3  and  C4_4 
REMARK    2  A    between atoms: C10_10  and  N1_11 
ROOT
HETATM    1  C4  UNL     1       0.971   0.097  -0.246  1.00  0.00     0.075 C 
HETATM    2  C5  UNL     1       0.442   1.350  -0.889  1.00  0.00     0.032 C 
HETATM    3  C6  UNL     1      -1.044   1.522  -0.837  1.00  0.00     0.043 C 
HETATM    4  C7  UNL     1      -1.648   0.315  -0.107  1.00  0.00    -0.027 C 
HETATM    5  C8  UNL     1      -1.692  -0.099   1.237  1.00  0.00     0.011 C 
HETATM    6  C9  UNL     1      -0.426   0.302   2.001  1.00  0.00     0.026 C 
HETATM    7  C10 UNL     1       0.770   0.154   1.246  1.00  0.00     0.022 C 
HETATM    8  C11 UNL     1      -2.316  -1.042  -0.392  1.00  0.00     0.089 A 
HETATM    9  C12 UNL     1      -1.658  -2.040  -1.240  1.00  0.00     0.106 A 
HETATM   10  C13 UNL     1      -2.696  -2.928  -1.057  1.00  0.00     0.173 A 
HETATM   11  N2  UNL     1      -3.660  -2.430  -0.261  1.00  0.00    -0.182 NA
HETATM   12  N3  UNL     1      -3.451  -1.212   0.190  1.00  0.00    -0.272 N 
HETATM   13  C14 UNL     1      -4.018  -0.151   0.981  1.00  0.00     0.180 C 
HETATM   14  N4  UNL     1      -0.274  -1.841  -1.826  1.00  0.00    -0.236 NA
HETATM   15  C15 UNL     1       0.692  -1.148  -1.042  1.00  0.00     0.122 C 
HETATM   16 CL1  UNL     1       2.159  -2.204  -1.068  1.00  0.00    -0.066 Cl
ENDROOT
BRANCH   1  17
HETATM   17  C3  UNL     1       2.484   0.250  -0.368  1.00  0.00    -0.008 C 
HETATM   18  C2  UNL     1       3.285   1.140  -0.885  1.00  0.00    -0.033 C 
HETATM   19  C1  UNL     1       4.783   1.015  -0.850  1.00  0.00     0.036 C 
ENDBRANCH   1  17
BRANCH   7  20
HETATM   20  N1  UNL     1       1.753   0.086   2.333  1.00  0.00    -0.401 N 
HETATM   21  H12 UNL     1       1.976   1.105   2.278  1.00  0.00     0.156 HD
HETATM   22  H13 UNL     1       2.032  -0.759   2.883  1.00  0.00     0.156 HD
ENDBRANCH   7  20
TORSDOF 2
