REMARK  1 active torsions:
REMARK  status: ('A' for Active; 'I' for Inactive)
REMARK    1  A    between atoms: C6_7  and  C7_8 
ROOT
HETATM    1  C7  UNL     1       1.781   0.080  -0.681  1.00  0.00     0.121 A 
HETATM    2  N1  UNL     1       2.342   0.581  -1.730  1.00  0.00    -0.171 NA
HETATM    3  N2  UNL     1       1.413   1.342  -2.455  1.00  0.00    -0.262 N 
HETATM    4  P1  UNL     1      -0.292   1.338  -1.623  1.00  0.00     0.179 P 
HETATM    5  N3  UNL     1      -1.538   0.609  -2.070  1.00  0.00    -0.273 NA
HETATM    6  C8  UNL     1      -2.772   0.230  -2.009  1.00  0.00     0.153 C 
HETATM    7  C9  UNL     1      -3.760   1.315  -1.626  1.00  0.00     0.048 C 
HETATM    8  C10 UNL     1      -3.699   1.490  -0.144  1.00  0.00    -0.029 C 
HETATM    9  C11 UNL     1      -3.019   0.830   0.773  1.00  0.00    -0.026 C 
HETATM   10  C12 UNL     1      -2.329   0.197   1.925  1.00  0.00     0.073 C 
HETATM   11  C13 UNL     1      -0.841   0.293   1.677  1.00  0.00     0.094 C 
HETATM   12  N4  UNL     1      -0.719   0.218   0.359  1.00  0.00    -0.258 NA
HETATM   13  C14 UNL     1       0.376   0.264  -0.279  1.00  0.00     0.135 A 
HETATM   14  H5  UNL     1       1.456   1.900  -3.338  1.00  0.00     0.189 HD
ENDROOT
BRANCH   1  15
HETATM   15  C6  UNL     1       2.477  -0.762   0.282  1.00  0.00     0.019 A 
HETATM   16  C1  UNL     1       3.513  -0.075   0.920  1.00  0.00     0.046 A 
HETATM   17 CL1  UNL     1       3.959   1.612   0.624  1.00  0.00    -0.083 Cl
HETATM   18  C2  UNL     1       4.289  -0.713   1.868  1.00  0.00     0.025 A 
HETATM   19  C3  UNL     1       4.076  -2.028   2.215  1.00  0.00     0.002 A 
HETATM   20  C4  UNL     1       3.046  -2.673   1.567  1.00  0.00     0.001 A 
HETATM   21  C5  UNL     1       2.257  -2.080   0.626  1.00  0.00     0.015 A 
ENDBRANCH   1  15
TORSDOF 1
