REMARK  5 active torsions:
REMARK  status: ('A' for Active; 'I' for Inactive)
REMARK    1  A    between atoms: C6_9  and  O1_10 
REMARK    2  A    between atoms: O1_10  and  C7_11 
REMARK       I    between atoms: C7_11  and  N4_13 
REMARK    3  A    between atoms: N4_13  and  C8_14 
REMARK    4  A    between atoms: C9_15  and  N5_16 
REMARK    5  A    between atoms: C12_19  and  C13_20 
ROOT
HETATM    1  C7  UNL     1      -0.205   0.632   0.416  1.00  0.00     0.367 C 
HETATM    2  O2  UNL     1      -0.657   0.009   1.413  1.00  0.00    -0.238 OA
HETATM    3  N4  UNL     1       1.142   0.562  -0.080  1.00  0.00    -0.326 N 
HETATM    4  H7  UNL     1       1.301   1.153  -0.906  1.00  0.00     0.165 HD
ENDROOT
BRANCH   3   5
HETATM    5  C8  UNL     1       2.189  -0.224   0.474  1.00  0.00     0.148 C 
HETATM    6  C9  UNL     1       3.398   0.532   0.893  1.00  0.00     0.022 C 
HETATM    7  C10 UNL     1       4.431  -0.329   0.882  1.00  0.00     0.001 C 
HETATM    8  C11 UNL     1       3.941  -1.686   0.453  1.00  0.00     0.045 C 
HETATM    9  C12 UNL     1       2.813  -1.220  -0.483  1.00  0.00     0.125 C 
BRANCH   6  10
HETATM   10  N5  UNL     1       3.342   1.909   1.221  1.00  0.00    -0.401 N 
HETATM   11  H9  UNL     1       2.992   2.601   0.522  1.00  0.00     0.156 HD
HETATM   12  H10 UNL     1       3.596   2.455   2.091  1.00  0.00     0.156 HD
ENDBRANCH   6  10
BRANCH   9  13
HETATM   13  C13 UNL     1       3.473  -0.582  -1.666  1.00  0.00     0.394 C 
HETATM   14  F1  UNL     1       4.004  -1.609  -2.460  1.00  0.00    -0.171 F 
HETATM   15  F2  UNL     1       4.570   0.170  -1.295  1.00  0.00    -0.171 F 
HETATM   16  F3  UNL     1       2.634   0.148  -2.470  1.00  0.00    -0.171 F 
ENDBRANCH   9  13
ENDBRANCH   3   5
BRANCH   1  17
HETATM   17  O1  UNL     1      -1.186   1.425  -0.174  1.00  0.00    -0.240 OA
BRANCH  17  18
HETATM   18  C6  UNL     1      -2.456   1.383   0.432  1.00  0.00     0.205 A 
HETATM   19  N3  UNL     1      -2.802   2.235   1.419  1.00  0.00    -0.215 NA
HETATM   20  C5  UNL     1      -4.007   2.219   2.017  1.00  0.00     0.236 A 
HETATM   21  N2  UNL     1      -4.946   1.323   1.641  1.00  0.00    -0.240 NA
HETATM   22  C4  UNL     1      -4.649   0.444   0.653  1.00  0.00     0.090 A 
HETATM   23  C3  UNL     1      -5.398  -0.563   0.077  1.00  0.00     0.051 A 
HETATM   24  C14 UNL     1      -3.407   0.464   0.041  1.00  0.00     0.117 A 
HETATM   25  C2  UNL     1      -4.577  -1.143  -0.892  1.00  0.00     0.093 A 
HETATM   26  N1  UNL     1      -3.376  -0.503  -0.894  1.00  0.00    -0.356 N 
HETATM   27  C1  UNL     1      -2.269  -0.831  -1.770  1.00  0.00     0.156 C 
ENDBRANCH  17  18
ENDBRANCH   1  17
TORSDOF 5
