REMARK  8 active torsions:
REMARK  status: ('A' for Active; 'I' for Inactive)
REMARK    1  A    between atoms: C2_2  and  N1_3 
REMARK    2  A    between atoms: N1_3  and  C3_4 
REMARK    3  A    between atoms: C6_8  and  C7_9 
REMARK    4  A    between atoms: C7_9  and  O1_10 
REMARK    5  A    between atoms: O1_10  and  C8_11 
REMARK    6  A    between atoms: C11_14  and  N3_15 
REMARK       I    between atoms: N3_15  and  C12_16 
REMARK       I    between atoms: C12_16  and  N4_18 
REMARK    7  A    between atoms: N4_18  and  C13_19 
REMARK    8  A    between atoms: C16_22  and  C17_23 
ROOT
HETATM    1  C8  UNL     1       1.632  -0.171  -1.796  1.00  0.00     0.075 A 
HETATM    2  C9  UNL     1       0.761   0.745  -2.369  1.00  0.00     0.039 A 
HETATM    3  C10 UNL     1      -0.581   0.388  -2.479  1.00  0.00     0.032 A 
HETATM    4  C11 UNL     1      -0.971  -0.850  -2.015  1.00  0.00     0.036 A 
HETATM    5  C19 UNL     1      -0.058  -1.739  -1.445  1.00  0.00     0.032 A 
HETATM    6  C20 UNL     1       1.278  -1.414  -1.322  1.00  0.00     0.039 A 
ENDROOT
BRANCH   4   7
HETATM    7  N3  UNL     1      -2.313  -1.388  -2.031  1.00  0.00    -0.309 N 
HETATM    8  C12 UNL     1      -2.934  -1.044  -0.778  1.00  0.00     0.325 C 
HETATM    9  O2  UNL     1      -2.140  -0.379  -0.037  1.00  0.00    -0.247 OA
HETATM   10  N4  UNL     1      -4.279  -1.398  -0.388  1.00  0.00    -0.308 N 
HETATM   11  H13 UNL     1      -4.766  -1.945  -1.136  1.00  0.00     0.170 HD
HETATM   12  H12 UNL     1      -2.928  -1.943  -2.700  1.00  0.00     0.170 HD
BRANCH  10  13
HETATM   13  C13 UNL     1      -4.810  -1.014   0.879  1.00  0.00     0.048 A 
HETATM   14  C14 UNL     1      -5.239  -1.814   1.844  1.00  0.00     0.031 A 
HETATM   15  C15 UNL     1      -5.541  -0.616   2.615  1.00  0.00     0.018 A 
HETATM   16  C16 UNL     1      -5.110   0.191   1.644  1.00  0.00     0.039 A 
BRANCH  16  17
HETATM   17  C17 UNL     1      -4.977   1.634   1.394  1.00  0.00     0.269 C 
HETATM   18  C18 UNL     1      -5.789   2.093   0.207  1.00  0.00     0.096 C 
HETATM   19  F1  UNL     1      -3.636   1.949   1.234  1.00  0.00    -0.201 F 
HETATM   20  F2  UNL     1      -5.395   2.321   2.510  1.00  0.00    -0.201 F 
ENDBRANCH  16  17
ENDBRANCH  10  13
ENDBRANCH   4   7
BRANCH   1  21
HETATM   21  O1  UNL     1       2.921   0.297  -1.743  1.00  0.00    -0.321 OA
BRANCH  21  22
HETATM   22  C7  UNL     1       4.033  -0.278  -1.260  1.00  0.00     0.174 C 
BRANCH  22  23
HETATM   23  C6  UNL     1       4.942  -0.599  -0.376  1.00  0.00     0.083 A 
HETATM   24  C3  UNL     1       4.878  -0.143   0.989  1.00  0.00     0.081 A 
HETATM   25  C4  UNL     1       6.089  -0.756   1.580  1.00  0.00     0.050 A 
HETATM   26  C5  UNL     1       6.719  -1.455   0.633  1.00  0.00     0.091 A 
HETATM   27  N2  UNL     1       6.071  -1.413  -0.627  1.00  0.00    -0.362 N 
HETATM   28  H8  UNL     1       6.346  -1.865  -1.522  1.00  0.00     0.165 HD
BRANCH  24  29
HETATM   29  N1  UNL     1       4.194   0.546   1.773  1.00  0.00    -0.288 NA
BRANCH  29  30
HETATM   30  C2  UNL     1       2.998   1.226   1.428  1.00  0.00     0.145 C 
HETATM   31  C1  UNL     1       3.283   2.487   0.603  1.00  0.00     0.028 C 
ENDBRANCH  29  30
ENDBRANCH  24  29
ENDBRANCH  22  23
ENDBRANCH  21  22
ENDBRANCH   1  21
TORSDOF 8
