REMARK  1 active torsions:
REMARK  status: ('A' for Active; 'I' for Inactive)
REMARK       I    between atoms: C2_2  and  N1_4 
REMARK    1  A    between atoms: N1_4  and  C3_5 
ROOT
HETATM    1  C3  UNL     1      -2.173   0.003   0.646  1.00  0.00     0.027 A 
HETATM    2  C4  UNL     1      -2.217  -0.336   1.948  1.00  0.00     0.028 A 
HETATM    3  C5  UNL     1      -1.180  -1.345   2.258  1.00  0.00     0.028 A 
HETATM    4  C6  UNL     1      -0.545  -1.579   1.119  1.00  0.00     0.026 A 
HETATM    5  N2  UNL     1       0.567  -2.509   0.939  1.00  0.00    -0.342 N 
HETATM    6  C7  UNL     1       1.601  -2.313  -0.056  1.00  0.00     0.144 C 
HETATM    7  C8  UNL     1       1.434  -1.638  -1.218  1.00  0.00     0.167 C 
HETATM    8  N3  UNL     1       1.027  -0.256  -1.296  1.00  0.00    -0.265 NA
HETATM    9  C9  UNL     1      -0.081   0.052  -0.716  1.00  0.00     0.028 C 
HETATM   10  C10 UNL     1      -0.193   1.516  -0.861  1.00  0.00     0.061 C 
HETATM   11  C11 UNL     1       0.964   2.368  -0.501  1.00  0.00     0.004 C 
HETATM   12  C12 UNL     1       1.972   1.557  -0.082  1.00  0.00     0.022 C 
HETATM   13  C13 UNL     1       3.353   1.863   0.397  1.00  0.00    -0.001 C 
HETATM   14  C14 UNL     1       3.831   0.607   0.652  1.00  0.00     0.009 A 
HETATM   15 CL1  UNL     1       5.444   0.233   1.261  1.00  0.00    -0.178 Cl
HETATM   16  C15 UNL     1       3.809  -0.771   0.728  1.00  0.00     0.177 A 
HETATM   17  C16 UNL     1       3.813  -2.149   0.785  1.00  0.00     0.110 C 
HETATM   18  N4  UNL     1       2.791  -2.936   0.424  1.00  0.00    -0.245 NA
HETATM   19  C17 UNL     1      -1.130  -0.746  -0.014  1.00  0.00     0.133 A 
HETATM   20  H7  UNL     1       0.572  -3.306   1.566  1.00  0.00     0.167 HD
ENDROOT
BRANCH   1  21
HETATM   21  N1  UNL     1      -3.174   0.981   0.337  1.00  0.00    -0.330 N 
HETATM   22  C2  UNL     1      -4.152   0.622  -0.644  1.00  0.00     0.217 C 
HETATM   23  C1  UNL     1      -5.265   1.444  -1.125  1.00  0.00     0.117 C 
HETATM   24  O1  UNL     1      -4.058  -0.536  -1.166  1.00  0.00    -0.274 OA
HETATM   25  H4  UNL     1      -3.277   1.934   0.747  1.00  0.00     0.168 HD
ENDBRANCH   1  21
TORSDOF 1
