REMARK  5 active torsions:
REMARK  status: ('A' for Active; 'I' for Inactive)
REMARK    1  A    between atoms: P1_2  and  C2_3 
REMARK    2  A    between atoms: C2_3  and  C3_4 
REMARK    3  A    between atoms: C3_4  and  N2_15 
REMARK    4  A    between atoms: C4_5  and  N1_6 
REMARK    5  A    between atoms: C5_7  and  C6_8 
REMARK       I    between atoms: N2_15  and  C12_16 
ROOT
HETATM    1  C3  UNL     1      -1.480   0.396  -0.143  1.00  0.00     0.046 C 
HETATM    2  C4  UNL     1      -0.204   0.701  -0.303  1.00  0.00     0.142 C 
ENDROOT
BRANCH   1   3
HETATM    3  C2  UNL     1      -1.904  -1.024   0.020  1.00  0.00     0.044 A 
HETATM    4  C14 UNL     1      -2.641  -1.601  -1.078  1.00  0.00    -0.010 A 
HETATM    5  C15 UNL     1      -1.737  -2.483  -1.349  1.00  0.00    -0.027 A 
HETATM    6  C16 UNL     1      -0.850  -2.036  -0.280  1.00  0.00     0.051 A 
BRANCH   3   7
HETATM    7  P1  UNL     1      -2.668  -1.382   1.680  1.00  0.00    -0.100 P 
HETATM    8  C1  UNL     1      -4.245  -1.911   1.732  1.00  0.00     0.086 C 
ENDBRANCH   3   7
ENDBRANCH   1   3
BRANCH   1   9
HETATM    9  N2  UNL     1      -2.398   1.479  -0.134  1.00  0.00    -0.328 N 
HETATM   10  C12 UNL     1      -3.325   2.012   0.804  1.00  0.00     0.217 C 
HETATM   11  C13 UNL     1      -4.137   3.198   0.430  1.00  0.00     0.117 C 
HETATM   12  O1  UNL     1      -3.431   1.465   1.923  1.00  0.00    -0.274 OA
HETATM   13  H9  UNL     1      -2.339   1.976  -1.074  1.00  0.00     0.168 HD
ENDBRANCH   1   9
BRANCH   2  14
HETATM   14  N1  UNL     1       1.176   0.513  -0.433  1.00  0.00    -0.270 NA
HETATM   15  C5  UNL     1       1.968   0.206   0.567  1.00  0.00     0.129 C 
BRANCH  15  16
HETATM   16  C6  UNL     1       3.353   0.074   0.133  1.00  0.00     0.003 A 
HETATM   17  C7  UNL     1       3.767   0.252  -1.168  1.00  0.00     0.014 A 
HETATM   18  C8  UNL     1       5.083   0.127  -1.578  1.00  0.00     0.001 A 
HETATM   19  C9  UNL     1       6.056  -0.194  -0.659  1.00  0.00     0.002 A 
HETATM   20  C10 UNL     1       5.705  -0.385   0.658  1.00  0.00     0.024 A 
HETATM   21  C11 UNL     1       4.376  -0.245   1.002  1.00  0.00     0.045 A 
HETATM   22 CL1  UNL     1       4.002  -0.504   2.706  1.00  0.00    -0.083 Cl
ENDBRANCH  15  16
ENDBRANCH   2  14
TORSDOF 5
