REMARK  5 active torsions:
REMARK  status: ('A' for Active; 'I' for Inactive)
REMARK       I    between atoms: N1_2  and  C2_3 
REMARK    1  A    between atoms: C2_3  and  C3_5 
REMARK    2  A    between atoms: C5_7  and  O2_8 
REMARK    3  A    between atoms: O2_8  and  C6_9 
REMARK    4  A    between atoms: C9_12  and  N2_13 
REMARK    5  A    between atoms: N2_13  and  C10_14 
ROOT
HETATM    1  C3  UNL     1       3.135  -0.436   0.012  1.00  0.00     0.126 A 
HETATM    2  C4  UNL     1       1.869   0.143   0.101  1.00  0.00     0.074 A 
HETATM    3  C5  UNL     1       0.692  -0.607   0.009  1.00  0.00     0.079 A 
HETATM    4  C13 UNL     1       0.931  -1.948  -0.177  1.00  0.00     0.056 A 
HETATM    5  C14 UNL     1       2.143  -2.546  -0.268  1.00  0.00     0.120 A 
HETATM    6  N3  UNL     1       3.228  -1.764  -0.170  1.00  0.00    -0.255 NA
ENDROOT
BRANCH   3   7
HETATM    7  O2  UNL     1      -0.363   0.215   0.130  1.00  0.00    -0.311 OA
BRANCH   7   8
HETATM    8  C6  UNL     1      -1.690   0.092   0.124  1.00  0.00     0.076 A 
HETATM    9  C7  UNL     1      -2.604  -0.922  -0.007  1.00  0.00     0.039 A 
HETATM   10  C8  UNL     1      -3.962  -0.762   0.026  1.00  0.00     0.032 A 
HETATM   11  C9  UNL     1      -4.502   0.486   0.201  1.00  0.00     0.034 A 
HETATM   12  C11 UNL     1      -3.654   1.551   0.339  1.00  0.00     0.032 A 
HETATM   13  C12 UNL     1      -2.266   1.363   0.302  1.00  0.00     0.039 A 
BRANCH  11  14
HETATM   14  N2  UNL     1      -5.914   0.498   0.214  1.00  0.00    -0.334 N 
HETATM   15  H8  UNL     1      -6.508  -0.350   0.103  1.00  0.00     0.168 HD
BRANCH  14  16
HETATM   16  C10 UNL     1      -6.743   1.632   0.376  1.00  0.00     0.353 C 
HETATM   17  O3  UNL     1      -6.326   2.781   0.529  1.00  0.00    -0.283 OA
ENDBRANCH  14  16
ENDBRANCH  11  14
ENDBRANCH   7   8
ENDBRANCH   3   7
BRANCH   1  18
HETATM   18  C2  UNL     1       4.382   0.328   0.106  1.00  0.00     0.269 C 
HETATM   19  N1  UNL     1       5.635  -0.297   0.011  1.00  0.00    -0.360 N 
HETATM   20  C1  UNL     1       6.884   0.436   0.101  1.00  0.00     0.149 C 
HETATM   21  H4  UNL     1       5.723  -1.338  -0.132  1.00  0.00     0.162 HD
HETATM   22  O1  UNL     1       4.398   1.559   0.274  1.00  0.00    -0.266 OA
ENDBRANCH   1  18
TORSDOF 5
