REMARK  5 active torsions:
REMARK  status: ('A' for Active; 'I' for Inactive)
REMARK    1  A    between atoms: C3_3  and  C4_4 
REMARK    2  A    between atoms: C3_3  and  C18_24 
REMARK    3  A    between atoms: N2_13  and  C11_14 
REMARK    4  A    between atoms: C15_18  and  C16_19 
REMARK    5  A    between atoms: C16_19  and  C17_20 
REMARK       I    between atoms: C17_20  and  N3_21 
ROOT
HETATM    1  C1  UNL     1       4.497  -0.608  -2.870  1.00  0.00     0.097 C 
HETATM    2  C2  UNL     1       3.628  -0.416  -1.882  1.00  0.00    -0.140 C 
HETATM    3  C3  UNL     1       2.812  -0.288  -0.868  1.00  0.00     0.042 C 
ENDROOT
BRANCH   3   4
HETATM    4  C4  UNL     1       1.635  -1.070  -0.673  1.00  0.00     0.053 C 
HETATM    5  C5  UNL     1       1.223  -2.041  -1.521  1.00  0.00    -0.047 C 
HETATM    6  C6  UNL     1       1.952  -2.385  -2.752  1.00  0.00     0.046 C 
HETATM    7  C7  UNL     1       0.051  -2.869  -1.171  1.00  0.00     0.139 C 
HETATM    8  C8  UNL     1      -1.086  -2.426  -2.064  1.00  0.00     0.221 C 
HETATM    9  O1  UNL     1      -1.670  -2.079  -3.117  1.00  0.00    -0.273 OA
HETATM   10  N1  UNL     1      -2.455  -2.145  -1.652  1.00  0.00    -0.359 N 
HETATM   11  C9  UNL     1      -3.855  -1.857  -1.233  1.00  0.00     0.152 C 
HETATM   12  H8  UNL     1      -2.268  -2.634  -0.762  1.00  0.00     0.162 HD
HETATM   13  C10 UNL     1      -3.981  -1.827   0.268  1.00  0.00     0.292 C 
HETATM   14  N2  UNL     1      -3.348  -0.667   0.917  1.00  0.00     0.093 N 
HETATM   15  C13 UNL     1      -2.118  -0.297   0.218  1.00  0.00     0.301 C 
HETATM   16  C14 UNL     1      -1.253   0.732   0.779  1.00  0.00     0.028 C 
HETATM   17  C15 UNL     1       0.077   0.498   0.886  1.00  0.00     0.016 C 
HETATM   18  N4  UNL     1       1.011  -0.549   0.529  1.00  0.00    -0.358 N 
HETATM   19  H25 UNL     1       1.274  -0.996   1.421  1.00  0.00     0.166 HD
BRANCH  14  20
HETATM   20  C11 UNL     1      -4.324   0.426   0.635  1.00  0.00     0.268 C 
HETATM   21  C12 UNL     1      -5.553   0.064   1.443  1.00  0.00     0.037 C 
ENDBRANCH  14  20
BRANCH  17  22
HETATM   22  C16 UNL     1       0.586   1.745   1.499  1.00  0.00     0.159 C 
BRANCH  22  23
HETATM   23  C17 UNL     1      -0.511   2.664   1.906  1.00  0.00     0.221 C 
HETATM   24  N3  UNL     1       0.140   3.819   2.486  1.00  0.00    -0.370 N 
HETATM   25  H23 UNL     1       0.530   4.803   2.598  1.00  0.00     0.159 HD
HETATM   26  H24 UNL     1       0.614   4.030   3.411  1.00  0.00     0.159 HD
HETATM   27  O2  UNL     1      -1.528   3.335   2.197  1.00  0.00    -0.273 OA
ENDBRANCH  22  23
ENDBRANCH  17  22
ENDBRANCH   3   4
BRANCH   3  28
HETATM   28  C18 UNL     1       3.414   0.776  -0.085  1.00  0.00    -0.013 A 
HETATM   29  C19 UNL     1       3.727   0.500   1.249  1.00  0.00     0.013 A 
HETATM   30  C20 UNL     1       4.303   1.446   2.057  1.00  0.00     0.004 A 
HETATM   31  C21 UNL     1       4.574   2.699   1.527  1.00  0.00     0.042 A 
HETATM   32  C22 UNL     1       4.285   3.009   0.235  1.00  0.00     0.117 A 
HETATM   33  F1  UNL     1       4.512   4.202  -0.367  1.00  0.00    -0.206 F 
HETATM   34  C23 UNL     1       3.701   2.051  -0.587  1.00  0.00     0.055 A 
ENDBRANCH   3  28
TORSDOF 5
