REMARK  5 active torsions:
REMARK  status: ('A' for Active; 'I' for Inactive)
REMARK    1  A    between atoms: C6_7  and  O1_8 
REMARK    2  A    between atoms: O1_8  and  C7_9 
REMARK    3  A    between atoms: C7_9  and  C8_10 
REMARK    4  A    between atoms: C9_11  and  C10_12 
REMARK    5  A    between atoms: C19_22  and  C20_23 
ROOT
HETATM    1  C10 UNL     1      -1.208  -1.019  -0.060  1.00  0.00     0.033 C 
HETATM    2  C11 UNL     1      -2.400  -1.545  -0.408  1.00  0.00     0.012 C 
HETATM    3  C12 UNL     1      -3.748  -1.192  -0.892  1.00  0.00     0.042 C 
HETATM    4  C13 UNL     1      -3.544  -0.763  -2.359  1.00  0.00     0.019 C 
HETATM    5  C14 UNL     1      -4.451  -0.098  -0.255  1.00  0.00    -0.007 A 
HETATM    6  C15 UNL     1      -4.094   1.124   0.328  1.00  0.00     0.044 A 
HETATM    7  C16 UNL     1      -5.009   2.021   0.886  1.00  0.00     0.032 A 
HETATM    8  C17 UNL     1      -6.348   1.689   0.865  1.00  0.00     0.027 A 
HETATM    9  C18 UNL     1      -6.687   0.490   0.292  1.00  0.00     0.049 A 
HETATM   10 CL1  UNL     1      -8.423   0.120   0.296  1.00  0.00    -0.083 Cl
HETATM   11  C19 UNL     1      -5.815  -0.453  -0.285  1.00  0.00     0.078 A 
HETATM   12  N2  UNL     1      -2.892   1.873   0.571  1.00  0.00    -0.308 N 
HETATM   13  C21 UNL     1      -1.514   1.574   0.309  1.00  0.00     0.325 C 
HETATM   14  O2  UNL     1      -0.711   2.507   0.431  1.00  0.00    -0.247 OA
HETATM   15  N3  UNL     1      -0.843   0.358  -0.085  1.00  0.00    -0.309 N 
HETATM   16  H20 UNL     1      -2.999   2.800   1.013  1.00  0.00     0.170 HD
HETATM   17  H21 UNL     1       0.137   0.472  -0.488  1.00  0.00     0.170 HD
ENDROOT
BRANCH   1  18
HETATM   18  C9  UNL     1      -0.147  -1.915   0.380  1.00  0.00     0.027 C 
HETATM   19  C8  UNL     1       1.078  -1.808   0.785  1.00  0.00     0.002 C 
BRANCH  19  20
HETATM   20  C7  UNL     1       2.169  -0.867   1.071  1.00  0.00     0.205 C 
BRANCH  20  21
HETATM   21  O1  UNL     1       3.334  -1.121   0.267  1.00  0.00    -0.332 OA
BRANCH  21  22
HETATM   22  C6  UNL     1       4.429  -0.289   0.445  1.00  0.00     0.139 C 
HETATM   23  C5  UNL     1       4.538   0.671   1.369  1.00  0.00     0.074 C 
HETATM   24  C4  UNL     1       5.643   1.599   1.640  1.00  0.00     0.114 C 
HETATM   25  N1  UNL     1       6.876   1.452   1.285  1.00  0.00    -0.299 NA
HETATM   26  C3  UNL     1       7.444   0.345   0.544  1.00  0.00     0.173 C 
HETATM   27  C2  UNL     1       6.698   0.116  -0.771  1.00  0.00     0.099 C 
HETATM   28  C1  UNL     1       6.334   1.481  -1.325  1.00  0.00     0.034 C 
HETATM   29  N4  UNL     1       5.459  -0.603  -0.517  1.00  0.00    -0.365 N 
HETATM   30  H22 UNL     1       5.306  -1.459  -1.118  1.00  0.00     0.162 HD
ENDBRANCH  21  22
ENDBRANCH  20  21
ENDBRANCH  19  20
ENDBRANCH   1  18
BRANCH  11  31
HETATM   31  C20 UNL     1      -6.325  -1.691  -0.862  1.00  0.00     0.419 C 
HETATM   32  F1  UNL     1      -6.070  -1.913  -2.192  1.00  0.00    -0.166 F 
HETATM   33  F2  UNL     1      -7.736  -1.539  -0.909  1.00  0.00    -0.166 F 
HETATM   34  F3  UNL     1      -6.246  -2.812  -0.056  1.00  0.00    -0.166 F 
ENDBRANCH  11  31
TORSDOF 5
