REMARK  3 active torsions:
REMARK  status: ('A' for Active; 'I' for Inactive)
REMARK    1  A    between atoms: O1_2  and  C2_3 
REMARK    2  A    between atoms: C3_4  and  N1_5 
REMARK       I    between atoms: N1_5  and  C5_7 
REMARK    3  A    between atoms: C5_7  and  C6_9 
ROOT
HETATM    1  C2  UNL     1      -0.694  -0.813   0.375  1.00  0.00     0.179 C 
HETATM    2  C3  UNL     1       0.186  -0.346  -0.713  1.00  0.00     0.120 C 
HETATM    3  C12 UNL     1      -0.453   0.950  -1.201  1.00  0.00     0.045 C 
HETATM    4  C13 UNL     1      -1.756   1.053  -0.559  1.00  0.00     0.016 C 
HETATM    5  C14 UNL     1      -2.795   1.657  -1.538  1.00  0.00    -0.011 C 
HETATM    6  C15 UNL     1      -3.915   0.935  -1.356  1.00  0.00     0.026 C 
HETATM    7  C16 UNL     1      -4.119   1.387   0.113  1.00  0.00     0.025 C 
HETATM    8  C17 UNL     1      -3.279   2.336   0.719  1.00  0.00     0.004 C 
HETATM    9  C18 UNL     1      -1.784   2.053   0.650  1.00  0.00     0.046 C 
HETATM   10  N2  UNL     1      -4.965   0.483   0.975  1.00  0.00    -0.369 N 
HETATM   11  C19 UNL     1      -4.040  -0.667   1.456  1.00  0.00     0.291 C 
HETATM   12  O3  UNL     1      -2.746  -0.310   1.244  1.00  0.00    -0.358 OA
HETATM   13  C20 UNL     1      -2.148  -0.265   0.020  1.00  0.00     0.098 C 
HETATM   14  C21 UNL     1      -2.640  -1.264  -0.981  1.00  0.00     0.050 C 
HETATM   15  H21 UNL     1      -5.882   0.240   1.417  1.00  0.00     0.161 HD
ENDROOT
BRANCH   2  16
HETATM   16  N1  UNL     1       1.539   0.019  -0.274  1.00  0.00    -0.345 N 
HETATM   17  C4  UNL     1       1.857   0.910   0.830  1.00  0.00     0.153 C 
HETATM   18  C5  UNL     1       2.573  -0.606  -1.069  1.00  0.00     0.253 C 
HETATM   19  O2  UNL     1       2.136  -1.351  -1.991  1.00  0.00    -0.267 OA
BRANCH  18  20
HETATM   20  C6  UNL     1       3.969  -0.296  -0.703  1.00  0.00     0.032 A 
HETATM   21  C7  UNL     1       4.479  -1.239   0.164  1.00  0.00     0.017 A 
HETATM   22  C8  UNL     1       5.787  -1.129   0.632  1.00  0.00     0.001 A 
HETATM   23  C9  UNL     1       6.537  -0.045   0.193  1.00  0.00     0.000 A 
HETATM   24  C10 UNL     1       6.023   0.880  -0.663  1.00  0.00     0.001 A 
HETATM   25  C11 UNL     1       4.736   0.765  -1.120  1.00  0.00     0.017 A 
ENDBRANCH  18  20
ENDBRANCH   2  16
BRANCH   1  26
HETATM   26  O1  UNL     1      -0.851  -2.140   0.574  1.00  0.00    -0.386 OA
HETATM   27  C1  UNL     1      -0.643  -2.654   1.816  1.00  0.00     0.202 C 
ENDBRANCH   1  26
TORSDOF 3
