REMARK  7 active torsions:
REMARK  status: ('A' for Active; 'I' for Inactive)
REMARK    1  A    between atoms: N1_1  and  C1_2 
REMARK    2  A    between atoms: C4_5  and  O1_6 
REMARK    3  A    between atoms: O1_6  and  C5_7 
REMARK    4  A    between atoms: N2_11  and  C9_12 
REMARK    5  A    between atoms: C9_12  and  N3_13 
REMARK    6  A    between atoms: N3_13  and  C10_14 
REMARK    7  A    between atoms: C14_19  and  C15_20 
ROOT
HETATM    1  C5  UNL     1      -2.678   0.456  -1.073  1.00  0.00     0.057 C 
HETATM    2  C6  UNL     1      -2.514   1.306  -0.078  1.00  0.00     0.034 C 
HETATM    3  C7  UNL     1      -1.248   1.939   0.262  1.00  0.00     0.020 C 
HETATM    4  C8  UNL     1       0.056   1.858  -0.054  1.00  0.00     0.092 C 
HETATM    5  N2  UNL     1       0.808   1.015  -0.958  1.00  0.00    -0.350 N 
HETATM    6  C17 UNL     1       0.406   0.379  -2.162  1.00  0.00     0.088 C 
HETATM    7  C18 UNL     1      -0.760  -0.100  -2.553  1.00  0.00    -0.003 C 
HETATM    8  C19 UNL     1      -2.183  -0.327  -2.216  1.00  0.00     0.093 C 
ENDROOT
BRANCH   5   9
HETATM    9  C9  UNL     1       2.133   0.863  -0.483  1.00  0.00     0.250 C 
BRANCH   9  10
HETATM   10  N3  UNL     1       3.025   0.050  -1.235  1.00  0.00    -0.373 N 
HETATM   11  H10 UNL     1       2.938  -0.501  -2.119  1.00  0.00     0.161 HD
BRANCH  10  12
HETATM   12  C10 UNL     1       4.325  -0.029  -0.649  1.00  0.00     0.030 A 
HETATM   13  C11 UNL     1       5.367  -0.769  -1.217  1.00  0.00     0.031 A 
HETATM   14  C12 UNL     1       6.639  -0.910  -0.735  1.00  0.00     0.027 A 
HETATM   15  C13 UNL     1       6.917  -0.247   0.439  1.00  0.00     0.047 A 
HETATM   16 CL1  UNL     1       8.533  -0.382   1.119  1.00  0.00    -0.083 Cl
HETATM   17  C14 UNL     1       5.970   0.507   1.081  1.00  0.00     0.025 A 
HETATM   18  C16 UNL     1       4.721   0.597   0.534  1.00  0.00     0.045 A 
BRANCH  17  19
HETATM   19  C15 UNL     1       6.258   1.202   2.313  1.00  0.00     0.271 C 
HETATM   20  O2  UNL     1       5.485   1.918   3.000  1.00  0.00    -0.301 OA
ENDBRANCH  17  19
ENDBRANCH  10  12
ENDBRANCH   9  10
ENDBRANCH   5   9
BRANCH   1  21
HETATM   21  O1  UNL     1      -4.008   0.065  -1.089  1.00  0.00    -0.314 OA
BRANCH  21  22
HETATM   22  C4  UNL     1      -4.739  -0.003   0.119  1.00  0.00     0.084 C 
HETATM   23  C3  UNL     1      -5.757   0.401   1.281  1.00  0.00     0.043 C 
HETATM   24  C2  UNL     1      -5.578  -0.691   2.197  1.00  0.00     0.102 A 
HETATM   25  C1  UNL     1      -5.833  -1.675   1.023  1.00  0.00     0.185 A 
HETATM   26  N4  UNL     1      -5.309  -2.091   2.391  1.00  0.00    -0.249 N 
HETATM   27  C20 UNL     1      -4.436  -1.137   0.869  1.00  0.00     0.022 C 
HETATM   28  C21 UNL     1      -4.054  -2.316   1.660  1.00  0.00     0.076 C 
BRANCH  25  29
HETATM   29  N1  UNL     1      -6.117  -2.999   1.288  1.00  0.00    -0.411 N 
HETATM   30  H1  UNL     1      -5.403  -3.714   1.318  1.00  0.00     0.151 HD
HETATM   31  H2  UNL     1      -6.852  -3.136   1.997  1.00  0.00     0.151 HD
ENDBRANCH  25  29
ENDBRANCH  21  22
ENDBRANCH   1  21
TORSDOF 7
