REMARK  4 active torsions:
REMARK  status: ('A' for Active; 'I' for Inactive)
REMARK    1  A    between atoms: C2_4  and  O2_5 
REMARK    2  A    between atoms: C11_14  and  C12_15 
REMARK    3  A    between atoms: C12_15  and  O3_16 
REMARK    4  A    between atoms: N2_17  and  C13_18 
ROOT
HETATM    1  O1  UNL     1       2.623   3.479   0.628  1.00  0.00    -0.268 OA
HETATM    2  C1  UNL     1       1.530   2.936   0.440  1.00  0.00     0.255 A 
HETATM    3  N1  UNL     1       0.457   3.859   0.498  1.00  0.00    -0.326 N 
HETATM    4  C2  UNL     1      -0.810   3.162   0.283  1.00  0.00     0.258 A 
HETATM    5  C3  UNL     1      -0.365   1.748   0.074  1.00  0.00     0.034 A 
HETATM    6  C4  UNL     1      -1.109   0.679  -0.177  1.00  0.00     0.058 A 
HETATM    7  C5  UNL     1      -2.532   0.423  -0.345  1.00  0.00    -0.000 A 
HETATM    8  C6  UNL     1      -3.607   1.284  -0.296  1.00  0.00     0.014 A 
HETATM    9  C7  UNL     1      -4.884   0.800  -0.494  1.00  0.00     0.001 A 
HETATM   10  C8  UNL     1      -5.134  -0.533  -0.743  1.00  0.00     0.001 A 
HETATM   11  C9  UNL     1      -4.052  -1.410  -0.794  1.00  0.00     0.010 A 
HETATM   12  C10 UNL     1      -2.780  -0.901  -0.593  1.00  0.00    -0.020 A 
HETATM   13  C11 UNL     1      -1.491  -1.630  -0.601  1.00  0.00     0.148 A 
HETATM   14  N2  UNL     1      -0.508  -0.599  -0.342  1.00  0.00    -0.332 N 
HETATM   15  C13 UNL     1       0.927  -0.673  -0.227  1.00  0.00     0.065 A 
HETATM   16  C14 UNL     1       1.834  -1.710  -0.330  1.00  0.00     0.122 A 
HETATM   17  N3  UNL     1       3.078  -1.175  -0.131  1.00  0.00    -0.350 N 
HETATM   18  C15 UNL     1       2.989   0.132   0.089  1.00  0.00     0.048 A 
HETATM   19  C16 UNL     1       1.668   0.456   0.032  1.00  0.00     0.035 A 
HETATM   20  C17 UNL     1       1.079   1.606   0.178  1.00  0.00     0.059 A 
HETATM   21  C18 UNL     1       4.161   0.675   0.283  1.00  0.00     0.030 A 
HETATM   22  C19 UNL     1       5.457   0.014   0.279  1.00  0.00    -0.000 A 
HETATM   23  C20 UNL     1       5.452  -1.289   0.052  1.00  0.00    -0.007 A 
HETATM   24  C21 UNL     1       4.217  -2.064  -0.189  1.00  0.00     0.156 A 
HETATM   25  H1  UNL     1       0.348   4.885   0.653  1.00  0.00     0.165 HD
ENDROOT
BRANCH  13  26
HETATM   26  C12 UNL     1      -1.536  -2.674   0.523  1.00  0.00     0.194 C 
BRANCH  26  27
HETATM   27  O3  UNL     1      -2.503  -3.650   0.226  1.00  0.00    -0.398 OA
HETATM   28  H11 UNL     1      -3.151  -3.708   0.991  1.00  0.00     0.209 HD
ENDBRANCH  26  27
ENDBRANCH  13  26
BRANCH   4  29
HETATM   29  O2  UNL     1      -1.520   3.325   1.473  1.00  0.00    -0.372 OA
HETATM   30  H3  UNL     1      -2.241   3.982   1.295  1.00  0.00     0.212 HD
ENDBRANCH   4  29
TORSDOF 4
