REMARK  2 active torsions:
REMARK  status: ('A' for Active; 'I' for Inactive)
REMARK    1  A    between atoms: C9_11  and  N2_12 
REMARK    2  A    between atoms: N2_12  and  C10_13 
ROOT
HETATM    1 BR1  UNL     1      -6.309   2.984  -1.138  1.00  0.00    -0.051 Br
HETATM    2  C1  UNL     1      -5.112   1.609  -0.537  1.00  0.00     0.011 A 
HETATM    3  C2  UNL     1      -5.550   0.334  -0.244  1.00  0.00     0.022 A 
HETATM    4  C3  UNL     1      -4.681  -0.640   0.185  1.00  0.00     0.039 A 
HETATM    5  C4  UNL     1      -3.320  -0.348   0.334  1.00  0.00     0.086 A 
HETATM    6  C5  UNL     1      -2.842   0.912   0.052  1.00  0.00    -0.005 A 
HETATM    7  C6  UNL     1      -3.775   1.861  -0.381  1.00  0.00     0.030 A 
HETATM    8  C7  UNL     1      -1.511   1.564   0.092  1.00  0.00     0.161 C 
HETATM    9  N1  UNL     1      -0.515   0.656  -0.446  1.00  0.00    -0.380 N 
HETATM   10  C8  UNL     1      -0.277  -0.720  -0.174  1.00  0.00     0.106 A 
HETATM   11  C9  UNL     1       0.824  -1.427  -0.370  1.00  0.00     0.060 A 
HETATM   12  C16 UNL     1       0.643  -2.839   0.054  1.00  0.00     0.211 A 
HETATM   13  N3  UNL     1      -0.722  -2.861   0.527  1.00  0.00    -0.259 NA
HETATM   14  C17 UNL     1      -1.204  -1.694   0.393  1.00  0.00     0.194 A 
HETATM   15  O1  UNL     1      -2.533  -1.428   0.780  1.00  0.00    -0.290 OA
HETATM   16  H6  UNL     1       0.171   1.038  -1.163  1.00  0.00     0.160 HD
ENDROOT
BRANCH  11  17
HETATM   17  N2  UNL     1       2.022  -0.861  -0.925  1.00  0.00    -0.359 N 
HETATM   18  H7  UNL     1       2.424  -0.797  -1.904  1.00  0.00     0.165 HD
BRANCH  17  19
HETATM   19  C10 UNL     1       2.872  -0.240   0.042  1.00  0.00     0.024 C 
HETATM   20  C11 UNL     1       2.817   0.912   0.678  1.00  0.00    -0.001 C 
HETATM   21  C12 UNL     1       3.816   1.761   0.602  1.00  0.00     0.014 C 
HETATM   22  C13 UNL     1       5.103   1.207   0.142  1.00  0.00    -0.003 C 
HETATM   23  C14 UNL     1       5.244  -0.121   0.077  1.00  0.00    -0.021 C 
HETATM   24  C15 UNL     1       4.087  -0.976   0.476  1.00  0.00     0.085 C 
ENDBRANCH  17  19
ENDBRANCH  11  17
TORSDOF 2
