REMARK  7 active torsions:
REMARK  status: ('A' for Active; 'I' for Inactive)
REMARK    1  A    between atoms: C2_2  and  C3_3 
REMARK    2  A    between atoms: C3_3  and  N1_4 
REMARK    3  A    between atoms: C3_3  and  C4_5 
REMARK    4  A    between atoms: C9_12  and  C10_13 
REMARK    5  A    between atoms: C13_17  and  N4_19 
REMARK    6  A    between atoms: N4_19  and  C15_20 
REMARK    7  A    between atoms: C18_24  and  C19_25 
ROOT
HETATM    1  C4  UNL     1      -1.915  -0.134  -1.055  1.00  0.00     0.095 C 
HETATM    2  C5  UNL     1      -2.769   0.896  -1.649  1.00  0.00     0.044 C 
HETATM    3  N2  UNL     1      -2.785  -1.405  -0.830  1.00  0.00    -0.288 NA
HETATM    4  C6  UNL     1      -2.356  -2.577  -0.996  1.00  0.00     0.113 C 
HETATM    5  C7  UNL     1      -1.671  -3.842  -1.243  1.00  0.00     0.043 C 
HETATM    6  C8  UNL     1      -0.448  -4.249  -1.667  1.00  0.00     0.138 C 
HETATM    7  O1  UNL     1       0.621  -3.316  -2.033  1.00  0.00    -0.339 OA
HETATM    8  C9  UNL     1       0.101  -1.981  -1.810  1.00  0.00     0.181 A 
HETATM    9  C10 UNL     1      -0.824  -1.903  -2.793  1.00  0.00     0.067 A 
HETATM   10  C11 UNL     1      -1.602  -0.768  -2.839  1.00  0.00    -0.031 A 
HETATM   11  C12 UNL     1      -0.730  -0.656  -1.786  1.00  0.00     0.019 A 
HETATM   12  N3  UNL     1       0.228  -0.961  -0.949  1.00  0.00     0.000 N 
HETATM   13  C13 UNL     1       0.843   0.138  -0.297  1.00  0.00     0.029 A 
HETATM   14  C14 UNL     1       0.242   0.479  -1.461  1.00  0.00     0.075 A 
HETATM   15  C21 UNL     1       1.028  -2.042  -0.816  1.00  0.00     0.237 A 
HETATM   16  O2  UNL     1       1.850  -2.201  -0.003  1.00  0.00    -0.286 OA
ENDROOT
BRANCH  13  17
HETATM   17  N4  UNL     1       1.541   0.116   0.904  1.00  0.00    -0.380 N 
HETATM   18  H17 UNL     1       1.049  -0.250   1.742  1.00  0.00     0.160 HD
BRANCH  17  19
HETATM   19  C15 UNL     1       2.844   0.622   0.735  1.00  0.00     0.130 A 
HETATM   20  C16 UNL     1       2.947   2.024   0.266  1.00  0.00     0.026 A 
HETATM   21  C17 UNL     1       3.658   2.777   1.123  1.00  0.00     0.047 A 
HETATM   22 CL1  UNL     1       4.113   4.488   1.111  1.00  0.00    -0.084 Cl
HETATM   23  C18 UNL     1       4.095   1.931   2.253  1.00  0.00     0.067 A 
HETATM   24  C20 UNL     1       3.621   0.711   2.012  1.00  0.00     0.020 A 
BRANCH  23  25
HETATM   25  C19 UNL     1       4.907   2.302   3.444  1.00  0.00     0.418 C 
HETATM   26  F1  UNL     1       5.007   1.224   4.290  1.00  0.00    -0.166 F 
HETATM   27  F2  UNL     1       6.222   2.551   3.014  1.00  0.00    -0.166 F 
HETATM   28  F3  UNL     1       4.424   3.437   4.031  1.00  0.00    -0.166 F 
ENDBRANCH  23  25
ENDBRANCH  17  19
ENDBRANCH  13  17
BRANCH   1  29
HETATM   29  C3  UNL     1      -1.726   0.174   0.397  1.00  0.00     0.270 C 
BRANCH  29  30
HETATM   30  C2  UNL     1      -3.150   0.065   1.060  1.00  0.00     0.000 C 
HETATM   31  C1  UNL     1      -3.841   1.200   1.319  1.00  0.00     0.009 C 
ENDBRANCH  29  30
BRANCH  29  32
HETATM   32  N1  UNL     1      -1.307   1.520   0.751  1.00  0.00     0.089 N 
HETATM   33  H5  UNL     1      -0.809   1.441   1.675  1.00  0.00     0.313 HD
HETATM   34  H6  UNL     1      -2.124   2.182   0.862  1.00  0.00     0.313 HD
ENDBRANCH  29  32
ENDBRANCH   1  29
TORSDOF 7
