REMARK  5 active torsions:
REMARK  status: ('A' for Active; 'I' for Inactive)
REMARK    1  A    between atoms: C3_3  and  N1_4 
REMARK       I    between atoms: N1_4  and  C4_5 
REMARK       I    between atoms: C4_5  and  N2_7 
REMARK    2  A    between atoms: N2_7  and  C5_8 
REMARK    3  A    between atoms: C9_13  and  C10_14 
REMARK    4  A    between atoms: C10_14  and  C11_15 
REMARK    5  A    between atoms: C18_25  and  N4_26 
ROOT
HETATM    1  N1  UNL     1       0.042  -1.218   0.937  1.00  0.00    -0.308 N 
HETATM    2  C4  UNL     1       1.108  -0.328   0.746  1.00  0.00     0.325 C 
HETATM    3  O1  UNL     1       0.862   0.894   0.892  1.00  0.00    -0.247 OA
HETATM    4  N2  UNL     1       2.422  -0.728   0.405  1.00  0.00    -0.309 N 
HETATM    5  H3  UNL     1       0.204  -2.263   0.827  1.00  0.00     0.170 HD
HETATM    6  H4  UNL     1       2.496  -1.761   0.313  1.00  0.00     0.170 HD
ENDROOT
BRANCH   1   7
HETATM    7  C3  UNL     1      -1.282  -0.843   1.275  1.00  0.00     0.045 C 
HETATM    8  C2  UNL     1      -2.085  -0.001   0.401  1.00  0.00    -0.001 C 
HETATM    9  C1  UNL     1      -1.403   0.501  -0.613  1.00  0.00     0.024 C 
HETATM   10  C16 UNL     1      -3.539   0.385   0.455  1.00  0.00     0.132 A 
HETATM   11  O2  UNL     1      -3.937   0.589   1.801  1.00  0.00    -0.342 OA
HETATM   12  C17 UNL     1      -3.710   1.583  -0.361  1.00  0.00     0.129 A 
HETATM   13  C20 UNL     1      -4.378  -0.658  -0.231  1.00  0.00     0.108 A 
HETATM   14  C15 UNL     1      -3.951  -0.333   2.817  1.00  0.00     0.137 C 
HETATM   15  C14 UNL     1      -2.938  -1.177   3.083  1.00  0.00     0.026 C 
HETATM   16  C13 UNL     1      -1.639  -1.363   2.445  1.00  0.00     0.032 C 
HETATM   17  N3  UNL     1      -4.413   1.385  -1.398  1.00  0.00    -0.267 NA
HETATM   18  C18 UNL     1      -4.846   0.036  -1.481  1.00  0.00     0.344 A 
BRANCH  18  19
HETATM   19  N4  UNL     1      -6.286  -0.060  -1.638  1.00  0.00     0.104 N 
HETATM   20  C19 UNL     1      -6.895   0.575  -0.486  1.00  0.00     0.309 C 
HETATM   21  H17 UNL     1      -6.573  -1.064  -1.656  1.00  0.00     0.318 HD
ENDBRANCH  18  19
ENDBRANCH   1   7
BRANCH   4  22
HETATM   22  C5  UNL     1       3.568   0.075   0.189  1.00  0.00     0.036 A 
HETATM   23  C6  UNL     1       3.666   1.444   0.261  1.00  0.00     0.031 A 
HETATM   24  C7  UNL     1       4.808   2.162   0.043  1.00  0.00     0.026 A 
HETATM   25  C8  UNL     1       5.973   1.497  -0.277  1.00  0.00     0.040 A 
HETATM   26 CL1  UNL     1       7.437   2.402  -0.558  1.00  0.00    -0.084 Cl
HETATM   27  C9  UNL     1       5.911   0.122  -0.357  1.00  0.00    -0.032 A 
HETATM   28  C12 UNL     1       4.747  -0.559  -0.131  1.00  0.00     0.038 A 
BRANCH  27  29
HETATM   29  C10 UNL     1       7.137  -0.646  -0.696  1.00  0.00     0.071 C 
BRANCH  29  30
HETATM   30  C11 UNL     1       7.366  -0.480  -2.201  1.00  0.00     0.226 C 
HETATM   31  F1  UNL     1       6.272  -0.973  -2.883  1.00  0.00    -0.255 F 
ENDBRANCH  29  30
ENDBRANCH  27  29
ENDBRANCH   4  22
TORSDOF 5
