REMARK  1 active torsions:
REMARK  status: ('A' for Active; 'I' for Inactive)
REMARK    1  A    between atoms: C12_15  and  C13_16 
ROOT
HETATM    1  O1  UNL     1      -1.610   1.221  -3.384  1.00  0.00     0.000 OA
HETATM    2  C1  UNL     1      -1.480   1.539  -4.627  1.00  0.00     0.338 A 
HETATM    3  N1  UNL     1      -2.754   1.462  -5.255  1.00  0.00    -0.380 NA
HETATM    4  C2  UNL     1      -3.781   1.061  -4.609  1.00  0.00     0.278 A 
HETATM    5  C3  UNL     1      -4.321   0.587  -3.374  1.00  0.00     0.020 A 
HETATM    6  C4  UNL     1      -3.748   0.429  -2.231  1.00  0.00     0.013 A 
HETATM    7  C5  UNL     1      -2.852   0.358  -1.098  1.00  0.00    -0.031 A 
HETATM    8  C6  UNL     1      -3.505  -0.098  -0.008  1.00  0.00     0.013 C 
HETATM    9  C7  UNL     1      -3.316  -0.412   1.402  1.00  0.00     0.017 C 
HETATM   10  C8  UNL     1      -2.394  -0.368   2.349  1.00  0.00     0.083 C 
HETATM   11  N2  UNL     1      -1.059  -0.050   2.778  1.00  0.00    -0.391 N 
HETATM   12  C9  UNL     1       0.272  -0.428   2.221  1.00  0.00     0.114 C 
HETATM   13  C10 UNL     1       1.294   0.230   3.101  1.00  0.00     0.055 C 
HETATM   14  C11 UNL     1       2.665  -0.224   2.776  1.00  0.00    -0.011 C 
HETATM   15  C12 UNL     1       3.667  -0.791   2.068  1.00  0.00     0.048 C 
HETATM   16  C14 UNL     1       3.899  -1.226   0.710  1.00  0.00     0.092 A 
HETATM   17 CL1  UNL     1       5.331  -2.118   0.243  1.00  0.00    -0.195 Cl
HETATM   18  C15 UNL     1       3.556  -1.357  -0.537  1.00  0.00     0.120 A 
HETATM   19  C16 UNL     1       2.550  -0.637   0.216  1.00  0.00     0.195 A 
HETATM   20  O2  UNL     1       1.695   0.057   0.810  1.00  0.00    -0.381 OA
HETATM   21  C17 UNL     1       0.264   0.037   0.801  1.00  0.00     0.072 C 
HETATM   22  C18 UNL     1      -0.941   0.210   0.181  1.00  0.00     0.139 C 
HETATM   23  C19 UNL     1      -1.403   0.653  -1.153  1.00  0.00    -0.026 A 
HETATM   24  C20 UNL     1      -0.634   1.079  -2.175  1.00  0.00     0.291 A 
HETATM   25  N3  UNL     1      -0.529   1.455  -3.522  1.00  0.00     0.132 N 
HETATM   26  H7  UNL     1      -1.008   0.589   3.635  1.00  0.00     0.159 HD
HETATM   27  H17 UNL     1       0.362   1.790  -4.027  1.00  0.00     0.320 HD
ENDROOT
BRANCH  15  28
HETATM   28  C13 UNL     1       5.059  -0.826   2.644  1.00  0.00     0.415 C 
HETATM   29  F1  UNL     1       4.974  -0.461   3.959  1.00  0.00    -0.166 F 
HETATM   30  F2  UNL     1       5.564  -2.102   2.544  1.00  0.00    -0.166 F 
HETATM   31  F3  UNL     1       5.856   0.102   1.949  1.00  0.00    -0.166 F 
ENDBRANCH  15  28
TORSDOF 1
