REMARK  4 active torsions:
REMARK  status: ('A' for Active; 'I' for Inactive)
REMARK    1  A    between atoms: C1_2  and  O2_3 
REMARK    2  A    between atoms: C1_2  and  C2_4 
REMARK    3  A    between atoms: C5_7  and  C6_8 
REMARK    4  A    between atoms: C6_8  and  C7_10 
ROOT
HETATM    1  C6  UNL     1      -0.428   0.453   0.219  1.00  0.00     0.174 C 
HETATM    2  O3  UNL     1      -0.816   1.608   0.456  1.00  0.00    -0.291 OA
ENDROOT
BRANCH   1   3
HETATM    3  C5  UNL     1       1.001   0.174   0.158  1.00  0.00     0.011 A 
HETATM    4  C4  UNL     1       1.843   1.269   0.379  1.00  0.00     0.016 A 
HETATM    5  C3  UNL     1       3.223   1.061   0.332  1.00  0.00     0.019 A 
HETATM    6  C2  UNL     1       3.750  -0.187   0.076  1.00  0.00     0.037 A 
HETATM    7  C15 UNL     1       2.888  -1.226  -0.132  1.00  0.00     0.019 A 
HETATM    8  C14 UNL     1       1.498  -1.086  -0.100  1.00  0.00     0.016 A 
BRANCH   6   9
HETATM    9  C1  UNL     1       5.192  -0.309   0.047  1.00  0.00     0.176 C 
HETATM   10  O1  UNL     1       5.889   0.716   0.254  1.00  0.00    -0.646 OA
BRANCH   9  11
HETATM   11  O2  UNL     1       5.912  -1.446  -0.186  1.00  0.00    -0.773 OA
HETATM   12  H1  UNL     1       6.918  -1.508  -0.216  1.00  0.00     0.167 HD
ENDBRANCH   9  11
ENDBRANCH   6   9
ENDBRANCH   1   3
BRANCH   1  13
HETATM   13  C7  UNL     1      -1.374  -0.663  -0.005  1.00  0.00     0.139 C 
HETATM   14  S1  UNL     1      -1.665  -1.749   1.411  1.00  0.00    -0.153 SA
HETATM   15  C8  UNL     1      -3.175  -1.678   0.371  1.00  0.00     0.094 C 
HETATM   16  C9  UNL     1      -2.827  -0.258   0.082  1.00  0.00     0.025 A 
HETATM   17  C10 UNL     1      -3.132   0.727   1.146  1.00  0.00    -0.009 A 
HETATM   18  C13 UNL     1      -3.334   0.348  -1.152  1.00  0.00     0.008 A 
HETATM   19  C11 UNL     1      -3.741   1.778   0.600  1.00  0.00     0.016 A 
HETATM   20  C12 UNL     1      -3.861   1.525  -0.842  1.00  0.00     0.008 A 
HETATM   21 BR1  UNL     1      -4.663   2.711  -2.132  1.00  0.00    -0.051 Br
ENDBRANCH   1  13
TORSDOF 4
