REMARK  9 active torsions:
REMARK  status: ('A' for Active; 'I' for Inactive)
REMARK    1  A    between atoms: C3_3  and  C4_4 
REMARK    2  A    between atoms: C4_4  and  C5_5 
REMARK    3  A    between atoms: C4_4  and  C23_29 
REMARK    4  A    between atoms: C5_5  and  C6_6 
REMARK       I    between atoms: C6_6  and  N1_8 
REMARK    5  A    between atoms: N1_8  and  C7_9 
REMARK    6  A    between atoms: C9_11  and  N2_12 
REMARK    7  A    between atoms: C11_15  and  C12_16 
REMARK    8  A    between atoms: C11_15  and  C15_19 
REMARK    9  A    between atoms: C15_19  and  C16_20 
ROOT
HETATM    1  C7  UNL     1       0.559  -0.428   0.590  1.00  0.00     0.116 C 
HETATM    2  C8  UNL     1       0.434  -1.928   0.509  1.00  0.00     0.025 C 
HETATM    3  C9  UNL     1      -0.649  -2.569   0.909  1.00  0.00     0.025 C 
HETATM    4  C10 UNL     1      -1.923  -2.016   1.497  1.00  0.00     0.225 C 
HETATM    5  O2  UNL     1      -2.059  -0.695   1.285  1.00  0.00    -0.369 OA
HETATM    6  C11 UNL     1      -1.902  -0.111   0.096  1.00  0.00     0.088 C 
HETATM    7  C21 UNL     1      -0.473   0.111  -0.374  1.00  0.00     0.047 C 
HETATM    8  C22 UNL     1      -0.221  -0.529  -1.734  1.00  0.00     0.016 C 
ENDROOT
BRANCH   1   9
HETATM    9  N1  UNL     1       1.864  -0.064   0.145  1.00  0.00    -0.353 N 
HETATM   10  C6  UNL     1       2.826   0.702   0.906  1.00  0.00     0.219 C 
HETATM   11  O1  UNL     1       2.244   0.946   1.993  1.00  0.00    -0.274 OA
HETATM   12  H9  UNL     1       1.967  -0.468  -0.835  1.00  0.00     0.163 HD
BRANCH  10  13
HETATM   13  C5  UNL     1       4.055   0.866   0.094  1.00  0.00     0.120 C 
BRANCH  13  14
HETATM   14  C4  UNL     1       5.154   1.619   0.772  1.00  0.00     0.124 C 
BRANCH  14  15
HETATM   15  C3  UNL     1       6.358   1.754  -0.111  1.00  0.00    -0.017 C 
HETATM   16  C2  UNL     1       6.575   1.257  -1.311  1.00  0.00    -0.034 C 
HETATM   17  C1  UNL     1       7.863   1.515  -2.028  1.00  0.00     0.036 C 
ENDBRANCH  14  15
BRANCH  14  18
HETATM   18  C23 UNL     1       5.611   0.949   2.072  1.00  0.00     0.395 C 
HETATM   19  F1  UNL     1       4.603   0.770   2.966  1.00  0.00    -0.170 F 
HETATM   20  F2  UNL     1       6.595   1.678   2.675  1.00  0.00    -0.170 F 
HETATM   21  F3  UNL     1       6.136  -0.269   1.706  1.00  0.00    -0.170 F 
ENDBRANCH  14  18
ENDBRANCH  13  14
ENDBRANCH  10  13
ENDBRANCH   1   9
BRANCH   3  22
HETATM   22  N2  UNL     1      -0.616  -3.977   0.769  1.00  0.00    -0.401 N 
HETATM   23  H12 UNL     1      -0.635  -4.928   0.330  1.00  0.00     0.156 HD
HETATM   24  H13 UNL     1      -0.486  -4.210   1.788  1.00  0.00     0.156 HD
ENDBRANCH   3  22
BRANCH   6  25
HETATM   25  C12 UNL     1      -2.644  -0.610  -1.065  1.00  0.00     0.007 C 
HETATM   26  C13 UNL     1      -3.121  -1.668  -1.653  1.00  0.00    -0.032 C 
HETATM   27  C14 UNL     1      -3.877  -2.166  -2.837  1.00  0.00     0.036 C 
ENDBRANCH   6  25
BRANCH   6  28
HETATM   28  C15 UNL     1      -2.467   1.312   0.305  1.00  0.00     0.082 C 
BRANCH  28  29
HETATM   29  C16 UNL     1      -3.873   1.328   0.699  1.00  0.00    -0.038 C 
HETATM   30  C17 UNL     1      -4.690   1.958  -0.162  1.00  0.00     0.096 C 
HETATM   31  N3  UNL     1      -6.115   2.177  -0.120  1.00  0.00    -0.360 N 
HETATM   32  C18 UNL     1      -7.036   1.312   0.567  1.00  0.00     0.206 C 
HETATM   33  H24 UNL     1      -6.533   2.984  -0.595  1.00  0.00     0.166 HD
HETATM   34  N4  UNL     1      -6.756   0.561   1.600  1.00  0.00    -0.256 NA
HETATM   35  C19 UNL     1      -5.537   0.386   2.307  1.00  0.00     0.118 C 
HETATM   36  C20 UNL     1      -4.319   0.706   1.934  1.00  0.00     0.028 C 
ENDBRANCH  28  29
ENDBRANCH   6  28
TORSDOF 9
