REMARK  6 active torsions:
REMARK  status: ('A' for Active; 'I' for Inactive)
REMARK    1  A    between atoms: N1_2  and  C2_3 
REMARK    2  A    between atoms: C10_13  and  O1_14 
REMARK    3  A    between atoms: O1_14  and  C11_15 
REMARK    4  A    between atoms: C14_18  and  C15_19 
REMARK    5  A    between atoms: C15_19  and  C16_21 
REMARK    6  A    between atoms: C20_25  and  C21_26 
ROOT
HETATM    1  C11 UNL     1       0.167   0.296  -0.065  1.00  0.00     0.081 A 
HETATM    2  C12 UNL     1       0.837   1.029  -0.926  1.00  0.00     0.016 A 
HETATM    3  C13 UNL     1       2.292   0.866  -0.659  1.00  0.00     0.073 A 
HETATM    4  C14 UNL     1       2.305  -0.075   0.487  1.00  0.00     0.005 A 
HETATM    5  C23 UNL     1       1.064  -0.429   0.861  1.00  0.00    -0.018 A 
HETATM    6  C24 UNL     1       0.521  -1.312   1.911  1.00  0.00     0.052 C 
ENDROOT
BRANCH   1   7
HETATM    7  O1  UNL     1      -1.216   0.267  -0.093  1.00  0.00    -0.291 OA
BRANCH   7   8
HETATM    8  C10 UNL     1      -1.878  -0.428  -1.087  1.00  0.00     0.182 A 
HETATM    9  C6  UNL     1      -3.249  -0.410  -1.047  1.00  0.00     0.047 A 
HETATM   10  C5  UNL     1      -4.124   0.242  -0.098  1.00  0.00     0.091 A 
HETATM   11  C7  UNL     1      -3.842  -1.124  -2.069  1.00  0.00     0.020 A 
HETATM   12  C4  UNL     1      -3.810   1.004   0.996  1.00  0.00     0.053 A 
HETATM   13  N4  UNL     1      -5.452   0.115  -0.268  1.00  0.00    -0.062 NA
HETATM   14  C3  UNL     1      -4.715   1.590   1.848  1.00  0.00     0.139 A 
HETATM   15  N2  UNL     1      -6.025   1.407   1.598  1.00  0.00    -0.075 NA
HETATM   16  C2  UNL     1      -6.385   0.659   0.526  1.00  0.00     0.722 A 
HETATM   17  C8  UNL     1      -3.099  -1.782  -3.024  1.00  0.00     0.020 A 
HETATM   18  C9  UNL     1      -1.726  -1.769  -3.019  1.00  0.00     0.119 A 
HETATM   19  N3  UNL     1      -1.158  -1.072  -2.022  1.00  0.00    -0.236 NA
BRANCH  16  20
HETATM   20  N1  UNL     1      -7.754   0.430   0.210  1.00  0.00    -0.227 N 
HETATM   21  C1  UNL     1      -8.872   0.934  -0.527  1.00  0.00     0.165 C 
HETATM   22  H4  UNL     1      -7.880  -0.430   0.761  1.00  0.00     0.177 HD
ENDBRANCH  16  20
ENDBRANCH   7   8
ENDBRANCH   1   7
BRANCH   4  23
HETATM   23  C15 UNL     1       3.425  -0.640   1.223  1.00  0.00     0.189 C 
HETATM   24  O2  UNL     1       3.158  -1.442   2.180  1.00  0.00    -0.287 OA
BRANCH  23  25
HETATM   25  C16 UNL     1       4.851  -0.438   1.046  1.00  0.00     0.015 A 
HETATM   26  C17 UNL     1       5.702  -1.112   1.897  1.00  0.00     0.015 A 
HETATM   27  C18 UNL     1       7.093  -0.969   1.790  1.00  0.00     0.002 A 
HETATM   28  C19 UNL     1       7.669  -0.157   0.838  1.00  0.00     0.016 A 
HETATM   29  C20 UNL     1       6.844   0.515  -0.009  1.00  0.00     0.048 A 
HETATM   30  C22 UNL     1       5.483   0.357   0.118  1.00  0.00     0.031 A 
BRANCH  29  31
HETATM   31  C21 UNL     1       7.415   1.404  -1.054  1.00  0.00     0.417 C 
HETATM   32  F1  UNL     1       6.555   2.452  -1.276  1.00  0.00    -0.166 F 
HETATM   33  F2  UNL     1       8.680   1.812  -0.696  1.00  0.00    -0.166 F 
HETATM   34  F3  UNL     1       7.544   0.639  -2.204  1.00  0.00    -0.166 F 
ENDBRANCH  29  31
ENDBRANCH  23  25
ENDBRANCH   4  23
TORSDOF 6
