REMARK  3 active torsions:
REMARK  status: ('A' for Active; 'I' for Inactive)
REMARK    1  A    between atoms: C3_3  and  C4_5 
REMARK    2  A    between atoms: C7_9  and  C8_10 
REMARK    3  A    between atoms: C8_10  and  C9_11 
ROOT
HETATM    1  C4  UNL     1       3.053  -0.209   0.044  1.00  0.00     0.068 C 
HETATM    2  C5  UNL     1       2.168   0.744  -0.720  1.00  0.00     0.132 C 
HETATM    3  N1  UNL     1       0.785   0.631  -0.362  1.00  0.00    -0.385 N 
HETATM    4  C6  UNL     1       0.080  -0.184   0.561  1.00  0.00     0.089 C 
HETATM    5  C7  UNL     1      -1.172  -0.058   1.014  1.00  0.00     0.069 C 
HETATM    6  N2  UNL     1      -1.332  -1.132   1.893  1.00  0.00    -0.245 NA
HETATM    7  C16 UNL     1      -0.204  -1.700   2.113  1.00  0.00     0.124 C 
HETATM    8  C17 UNL     1       0.690  -1.377   1.190  1.00  0.00     0.128 C 
HETATM    9  O1  UNL     1       1.884  -2.034   0.927  1.00  0.00    -0.346 OA
HETATM   10  C18 UNL     1       2.711  -1.662  -0.189  1.00  0.00     0.187 C 
HETATM   11  H8  UNL     1       0.159   1.278  -0.882  1.00  0.00     0.159 HD
ENDROOT
BRANCH   5  12
HETATM   12  C8  UNL     1      -2.076   1.015   0.601  1.00  0.00     0.101 C 
BRANCH  12  13
HETATM   13  C9  UNL     1      -3.332   0.506  -0.035  1.00  0.00    -0.046 A 
HETATM   14  C10 UNL     1      -3.527   0.534  -1.420  1.00  0.00     0.008 A 
HETATM   15  C11 UNL     1      -4.680   0.064  -2.028  1.00  0.00     0.001 A 
HETATM   16  C12 UNL     1      -5.645  -0.444  -1.177  1.00  0.00     0.001 A 
HETATM   17  C13 UNL     1      -5.491  -0.488   0.197  1.00  0.00     0.007 A 
HETATM   18  C14 UNL     1      -4.323  -0.008   0.766  1.00  0.00    -0.055 A 
HETATM   19  C15 UNL     1      -4.250  -0.092   2.241  1.00  0.00     0.049 C 
ENDBRANCH  12  13
ENDBRANCH   5  12
BRANCH   1  20
HETATM   20  C3  UNL     1       4.456   0.036  -0.360  1.00  0.00    -0.008 C 
HETATM   21  C2  UNL     1       5.392   0.475   0.468  1.00  0.00    -0.016 C 
HETATM   22  C1  UNL     1       6.771   0.698   0.014  1.00  0.00     0.037 C 
HETATM   23 BR1  UNL     1       5.068  -0.268  -2.153  1.00  0.00    -0.056 Br
ENDBRANCH   1  20
TORSDOF 3
