REMARK  4 active torsions:
REMARK  status: ('A' for Active; 'I' for Inactive)
REMARK    1  A    between atoms: C5_7  and  C6_8 
REMARK    2  A    between atoms: C7_9  and  N3_10 
REMARK    3  A    between atoms: N4_11  and  C8_12 
REMARK    4  A    between atoms: C11_15  and  N5_16 
ROOT
HETATM    1  C1  UNL     1      -4.774   0.899   3.110  1.00  0.00     0.040 C 
HETATM    2  C2  UNL     1      -5.352   1.205   1.773  1.00  0.00     0.021 C 
HETATM    3  C3  UNL     1      -4.749   0.928   0.643  1.00  0.00     0.139 C 
HETATM    4  N1  UNL     1      -5.381   1.259  -0.587  1.00  0.00    -0.223 NA
HETATM    5  C4  UNL     1      -5.072   0.982  -1.809  1.00  0.00     0.237 C 
HETATM    6  N2  UNL     1      -3.951   0.227  -2.305  1.00  0.00    -0.223 NA
HETATM    7  C5  UNL     1      -2.906  -0.199  -1.680  1.00  0.00     0.146 C 
HETATM    8  N4  UNL     1      -2.542  -0.050  -0.294  1.00  0.00    -0.269 N 
HETATM    9  N7  UNL     1      -3.475   0.301   0.704  1.00  0.00    -0.280 N 
HETATM   10  H31 UNL     1      -3.123   0.030   1.665  1.00  0.00     0.189 HD
ENDROOT
BRANCH   8  11
HETATM   11  C8  UNL     1      -1.168  -0.278   0.026  1.00  0.00     0.110 C 
HETATM   12  C9  UNL     1      -0.835  -0.100   1.499  1.00  0.00     0.029 C 
HETATM   13  C10 UNL     1       0.682   0.108   1.601  1.00  0.00     0.027 C 
HETATM   14  C11 UNL     1       1.417  -0.488   0.439  1.00  0.00     0.079 C 
HETATM   15  C17 UNL     1       1.089   0.193  -0.869  1.00  0.00     0.027 C 
HETATM   16  C18 UNL     1      -0.333   0.737  -0.722  1.00  0.00     0.029 C 
BRANCH  14  17
HETATM   17  N5  UNL     1       2.809  -0.563   0.742  1.00  0.00    -0.405 N 
HETATM   18  C12 UNL     1       3.590  -1.126  -0.324  1.00  0.00     0.147 C 
HETATM   19  C13 UNL     1       4.987  -1.412   0.114  1.00  0.00     0.291 C 
HETATM   20  N6  UNL     1       5.611  -0.330   0.822  1.00  0.00     0.087 N 
HETATM   21  C14 UNL     1       6.158   0.700  -0.036  1.00  0.00     0.310 C 
HETATM   22  C15 UNL     1       4.775   0.226   1.849  1.00  0.00     0.291 C 
HETATM   23  C16 UNL     1       3.384   0.582   1.367  1.00  0.00     0.147 C 
ENDBRANCH  14  17
ENDBRANCH   8  11
BRANCH   7  24
HETATM   24  C6  UNL     1      -1.971  -0.937  -2.519  1.00  0.00     0.063 C 
HETATM   25  C7  UNL     1      -2.289  -1.085  -3.795  1.00  0.00     0.058 C 
BRANCH  25  26
HETATM   26  N3  UNL     1      -3.422  -0.637  -4.528  1.00  0.00    -0.312 NA
HETATM   27  H8  UNL     1      -4.298  -1.130  -4.230  1.00  0.00     0.123 HD
HETATM   28  H9  UNL     1      -4.334  -1.096  -4.273  1.00  0.00     0.123 HD
ENDBRANCH  25  26
ENDBRANCH   7  24
TORSDOF 4
