REMARK  5 active torsions:
REMARK  status: ('A' for Active; 'I' for Inactive)
REMARK    1  A    between atoms: C6_9  and  C7_10 
REMARK    2  A    between atoms: C7_10  and  N4_11 
REMARK    3  A    between atoms: N4_11  and  C8_12 
REMARK    4  A    between atoms: C10_14  and  C11_15 
REMARK    5  A    between atoms: C11_15  and  N5_17 
ROOT
HETATM    1  N4  UNL     1      -1.816   0.627  -0.504  1.00  0.00    -0.376 N 
HETATM    2  H7  UNL     1      -2.596   0.947  -1.126  1.00  0.00     0.160 HD
ENDROOT
BRANCH   1   3
HETATM    3  C7  UNL     1      -2.161  -0.396   0.470  1.00  0.00     0.201 C 
BRANCH   3   4
HETATM    4  C6  UNL     1      -3.580  -0.818   0.357  1.00  0.00     0.145 A 
HETATM    5  N2  UNL     1      -4.706  -0.368   0.930  1.00  0.00    -0.216 N 
HETATM    6  N1  UNL     1      -4.680   0.685   1.838  1.00  0.00    -0.161 NA
HETATM    7  C4  UNL     1      -5.722  -1.105   0.476  1.00  0.00     0.079 A 
HETATM    8  C3  UNL     1      -5.783   1.215   2.169  1.00  0.00     0.136 C 
HETATM    9  C2  UNL     1      -6.577   1.515   1.182  1.00  0.00     0.086 C 
HETATM   10  C1  UNL     1      -7.880   2.198   1.506  1.00  0.00     0.075 C 
HETATM   11  N8  UNL     1      -6.157   1.171  -0.158  1.00  0.00    -0.153 NA
HETATM   12  N7  UNL     1      -6.806   0.257  -0.748  1.00  0.00    -0.162 NA
HETATM   13  C20 UNL     1      -7.912  -0.407  -0.107  1.00  0.00     0.143 C 
HETATM   14  C19 UNL     1      -7.164  -1.217   0.617  1.00  0.00     0.054 C 
HETATM   15  C5  UNL     1      -5.202  -2.051  -0.413  1.00  0.00     0.150 A 
HETATM   16  N3  UNL     1      -3.850  -1.856  -0.477  1.00  0.00    -0.241 NA
ENDBRANCH   3   4
ENDBRANCH   1   3
BRANCH   1  17
HETATM   17  C8  UNL     1      -0.422   1.013  -0.418  1.00  0.00     0.090 A 
HETATM   18  C9  UNL     1       0.560   0.491  -1.204  1.00  0.00     0.068 A 
HETATM   19  C10 UNL     1       1.822   0.987  -0.961  1.00  0.00     0.078 A 
HETATM   20  N6  UNL     1       2.004   2.000   0.085  1.00  0.00    -0.212 NA
HETATM   21  S1  UNL     1       0.307   2.192   0.681  1.00  0.00     0.029 SA
BRANCH  19  22
HETATM   22  C11 UNL     1       3.118   0.697  -1.595  1.00  0.00     0.271 C 
HETATM   23  C12 UNL     1       2.909  -0.372  -2.613  1.00  0.00     0.050 C 
BRANCH  22  24
HETATM   24  N5  UNL     1       4.134   0.444  -0.625  1.00  0.00     0.103 N 
HETATM   25  C13 UNL     1       5.446   0.272  -1.209  1.00  0.00     0.305 C 
HETATM   26  C14 UNL     1       6.421   0.302  -0.038  1.00  0.00     0.146 C 
HETATM   27  C15 UNL     1       7.835   0.194  -0.526  1.00  0.00     0.041 C 
HETATM   28  O1  UNL     1       6.143  -0.709   0.848  1.00  0.00    -0.378 OA
HETATM   29  C16 UNL     1       4.851  -0.731   1.320  1.00  0.00     0.146 C 
HETATM   30  C17 UNL     1       4.502   0.508   2.155  1.00  0.00     0.041 C 
HETATM   31  C18 UNL     1       3.884  -0.754   0.157  1.00  0.00     0.305 C 
ENDBRANCH  22  24
ENDBRANCH  19  22
ENDBRANCH   1  17
TORSDOF 5
