REMARK  5 active torsions:
REMARK  status: ('A' for Active; 'I' for Inactive)
REMARK    1  A    between atoms: N1_4  and  C4_5 
REMARK    2  A    between atoms: C4_5  and  C5_6 
REMARK    3  A    between atoms: C5_6  and  O1_7 
REMARK    4  A    between atoms: O1_7  and  C6_8 
REMARK    5  A    between atoms: C6_8  and  C7_9 
ROOT
HETATM    1  C7  UNL     1      -0.876  -1.253   0.512  1.00  0.00     0.059 C 
HETATM    2  C8  UNL     1      -1.509  -1.891  -0.718  1.00  0.00     0.020 C 
HETATM    3  C9  UNL     1      -2.139  -3.179  -0.491  1.00  0.00     0.096 C 
HETATM    4  C10 UNL     1      -3.410  -3.339  -0.810  1.00  0.00     0.084 C 
HETATM    5  N2  UNL     1      -3.756  -2.615  -1.791  1.00  0.00    -0.210 NA
HETATM    6  N3  UNL     1      -3.688  -1.207  -1.568  1.00  0.00    -0.294 N 
HETATM    7  C11 UNL     1      -5.058  -1.070  -2.067  1.00  0.00     0.108 C 
HETATM    8  C12 UNL     1      -6.118  -0.819  -1.264  1.00  0.00     0.017 C 
HETATM    9  C13 UNL     1      -6.086  -0.640   0.193  1.00  0.00     0.003 C 
HETATM   10  C14 UNL     1      -5.484  -0.593   1.408  1.00  0.00     0.154 C 
HETATM   11  N4  UNL     1      -4.341  -0.714   2.114  1.00  0.00    -0.305 NA
HETATM   12  C15 UNL     1      -3.122  -0.893   2.187  1.00  0.00     0.180 C 
HETATM   13  C16 UNL     1      -1.740  -1.141   1.687  1.00  0.00     0.036 C 
HETATM   14  N5  UNL     1      -1.040  -1.226   2.769  1.00  0.00    -0.306 NA
HETATM   15  H17 UNL     1      -3.667  -0.148  -1.411  1.00  0.00     0.187 HD
HETATM   16  H23 UNL     1      -1.273  -1.195   3.745  1.00  0.00     0.186 HD
ENDROOT
BRANCH   1  17
HETATM   17  C6  UNL     1      -0.425   0.121   0.072  1.00  0.00     0.178 C 
BRANCH  17  18
HETATM   18  O1  UNL     1       0.197   0.759   1.171  1.00  0.00    -0.389 OA
BRANCH  18  19
HETATM   19  C5  UNL     1       0.683   2.011   0.884  1.00  0.00     0.187 C 
BRANCH  19  20
HETATM   20  C4  UNL     1       1.728   2.033  -0.208  1.00  0.00     0.143 C 
BRANCH  20  21
HETATM   21  N1  UNL     1       2.884   1.261   0.063  1.00  0.00    -0.406 N 
HETATM   22  C3  UNL     1       3.759   1.679   1.082  1.00  0.00     0.148 C 
HETATM   23  C2  UNL     1       5.159   1.147   1.056  1.00  0.00     0.135 C 
HETATM   24  C1  UNL     1       6.226   2.174   0.791  1.00  0.00     0.041 C 
HETATM   25  O2  UNL     1       5.344   0.062   0.195  1.00  0.00    -0.383 OA
HETATM   26  C18 UNL     1       4.829   0.381  -1.081  1.00  0.00     0.187 C 
HETATM   27  C17 UNL     1       3.322   0.336  -0.904  1.00  0.00     0.143 C 
ENDBRANCH  20  21
ENDBRANCH  19  20
ENDBRANCH  18  19
ENDBRANCH  17  18
ENDBRANCH   1  17
TORSDOF 5
