REMARK  6 active torsions:
REMARK  status: ('A' for Active; 'I' for Inactive)
REMARK    1  A    between atoms: C3_3  and  N1_4 
REMARK    2  A    between atoms: N1_4  and  C4_5 
REMARK    3  A    between atoms: C4_5  and  C5_6 
REMARK    4  A    between atoms: C8_10  and  N3_11 
REMARK    5  A    between atoms: N3_11  and  C9_12 
REMARK    6  A    between atoms: C9_12  and  C10_13 
ROOT
HETATM    1  C5  UNL     1       2.271  -0.087  -0.758  1.00  0.00     0.095 C 
HETATM    2  C6  UNL     1       1.520   1.042  -0.164  1.00  0.00     0.147 C 
HETATM    3  N2  UNL     1       0.121   0.860  -0.500  1.00  0.00    -0.382 N 
HETATM    4  C7  UNL     1      -0.712  -0.279  -0.337  1.00  0.00     0.128 A 
HETATM    5  C8  UNL     1      -2.039   0.091  -0.259  1.00  0.00     0.156 A 
HETATM    6  N4  UNL     1      -2.884  -0.926  -0.113  1.00  0.00    -0.222 NA
HETATM    7  C13 UNL     1      -2.526  -2.209  -0.044  1.00  0.00     0.238 A 
HETATM    8  N5  UNL     1      -1.221  -2.543  -0.123  1.00  0.00    -0.216 NA
HETATM    9  C14 UNL     1      -0.263  -1.586  -0.273  1.00  0.00     0.196 A 
HETATM   10  O1  UNL     1       1.046  -2.062  -0.341  1.00  0.00    -0.331 OA
HETATM   11  C15 UNL     1       2.165  -1.506  -1.048  1.00  0.00     0.204 C 
HETATM   12  H8  UNL     1      -0.376   1.670  -0.932  1.00  0.00     0.160 HD
ENDROOT
BRANCH   5  13
HETATM   13  N3  UNL     1      -2.520   1.425  -0.310  1.00  0.00    -0.368 N 
HETATM   14  H9  UNL     1      -2.079   2.357  -0.398  1.00  0.00     0.161 HD
BRANCH  13  15
HETATM   15  C9  UNL     1      -3.947   1.611  -0.217  1.00  0.00     0.167 C 
BRANCH  15  16
HETATM   16  C10 UNL     1      -4.486   1.084   1.067  1.00  0.00     0.002 C 
HETATM   17 BR1  UNL     1      -3.799   1.850   2.653  1.00  0.00    -0.054 Br
HETATM   18  C11 UNL     1      -5.396   0.134   1.162  1.00  0.00    -0.015 C 
HETATM   19  C12 UNL     1      -6.157  -0.692   0.192  1.00  0.00     0.037 C 
ENDBRANCH  15  16
ENDBRANCH  13  15
ENDBRANCH   5  13
BRANCH   1  20
HETATM   20  C4  UNL     1       3.472   0.276  -1.190  1.00  0.00    -0.029 C 
BRANCH  20  21
HETATM   21  N1  UNL     1       4.660   0.725  -1.354  1.00  0.00    -0.222 NA
BRANCH  21  22
HETATM   22  C3  UNL     1       5.540   0.574  -0.245  1.00  0.00     0.122 C 
HETATM   23  C2  UNL     1       5.947  -0.269   0.691  1.00  0.00    -0.011 C 
HETATM   24  C1  UNL     1       6.992   0.183   1.663  1.00  0.00     0.037 C 
ENDBRANCH  21  22
ENDBRANCH  20  21
ENDBRANCH   1  20
TORSDOF 6
