REMARK  3 active torsions:
REMARK  status: ('A' for Active; 'I' for Inactive)
REMARK    1  A    between atoms: N1_1  and  C1_2 
REMARK    2  A    between atoms: C5_8  and  C6_9 
REMARK    3  A    between atoms: C12_17  and  C13_18 
ROOT
HETATM    1  C6  UNL     1       0.583  -0.636   0.225  1.00  0.00    -0.017 C 
HETATM    2  C7  UNL     1       0.300  -0.120   1.398  1.00  0.00     0.057 C 
HETATM    3  C8  UNL     1       0.001   0.901   2.424  1.00  0.00     0.001 C 
HETATM    4  C9  UNL     1      -0.109   2.254   2.440  1.00  0.00     0.088 C 
HETATM    5  N4  UNL     1       0.021   3.255   1.464  1.00  0.00    -0.331 N 
HETATM    6  C10 UNL     1       0.339   2.991   0.071  1.00  0.00     0.247 C 
HETATM    7  N5  UNL     1      -0.831   2.851  -0.526  1.00  0.00    -0.210 NA
HETATM    8  C11 UNL     1      -0.634   2.759  -1.943  1.00  0.00     0.075 C 
HETATM    9  C12 UNL     1      -1.597   2.989  -2.857  1.00  0.00     0.031 C 
HETATM   10  C15 UNL     1       0.790   2.349  -2.041  1.00  0.00     0.245 C 
HETATM   11  O1  UNL     1       1.340   2.837  -0.847  1.00  0.00    -0.302 OA
HETATM   12  C16 UNL     1       0.919   0.855  -2.016  1.00  0.00     0.130 C 
HETATM   13  F1  UNL     1       1.209   0.559  -3.339  1.00  0.00    -0.208 F 
HETATM   14  C17 UNL     1       0.808  -0.023  -1.108  1.00  0.00     0.051 C 
HETATM   15  H7  UNL     1      -0.114   4.238   1.726  1.00  0.00     0.168 HD
ENDROOT
BRANCH   1  16
HETATM   16  C5  UNL     1       0.728  -2.105   0.192  1.00  0.00     0.074 A 
HETATM   17  C4  UNL     1       0.882  -3.203   1.095  1.00  0.00     0.059 A 
HETATM   18  C1  UNL     1       0.918  -3.099   2.447  1.00  0.00     0.116 A 
HETATM   19  C3  UNL     1       1.064  -4.437   0.611  1.00  0.00     0.071 A 
HETATM   20  N2  UNL     1       1.109  -4.088   3.340  1.00  0.00    -0.229 NA
HETATM   21  C2  UNL     1       1.284  -5.324   2.740  1.00  0.00     0.235 A 
HETATM   22  N3  UNL     1       1.261  -5.478   1.425  1.00  0.00    -0.244 NA
HETATM   23  C18 UNL     1       1.027  -4.133  -0.835  1.00  0.00     0.209 A 
HETATM   24  N6  UNL     1       0.834  -2.749  -0.921  1.00  0.00    -0.282 NA
BRANCH  18  25
HETATM   25  N1  UNL     1       0.846  -1.902   3.157  1.00  0.00    -0.286 NA
HETATM   26  H1  UNL     1       1.338  -1.592   4.033  1.00  0.00     0.125 HD
HETATM   27  H2  UNL     1       1.160  -1.313   3.944  1.00  0.00     0.125 HD
ENDBRANCH  18  25
ENDBRANCH   1  16
BRANCH   9  28
HETATM   28  C13 UNL     1      -2.905   3.348  -2.308  1.00  0.00     0.014 C 
HETATM   29  C14 UNL     1      -3.986   3.623  -3.065  1.00  0.00     0.084 C 
HETATM   30 CL1  UNL     1      -4.893   3.841  -4.525  1.00  0.00    -0.097 Cl
ENDBRANCH   9  28
TORSDOF 3
