REMARK  4 active torsions:
REMARK  status: ('A' for Active; 'I' for Inactive)
REMARK    1  A    between atoms: C7_8  and  N1_9 
REMARK       I    between atoms: N1_9  and  C8_10 
REMARK    2  A    between atoms: C8_10  and  C9_12 
REMARK    3  A    between atoms: C13_16  and  N2_17 
REMARK    4  A    between atoms: N2_17  and  N3_18 
ROOT
HETATM    1  C9  UNL     1       0.613  -1.256   0.214  1.00  0.00     0.071 C 
HETATM    2  C10 UNL     1       1.239  -1.683   1.305  1.00  0.00     0.002 C 
HETATM    3  C11 UNL     1       2.645  -1.933   1.587  1.00  0.00     0.058 C 
HETATM    4  C12 UNL     1       3.598  -0.878   1.272  1.00  0.00     0.010 C 
HETATM    5  C13 UNL     1       3.761   0.000   0.276  1.00  0.00     0.074 C 
HETATM    6  C14 UNL     1       2.877   0.105  -0.894  1.00  0.00     0.117 C 
HETATM    7  N4  UNL     1       3.071   0.981  -1.810  1.00  0.00    -0.291 NA
HETATM    8  S1  UNL     1       1.444  -0.844  -1.332  1.00  0.00    -0.064 SA
HETATM    9  H15 UNL     1       3.863   1.679  -1.795  1.00  0.00     0.187 HD
ENDROOT
BRANCH   1  10
HETATM   10  C8  UNL     1      -0.838  -1.090   0.205  1.00  0.00     0.262 C 
HETATM   11  N1  UNL     1      -1.558  -0.633  -0.948  1.00  0.00    -0.321 N 
HETATM   12  H7  UNL     1      -0.976  -0.423  -1.790  1.00  0.00     0.169 HD
HETATM   13  O1  UNL     1      -1.442  -1.367   1.259  1.00  0.00    -0.267 OA
BRANCH  11  14
HETATM   14  C7  UNL     1      -2.967  -0.513  -0.832  1.00  0.00     0.062 A 
HETATM   15  C2  UNL     1      -3.521   0.686  -0.403  1.00  0.00    -0.034 A 
HETATM   16  C1  UNL     1      -2.623   1.804  -0.079  1.00  0.00     0.050 C 
HETATM   17  C3  UNL     1      -4.902   0.711  -0.320  1.00  0.00     0.009 A 
HETATM   18  C4  UNL     1      -5.665  -0.392  -0.646  1.00  0.00     0.002 A 
HETATM   19  C5  UNL     1      -5.079  -1.562  -1.067  1.00  0.00     0.026 A 
HETATM   20  C6  UNL     1      -3.695  -1.621  -1.162  1.00  0.00     0.061 A 
HETATM   21 CL1  UNL     1      -3.014  -3.129  -1.701  1.00  0.00    -0.082 Cl
ENDBRANCH  11  14
ENDBRANCH   1  10
BRANCH   5  22
HETATM   22  N2  UNL     1       4.824   0.946   0.235  1.00  0.00    -0.321 N 
HETATM   23  H12 UNL     1       5.359   0.876  -0.664  1.00  0.00     0.180 HD
BRANCH  22  24
HETATM   24  N3  UNL     1       5.655   1.964   0.651  1.00  0.00    -0.249 NA
HETATM   25  H13 UNL     1       6.504   1.630   1.162  1.00  0.00     0.143 HD
HETATM   26  H14 UNL     1       5.184   2.770   1.115  1.00  0.00     0.143 HD
ENDBRANCH  22  24
ENDBRANCH   5  22
TORSDOF 4
