REMARK  7 active torsions:
REMARK  status: ('A' for Active; 'I' for Inactive)
REMARK    1  A    between atoms: O1_1  and  C1_2 
REMARK    2  A    between atoms: C1_2  and  C2_3 
REMARK    3  A    between atoms: C2_3  and  N1_4 
REMARK    4  A    between atoms: N2_7  and  C5_8 
REMARK    5  A    between atoms: C7_10  and  N3_11 
REMARK    6  A    between atoms: N3_11  and  C8_12 
REMARK    7  A    between atoms: C10_15  and  C11_16 
ROOT
HETATM    1  N3  UNL     1      -0.585   1.417  -0.084  1.00  0.00    -0.337 N 
HETATM    2  H12 UNL     1      -0.141   2.145  -0.647  1.00  0.00     0.168 HD
ENDROOT
BRANCH   1   3
HETATM    3  C7  UNL     1       0.111   0.396   0.661  1.00  0.00     0.047 A 
HETATM    4  C5  UNL     1       0.982  -0.803   0.776  1.00  0.00     0.297 A 
HETATM    5  C6  UNL     1       0.395  -0.109   1.922  1.00  0.00     0.042 A 
BRANCH   4   6
HETATM    6  N2  UNL     1       2.397  -0.703   0.553  1.00  0.00     0.105 N 
HETATM    7  C4  UNL     1       2.886  -1.414  -0.592  1.00  0.00     0.304 C 
HETATM    8  C3  UNL     1       3.829  -0.604  -1.435  1.00  0.00     0.302 C 
HETATM    9  N1  UNL     1       4.858   0.070  -0.666  1.00  0.00     0.093 N 
HETATM   10  C17 UNL     1       4.384   0.592   0.581  1.00  0.00     0.302 C 
HETATM   11  C16 UNL     1       2.854   0.669   0.487  1.00  0.00     0.304 C 
BRANCH   9  12
HETATM   12  C2  UNL     1       5.989  -0.801  -0.573  1.00  0.00     0.298 C 
BRANCH  12  13
HETATM   13  C1  UNL     1       7.149  -0.253   0.196  1.00  0.00     0.194 C 
BRANCH  13  14
HETATM   14  O1  UNL     1       6.892   0.064   1.506  1.00  0.00    -0.399 OA
HETATM   15  H1  UNL     1       7.363   0.860   1.856  1.00  0.00     0.209 HD
ENDBRANCH  13  14
ENDBRANCH  12  13
ENDBRANCH   9  12
ENDBRANCH   4   6
ENDBRANCH   1   3
BRANCH   1  16
HETATM   16  C8  UNL     1      -2.009   1.514  -0.108  1.00  0.00     0.171 A 
HETATM   17  N4  UNL     1      -2.875   2.210  -0.603  1.00  0.00    -0.235 NA
HETATM   18  C9  UNL     1      -4.163   2.015  -0.411  1.00  0.00     0.136 A 
HETATM   19  C10 UNL     1      -4.596   0.998   0.370  1.00  0.00     0.032 A 
HETATM   20  S1  UNL     1      -3.017   0.289   0.850  1.00  0.00    -0.053 SA
BRANCH  19  21
HETATM   21  C11 UNL     1      -5.843   0.428   0.841  1.00  0.00     0.167 A 
HETATM   22  N5  UNL     1      -5.811  -1.030   0.732  1.00  0.00    -0.385 N 
HETATM   23  C12 UNL     1      -6.768  -1.854   0.069  1.00  0.00     0.084 A 
HETATM   24  H15 UNL     1      -4.995  -1.511   1.193  1.00  0.00     0.160 HD
HETATM   25  C13 UNL     1      -7.784  -1.244  -0.505  1.00  0.00     0.018 A 
HETATM   26  C14 UNL     1      -7.941   0.212  -0.474  1.00  0.00     0.023 A 
HETATM   27  C15 UNL     1      -7.025   0.949   0.157  1.00  0.00     0.039 A 
HETATM   28 CL1  UNL     1      -7.306   2.672   0.135  1.00  0.00    -0.086 Cl
ENDBRANCH  19  21
ENDBRANCH   1  16
TORSDOF 7
