REMARK  7 active torsions:
REMARK  status: ('A' for Active; 'I' for Inactive)
REMARK    1  A    between atoms: O1_2  and  C2_3 
REMARK    2  A    between atoms: C4_5  and  N1_6 
REMARK    3  A    between atoms: N1_6  and  C5_7 
REMARK    4  A    between atoms: C11_15  and  C12_16 
REMARK    5  A    between atoms: C12_16  and  C13_17 
REMARK    6  A    between atoms: C13_17  and  C14_18 
REMARK    7  A    between atoms: C17_23  and  O2_24 
ROOT
HETATM    1  C5  UNL     1      -2.246   0.181  -1.438  1.00  0.00     0.093 A 
HETATM    2  C6  UNL     1      -2.439  -0.963  -2.126  1.00  0.00     0.095 A 
HETATM    3  C7  UNL     1      -3.708  -1.108  -2.768  1.00  0.00     0.103 C 
HETATM    4  N2  UNL     1      -4.735  -1.206  -3.279  1.00  0.00    -0.191 NA
HETATM    5  C8  UNL     1      -1.408  -2.011  -2.216  1.00  0.00     0.143 A 
HETATM    6  N3  UNL     1      -0.201  -2.199  -1.775  1.00  0.00    -0.253 NA
HETATM    7  C9  UNL     1       0.422  -1.178  -0.961  1.00  0.00     0.093 A 
HETATM    8  C10 UNL     1       1.635  -1.115  -0.386  1.00  0.00     0.048 A 
HETATM    9  C11 UNL     1       2.008   0.065   0.400  1.00  0.00    -0.021 A 
HETATM   10  C17 UNL     1       1.375   1.159   0.692  1.00  0.00     0.078 A 
HETATM   11  C18 UNL     1      -0.004   1.461   0.235  1.00  0.00     0.084 A 
HETATM   12  S1  UNL     1      -0.623   0.260  -0.673  1.00  0.00    -0.089 SA
ENDROOT
BRANCH   1  13
HETATM   13  N1  UNL     1      -3.096   1.275  -1.243  1.00  0.00    -0.348 N 
HETATM   14  H5  UNL     1      -2.733   2.121  -1.736  1.00  0.00     0.166 HD
BRANCH  13  15
HETATM   15  C4  UNL     1      -4.302   1.287  -0.486  1.00  0.00     0.057 A 
HETATM   16  C3  UNL     1      -4.693   0.114   0.127  1.00  0.00     0.069 A 
HETATM   17  C2  UNL     1      -5.849   0.160   0.842  1.00  0.00     0.092 A 
HETATM   18  C21 UNL     1      -6.590   1.337   0.943  1.00  0.00     0.069 A 
HETATM   19  C20 UNL     1      -6.175   2.512   0.314  1.00  0.00     0.052 A 
HETATM   20 CL2  UNL     1      -8.097   1.472   1.851  1.00  0.00    -0.081 Cl
HETATM   21  C19 UNL     1      -5.002   2.462  -0.411  1.00  0.00     0.062 A 
HETATM   22 CL1  UNL     1      -4.401   3.892  -1.236  1.00  0.00    -0.082 Cl
BRANCH  17  23
HETATM   23  O1  UNL     1      -6.432  -0.889   1.538  1.00  0.00    -0.354 OA
HETATM   24  C1  UNL     1      -5.794  -2.153   1.529  1.00  0.00     0.210 C 
ENDBRANCH  17  23
ENDBRANCH  13  15
ENDBRANCH   1  13
BRANCH  10  25
HETATM   25  O2  UNL     1       1.934   2.174   1.475  1.00  0.00    -0.360 OA
HETATM   26  H17 UNL     1       2.617   2.807   1.048  1.00  0.00     0.217 HD
ENDBRANCH  10  25
BRANCH   9  27
HETATM   27  C12 UNL     1       3.394  -0.095   0.937  1.00  0.00     0.049 C 
BRANCH  27  28
HETATM   28  C13 UNL     1       4.302  -0.231  -0.267  1.00  0.00     0.082 C 
BRANCH  28  29
HETATM   29  C14 UNL     1       5.721  -0.397   0.139  1.00  0.00     0.094 C 
HETATM   30  N4  UNL     1       6.435  -1.425  -0.164  1.00  0.00    -0.276 NA
HETATM   31  C15 UNL     1       7.774  -1.308   0.367  1.00  0.00     0.170 C 
HETATM   32  C16 UNL     1       7.861   0.136   0.758  1.00  0.00     0.143 C 
HETATM   33  N5  UNL     1       6.475   0.524   0.896  1.00  0.00    -0.377 N 
HETATM   34  H16 UNL     1       6.079   1.324   1.442  1.00  0.00     0.160 HD
ENDBRANCH  28  29
ENDBRANCH  27  28
ENDBRANCH   9  27
TORSDOF 7
