REMARK  3 active torsions:
REMARK  status: ('A' for Active; 'I' for Inactive)
REMARK    1  A    between atoms: C6_8  and  N2_9 
REMARK    2  A    between atoms: N2_9  and  C7_10 
REMARK    3  A    between atoms: C10_13  and  C11_14 
ROOT
HETATM    1  N2  UNL     1      -1.001  -0.797  -1.571  1.00  0.00    -0.320 N 
HETATM    2  H4  UNL     1      -1.221  -1.310  -2.466  1.00  0.00     0.169 HD
ENDROOT
BRANCH   1   3
HETATM    3  C6  UNL     1      -2.083  -0.452  -0.718  1.00  0.00     0.252 A 
HETATM    4  N1  UNL     1      -3.394  -0.740  -0.978  1.00  0.00    -0.206 NA
HETATM    5  C5  UNL     1      -4.144  -0.273   0.031  1.00  0.00     0.096 A 
HETATM    6  C4  UNL     1      -5.512  -0.329   0.207  1.00  0.00     0.035 A 
HETATM    7  C16 UNL     1      -3.278   0.314   0.928  1.00  0.00     0.129 A 
HETATM    8  C3  UNL     1      -5.981   0.253   1.369  1.00  0.00     0.004 A 
HETATM    9  C2  UNL     1      -5.137   0.853   2.294  1.00  0.00     0.027 A 
HETATM   10  C1  UNL     1      -3.761   0.886   2.074  1.00  0.00     0.070 A 
HETATM   11 CL1  UNL     1      -2.723   1.635   3.233  1.00  0.00    -0.081 Cl
HETATM   12  O1  UNL     1      -2.076   0.177   0.430  1.00  0.00    -0.274 OA
ENDBRANCH   1   3
BRANCH   1  13
HETATM   13  C7  UNL     1       0.370  -0.517  -1.339  1.00  0.00     0.035 A 
HETATM   14  C8  UNL     1       1.340  -0.900  -2.239  1.00  0.00     0.030 A 
HETATM   15  C9  UNL     1       2.677  -0.645  -2.045  1.00  0.00     0.012 A 
HETATM   16  C10 UNL     1       3.122   0.011  -0.934  1.00  0.00    -0.028 A 
HETATM   17  C14 UNL     1       2.199   0.409  -0.017  1.00  0.00     0.012 A 
HETATM   18  C15 UNL     1       0.864   0.142  -0.235  1.00  0.00     0.030 A 
BRANCH  16  19
HETATM   19  C11 UNL     1       4.560   0.294  -0.710  1.00  0.00     0.188 A 
HETATM   20  C12 UNL     1       5.032  -0.596   0.373  1.00  0.00     0.028 A 
HETATM   21  C13 UNL     1       5.484   0.207   1.294  1.00  0.00     0.139 A 
HETATM   22  N3  UNL     1       5.339   1.557   0.887  1.00  0.00    -0.167 NA
HETATM   23  N4  UNL     1       4.810   1.630  -0.264  1.00  0.00    -0.179 NA
ENDBRANCH  16  19
ENDBRANCH   1  13
TORSDOF 3
