REMARK  7 active torsions:
REMARK  status: ('A' for Active; 'I' for Inactive)
REMARK    1  A    between atoms: N1_2  and  C2_3 
REMARK    2  A    between atoms: C2_3  and  C3_4 
REMARK    3  A    between atoms: C4_5  and  C5_6 
REMARK       I    between atoms: C5_6  and  N2_8 
REMARK    4  A    between atoms: C12_17  and  C13_18 
REMARK    5  A    between atoms: C19_27  and  O2_28 
REMARK    6  A    between atoms: O2_28  and  C20_29 
REMARK    7  A    between atoms: C20_29  and  C21_30 
ROOT
HETATM    1  C5  UNL     1       0.920  -0.969   0.278  1.00  0.00     0.243 C 
HETATM    2  O1  UNL     1       0.289  -2.020  -0.038  1.00  0.00    -0.268 OA
HETATM    3  N2  UNL     1      -0.087  -0.162   0.918  1.00  0.00    -0.340 N 
HETATM    4  C6  UNL     1      -1.376  -0.823   0.954  1.00  0.00     0.169 C 
HETATM    5  C7  UNL     1      -2.159  -0.162  -0.145  1.00  0.00     0.018 A 
HETATM    6  C8  UNL     1      -2.068   1.056  -0.750  1.00  0.00     0.134 A 
HETATM    7  N3  UNL     1      -2.885   1.459  -1.734  1.00  0.00    -0.241 NA
HETATM    8  C9  UNL     1      -3.864   0.624  -2.171  1.00  0.00     0.142 A 
HETATM    9  C10 UNL     1      -3.963  -0.605  -1.568  1.00  0.00     0.073 A 
HETATM   10  C11 UNL     1      -5.005  -1.500  -2.028  1.00  0.00     0.102 C 
HETATM   11  N4  UNL     1      -5.833  -2.213  -2.413  1.00  0.00    -0.191 NA
HETATM   12  C12 UNL     1      -3.131  -1.061  -0.539  1.00  0.00     0.008 A 
HETATM   13  N5  UNL     1      -1.132   2.051  -0.444  1.00  0.00    -0.346 N 
HETATM   14  C19 UNL     1      -0.083   2.269   0.512  1.00  0.00     0.240 C 
HETATM   15  C22 UNL     1       0.185   1.148   1.446  1.00  0.00     0.180 C 
HETATM   16  H15 UNL     1      -1.146   2.923  -1.055  1.00  0.00     0.163 HD
ENDROOT
BRANCH  12  17
HETATM   17  C13 UNL     1      -3.346  -2.398   0.017  1.00  0.00    -0.022 A 
HETATM   18  C14 UNL     1      -4.220  -2.496   1.100  1.00  0.00     0.015 A 
HETATM   19  C15 UNL     1      -4.437  -3.751   1.639  1.00  0.00     0.045 A 
HETATM   20  C16 UNL     1      -3.814  -4.870   1.129  1.00  0.00     0.138 A 
HETATM   21  F1  UNL     1      -4.046  -6.105   1.682  1.00  0.00    -0.204 F 
HETATM   22  C17 UNL     1      -2.940  -4.775   0.047  1.00  0.00     0.073 A 
HETATM   23 CL1  UNL     1      -2.151  -6.202  -0.597  1.00  0.00    -0.081 Cl
HETATM   24  C18 UNL     1      -2.714  -3.511  -0.506  1.00  0.00     0.039 A 
ENDBRANCH  12  17
BRANCH  14  25
HETATM   25  O2  UNL     1       1.063   2.575  -0.186  1.00  0.00    -0.363 OA
BRANCH  25  26
HETATM   26  C20 UNL     1       1.616   3.798  -0.039  1.00  0.00     0.201 C 
BRANCH  26  27
HETATM   27  C21 UNL     1       2.101   4.119   1.350  1.00  0.00     0.248 C 
HETATM   28  F2  UNL     1       1.176   4.108   2.332  1.00  0.00    -0.253 F 
ENDBRANCH  26  27
ENDBRANCH  25  26
ENDBRANCH  14  25
BRANCH   1  29
HETATM   29  C4  UNL     1       2.330  -0.719   0.018  1.00  0.00     0.072 C 
HETATM   30  C3  UNL     1       3.293   0.204   0.186  1.00  0.00     0.008 C 
BRANCH  30  31
HETATM   31  C2  UNL     1       4.706   0.082  -0.245  1.00  0.00     0.296 C 
BRANCH  31  32
HETATM   32  N1  UNL     1       5.064   1.137  -1.188  1.00  0.00     0.082 N 
HETATM   33  C1  UNL     1       6.434   1.000  -1.594  1.00  0.00     0.307 C 
HETATM   34  H4  UNL     1       4.799   2.062  -0.829  1.00  0.00     0.315 HD
ENDBRANCH  31  32
ENDBRANCH  30  31
ENDBRANCH   1  29
TORSDOF 7
