REMARK  8 active torsions:
REMARK  status: ('A' for Active; 'I' for Inactive)
REMARK    1  A    between atoms: C2_2  and  C3_3 
REMARK    2  A    between atoms: C7_9  and  N3_10 
REMARK    3  A    between atoms: N3_10  and  C8_11 
REMARK    4  A    between atoms: C8_11  and  C9_12 
REMARK    5  A    between atoms: C12_16  and  O1_17 
REMARK    6  A    between atoms: C15_21  and  C16_22 
REMARK    7  A    between atoms: C16_22  and  C17_23 
REMARK    8  A    between atoms: C17_23  and  C18_24 
ROOT
HETATM    1  C3  UNL     1      -0.307  -0.835  -1.282  1.00  0.00     0.108 A 
HETATM    2  N1  UNL     1      -0.737  -2.137  -0.815  1.00  0.00    -0.282 NA
HETATM    3  C4  UNL     1      -0.339  -2.736   0.226  1.00  0.00     0.137 A 
HETATM    4  C5  UNL     1       0.647  -2.157   1.130  1.00  0.00     0.088 A 
HETATM    5  C6  UNL     1       1.110  -2.847   2.321  1.00  0.00     0.103 C 
HETATM    6  N2  UNL     1       1.471  -3.397   3.283  1.00  0.00    -0.191 NA
HETATM    7  C7  UNL     1       1.189  -0.947   0.916  1.00  0.00     0.059 A 
HETATM    8  C10 UNL     1       0.623  -0.271  -0.279  1.00  0.00     0.005 A 
HETATM    9  C11 UNL     1       1.132   0.979  -0.246  1.00  0.00     0.050 C 
HETATM   10  C12 UNL     1       0.842   2.040  -1.236  1.00  0.00     0.090 C 
HETATM   11  C14 UNL     1      -0.260   2.158  -1.999  1.00  0.00     0.172 C 
HETATM   12  O2  UNL     1      -1.328   1.278  -1.978  1.00  0.00    -0.352 OA
HETATM   13  C15 UNL     1      -1.483  -0.070  -1.663  1.00  0.00     0.162 C 
ENDROOT
BRANCH   7  14
HETATM   14  N3  UNL     1       2.158  -0.310   1.739  1.00  0.00    -0.387 N 
HETATM   15  H7  UNL     1       1.896   0.384   2.497  1.00  0.00     0.159 HD
BRANCH  14  16
HETATM   16  C8  UNL     1       3.513  -0.645   1.504  1.00  0.00     0.135 C 
BRANCH  16  17
HETATM   17  C9  UNL     1       4.505   0.049   2.395  1.00  0.00     0.134 C 
HETATM   18 CL1  UNL     1       4.503   1.794   2.299  1.00  0.00    -0.129 Cl
ENDBRANCH  16  17
ENDBRANCH  14  16
ENDBRANCH   7  14
BRANCH   1  19
HETATM   19  C2  UNL     1       0.482  -1.182  -2.573  1.00  0.00     0.036 C 
HETATM   20  C1  UNL     1      -0.475  -1.880  -3.510  1.00  0.00     0.008 C 
ENDBRANCH   1  19
BRANCH  13  21
HETATM   21  C16 UNL     1      -2.651  -0.179  -0.718  1.00  0.00     0.037 C 
BRANCH  21  22
HETATM   22  C17 UNL     1      -2.397   0.282   0.672  1.00  0.00     0.040 C 
BRANCH  22  23
HETATM   23  C18 UNL     1      -3.695   0.102   1.473  1.00  0.00     0.248 A 
HETATM   24  C19 UNL     1      -3.767   0.460   2.857  1.00  0.00     0.305 A 
HETATM   25  N4  UNL     1      -3.653  -0.949   2.513  1.00  0.00     0.091 N 
HETATM   26  H25 UNL     1      -4.514  -1.555   2.546  1.00  0.00     0.316 HD
ENDBRANCH  22  23
ENDBRANCH  21  22
ENDBRANCH  13  21
BRANCH  10  27
HETATM   27  O1  UNL     1       1.847   3.019  -1.370  1.00  0.00    -0.354 OA
HETATM   28  C13 UNL     1       1.522   4.381  -1.273  1.00  0.00     0.210 C 
ENDBRANCH  10  27
TORSDOF 8
