REMARK  4 active torsions:
REMARK  status: ('A' for Active; 'I' for Inactive)
REMARK    1  A    between atoms: N2_5  and  C4_6 
REMARK    2  A    between atoms: C4_6  and  C5_7 
REMARK    3  A    between atoms: C5_7  and  O1_8 
REMARK    4  A    between atoms: O1_8  and  C6_9 
ROOT
HETATM    1  C6  UNL     1       2.139   0.140   0.004  1.00  0.00     0.089 C 
HETATM    2  C7  UNL     1       2.611   0.757  -1.162  1.00  0.00     0.057 C 
HETATM    3  C8  UNL     1       3.688   1.629  -1.378  1.00  0.00     0.119 C 
HETATM    4  N3  UNL     1       5.005   1.505  -1.480  1.00  0.00    -0.273 NA
HETATM    5  C9  UNL     1       5.661   0.457  -2.015  1.00  0.00     0.115 C 
HETATM    6  C10 UNL     1       6.612  -0.008  -1.136  1.00  0.00     0.003 C 
HETATM    7  C11 UNL     1       6.169  -0.426   0.124  1.00  0.00    -0.080 C 
HETATM    8  B1  UNL     1       5.145  -1.763  -0.065  1.00  0.00     0.199 B 
HETATM    9  C12 UNL     1       3.541  -1.919   0.586  1.00  0.00    -0.057 C 
HETATM   10  C13 UNL     1       2.788  -0.790   0.833  1.00  0.00     0.063 C 
HETATM   11  C14 UNL     1       2.660  -0.521   2.260  1.00  0.00     0.101 C 
HETATM   12  N4  UNL     1       2.558  -0.308   3.415  1.00  0.00    -0.191 NA
ENDROOT
BRANCH   1  13
HETATM   13  O1  UNL     1       0.870   0.436   0.468  1.00  0.00    -0.348 OA
BRANCH  13  14
HETATM   14  C5  UNL     1      -0.041   1.337  -0.138  1.00  0.00     0.206 C 
BRANCH  14  15
HETATM   15  C4  UNL     1      -1.322   1.430   0.666  1.00  0.00     0.299 C 
BRANCH  15  16
HETATM   16  N2  UNL     1      -2.033   0.186   0.781  1.00  0.00     0.093 N 
HETATM   17  C3  UNL     1      -3.090   0.220   1.777  1.00  0.00     0.302 C 
HETATM   18  C2  UNL     1      -4.305  -0.599   1.376  1.00  0.00     0.302 C 
HETATM   19  N1  UNL     1      -4.955  -0.007   0.216  1.00  0.00     0.087 N 
HETATM   20  C1  UNL     1      -5.794  -0.906  -0.512  1.00  0.00     0.310 C 
HETATM   21  C16 UNL     1      -3.961   0.597  -0.607  1.00  0.00     0.302 C 
HETATM   22  C15 UNL     1      -2.672  -0.179  -0.483  1.00  0.00     0.302 C 
ENDBRANCH  15  16
ENDBRANCH  14  15
ENDBRANCH  13  14
ENDBRANCH   1  13
TORSDOF 4
