REMARK  9 active torsions:
REMARK  status: ('A' for Active; 'I' for Inactive)
REMARK    1  A    between atoms: C2_2  and  C3_3 
REMARK    2  A    between atoms: C3_3  and  N1_4 
REMARK    3  A    between atoms: N1_4  and  C4_5 
REMARK    4  A    between atoms: C4_5  and  C5_6 
REMARK    5  A    between atoms: C6_8  and  N2_9 
REMARK    6  A    between atoms: C9_12  and  O1_13 
REMARK    7  A    between atoms: O1_13  and  C10_14 
REMARK    8  A    between atoms: C10_14  and  C11_15 
REMARK    9  A    between atoms: C11_15  and  N3_16 
ROOT
HETATM    1  N2  UNL     1       1.768   0.525   0.148  1.00  0.00    -0.264 NA
HETATM    2  C7  UNL     1       0.759   0.363  -0.605  1.00  0.00     0.037 C 
HETATM    3  C8  UNL     1      -0.469  -0.116  -0.029  1.00  0.00     0.059 C 
HETATM    4  C9  UNL     1      -1.766  -0.377  -0.099  1.00  0.00     0.052 C 
HETATM    5  C12 UNL     1      -2.946  -0.914   0.583  1.00  0.00     0.043 C 
HETATM    6  C13 UNL     1      -2.731  -1.196   2.074  1.00  0.00     0.017 C 
HETATM    7  C14 UNL     1      -3.523  -2.104  -0.096  1.00  0.00     0.006 A 
HETATM    8  C15 UNL     1      -3.408  -3.072  -1.024  1.00  0.00     0.001 A 
HETATM    9  C16 UNL     1      -2.021  -2.766  -1.650  1.00  0.00    -0.035 A 
HETATM   10  O2  UNL     1      -3.059  -2.592  -0.879  1.00  0.00     0.000 OA
HETATM   11  C17 UNL     1      -0.600  -2.512  -2.315  1.00  0.00     0.034 C 
HETATM   12  C18 UNL     1      -0.155  -1.233  -2.176  1.00  0.00     0.001 C 
HETATM   13  C19 UNL     1       0.015   0.261  -1.847  1.00  0.00     0.064 C 
ENDROOT
BRANCH   1  14
HETATM   14  C6  UNL     1       3.019   0.978  -0.250  1.00  0.00     0.138 C 
HETATM   15  C5  UNL     1       3.696   1.664   0.654  1.00  0.00     0.057 C 
HETATM   16 CL1  UNL     1       5.294   2.291   0.273  1.00  0.00    -0.086 Cl
BRANCH  15  17
HETATM   17  C4  UNL     1       3.192   1.958   2.020  1.00  0.00     0.322 C 
BRANCH  17  18
HETATM   18  N1  UNL     1       4.127   1.358   2.954  1.00  0.00     0.091 N 
HETATM   19  H6  UNL     1       5.103   1.665   2.798  1.00  0.00     0.316 HD
BRANCH  18  20
HETATM   20  C3  UNL     1       4.094  -0.075   2.905  1.00  0.00     0.296 C 
BRANCH  20  21
HETATM   21  C2  UNL     1       5.081  -0.588   3.874  1.00  0.00    -0.008 C 
HETATM   22  C1  UNL     1       5.605   0.510   4.404  1.00  0.00     0.008 C 
ENDBRANCH  20  21
ENDBRANCH  18  20
ENDBRANCH  17  18
ENDBRANCH  15  17
ENDBRANCH   1  14
BRANCH   4  23
HETATM   23  O1  UNL     1      -2.274   0.001  -1.347  1.00  0.00    -0.353 OA
BRANCH  23  24
HETATM   24  C10 UNL     1      -3.542   0.462  -1.644  1.00  0.00     0.205 C 
BRANCH  24  25
HETATM   25  C11 UNL     1      -3.530   1.321  -2.882  1.00  0.00     0.293 C 
BRANCH  25  26
HETATM   26  N3  UNL     1      -2.720   2.494  -2.778  1.00  0.00     0.080 N 
HETATM   27  H15 UNL     1      -2.432   2.834  -3.700  1.00  0.00     0.312 HD
HETATM   28  H16 UNL     1      -3.123   3.230  -2.153  1.00  0.00     0.312 HD
ENDBRANCH  25  26
ENDBRANCH  24  25
ENDBRANCH  23  24
ENDBRANCH   4  23
TORSDOF 9
