REMARK  9 active torsions:
REMARK  status: ('A' for Active; 'I' for Inactive)
REMARK    1  A    between atoms: N1_2  and  C2_3 
REMARK    2  A    between atoms: C2_3  and  C3_4 
REMARK    3  A    between atoms: C4_5  and  C5_6 
REMARK       I    between atoms: C5_6  and  N2_8 
REMARK    4  A    between atoms: N2_8  and  C6_9 
REMARK    5  A    between atoms: C6_9  and  C15_20 
REMARK    6  A    between atoms: C7_10  and  C8_11 
REMARK    7  A    between atoms: C15_20  and  O2_21 
REMARK    8  A    between atoms: O2_21  and  C16_22 
REMARK    9  A    between atoms: C16_22  and  C17_23 
ROOT
HETATM    1  C8  UNL     1      -2.398  -1.758   0.076  1.00  0.00    -0.009 A 
HETATM    2  C9  UNL     1      -3.113  -1.479   1.226  1.00  0.00     0.037 A 
HETATM    3  C10 UNL     1      -4.345  -2.035   1.506  1.00  0.00     0.062 A 
HETATM    4  C11 UNL     1      -5.107  -1.765   2.689  1.00  0.00     0.101 C 
HETATM    5  N3  UNL     1      -5.713  -1.546   3.638  1.00  0.00    -0.191 NA
HETATM    6  C12 UNL     1      -4.857  -2.906   0.570  1.00  0.00     0.139 A 
HETATM    7  N4  UNL     1      -4.165  -3.179  -0.549  1.00  0.00    -0.264 NA
HETATM    8  C13 UNL     1      -2.967  -2.639  -0.822  1.00  0.00     0.040 A 
HETATM    9  C14 UNL     1      -2.290  -3.008  -2.092  1.00  0.00     0.071 C 
ENDROOT
BRANCH   1  10
HETATM   10  C7  UNL     1      -1.114  -1.138  -0.190  1.00  0.00     0.040 C 
HETATM   11  C6  UNL     1      -0.545   0.069  -0.113  1.00  0.00     0.036 C 
BRANCH  11  12
HETATM   12  N2  UNL     1       0.814   0.217  -0.498  1.00  0.00    -0.325 N 
HETATM   13  C5  UNL     1       1.524   0.946  -1.485  1.00  0.00     0.245 C 
HETATM   14  O1  UNL     1       0.658   1.613  -2.152  1.00  0.00    -0.268 OA
HETATM   15  H9  UNL     1       1.321  -0.414   0.191  1.00  0.00     0.169 HD
BRANCH  13  16
HETATM   16  C4  UNL     1       2.972   0.865  -1.618  1.00  0.00     0.072 C 
HETATM   17  C3  UNL     1       3.997   0.251  -1.028  1.00  0.00     0.008 C 
BRANCH  17  18
HETATM   18  C2  UNL     1       4.400  -0.665   0.032  1.00  0.00     0.296 C 
BRANCH  18  19
HETATM   19  N1  UNL     1       5.320  -0.035   0.981  1.00  0.00     0.082 N 
HETATM   20  C1  UNL     1       6.595   0.251   0.399  1.00  0.00     0.307 C 
HETATM   21  H4  UNL     1       5.405  -0.726   1.773  1.00  0.00     0.315 HD
ENDBRANCH  18  19
ENDBRANCH  17  18
ENDBRANCH  13  16
ENDBRANCH  11  12
BRANCH  11  22
HETATM   22  C15 UNL     1      -1.280   1.296   0.359  1.00  0.00     0.224 C 
BRANCH  22  23
HETATM   23  O2  UNL     1      -1.306   2.268  -0.614  1.00  0.00    -0.383 OA
BRANCH  23  24
HETATM   24  C16 UNL     1      -1.981   3.396  -0.231  1.00  0.00     0.199 C 
BRANCH  24  25
HETATM   25  C17 UNL     1      -1.450   4.102   0.975  1.00  0.00     0.248 C 
HETATM   26  F1  UNL     1      -2.221   5.240   1.254  1.00  0.00    -0.253 F 
ENDBRANCH  24  25
ENDBRANCH  23  24
ENDBRANCH  22  23
ENDBRANCH  11  22
ENDBRANCH   1  10
TORSDOF 9
