REMARK  6 active torsions:
REMARK  status: ('A' for Active; 'I' for Inactive)
REMARK    1  A    between atoms: N1_2  and  C2_3 
REMARK    2  A    between atoms: C2_3  and  C3_4 
REMARK    3  A    between atoms: C4_5  and  C5_6 
REMARK       I    between atoms: C5_6  and  N2_8 
REMARK    4  A    between atoms: N2_8  and  C6_9 
REMARK    5  A    between atoms: C12_17  and  N5_18 
REMARK    6  A    between atoms: N5_18  and  C13_19 
ROOT
HETATM    1  C6  UNL     1      -0.607  -0.699   0.976  1.00  0.00     0.017 C 
HETATM    2  C7  UNL     1       0.678  -0.410   1.051  1.00  0.00    -0.026 C 
HETATM    3  C8  UNL     1       1.138  -0.310   2.520  1.00  0.00     0.092 C 
HETATM    4  C9  UNL     1       1.214  -1.849   2.541  1.00  0.00     0.013 C 
HETATM    5  N3  UNL     1       2.454  -1.888   2.140  1.00  0.00    -0.276 NA
HETATM    6  C10 UNL     1       2.859  -1.358   0.837  1.00  0.00     0.241 C 
HETATM    7  C11 UNL     1       2.908  -2.477  -0.072  1.00  0.00     0.089 C 
HETATM    8  N4  UNL     1       2.929  -3.370  -0.798  1.00  0.00    -0.195 NA
HETATM    9  C12 UNL     1       1.941  -0.224   0.319  1.00  0.00     0.152 C 
HETATM   10  C19 UNL     1      -0.176  -2.172   2.974  1.00  0.00     0.060 C 
HETATM   11  C20 UNL     1      -1.190  -1.339   2.169  1.00  0.00     0.063 C 
ENDROOT
BRANCH   9  12
HETATM   12  N5  UNL     1       2.524   1.061   0.610  1.00  0.00    -0.378 N 
HETATM   13  H14 UNL     1       2.003   1.676   1.305  1.00  0.00     0.160 HD
BRANCH  12  14
HETATM   14  C13 UNL     1       3.722   1.592   0.066  1.00  0.00     0.030 A 
HETATM   15  C14 UNL     1       4.455   0.848  -0.862  1.00  0.00     0.032 A 
HETATM   16  C15 UNL     1       5.607   1.451  -1.329  1.00  0.00     0.046 A 
HETATM   17  C16 UNL     1       6.091   2.691  -0.973  1.00  0.00     0.138 A 
HETATM   18  F1  UNL     1       7.226   3.214  -1.473  1.00  0.00    -0.204 F 
HETATM   19  C17 UNL     1       5.332   3.395  -0.049  1.00  0.00     0.074 A 
HETATM   20 CL1  UNL     1       5.808   4.985   0.508  1.00  0.00    -0.081 Cl
HETATM   21  C18 UNL     1       4.176   2.832   0.443  1.00  0.00     0.056 A 
ENDBRANCH  12  14
ENDBRANCH   9  12
BRANCH   1  22
HETATM   22  N2  UNL     1      -0.952  -0.283  -0.333  1.00  0.00    -0.327 N 
HETATM   23  C5  UNL     1      -2.306  -0.477  -0.693  1.00  0.00     0.245 C 
HETATM   24  O1  UNL     1      -3.184  -0.988   0.089  1.00  0.00    -0.268 OA
HETATM   25  H9  UNL     1      -0.474   0.133  -1.118  1.00  0.00     0.169 HD
BRANCH  23  26
HETATM   26  C4  UNL     1      -2.947  -0.152  -1.956  1.00  0.00     0.072 C 
HETATM   27  C3  UNL     1      -4.219  -0.500  -1.857  1.00  0.00     0.008 C 
BRANCH  27  28
HETATM   28  C2  UNL     1      -5.210  -0.329  -2.941  1.00  0.00     0.296 C 
BRANCH  28  29
HETATM   29  N1  UNL     1      -6.325   0.508  -2.600  1.00  0.00     0.082 N 
HETATM   30  C1  UNL     1      -7.191  -0.091  -1.604  1.00  0.00     0.307 C 
HETATM   31  H4  UNL     1      -6.071   1.483  -2.425  1.00  0.00     0.315 HD
ENDBRANCH  28  29
ENDBRANCH  27  28
ENDBRANCH  23  26
ENDBRANCH   1  22
TORSDOF 6
