REMARK  8 active torsions:
REMARK  status: ('A' for Active; 'I' for Inactive)
REMARK    1  A    between atoms: C2_2  and  O1_3 
REMARK    2  A    between atoms: O1_3  and  C3_4 
REMARK    3  A    between atoms: C5_6  and  N1_7 
REMARK    4  A    between atoms: C7_9  and  C8_10 
REMARK    5  A    between atoms: C15_21  and  N4_22 
REMARK    6  A    between atoms: N4_22  and  C16_23 
REMARK    7  A    between atoms: C16_23  and  C17_24 
REMARK    8  A    between atoms: C17_24  and  C18_25 
ROOT
HETATM    1  C8  UNL     1      -3.534  -1.658  -0.849  1.00  0.00     0.155 C 
HETATM    2  C9  UNL     1      -4.144  -2.880  -0.460  1.00  0.00     0.061 C 
HETATM    3  N2  UNL     1      -4.659  -3.874  -0.153  1.00  0.00    -0.197 NA
ENDROOT
BRANCH   1   4
HETATM    4  C7  UNL     1      -2.710  -0.964   0.168  1.00  0.00     0.149 C 
HETATM    5  C5  UNL     1      -2.249   0.316  -0.478  1.00  0.00     0.054 C 
HETATM    6  C4  UNL     1      -1.217   1.321  -0.453  1.00  0.00     0.064 C 
HETATM    7  C3  UNL     1      -0.040   1.090   0.088  1.00  0.00     0.087 C 
HETATM    8  C15 UNL     1       0.575  -0.039   0.742  1.00  0.00     0.328 C 
HETATM    9  C14 UNL     1      -0.287  -1.214   1.021  1.00  0.00     0.073 C 
HETATM   10  N3  UNL     1      -1.609  -1.650   0.739  1.00  0.00    -0.366 N 
HETATM   11  C13 UNL     1       0.596  -1.951   1.722  1.00  0.00     0.097 C 
HETATM   12  C10 UNL     1      -1.972  -3.003   1.103  1.00  0.00     0.154 C 
HETATM   13  C11 UNL     1      -0.946  -3.669   1.947  1.00  0.00     0.037 C 
HETATM   14  C12 UNL     1       0.277  -3.288   2.253  1.00  0.00     0.138 C 
HETATM   15  F1  UNL     1       1.071  -4.048   3.041  1.00  0.00    -0.204 F 
HETATM   16 CL1  UNL     1       2.259  -1.485   2.136  1.00  0.00    -0.079 Cl
BRANCH   5  17
HETATM   17  N1  UNL     1      -3.140   0.645  -1.394  1.00  0.00    -0.297 NA
HETATM   18  C6  UNL     1      -3.041   1.828  -2.201  1.00  0.00     0.178 C 
ENDBRANCH   5  17
BRANCH   7  19
HETATM   19  O1  UNL     1       0.780   2.208  -0.007  1.00  0.00    -0.353 OA
BRANCH  19  20
HETATM   20  C2  UNL     1       1.027   3.152   0.977  1.00  0.00     0.171 C 
HETATM   21  C1  UNL     1       2.005   4.168   0.373  1.00  0.00     0.034 C 
ENDBRANCH  19  20
ENDBRANCH   7  19
BRANCH   8  22
HETATM   22  N4  UNL     1       1.725  -0.560   0.033  1.00  0.00     0.100 N 
HETATM   23  H17 UNL     1       1.486  -1.018  -0.854  1.00  0.00     0.317 HD
BRANCH  22  24
HETATM   24  C16 UNL     1       2.804   0.343  -0.174  1.00  0.00     0.277 C 
BRANCH  24  25
HETATM   25  C17 UNL     1       4.001  -0.345  -0.836  1.00  0.00     0.099 C 
BRANCH  25  26
HETATM   26  C18 UNL     1       5.117   0.603  -1.036  1.00  0.00     0.232 C 
HETATM   27  O2  UNL     1       4.564   1.562  -0.575  1.00  0.00    -0.307 OA
ENDBRANCH  25  26
ENDBRANCH  24  25
ENDBRANCH  22  24
ENDBRANCH   8  22
ENDBRANCH   1   4
TORSDOF 8
