REMARK  9 active torsions:
REMARK  status: ('A' for Active; 'I' for Inactive)
REMARK    1  A    between atoms: C2_2  and  O1_3 
REMARK    2  A    between atoms: O1_3  and  C3_4 
REMARK    3  A    between atoms: C3_4  and  C4_5 
REMARK    4  A    between atoms: C4_5  and  C16_21 
REMARK    5  A    between atoms: C5_6  and  C6_7 
REMARK    6  A    between atoms: C10_12  and  N2_13 
REMARK    7  A    between atoms: N2_13  and  C11_14 
REMARK    8  A    between atoms: C18_23  and  C19_24 
REMARK    9  A    between atoms: C19_24  and  N3_25 
ROOT
HETATM    1  C6  UNL     1      -0.778  -1.132  -0.703  1.00  0.00     0.009 A 
HETATM    2  C7  UNL     1      -0.442  -1.828  -1.854  1.00  0.00     0.130 A 
HETATM    3  N1  UNL     1      -1.208  -2.842  -2.320  1.00  0.00    -0.272 NA
HETATM    4  C8  UNL     1      -2.342  -3.195  -1.644  1.00  0.00     0.118 A 
HETATM    5  C9  UNL     1      -2.707  -2.530  -0.503  1.00  0.00     0.049 A 
HETATM    6  C10 UNL     1      -1.930  -1.511  -0.044  1.00  0.00     0.045 A 
ENDROOT
BRANCH   1   7
HETATM    7  C5  UNL     1       0.107  -0.090  -0.214  1.00  0.00     0.025 C 
HETATM    8  C4  UNL     1       1.365   0.146   0.111  1.00  0.00    -0.028 C 
BRANCH   8   9
HETATM    9  C3  UNL     1       1.724   1.534   0.589  1.00  0.00     0.206 C 
BRANCH   9  10
HETATM   10  O1  UNL     1       2.655   2.151  -0.202  1.00  0.00    -0.387 OA
BRANCH  10  11
HETATM   11  C2  UNL     1       2.260   2.368  -1.513  1.00  0.00     0.163 C 
HETATM   12  C1  UNL     1       1.048   3.279  -1.588  1.00  0.00     0.033 C 
ENDBRANCH  10  11
ENDBRANCH   9  10
ENDBRANCH   8   9
BRANCH   8  13
HETATM   13  C16 UNL     1       2.425  -0.847   0.103  1.00  0.00    -0.056 C 
HETATM   14  C17 UNL     1       2.322  -2.281  -0.238  1.00  0.00     0.048 C 
HETATM   15  C18 UNL     1       3.651  -0.512   0.439  1.00  0.00     0.010 C 
BRANCH  15  16
HETATM   16  C19 UNL     1       4.986  -1.086   0.589  1.00  0.00     0.294 C 
BRANCH  16  17
HETATM   17  N3  UNL     1       5.507  -0.950   1.964  1.00  0.00     0.081 N 
HETATM   18  H23 UNL     1       5.987   0.002   2.024  1.00  0.00     0.313 HD
HETATM   19  H24 UNL     1       6.126  -1.724   2.239  1.00  0.00     0.313 HD
ENDBRANCH  16  17
ENDBRANCH  15  16
ENDBRANCH   8  13
ENDBRANCH   1   7
BRANCH   6  20
HETATM   20  N2  UNL     1      -2.351  -0.837   1.132  1.00  0.00    -0.351 N 
HETATM   21  H12 UNL     1      -1.998  -0.933   2.122  1.00  0.00     0.166 HD
BRANCH  20  22
HETATM   22  C11 UNL     1      -3.395   0.078   0.834  1.00  0.00     0.096 A 
HETATM   23  C12 UNL     1      -4.366   0.084   1.733  1.00  0.00     0.252 A 
HETATM   24  F1  UNL     1      -4.263  -0.751   2.801  1.00  0.00    -0.176 F 
HETATM   25  O2  UNL     1      -5.518   0.846   1.748  1.00  0.00    -0.322 OA
HETATM   26  C13 UNL     1      -5.760   1.748   0.696  1.00  0.00     0.206 A 
HETATM   27  C14 UNL     1      -4.656   1.706  -0.275  1.00  0.00     0.002 A 
HETATM   28  C15 UNL     1      -3.556   0.985  -0.289  1.00  0.00     0.033 A 
ENDBRANCH  20  22
ENDBRANCH   6  20
TORSDOF 9
