REMARK  6 active torsions:
REMARK  status: ('A' for Active; 'I' for Inactive)
REMARK    1  A    between atoms: C2_2  and  C3_3 
REMARK    2  A    between atoms: C2_2  and  N2_7 
REMARK    3  A    between atoms: C3_3  and  N1_4 
REMARK    4  A    between atoms: N1_4  and  C4_5 
REMARK    5  A    between atoms: C10_15  and  O2_16 
REMARK    6  A    between atoms: O2_16  and  C11_17 
ROOT
HETATM    1  N2  UNL     1       0.559  -0.502  -0.275  1.00  0.00    -0.305 N 
HETATM    2  C5  UNL     1       0.371  -0.823  -1.794  1.00  0.00     0.138 C 
HETATM    3  C6  UNL     1       1.439  -0.772  -2.700  1.00  0.00     0.119 C 
HETATM    4  N3  UNL     1       2.304  -0.731  -3.408  1.00  0.00    -0.190 NA
HETATM    5  C7  UNL     1      -0.874  -1.180  -2.408  1.00  0.00     0.158 C 
HETATM    6  N4  UNL     1      -2.166  -1.870  -1.929  1.00  0.00    -0.262 NA
HETATM    7  C8  UNL     1      -2.382  -1.843  -0.550  1.00  0.00     0.040 C 
HETATM    8  C9  UNL     1      -2.946  -1.014   0.738  1.00  0.00     0.066 C 
HETATM    9  C10 UNL     1      -1.910  -0.155   0.495  1.00  0.00     0.097 C 
HETATM   10  C13 UNL     1      -0.625  -1.034   0.553  1.00  0.00     0.070 C 
HETATM   11  C14 UNL     1      -0.659  -2.384   0.895  1.00  0.00     0.012 C 
HETATM   12  C15 UNL     1      -1.678  -3.096   0.007  1.00  0.00     0.088 C 
ENDROOT
BRANCH   1  13
HETATM   13  C2  UNL     1       1.769   0.192  -0.118  1.00  0.00     0.014 C 
HETATM   14  C1  UNL     1       1.838   1.458  -0.403  1.00  0.00     0.060 C 
BRANCH  13  15
HETATM   15  C3  UNL     1       2.889  -0.636   0.394  1.00  0.00     0.174 C 
BRANCH  15  16
HETATM   16  N1  UNL     1       4.106   0.087   0.569  1.00  0.00    -0.363 N 
HETATM   17  H5  UNL     1       4.571   0.161   1.515  1.00  0.00     0.162 HD
BRANCH  16  18
HETATM   18  C4  UNL     1       4.813   0.764  -0.437  1.00  0.00     0.348 C 
HETATM   19  O1  UNL     1       4.399   0.778  -1.624  1.00  0.00    -0.284 OA
ENDBRANCH  16  18
ENDBRANCH  15  16
ENDBRANCH  13  15
ENDBRANCH   1  13
BRANCH   9  20
HETATM   20  O2  UNL     1      -2.704   1.085   0.348  1.00  0.00    -0.349 OA
BRANCH  20  21
HETATM   21  C11 UNL     1      -2.342   2.113   1.284  1.00  0.00     0.171 C 
HETATM   22  C12 UNL     1      -2.989   3.394   0.847  1.00  0.00     0.034 C 
ENDBRANCH  20  21
ENDBRANCH   9  20
TORSDOF 6
