REMARK  9 active torsions:
REMARK  status: ('A' for Active; 'I' for Inactive)
REMARK    1  A    between atoms: C2_2  and  O1_3 
REMARK    2  A    between atoms: O1_3  and  C3_4 
REMARK    3  A    between atoms: C9_12  and  N3_13 
REMARK    4  A    between atoms: N3_13  and  C10_14 
REMARK    5  A    between atoms: C17_23  and  N4_24 
REMARK    6  A    between atoms: N4_24  and  C18_25 
REMARK    7  A    between atoms: N4_24  and  O2_30 
REMARK    8  A    between atoms: C19_26  and  C20_27 
REMARK    9  A    between atoms: C20_27  and  N5_28 
ROOT
HETATM    1  C3  UNL     1       0.505   1.623   1.024  1.00  0.00     0.078 A 
HETATM    2  C4  UNL     1      -0.345   2.661   1.139  1.00  0.00     0.067 A 
HETATM    3  C5  UNL     1      -1.721   2.198   0.909  1.00  0.00     0.070 A 
HETATM    4  N1  UNL     1      -2.919   2.809   0.919  1.00  0.00    -0.259 NA
HETATM    5  C6  UNL     1      -4.084   2.180   0.698  1.00  0.00     0.142 A 
HETATM    6  C7  UNL     1      -4.000   0.828   0.448  1.00  0.00     0.089 A 
HETATM    7  C8  UNL     1      -5.280   0.176   0.213  1.00  0.00     0.103 C 
HETATM    8  N2  UNL     1      -6.292  -0.359   0.025  1.00  0.00    -0.191 NA
HETATM    9  C9  UNL     1      -2.804   0.136   0.420  1.00  0.00     0.066 A 
HETATM   10  C16 UNL     1      -1.637   0.845   0.657  1.00  0.00     0.030 A 
HETATM   11  C17 UNL     1      -0.261   0.374   0.694  1.00  0.00     0.208 A 
ENDROOT
BRANCH   9  12
HETATM   12  N3  UNL     1      -2.938  -1.248   0.167  1.00  0.00    -0.354 N 
HETATM   13  H8  UNL     1      -2.891  -1.539   1.174  1.00  0.00     0.166 HD
BRANCH  12  14
HETATM   14  C10 UNL     1      -3.094  -2.213  -0.863  1.00  0.00     0.034 A 
HETATM   15  C11 UNL     1      -3.034  -3.540  -0.501  1.00  0.00     0.032 A 
HETATM   16  C12 UNL     1      -3.196  -4.445  -1.509  1.00  0.00     0.046 A 
HETATM   17  C13 UNL     1      -3.407  -4.074  -2.816  1.00  0.00     0.138 A 
HETATM   18  F1  UNL     1      -3.557  -5.019  -3.781  1.00  0.00    -0.204 F 
HETATM   19  C14 UNL     1      -3.472  -2.756  -3.207  1.00  0.00     0.074 A 
HETATM   20 CL1  UNL     1      -3.736  -2.211  -4.847  1.00  0.00    -0.081 Cl
HETATM   21  C15 UNL     1      -3.307  -1.855  -2.176  1.00  0.00     0.056 A 
ENDBRANCH  12  14
ENDBRANCH   9  12
BRANCH  11  22
HETATM   22  N4  UNL     1       0.227  -0.240  -0.514  1.00  0.00    -0.255 N 
BRANCH  22  23
HETATM   23  C18 UNL     1       1.519  -0.809  -0.573  1.00  0.00     0.116 C 
HETATM   24  C19 UNL     1       2.820  -0.689  -0.689  1.00  0.00     0.022 C 
BRANCH  24  25
HETATM   25  C20 UNL     1       3.873   0.336  -0.861  1.00  0.00     0.298 C 
BRANCH  25  26
HETATM   26  N5  UNL     1       4.778   0.271   0.269  1.00  0.00     0.082 N 
HETATM   27  C21 UNL     1       5.504  -0.977   0.194  1.00  0.00     0.307 C 
HETATM   28  H17 UNL     1       5.435   1.085   0.290  1.00  0.00     0.315 HD
ENDBRANCH  25  26
ENDBRANCH  24  25
ENDBRANCH  22  23
BRANCH  22  29
HETATM   29  O2  UNL     1      -0.648  -0.193  -1.541  1.00  0.00    -0.282 OA
HETATM   30  C22 UNL     1      -0.361   0.832  -2.422  1.00  0.00     0.238 C 
ENDBRANCH  22  29
ENDBRANCH  11  22
BRANCH   1  31
HETATM   31  O1  UNL     1       1.864   1.818   1.204  1.00  0.00    -0.353 OA
BRANCH  31  32
HETATM   32  C2  UNL     1       2.334   2.727   2.180  1.00  0.00     0.171 C 
HETATM   33  C1  UNL     1       3.834   2.829   2.226  1.00  0.00     0.034 C 
ENDBRANCH  31  32
ENDBRANCH   1  31
TORSDOF 9
