REMARK  0 active torsions:
REMARK  status: ('A' for Active; 'I' for Inactive)
ROOT
HETATM    1  F1  UNL     1      -4.262   0.051  -2.219  1.00  0.00    -0.360 F 
HETATM    2  C1  UNL     1      -3.735   1.022  -1.383  1.00  0.00     0.084 A 
HETATM    3  C2  UNL     1      -3.510   2.077  -0.627  1.00  0.00     0.034 C 
HETATM    4  C3  UNL     1      -2.163   1.956  -0.152  1.00  0.00    -0.012 C 
HETATM    5  C4  UNL     1      -0.936   1.642   0.146  1.00  0.00     0.071 C 
HETATM    6  C5  UNL     1       0.035   0.552  -0.172  1.00  0.00     0.040 C 
HETATM    7  N1  UNL     1       0.527   0.786  -1.364  1.00  0.00    -0.292 NA
HETATM    8  C6  UNL     1       1.754   0.554  -2.095  1.00  0.00     0.166 C 
HETATM    9  C7  UNL     1       2.864   0.195  -1.231  1.00  0.00    -0.122 C 
HETATM   10  B1  UNL     1       4.075   1.831  -1.164  1.00  0.00     0.202 B 
HETATM   11  C8  UNL     1       4.050   1.923   0.864  1.00  0.00    -0.083 C 
HETATM   12  C9  UNL     1       3.296   0.952   1.377  1.00  0.00    -0.018 C 
HETATM   13  C10 UNL     1       3.141  -0.517   1.096  1.00  0.00     0.102 C 
HETATM   14  C11 UNL     1       3.552  -0.769  -0.353  1.00  0.00     0.048 C 
HETATM   15  N2  UNL     1       1.730  -0.899   1.136  1.00  0.00    -0.402 N 
HETATM   16  C12 UNL     1       0.330  -0.624   0.798  1.00  0.00     0.073 C 
HETATM   17  C13 UNL     1      -0.137  -1.659   1.641  1.00  0.00     0.204 C 
HETATM   18  N3  UNL     1      -1.552  -1.757   1.706  1.00  0.00    -0.412 N 
HETATM   19  C14 UNL     1      -2.801  -2.024   1.100  1.00  0.00     0.118 C 
HETATM   20  C15 UNL     1      -3.193  -1.058   0.012  1.00  0.00     0.030 C 
HETATM   21  C16 UNL     1      -3.596  -0.478  -1.193  1.00  0.00     0.223 A 
HETATM   22  H11 UNL     1       1.642  -1.801   1.650  1.00  0.00     0.154 HD
HETATM   23  H13 UNL     1      -1.665  -1.505   2.747  1.00  0.00     0.153 HD
ENDROOT
TORSDOF 0
