REMARK  7 active torsions:
REMARK  status: ('A' for Active; 'I' for Inactive)
REMARK    1  A    between atoms: N1_2  and  C3_4 
REMARK    2  A    between atoms: C3_4  and  C4_5 
REMARK    3  A    between atoms: C4_5  and  C5_6 
REMARK    4  A    between atoms: C5_6  and  C6_7 
REMARK       I    between atoms: C6_7  and  N2_9 
REMARK    5  A    between atoms: N2_9  and  C7_10 
REMARK    6  A    between atoms: C14_18  and  N4_19 
REMARK    7  A    between atoms: N4_19  and  C15_20 
ROOT
HETATM    1  C7  UNL     1      -0.570  -0.294  -0.060  1.00  0.00     0.036 C 
HETATM    2  C8  UNL     1       0.324   0.338   0.227  1.00  0.00     0.042 C 
HETATM    3  C9  UNL     1       1.240   1.601   0.488  1.00  0.00     0.009 C 
HETATM    4  C10 UNL     1       0.711   2.692   1.066  1.00  0.00     0.001 C 
HETATM    5  C11 UNL     1       0.989   3.720   0.236  1.00  0.00     0.006 C 
HETATM    6  C12 UNL     1       2.280   3.705  -0.145  1.00  0.00     0.130 C 
HETATM    7  N3  UNL     1       3.105   2.511  -0.360  1.00  0.00    -0.257 NA
HETATM    8  C13 UNL     1       2.668   1.388  -0.046  1.00  0.00     0.094 C 
HETATM    9  C14 UNL     1       2.561   0.036   0.015  1.00  0.00     0.060 C 
HETATM   10  C21 UNL     1       2.643  -1.289   0.127  1.00  0.00     0.031 C 
HETATM   11  C22 UNL     1       1.858  -2.569  -0.056  1.00  0.00     0.197 C 
HETATM   12  O2  UNL     1       0.667  -2.264  -0.494  1.00  0.00    -0.382 OA
HETATM   13  C23 UNL     1      -0.494  -1.764  -0.476  1.00  0.00     0.225 C 
ENDROOT
BRANCH   1  14
HETATM   14  N2  UNL     1      -1.512   0.716  -0.450  1.00  0.00    -0.325 N 
HETATM   15  C6  UNL     1      -2.763   0.216  -0.130  1.00  0.00     0.245 C 
HETATM   16  O1  UNL     1      -3.201  -0.844   0.391  1.00  0.00    -0.268 OA
HETATM   17  H11 UNL     1      -1.338   1.749  -0.801  1.00  0.00     0.169 HD
BRANCH  15  18
HETATM   18  C5  UNL     1      -3.846   1.179  -0.440  1.00  0.00     0.072 C 
BRANCH  18  19
HETATM   19  C4  UNL     1      -4.991   0.769   0.091  1.00  0.00     0.008 C 
BRANCH  19  20
HETATM   20  C3  UNL     1      -6.106   0.173   0.727  1.00  0.00     0.299 C 
BRANCH  20  21
HETATM   21  N1  UNL     1      -7.284  -0.193   0.042  1.00  0.00     0.083 N 
HETATM   22  C1  UNL     1      -7.257  -1.448  -0.633  1.00  0.00     0.309 C 
HETATM   23  C2  UNL     1      -7.744   0.961  -0.762  1.00  0.00     0.309 C 
ENDBRANCH  20  21
ENDBRANCH  19  20
ENDBRANCH  18  19
ENDBRANCH  15  18
ENDBRANCH   1  14
BRANCH   9  24
HETATM   24  N4  UNL     1       3.959  -0.158  -0.375  1.00  0.00    -0.354 N 
HETATM   25  H14 UNL     1       4.272  -0.241  -1.451  1.00  0.00     0.166 HD
BRANCH  24  26
HETATM   26  C15 UNL     1       5.321  -0.288  -0.063  1.00  0.00     0.034 A 
HETATM   27  C16 UNL     1       5.932  -1.624   0.158  1.00  0.00     0.032 A 
HETATM   28  C17 UNL     1       7.254  -1.792   0.485  1.00  0.00     0.046 A 
HETATM   29  C18 UNL     1       8.034  -0.647   0.605  1.00  0.00     0.138 A 
HETATM   30  F1  UNL     1       9.339  -0.749   0.869  1.00  0.00    -0.204 F 
HETATM   31  C19 UNL     1       7.522   0.650   0.406  1.00  0.00     0.074 A 
HETATM   32 CL1  UNL     1       8.489   2.121   0.496  1.00  0.00    -0.081 Cl
HETATM   33  C20 UNL     1       6.145   0.873   0.070  1.00  0.00     0.056 A 
ENDBRANCH  24  26
ENDBRANCH   9  24
TORSDOF 7
