REMARK  8 active torsions:
REMARK  status: ('A' for Active; 'I' for Inactive)
REMARK    1  A    between atoms: C2_2  and  O1_3 
REMARK    2  A    between atoms: O1_3  and  C3_4 
REMARK    3  A    between atoms: C4_5  and  N1_6 
REMARK       I    between atoms: N1_6  and  C5_7 
REMARK    4  A    between atoms: C5_7  and  C6_9 
REMARK    5  A    between atoms: C7_10  and  C8_11 
REMARK    6  A    between atoms: C8_11  and  N2_12 
REMARK    7  A    between atoms: C11_15  and  N3_16 
REMARK    8  A    between atoms: N5_24  and  C18_25 
ROOT
HETATM    1  C3  UNL     1      -0.976   1.289  -0.218  1.00  0.00     0.184 C 
HETATM    2  C4  UNL     1      -0.338  -0.113   0.251  1.00  0.00     0.071 C 
HETATM    3  C11 UNL     1      -1.542  -0.803   0.205  1.00  0.00     0.078 C 
HETATM    4  C12 UNL     1      -2.423  -0.022   1.266  1.00  0.00     0.066 C 
HETATM    5  C13 UNL     1      -1.691   0.903   1.860  1.00  0.00     0.017 C 
HETATM    6  C14 UNL     1      -1.900   1.842   0.746  1.00  0.00     0.071 C 
HETATM    7  C15 UNL     1      -3.407   1.923   0.757  1.00  0.00     0.026 C 
HETATM    8  C16 UNL     1      -4.274   1.010   0.218  1.00  0.00     0.118 C 
HETATM    9  C17 UNL     1      -5.514   1.320  -0.415  1.00  0.00     0.118 C 
HETATM   10  N4  UNL     1      -6.502   1.546  -0.917  1.00  0.00    -0.190 NA
HETATM   11  N5  UNL     1      -3.648  -0.331   0.478  1.00  0.00    -0.301 N 
ENDROOT
BRANCH  11  12
HETATM   12  C18 UNL     1      -4.321  -1.382  -0.089  1.00  0.00     0.042 A 
HETATM   13  C19 UNL     1      -4.301  -1.774  -1.387  1.00  0.00     0.033 A 
HETATM   14  C20 UNL     1      -5.020  -2.869  -1.732  1.00  0.00     0.046 A 
HETATM   15  C21 UNL     1      -5.743  -3.559  -0.815  1.00  0.00     0.138 A 
HETATM   16  F1  UNL     1      -6.435  -4.643  -1.236  1.00  0.00    -0.204 F 
HETATM   17  C22 UNL     1      -5.809  -3.213   0.529  1.00  0.00     0.074 A 
HETATM   18 CL1  UNL     1      -6.753  -4.129   1.684  1.00  0.00    -0.081 Cl
HETATM   19  C23 UNL     1      -5.068  -2.091   0.868  1.00  0.00     0.057 A 
ENDBRANCH  11  12
BRANCH   1  20
HETATM   20  O1  UNL     1       0.209   2.093  -0.093  1.00  0.00    -0.379 OA
BRANCH  20  21
HETATM   21  C2  UNL     1       0.578   2.581  -1.342  1.00  0.00     0.164 C 
HETATM   22  C1  UNL     1      -0.559   3.420  -1.877  1.00  0.00     0.033 C 
ENDBRANCH  20  21
ENDBRANCH   1  20
BRANCH   3  23
HETATM   23  N3  UNL     1      -1.694  -2.052  -0.546  1.00  0.00    -0.396 N 
HETATM   24  H18 UNL     1      -2.073  -2.659   0.241  1.00  0.00     0.156 HD
HETATM   25  H19 UNL     1      -1.516  -2.322  -1.508  1.00  0.00     0.156 HD
ENDBRANCH   3  23
BRANCH   2  26
HETATM   26  N1  UNL     1       0.836  -0.856   0.579  1.00  0.00    -0.323 N 
HETATM   27  C5  UNL     1       2.153  -0.427   0.703  1.00  0.00     0.245 C 
HETATM   28  O2  UNL     1       2.392   0.775   0.513  1.00  0.00    -0.268 OA
HETATM   29  H7  UNL     1       0.760  -1.878   0.742  1.00  0.00     0.169 HD
BRANCH  27  30
HETATM   30  C6  UNL     1       3.263  -1.282   1.038  1.00  0.00     0.072 C 
HETATM   31  C7  UNL     1       4.508  -0.872   1.153  1.00  0.00     0.008 C 
BRANCH  31  32
HETATM   32  C8  UNL     1       5.303   0.365   1.042  1.00  0.00     0.299 C 
BRANCH  32  33
HETATM   33  N2  UNL     1       6.329   0.225   0.009  1.00  0.00     0.083 N 
HETATM   34  C9  UNL     1       7.074   1.488  -0.043  1.00  0.00     0.309 C 
HETATM   35  C10 UNL     1       7.217  -0.873   0.338  1.00  0.00     0.309 C 
ENDBRANCH  32  33
ENDBRANCH  31  32
ENDBRANCH  27  30
ENDBRANCH   2  26
TORSDOF 8
