REMARK  4 active torsions:
REMARK  status: ('A' for Active; 'I' for Inactive)
REMARK    1  A    between atoms: C4_4  and  N1_5 
REMARK    2  A    between atoms: N1_5  and  C5_6 
REMARK    3  A    between atoms: C10_11  and  O1_12 
REMARK    4  A    between atoms: O1_12  and  C11_13 
ROOT
HETATM    1  C11 UNL     1      -3.692  -4.382  -0.211  1.00  0.00     0.292 C 
HETATM    2  C12 UNL     1      -3.872  -5.521  -1.111  1.00  0.00     0.085 C 
HETATM    3  N2  UNL     1      -4.003  -6.411  -1.825  1.00  0.00    -0.195 NA
ENDROOT
BRANCH   1   4
HETATM    4  O1  UNL     1      -3.072  -3.319  -0.918  1.00  0.00    -0.361 OA
BRANCH   4   5
HETATM    5  C10 UNL     1      -2.717  -2.185  -0.219  1.00  0.00     0.127 C 
HETATM    6  C9  UNL     1      -1.442  -2.742   0.082  1.00  0.00     0.081 C 
HETATM    7  C8  UNL     1      -0.498  -1.820   0.925  1.00  0.00    -0.020 C 
HETATM    8  C7  UNL     1      -0.453  -0.881   1.996  1.00  0.00    -0.010 C 
HETATM    9  C20 UNL     1       0.949  -1.743   0.437  1.00  0.00     0.067 C 
HETATM   10  C6  UNL     1       0.425   0.123   1.403  1.00  0.00    -0.021 C 
HETATM   11  C5  UNL     1       0.863  -0.218   0.164  1.00  0.00     0.018 C 
HETATM   12  C19 UNL     1       0.775   1.487   1.953  1.00  0.00     0.163 C 
HETATM   13  N4  UNL     1      -0.209   2.446   1.496  1.00  0.00    -0.353 N 
HETATM   14  C18 UNL     1      -1.186   3.425   1.043  1.00  0.00     0.241 C 
HETATM   15  H19 UNL     1       0.434   3.160   1.985  1.00  0.00     0.163 HD
HETATM   16  C17 UNL     1      -2.492   3.398   0.400  1.00  0.00     0.072 C 
HETATM   17  O2  UNL     1      -0.753   4.586   1.278  1.00  0.00    -0.269 OA
HETATM   18  C16 UNL     1      -3.574   2.694  -0.019  1.00  0.00     0.008 C 
HETATM   19  C15 UNL     1      -3.421   1.368   0.309  1.00  0.00     0.299 C 
HETATM   20  N3  UNL     1      -3.361   0.238  -0.676  1.00  0.00     0.090 NA
HETATM   21  C13 UNL     1      -3.107  -0.888   0.234  1.00  0.00     0.314 C 
HETATM   22  C14 UNL     1      -2.096   0.508  -1.423  1.00  0.00     0.310 C 
BRANCH  11  23
HETATM   23  N1  UNL     1       1.210   0.382  -1.073  1.00  0.00    -0.359 N 
HETATM   24  H5  UNL     1       0.691   0.710  -1.916  1.00  0.00     0.166 HD
BRANCH  23  25
HETATM   25  C4  UNL     1       2.613   0.602  -1.239  1.00  0.00     0.032 A 
HETATM   26  C3  UNL     1       3.527   0.269  -0.238  1.00  0.00     0.038 A 
HETATM   27  C2  UNL     1       4.891   0.453  -0.346  1.00  0.00    -0.038 A 
HETATM   28  C1  UNL     1       5.810   0.069   0.775  1.00  0.00     0.050 C 
HETATM   29  C23 UNL     1       5.398   0.998  -1.504  1.00  0.00     0.040 A 
HETATM   30  C22 UNL     1       4.563   1.348  -2.526  1.00  0.00     0.026 A 
HETATM   31 CL1  UNL     1       7.117   1.271  -1.731  1.00  0.00    -0.084 Cl
HETATM   32  C21 UNL     1       3.216   1.133  -2.344  1.00  0.00     0.031 A 
ENDBRANCH  23  25
ENDBRANCH  11  23
ENDBRANCH   4   5
ENDBRANCH   1   4
TORSDOF 4
