REMARK  6 active torsions:
REMARK  status: ('A' for Active; 'I' for Inactive)
REMARK    1  A    between atoms: C2_2  and  O1_3 
REMARK    2  A    between atoms: O1_3  and  C3_4 
REMARK    3  A    between atoms: C7_8  and  C8_9 
REMARK    4  A    between atoms: C7_8  and  N3_14 
REMARK    5  A    between atoms: C8_9  and  C9_10 
REMARK    6  A    between atoms: C9_10  and  N1_11 
ROOT
HETATM    1  C8  UNL     1      -1.299  -2.276   0.630  1.00  0.00     0.135 C 
HETATM    2  C10 UNL     1      -1.387  -3.627   0.165  1.00  0.00     0.112 C 
HETATM    3  N2  UNL     1      -1.468  -4.712  -0.219  1.00  0.00    -0.191 NA
ENDROOT
BRANCH   1   4
HETATM    4  C7  UNL     1      -1.426  -1.087  -0.186  1.00  0.00     0.069 C 
HETATM    5  C6  UNL     1      -0.699  -0.262  -0.864  1.00  0.00    -0.030 C 
HETATM    6  C5  UNL     1       0.716  -0.105  -1.168  1.00  0.00     0.068 C 
HETATM    7  C16 UNL     1      -1.398   0.908  -1.562  1.00  0.00     0.153 C 
HETATM    8  C4  UNL     1       1.774  -0.973  -0.713  1.00  0.00     0.011 C 
HETATM    9  C3  UNL     1       2.945  -0.528  -0.173  1.00  0.00     0.060 C 
HETATM   10  C22 UNL     1       3.834   0.557   0.257  1.00  0.00     0.187 C 
HETATM   11  N5  UNL     1       3.422   1.916   0.115  1.00  0.00    -0.351 N 
HETATM   12  C21 UNL     1       3.049   3.326  -0.004  1.00  0.00     0.241 C 
HETATM   13  H23 UNL     1       2.599   1.765  -0.439  1.00  0.00     0.163 HD
HETATM   14  C20 UNL     1       1.868   4.063  -0.557  1.00  0.00     0.071 C 
HETATM   15  O2  UNL     1       4.163   3.386   0.574  1.00  0.00    -0.269 OA
HETATM   16  C19 UNL     1       0.700   4.079  -1.209  1.00  0.00    -0.002 C 
HETATM   17  C18 UNL     1       0.193   2.777  -1.707  1.00  0.00     0.144 C 
HETATM   18  N4  UNL     1      -0.916   2.186  -1.145  1.00  0.00    -0.410 N 
HETATM   19  C17 UNL     1      -1.188   2.577   0.184  1.00  0.00     0.143 C 
BRANCH   9  20
HETATM   20  O1  UNL     1       3.641  -1.735   0.111  1.00  0.00    -0.354 OA
BRANCH  20  21
HETATM   21  C2  UNL     1       3.754  -2.290   1.380  1.00  0.00     0.171 C 
HETATM   22  C1  UNL     1       4.613  -3.527   1.428  1.00  0.00     0.034 C 
ENDBRANCH  20  21
ENDBRANCH   9  20
BRANCH   4  23
HETATM   23  N3  UNL     1      -2.835  -0.938  -0.092  1.00  0.00    -0.349 N 
HETATM   24  C11 UNL     1      -3.348  -0.101   0.935  1.00  0.00     0.118 A 
HETATM   25  C12 UNL     1      -4.661   0.036   1.002  1.00  0.00     0.087 A 
HETATM   26 CL1  UNL     1      -5.344   1.058   2.251  1.00  0.00    -0.080 Cl
HETATM   27  C13 UNL     1      -5.594  -0.619   0.095  1.00  0.00     0.137 A 
HETATM   28  F1  UNL     1      -6.931  -0.471   0.175  1.00  0.00    -0.205 F 
HETATM   29  C14 UNL     1      -5.047  -1.392  -0.839  1.00  0.00     0.037 A 
HETATM   30  C15 UNL     1      -3.608  -1.670  -1.074  1.00  0.00     0.159 A 
ENDBRANCH   4  23
ENDBRANCH   1   4
BRANCH   1  31
HETATM   31  C9  UNL     1      -1.084  -2.053   1.917  1.00  0.00     0.000 C 
BRANCH  31  32
HETATM   32  N1  UNL     1      -1.236  -1.898   3.188  1.00  0.00    -0.257 NA
HETATM   33  H9  UNL     1      -2.220  -1.881   3.583  1.00  0.00     0.197 HD
ENDBRANCH  31  32
ENDBRANCH   1  31
TORSDOF 6
