REMARK  8 active torsions:
REMARK  status: ('A' for Active; 'I' for Inactive)
REMARK    1  A    between atoms: O1_2  and  C2_3 
REMARK    2  A    between atoms: C6_8  and  C7_9 
REMARK    3  A    between atoms: C9_12  and  N3_13 
REMARK    4  A    between atoms: N3_13  and  C10_14 
REMARK    5  A    between atoms: C18_24  and  N4_25 
REMARK       I    between atoms: N4_25  and  C19_26 
REMARK    6  A    between atoms: C19_26  and  C20_28 
REMARK    7  A    between atoms: C21_29  and  C22_30 
REMARK    8  A    between atoms: C22_30  and  N5_31 
ROOT
HETATM    1  C7  UNL     1      -4.859  -1.290  -0.584  1.00  0.00     0.166 C 
HETATM    2  C8  UNL     1      -4.691  -1.340  -2.057  1.00  0.00     0.063 C 
HETATM    3  N2  UNL     1      -4.567  -1.387  -3.205  1.00  0.00    -0.197 NA
ENDROOT
BRANCH   1   4
HETATM    4  C6  UNL     1      -3.596  -1.641   0.100  1.00  0.00     0.000 A 
HETATM    5  C5  UNL     1      -3.461  -2.889   0.666  1.00  0.00     0.127 A 
HETATM    6  N1  UNL     1      -2.311  -3.203   1.286  1.00  0.00    -0.260 NA
HETATM    7  C4  UNL     1      -1.295  -2.325   1.362  1.00  0.00     0.071 A 
HETATM    8  C3  UNL     1      -0.118  -2.825   2.071  1.00  0.00     0.065 C 
HETATM    9  C16 UNL     1      -1.425  -1.058   0.790  1.00  0.00     0.022 A 
HETATM   10  C2  UNL     1       0.937  -2.169   2.588  1.00  0.00     0.053 C 
HETATM   11  C23 UNL     1       1.226  -0.738   2.596  1.00  0.00     0.121 C 
HETATM   12  C18 UNL     1       0.627   0.077   1.550  1.00  0.00     0.019 C 
HETATM   13  C17 UNL     1      -0.440   0.018   0.774  1.00  0.00     0.041 C 
HETATM   14  C9  UNL     1      -2.605  -0.684   0.133  1.00  0.00     0.054 A 
BRANCH  10  15
HETATM   15  O1  UNL     1       1.899  -2.958   3.207  1.00  0.00    -0.360 OA
HETATM   16  C1  UNL     1       1.645  -4.337   3.384  1.00  0.00     0.209 C 
ENDBRANCH  10  15
BRANCH  12  17
HETATM   17  N4  UNL     1       1.354   1.263   1.257  1.00  0.00    -0.327 N 
HETATM   18  C19 UNL     1       2.707   1.324   0.786  1.00  0.00     0.245 C 
HETATM   19  O2  UNL     1       3.176   0.190   0.660  1.00  0.00    -0.268 OA
HETATM   20  H13 UNL     1       0.774   2.140   1.429  1.00  0.00     0.169 HD
BRANCH  18  21
HETATM   21  C20 UNL     1       3.327   2.605   0.529  1.00  0.00     0.072 C 
HETATM   22  C21 UNL     1       4.568   2.726   0.094  1.00  0.00     0.008 C 
BRANCH  22  23
HETATM   23  C22 UNL     1       5.632   1.762  -0.243  1.00  0.00     0.294 C 
BRANCH  23  24
HETATM   24  N5  UNL     1       6.033   1.916  -1.644  1.00  0.00     0.081 N 
HETATM   25  H18 UNL     1       7.052   2.129  -1.707  1.00  0.00     0.313 HD
HETATM   26  H19 UNL     1       5.465   2.700  -2.056  1.00  0.00     0.313 HD
ENDBRANCH  23  24
ENDBRANCH  22  23
ENDBRANCH  18  21
ENDBRANCH  12  17
BRANCH  14  27
HETATM   27  N3  UNL     1      -2.675   0.617  -0.426  1.00  0.00    -0.355 N 
HETATM   28  H8  UNL     1      -3.052   1.080   0.429  1.00  0.00     0.166 HD
BRANCH  27  29
HETATM   29  C10 UNL     1      -2.387   1.227  -1.651  1.00  0.00     0.034 A 
HETATM   30  C11 UNL     1      -1.893   0.479  -2.697  1.00  0.00     0.032 A 
HETATM   31  C12 UNL     1      -1.634   1.155  -3.872  1.00  0.00     0.046 A 
HETATM   32  C13 UNL     1      -1.851   2.528  -4.025  1.00  0.00     0.138 A 
HETATM   33  F1  UNL     1      -1.604   3.207  -5.162  1.00  0.00    -0.204 F 
HETATM   34  C14 UNL     1      -2.349   3.201  -2.921  1.00  0.00     0.074 A 
HETATM   35 CL1  UNL     1      -2.633   4.940  -3.085  1.00  0.00    -0.081 Cl
HETATM   36  C15 UNL     1      -2.632   2.580  -1.707  1.00  0.00     0.056 A 
ENDBRANCH  27  29
ENDBRANCH  14  27
ENDBRANCH   1   4
TORSDOF 8
