REMARK  9 active torsions:
REMARK  status: ('A' for Active; 'I' for Inactive)
REMARK    1  A    between atoms: C2_2  and  O1_3 
REMARK    2  A    between atoms: O1_3  and  C3_4 
REMARK    3  A    between atoms: C4_5  and  S1_6 
REMARK    4  A    between atoms: S1_6  and  C5_7 
REMARK    5  A    between atoms: C5_7  and  C6_9 
REMARK    6  A    between atoms: C7_10  and  C8_11 
REMARK    7  A    between atoms: C8_11  and  N1_12 
REMARK    8  A    between atoms: C11_15  and  N2_16 
REMARK    9  A    between atoms: N4_24  and  C18_25 
ROOT
HETATM    1  C3  UNL     1      -1.018  -1.086  -0.781  1.00  0.00     0.175 C 
HETATM    2  C4  UNL     1      -0.521   0.002   0.337  1.00  0.00     0.044 C 
HETATM    3  C11 UNL     1      -1.760   0.613   0.544  1.00  0.00     0.069 C 
HETATM    4  C12 UNL     1      -2.566  -0.632   1.068  1.00  0.00     0.065 C 
HETATM    5  C13 UNL     1      -1.787  -1.691   1.201  1.00  0.00     0.017 C 
HETATM    6  C14 UNL     1      -1.930  -2.045  -0.225  1.00  0.00     0.070 C 
HETATM    7  C15 UNL     1      -3.419  -2.208  -0.288  1.00  0.00     0.026 C 
HETATM    8  C16 UNL     1      -4.344  -1.212  -0.397  1.00  0.00     0.118 C 
HETATM    9  C17 UNL     1      -5.555  -1.288  -1.146  1.00  0.00     0.118 C 
HETATM   10  N3  UNL     1      -6.507  -1.331  -1.723  1.00  0.00    -0.190 NA
HETATM   11  N4  UNL     1      -3.816  -0.093   0.449  1.00  0.00    -0.301 N 
ENDROOT
BRANCH  11  12
HETATM   12  C18 UNL     1      -4.553   1.061   0.395  1.00  0.00     0.042 A 
HETATM   13  C19 UNL     1      -5.378   1.195   1.522  1.00  0.00     0.033 A 
HETATM   14  C20 UNL     1      -6.239   2.293   1.654  1.00  0.00     0.046 A 
HETATM   15  C21 UNL     1      -6.192   3.187   0.606  1.00  0.00     0.138 A 
HETATM   16  F1  UNL     1      -6.991   4.272   0.659  1.00  0.00    -0.204 F 
HETATM   17  C22 UNL     1      -5.385   3.059  -0.501  1.00  0.00     0.074 A 
HETATM   18 CL1  UNL     1      -5.419   4.270  -1.769  1.00  0.00    -0.081 Cl
HETATM   19  C23 UNL     1      -4.550   1.970  -0.603  1.00  0.00     0.057 A 
ENDBRANCH  11  12
BRANCH   1  20
HETATM   20  O1  UNL     1      -1.110  -0.478  -1.927  1.00  0.00    -0.380 OA
BRANCH  20  21
HETATM   21  C2  UNL     1      -0.198  -0.461  -2.904  1.00  0.00     0.164 C 
HETATM   22  C1  UNL     1       1.150   0.097  -2.671  1.00  0.00     0.033 C 
ENDBRANCH  20  21
ENDBRANCH   1  20
BRANCH   3  23
HETATM   23  N2  UNL     1      -2.005   2.049   0.440  1.00  0.00    -0.396 N 
HETATM   24  H17 UNL     1      -2.454   2.192   1.388  1.00  0.00     0.156 HD
HETATM   25  H18 UNL     1      -1.807   2.699  -0.306  1.00  0.00     0.156 HD
ENDBRANCH   3  23
BRANCH   2  26
HETATM   26  S1  UNL     1       0.817   0.767   1.323  1.00  0.00    -0.048 SA
BRANCH  26  27
HETATM   27  C5  UNL     1       2.328  -0.052   0.899  1.00  0.00     0.213 C 
HETATM   28  O2  UNL     1       2.356  -1.013   0.095  1.00  0.00    -0.280 OA
BRANCH  27  29
HETATM   29  C6  UNL     1       3.531   0.459   1.543  1.00  0.00     0.060 C 
HETATM   30  C7  UNL     1       4.717  -0.068   1.305  1.00  0.00     0.007 C 
BRANCH  30  31
HETATM   31  C8  UNL     1       5.364  -1.136   0.516  1.00  0.00     0.299 C 
BRANCH  31  32
HETATM   32  N1  UNL     1       6.366  -0.643  -0.412  1.00  0.00     0.083 N 
HETATM   33  C9  UNL     1       6.927  -1.759  -1.120  1.00  0.00     0.309 C 
HETATM   34  C10 UNL     1       7.376   0.054   0.386  1.00  0.00     0.309 C 
ENDBRANCH  31  32
ENDBRANCH  30  31
ENDBRANCH  27  29
ENDBRANCH  26  27
ENDBRANCH   2  26
TORSDOF 9
