REMARK  6 active torsions:
REMARK  status: ('A' for Active; 'I' for Inactive)
REMARK    1  A    between atoms: N1_2  and  C2_3 
REMARK    2  A    between atoms: N1_2  and  C21_28 
REMARK    3  A    between atoms: C3_4  and  C4_5 
REMARK    4  A    between atoms: C5_6  and  C6_7 
REMARK    5  A    between atoms: C6_7  and  N2_8 
REMARK    6  A    between atoms: N2_8  and  C7_9 
ROOT
HETATM    1  C7  UNL     1      -1.650   0.050  -0.058  1.00  0.00     0.041 C 
HETATM    2  C8  UNL     1      -1.982  -1.226  -0.121  1.00  0.00     0.045 C 
HETATM    3  C9  UNL     1      -3.282  -1.871   0.128  1.00  0.00     0.012 A 
HETATM    4  C10 UNL     1      -3.390  -3.180  -0.230  1.00  0.00     0.130 A 
HETATM    5  N3  UNL     1      -4.552  -3.841  -0.034  1.00  0.00    -0.271 NA
HETATM    6  C11 UNL     1      -5.641  -3.254   0.515  1.00  0.00     0.141 A 
HETATM    7  C12 UNL     1      -5.586  -1.921   0.899  1.00  0.00     0.089 A 
HETATM    8  C13 UNL     1      -6.723  -1.267   1.485  1.00  0.00     0.103 C 
HETATM    9  N4  UNL     1      -7.645  -0.759   1.961  1.00  0.00    -0.191 NA
HETATM   10  C14 UNL     1      -4.395  -1.256   0.693  1.00  0.00     0.067 A 
HETATM   11  N5  UNL     1      -4.536   0.088   1.148  1.00  0.00    -0.353 N 
HETATM   12  C15 UNL     1      -3.775   1.243   0.817  1.00  0.00     0.047 A 
HETATM   13  C16 UNL     1      -4.406   2.442   1.067  1.00  0.00     0.057 A 
HETATM   14  C17 UNL     1      -3.733   3.609   0.772  1.00  0.00     0.074 A 
HETATM   15 CL1  UNL     1      -4.555   5.128   1.099  1.00  0.00    -0.081 Cl
HETATM   16  C18 UNL     1      -2.449   3.567   0.236  1.00  0.00     0.139 A 
HETATM   17  F1  UNL     1      -1.803   4.731  -0.047  1.00  0.00    -0.204 F 
HETATM   18  C19 UNL     1      -1.802   2.359  -0.021  1.00  0.00     0.060 A 
HETATM   19  C20 UNL     1      -2.487   1.199   0.279  1.00  0.00     0.020 A 
HETATM   20  H14 UNL     1      -5.307   0.278   1.826  1.00  0.00     0.166 HD
ENDROOT
BRANCH   1  21
HETATM   21  N2  UNL     1      -0.291   0.246  -0.372  1.00  0.00    -0.386 N 
HETATM   22  H10 UNL     1       0.048   0.466   0.610  1.00  0.00     0.160 HD
BRANCH  21  23
HETATM   23  C6  UNL     1       0.558   0.211  -1.543  1.00  0.00     0.147 C 
BRANCH  23  24
HETATM   24  C5  UNL     1       1.927   0.536  -1.065  1.00  0.00    -0.007 C 
HETATM   25  C4  UNL     1       2.935  -0.302  -1.210  1.00  0.00    -0.001 C 
BRANCH  25  26
HETATM   26  C3  UNL     1       4.289  -0.008  -0.750  1.00  0.00     0.017 C 
HETATM   27  C2  UNL     1       5.327  -0.819  -0.876  1.00  0.00     0.087 C 
BRANCH  27  28
HETATM   28  N1  UNL     1       6.611  -0.435  -0.391  1.00  0.00    -0.369 N 
HETATM   29  C1  UNL     1       7.863  -0.074  -1.031  1.00  0.00     0.151 C 
BRANCH  28  30
HETATM   30  C21 UNL     1       6.775  -0.368   1.047  1.00  0.00     0.347 C 
HETATM   31  F2  UNL     1       7.132   0.934   1.411  1.00  0.00    -0.234 F 
ENDBRANCH  28  30
ENDBRANCH  27  28
ENDBRANCH  25  26
ENDBRANCH  23  24
ENDBRANCH  21  23
ENDBRANCH   1  21
TORSDOF 6
