REMARK  5 active torsions:
REMARK  status: ('A' for Active; 'I' for Inactive)
REMARK    1  A    between atoms: C14_19  and  N4_20 
REMARK       I    between atoms: N4_20  and  C15_21 
REMARK    2  A    between atoms: C15_21  and  C16_23 
REMARK    3  A    between atoms: C17_24  and  C18_25 
REMARK    4  A    between atoms: N5_27  and  C20_28 
REMARK    5  A    between atoms: C20_28  and  C21_29 
ROOT
HETATM    1  N1  UNL     1      -7.266  -0.232  -2.688  1.00  0.00    -0.191 NA
HETATM    2  C1  UNL     1      -6.160  -0.536  -2.795  1.00  0.00     0.102 C 
HETATM    3  C2  UNL     1      -4.797  -0.921  -2.904  1.00  0.00     0.074 A 
HETATM    4  C3  UNL     1      -4.429  -1.898  -3.801  1.00  0.00     0.139 A 
HETATM    5  N2  UNL     1      -3.177  -2.365  -3.922  1.00  0.00    -0.271 NA
HETATM    6  C4  UNL     1      -2.125  -1.955  -3.199  1.00  0.00     0.128 A 
HETATM    7  C5  UNL     1      -2.412  -0.992  -2.294  1.00  0.00    -0.004 A 
HETATM    8  C6  UNL     1      -3.722  -0.505  -2.173  1.00  0.00     0.010 A 
HETATM    9  C7  UNL     1      -4.208   0.551  -1.296  1.00  0.00     0.007 A 
HETATM   10  C8  UNL     1      -4.896   1.354  -2.172  1.00  0.00     0.041 A 
HETATM   11  C9  UNL     1      -5.476   2.441  -1.563  1.00  0.00     0.073 A 
HETATM   12 CL1  UNL     1      -6.424   3.640  -2.450  1.00  0.00    -0.081 Cl
HETATM   13  C10 UNL     1      -5.350   2.667  -0.190  1.00  0.00     0.140 A 
HETATM   14  F1  UNL     1      -5.937   3.757   0.398  1.00  0.00    -0.204 F 
HETATM   15  C11 UNL     1      -4.649   1.834   0.636  1.00  0.00     0.076 A 
HETATM   16  C12 UNL     1      -4.058   0.739   0.058  1.00  0.00     0.070 A 
HETATM   17  N3  UNL     1      -3.298  -0.030   1.033  1.00  0.00    -0.258 NA
HETATM   18  C13 UNL     1      -2.081  -0.535   0.882  1.00  0.00     0.147 C 
HETATM   19  C14 UNL     1      -1.116  -0.523  -0.215  1.00  0.00     0.053 C 
HETATM   20  C22 UNL     1      -1.165  -0.702  -1.552  1.00  0.00     0.044 C 
ENDROOT
BRANCH  19  21
HETATM   21  N4  UNL     1       0.242  -0.279   0.108  1.00  0.00    -0.322 N 
HETATM   22  C15 UNL     1       1.058  -1.052   0.973  1.00  0.00     0.245 C 
HETATM   23  O1  UNL     1       0.488  -2.044   1.486  1.00  0.00    -0.268 OA
HETATM   24  H6  UNL     1       0.622   0.558  -0.363  1.00  0.00     0.169 HD
BRANCH  22  25
HETATM   25  C16 UNL     1       2.450  -0.737   1.256  1.00  0.00     0.077 C 
HETATM   26  C17 UNL     1       3.061   0.301   0.724  1.00  0.00     0.040 C 
BRANCH  26  27
HETATM   27  C18 UNL     1       4.471   0.562   1.054  1.00  0.00     0.091 A 
HETATM   28  C19 UNL     1       5.263  -0.198   1.903  1.00  0.00     0.141 A 
HETATM   29  N5  UNL     1       6.487   0.399   1.917  1.00  0.00    -0.281 N 
HETATM   30  N6  UNL     1       6.456   1.460   1.130  1.00  0.00     0.005 NA
HETATM   31  N7  UNL     1       5.236   1.577   0.594  1.00  0.00    -0.159 NA
BRANCH  29  32
HETATM   32  C20 UNL     1       7.656  -0.049   2.676  1.00  0.00     0.177 C 
BRANCH  32  33
HETATM   33  C21 UNL     1       7.633   0.623   4.055  1.00  0.00     0.243 C 
HETATM   34  F2  UNL     1       6.489   0.268   4.709  1.00  0.00    -0.254 F 
ENDBRANCH  32  33
ENDBRANCH  29  32
ENDBRANCH  26  27
ENDBRANCH  22  25
ENDBRANCH  19  21
TORSDOF 5
