REMARK  3 active torsions:
REMARK  status: ('A' for Active; 'I' for Inactive)
REMARK    1  A    between atoms: C6_7  and  N2_8 
REMARK    2  A    between atoms: N5_16  and  C12_17 
REMARK    3  A    between atoms: C12_17  and  C13_18 
ROOT
HETATM    1  N1  UNL     1       6.910   2.047   2.066  1.00  0.00    -0.096 N 
HETATM    2  C1  UNL     1       6.086   1.509   1.099  1.00  0.00     0.018 C 
HETATM    3  C2  UNL     1       5.374   1.019   0.276  1.00  0.00     0.041 A 
HETATM    4  C3  UNL     1       4.079   0.925   0.480  1.00  0.00     0.010 A 
HETATM    5  C4  UNL     1       3.068   1.200   1.346  1.00  0.00     0.017 A 
HETATM    6  C5  UNL     1       1.728   0.969   1.255  1.00  0.00     0.030 A 
HETATM    7  C6  UNL     1       1.454   0.363   0.063  1.00  0.00     0.034 A 
HETATM    8  C15 UNL     1       2.251  -0.059  -1.033  1.00  0.00     0.061 A 
HETATM    9  C16 UNL     1       3.558   0.285  -0.696  1.00  0.00     0.065 A 
HETATM   10  N6  UNL     1       4.451  -0.037  -1.571  1.00  0.00    -0.284 NA
HETATM   11  C17 UNL     1       5.716   0.330  -1.016  1.00  0.00     0.199 A 
ENDROOT
BRANCH   7  12
HETATM   12  N2  UNL     1       0.059   0.312  -0.128  1.00  0.00    -0.357 N 
HETATM   13  C7  UNL     1      -1.102  -0.335   0.184  1.00  0.00     0.043 C 
HETATM   14  C8  UNL     1      -1.043  -1.635   0.077  1.00  0.00     0.028 C 
HETATM   15  C14 UNL     1      -2.249   0.037   1.035  1.00  0.00     0.296 A 
HETATM   16  C9  UNL     1      -1.065  -3.072  -0.022  1.00  0.00    -0.000 C 
HETATM   17  C10 UNL     1      -2.228  -3.830   0.028  1.00  0.00    -0.004 C 
HETATM   18  C11 UNL     1      -3.368  -2.909   0.116  1.00  0.00     0.194 C 
HETATM   19  N3  UNL     1      -3.039  -1.538   0.071  1.00  0.00    -0.216 NA
HETATM   20  N4  UNL     1      -3.687  -0.568   0.547  1.00  0.00    -0.101 NA
HETATM   21  N5  UNL     1      -3.310   0.706   0.479  1.00  0.00    -0.304 N 
HETATM   22  H3  UNL     1      -0.388   0.985  -0.785  1.00  0.00     0.166 HD
BRANCH  21  23
HETATM   23  C12 UNL     1      -3.202   2.103   0.243  1.00  0.00     0.172 C 
BRANCH  23  24
HETATM   24  C13 UNL     1      -4.328   2.619  -0.601  1.00  0.00     0.243 C 
HETATM   25  F1  UNL     1      -5.516   2.424   0.140  1.00  0.00    -0.254 F 
ENDBRANCH  23  24
ENDBRANCH  21  23
ENDBRANCH   7  12
TORSDOF 3
