REMARK  3 active torsions:
REMARK  status: ('A' for Active; 'I' for Inactive)
REMARK    1  A    between atoms: C4_6  and  C5_7 
REMARK    2  A    between atoms: C8_11  and  N3_12 
REMARK    3  A    between atoms: N3_12  and  C9_13 
ROOT
HETATM    1  N1  UNL     1       0.150  -3.310  -0.103  1.00  0.00    -0.191 NA
HETATM    2  C1  UNL     1      -0.582  -2.398  -0.079  1.00  0.00     0.103 C 
HETATM    3  C2  UNL     1      -1.466  -1.266  -0.046  1.00  0.00     0.088 A 
HETATM    4  C3  UNL     1      -2.725  -1.492  -0.560  1.00  0.00     0.143 A 
HETATM    5  N2  UNL     1      -3.612  -0.480  -0.562  1.00  0.00    -0.250 NA
HETATM    6  C4  UNL     1      -3.288   0.729  -0.075  1.00  0.00     0.114 A 
HETATM    7  C7  UNL     1      -2.025   0.941   0.436  1.00  0.00     0.072 A 
HETATM    8  C8  UNL     1      -1.038  -0.051   0.479  1.00  0.00     0.057 A 
ENDROOT
BRANCH   8   9
HETATM    9  N3  UNL     1       0.261   0.129   0.996  1.00  0.00    -0.355 N 
HETATM   10  H3  UNL     1       0.058   0.383   1.973  1.00  0.00     0.166 HD
BRANCH   9  11
HETATM   11  C9  UNL     1       1.540   0.022   0.442  1.00  0.00     0.034 A 
HETATM   12  C10 UNL     1       1.745  -0.278  -0.877  1.00  0.00     0.032 A 
HETATM   13  C11 UNL     1       3.001  -0.385  -1.424  1.00  0.00     0.046 A 
HETATM   14  C12 UNL     1       4.107  -0.181  -0.598  1.00  0.00     0.138 A 
HETATM   15  F2  UNL     1       5.363  -0.277  -1.098  1.00  0.00    -0.204 F 
HETATM   16  C13 UNL     1       3.882   0.123   0.739  1.00  0.00     0.074 A 
HETATM   17 CL1  UNL     1       5.270   0.373   1.747  1.00  0.00    -0.081 Cl
HETATM   18  C14 UNL     1       2.603   0.231   1.289  1.00  0.00     0.056 A 
ENDBRANCH   9  11
ENDBRANCH   8   9
BRANCH   6  19
HETATM   19  C5  UNL     1      -4.210   1.831  -0.061  1.00  0.00    -0.011 C 
HETATM   20  C6  UNL     1      -5.004   2.749  -0.050  1.00  0.00     0.113 C 
HETATM   21  F1  UNL     1      -5.898   3.748  -0.033  1.00  0.00    -0.143 F 
ENDBRANCH   6  19
TORSDOF 3
