REMARK  10 active torsions:
REMARK  status: ('A' for Active; 'I' for Inactive)
REMARK    1  A    between atoms: C2_2  and  C3_3 
REMARK    2  A    between atoms: C2_2  and  N4_22 
REMARK    3  A    between atoms: C3_3  and  C4_4 
REMARK    4  A    between atoms: C4_4  and  C5_5 
REMARK    5  A    between atoms: C7_7  and  N1_8 
REMARK    6  A    between atoms: N1_8  and  C8_9 
REMARK       I    between atoms: N4_22  and  C17_23 
REMARK    7  A    between atoms: C17_23  and  C18_25 
REMARK    8  A    between atoms: C18_25  and  C19_26 
REMARK    9  A    between atoms: C19_26  and  C20_27 
REMARK   10  A    between atoms: C20_27  and  N5_28 
ROOT
HETATM    1  C5  UNL     1      -2.260   1.148   0.618  1.00  0.00     0.036 A 
HETATM    2  C6  UNL     1      -3.077   0.324  -0.115  1.00  0.00     0.058 A 
HETATM    3  C7  UNL     1      -4.144   0.742  -0.873  1.00  0.00     0.057 A 
HETATM    4  C14 UNL     1      -4.329   2.104  -0.830  1.00  0.00     0.088 A 
HETATM    5  C15 UNL     1      -5.407   2.727  -1.573  1.00  0.00     0.103 C 
HETATM    6  N2  UNL     1      -6.292   3.225  -2.180  1.00  0.00    -0.191 NA
HETATM    7  C16 UNL     1      -3.548   2.975  -0.117  1.00  0.00     0.142 A 
HETATM    8  N3  UNL     1      -2.522   2.493   0.601  1.00  0.00    -0.264 NA
ENDROOT
BRANCH   3   9
HETATM    9  N1  UNL     1      -5.012  -0.063  -1.608  1.00  0.00    -0.355 N 
HETATM   10  H8  UNL     1      -5.763   0.476  -2.147  1.00  0.00     0.166 HD
BRANCH   9  11
HETATM   11  C8  UNL     1      -5.145  -1.450  -1.835  1.00  0.00     0.034 A 
HETATM   12  C9  UNL     1      -6.438  -1.981  -1.969  1.00  0.00     0.032 A 
HETATM   13  C10 UNL     1      -6.622  -3.326  -2.192  1.00  0.00     0.046 A 
HETATM   14  C11 UNL     1      -5.569  -4.199  -2.294  1.00  0.00     0.138 A 
HETATM   15  F1  UNL     1      -5.919  -5.487  -2.508  1.00  0.00    -0.204 F 
HETATM   16  C12 UNL     1      -4.269  -3.718  -2.170  1.00  0.00     0.074 A 
HETATM   17 CL1  UNL     1      -2.954  -4.860  -2.305  1.00  0.00    -0.081 Cl
HETATM   18  C13 UNL     1      -4.145  -2.378  -1.950  1.00  0.00     0.056 A 
ENDBRANCH   9  11
ENDBRANCH   3   9
BRANCH   1  19
HETATM   19  C4  UNL     1      -1.093   0.713   1.439  1.00  0.00     0.065 C 
BRANCH  19  20
HETATM   20  C3  UNL     1       0.105   0.794   0.527  1.00  0.00     0.058 C 
BRANCH  20  21
HETATM   21  C2  UNL     1       1.372   0.409   1.198  1.00  0.00    -0.010 C 
HETATM   22  C1  UNL     1       0.930  -0.061   2.338  1.00  0.00     0.058 C 
BRANCH  21  23
HETATM   23  N4  UNL     1       2.630   0.637   0.518  1.00  0.00    -0.334 N 
HETATM   24  C17 UNL     1       3.819   0.260   1.250  1.00  0.00     0.227 C 
HETATM   25  O1  UNL     1       3.503  -0.231   2.387  1.00  0.00    -0.273 OA
HETATM   26  H13 UNL     1       2.524   1.039  -0.414  1.00  0.00     0.168 HD
BRANCH  24  27
HETATM   27  C18 UNL     1       4.916   0.606   0.375  1.00  0.00     0.098 C 
BRANCH  27  28
HETATM   28  C19 UNL     1       6.169   0.757  -0.075  1.00  0.00     0.034 C 
BRANCH  28  29
HETATM   29  C20 UNL     1       7.621   0.635   0.071  1.00  0.00     0.275 C 
BRANCH  29  30
HETATM   30  N5  UNL     1       8.020   0.033   1.328  1.00  0.00     0.079 N 
HETATM   31  C21 UNL     1       7.732   0.867   2.477  1.00  0.00     0.306 C 
HETATM   32  H18 UNL     1       9.006  -0.317   1.292  1.00  0.00     0.315 HD
ENDBRANCH  29  30
ENDBRANCH  28  29
ENDBRANCH  27  28
ENDBRANCH  24  27
ENDBRANCH  21  23
ENDBRANCH  20  21
ENDBRANCH  19  20
ENDBRANCH   1  19
TORSDOF 10
