REMARK  3 active torsions:
REMARK  status: ('A' for Active; 'I' for Inactive)
REMARK    1  A    between atoms: C2_2  and  O1_3 
REMARK    2  A    between atoms: O1_3  and  C3_4 
REMARK    3  A    between atoms: C9_12  and  N3_13 
ROOT
HETATM    1  C3  UNL     1       2.817  -0.561  -1.419  1.00  0.00     0.080 C 
HETATM    2  C4  UNL     1       2.344  -1.820  -1.525  1.00  0.00     0.053 C 
HETATM    3  C5  UNL     1       1.189  -2.371  -0.832  1.00  0.00     0.114 C 
HETATM    4  N1  UNL     1       0.183  -2.628  -0.122  1.00  0.00    -0.288 NA
HETATM    5  C6  UNL     1      -0.397  -1.708   0.809  1.00  0.00     0.183 C 
HETATM    6  C7  UNL     1      -1.583  -1.167   1.138  1.00  0.00     0.079 C 
HETATM    7  C8  UNL     1      -1.080  -0.369   2.248  1.00  0.00     0.100 C 
HETATM    8  N2  UNL     1      -0.652   0.282   3.144  1.00  0.00    -0.192 NA
HETATM    9  C9  UNL     1      -3.019  -0.863   0.938  1.00  0.00     0.085 C 
HETATM   10  C15 UNL     1      -2.923  -1.340  -0.242  1.00  0.00     0.119 C 
HETATM   11  N4  UNL     1      -2.439  -0.564  -1.156  1.00  0.00    -0.209 NA
HETATM   12  C16 UNL     1      -1.789   0.657  -0.721  1.00  0.00     0.245 C 
HETATM   13  O2  UNL     1      -1.972   1.682   0.022  1.00  0.00    -0.271 OA
HETATM   14  C17 UNL     1      -0.461   0.878  -1.271  1.00  0.00     0.135 C 
HETATM   15  C18 UNL     1       0.385   2.001  -0.768  1.00  0.00     0.279 C 
HETATM   16  N5  UNL     1       1.733   1.662  -1.324  1.00  0.00     0.094 N 
HETATM   17  C19 UNL     1       2.249   0.515  -0.583  1.00  0.00     0.272 C 
HETATM   18  C20 UNL     1       3.453   1.092   0.201  1.00  0.00     0.050 C 
HETATM   19  H17 UNL     1       2.345   2.489  -1.218  1.00  0.00     0.316 HD
ENDROOT
BRANCH   9  20
HETATM   20  N3  UNL     1      -3.968  -0.236   1.735  1.00  0.00    -0.349 N 
HETATM   21  C10 UNL     1      -4.733   0.805   1.151  1.00  0.00     0.118 A 
HETATM   22  C11 UNL     1      -5.631   1.430   1.860  1.00  0.00     0.087 A 
HETATM   23 CL1  UNL     1      -6.624   2.732   1.226  1.00  0.00    -0.080 Cl
HETATM   24  C12 UNL     1      -5.903   1.109   3.239  1.00  0.00     0.137 A 
HETATM   25  F1  UNL     1      -6.799   1.674   4.093  1.00  0.00    -0.205 F 
HETATM   26  C13 UNL     1      -5.209   0.135   3.805  1.00  0.00     0.037 A 
HETATM   27  C14 UNL     1      -4.165  -0.641   3.085  1.00  0.00     0.159 A 
ENDBRANCH   9  20
BRANCH   1  28
HETATM   28  O1  UNL     1       3.933  -0.243  -2.159  1.00  0.00    -0.353 OA
BRANCH  28  29
HETATM   29  C2  UNL     1       5.129  -0.977  -2.109  1.00  0.00     0.171 C 
HETATM   30  C1  UNL     1       6.185  -0.480  -3.052  1.00  0.00     0.034 C 
ENDBRANCH  28  29
ENDBRANCH   1  28
TORSDOF 3
