REMARK  2 active torsions:
REMARK  status: ('A' for Active; 'I' for Inactive)
REMARK    1  A    between atoms: N5_12  and  C8_13 
REMARK    2  A    between atoms: C8_13  and  C9_14 
ROOT
HETATM    1  C1  UNL     1      -4.997   3.080   0.992  1.00  0.00     0.039 C 
HETATM    2  C2  UNL     1      -3.904   2.544   0.808  1.00  0.00     0.024 C 
HETATM    3  N1  UNL     1      -2.707   1.940   0.625  1.00  0.00    -0.202 NA
HETATM    4  C3  UNL     1      -2.522   0.714   0.357  1.00  0.00     0.083 C 
HETATM    5  C4  UNL     1      -3.563  -0.356   0.192  1.00  0.00     0.089 C 
HETATM    6  C5  UNL     1      -3.752  -0.510  -1.284  1.00  0.00    -0.004 C 
HETATM    7  C6  UNL     1      -2.622  -0.444  -2.042  1.00  0.00     0.082 C 
HETATM    8  N2  UNL     1      -1.348  -0.235  -1.409  1.00  0.00    -0.362 N 
HETATM    9  C7  UNL     1      -1.268   0.053   0.055  1.00  0.00     0.214 C 
HETATM   10  N3  UNL     1      -0.098   0.842   0.321  1.00  0.00    -0.130 NA
HETATM   11  N4  UNL     1       0.734   1.215  -0.589  1.00  0.00    -0.068 NA
HETATM   12  N5  UNL     1       1.864   1.994  -0.164  1.00  0.00    -0.261 N 
HETATM   13  C10 UNL     1       2.379   0.616  -0.309  1.00  0.00     0.111 C 
HETATM   14  C11 UNL     1       3.064  -0.430  -0.897  1.00  0.00     0.021 C 
HETATM   15  C12 UNL     1       2.892  -1.667  -0.036  1.00  0.00     0.298 C 
HETATM   16  N6  UNL     1       2.153  -2.642  -0.848  1.00  0.00     0.087 N 
HETATM   17  C13 UNL     1       1.531  -3.642   0.014  1.00  0.00     0.275 C 
HETATM   18  C14 UNL     1       0.336  -3.112   0.726  1.00  0.00     0.029 A 
HETATM   19  C15 UNL     1      -0.744  -2.568   1.328  1.00  0.00     0.035 A 
HETATM   20  C16 UNL     1      -0.995  -1.254   0.675  1.00  0.00    -0.009 A 
HETATM   21  O1  UNL     1      -0.099  -1.951   0.183  1.00  0.00     0.000 OA
HETATM   22  H6  UNL     1      -0.555  -0.302  -2.072  1.00  0.00     0.162 HD
HETATM   23  H15 UNL     1       2.721  -3.140  -1.532  1.00  0.00     0.316 HD
ENDROOT
BRANCH  12  24
HETATM   24  C8  UNL     1       2.925   2.875   0.264  1.00  0.00     0.183 C 
BRANCH  24  25
HETATM   25  C9  UNL     1       2.398   4.305   0.339  1.00  0.00     0.244 C 
HETATM   26  F1  UNL     1       1.370   4.424   1.244  1.00  0.00    -0.254 F 
ENDBRANCH  24  25
ENDBRANCH  12  24
TORSDOF 2
