REMARK  11 active torsions:
REMARK  status: ('A' for Active; 'I' for Inactive)
REMARK    1  A    between atoms: C3_3  and  O1_4 
REMARK    2  A    between atoms: C3_3  and  C6_7 
REMARK    3  A    between atoms: O1_4  and  C4_5 
REMARK    4  A    between atoms: C6_7  and  N1_8 
REMARK    5  A    between atoms: C6_7  and  C7_9 
REMARK    6  A    between atoms: C7_9  and  C8_11 
REMARK    7  A    between atoms: C8_11  and  O3_12 
REMARK    8  A    between atoms: O3_12  and  C9_13 
REMARK    9  A    between atoms: C9_13  and  N2_14 
REMARK   10  A    between atoms: N2_14  and  C11_16 
REMARK   11  A    between atoms: C11_16  and  C12_17 
ROOT
HETATM    1  C8  UNL     1      -0.378   1.450   0.833  1.00  0.00     0.251 C 
ENDROOT
BRANCH   1   2
HETATM    2  C7  UNL     1      -1.094   0.827  -0.305  1.00  0.00     0.189 C 
HETATM    3  O2  UNL     1      -0.914   0.018  -1.206  1.00  0.00    -0.293 OA
BRANCH   2   4
HETATM    4  C6  UNL     1      -2.514   1.189  -0.594  1.00  0.00     0.344 C 
BRANCH   4   5
HETATM    5  C3  UNL     1      -3.425   0.017  -0.577  1.00  0.00     0.082 C 
HETATM    6  C2  UNL     1      -3.137  -1.251  -0.332  1.00  0.00     0.004 C 
HETATM    7  C1  UNL     1      -4.280  -2.189  -0.392  1.00  0.00     0.038 C 
BRANCH   5   8
HETATM    8  O1  UNL     1      -4.754   0.305  -0.857  1.00  0.00    -0.353 OA
BRANCH   8   9
HETATM    9  C4  UNL     1      -5.586   0.710   0.210  1.00  0.00     0.171 C 
HETATM   10  C5  UNL     1      -6.992   0.979  -0.279  1.00  0.00     0.034 C 
ENDBRANCH   8   9
ENDBRANCH   5   8
ENDBRANCH   4   5
BRANCH   4  11
HETATM   11  N1  UNL     1      -2.916   2.174   0.395  1.00  0.00     0.096 N 
HETATM   12  H11 UNL     1      -2.846   1.818   1.373  1.00  0.00     0.314 HD
HETATM   13  H12 UNL     1      -2.313   3.012   0.323  1.00  0.00     0.314 HD
ENDBRANCH   4  11
ENDBRANCH   2   4
ENDBRANCH   1   2
BRANCH   1  14
HETATM   14  O3  UNL     1       0.916   0.990   0.886  1.00  0.00    -0.355 OA
BRANCH  14  15
HETATM   15  C9  UNL     1       1.604   1.337  -0.248  1.00  0.00     0.440 C 
BRANCH  15  16
HETATM   16  N2  UNL     1       2.958   0.824  -0.105  1.00  0.00     0.111 N 
HETATM   17  C10 UNL     1       3.624   1.377   1.049  1.00  0.00     0.313 C 
BRANCH  16  18
HETATM   18  C11 UNL     1       2.821  -0.608   0.076  1.00  0.00     0.313 C 
BRANCH  18  19
HETATM   19  C12 UNL     1       4.186  -1.175   0.214  1.00  0.00    -0.030 A 
HETATM   20  C13 UNL     1       4.845  -1.570  -0.956  1.00  0.00     0.012 A 
HETATM   21  C14 UNL     1       6.111  -2.116  -1.017  1.00  0.00     0.043 A 
HETATM   22  C15 UNL     1       6.782  -2.287   0.175  1.00  0.00     0.116 A 
HETATM   23  F1  UNL     1       8.033  -2.819   0.203  1.00  0.00    -0.206 F 
HETATM   24  C16 UNL     1       6.168  -1.911   1.352  1.00  0.00     0.043 A 
HETATM   25  C17 UNL     1       4.901  -1.367   1.378  1.00  0.00     0.012 A 
ENDBRANCH  18  19
ENDBRANCH  16  18
ENDBRANCH  15  16
ENDBRANCH  14  15
ENDBRANCH   1  14
TORSDOF 11
