REMARK  2 active torsions:
REMARK  status: ('A' for Active; 'I' for Inactive)
REMARK       I    between atoms: C2_2  and  N1_4 
REMARK    1  A    between atoms: C8_12  and  N4_13 
REMARK    2  A    between atoms: N4_13  and  C9_14 
ROOT
HETATM    1  C1  UNL     1      -2.562   3.090  -0.509  1.00  0.00     0.117 C 
HETATM    2  C2  UNL     1      -1.765   2.184   0.318  1.00  0.00     0.216 C 
HETATM    3  O1  UNL     1      -0.998   2.672   1.183  1.00  0.00    -0.274 OA
HETATM    4  N1  UNL     1      -1.842   0.756   0.163  1.00  0.00    -0.344 N 
HETATM    5  C3  UNL     1      -2.765   0.233  -0.873  1.00  0.00     0.180 C 
HETATM    6  C4  UNL     1      -2.247  -1.180  -1.020  1.00  0.00     0.032 C 
HETATM    7  N2  UNL     1      -2.535  -2.473  -1.030  1.00  0.00    -0.267 NA
HETATM    8  C5  UNL     1      -1.794  -3.272  -0.043  1.00  0.00     0.137 C 
HETATM    9  C6  UNL     1      -0.942  -2.531   0.704  1.00  0.00     0.070 C 
HETATM   10  C7  UNL     1      -0.626  -3.087   1.999  1.00  0.00     0.099 C 
HETATM   11  N3  UNL     1      -0.381  -3.552   3.051  1.00  0.00    -0.192 NA
HETATM   12  C8  UNL     1      -0.317  -1.204   0.294  1.00  0.00     0.090 C 
HETATM   13  C15 UNL     1      -0.739  -1.092  -1.195  1.00  0.00     0.095 C 
HETATM   14  C16 UNL     1      -1.035  -0.110   1.007  1.00  0.00     0.163 C 
ENDROOT
BRANCH  12  15
HETATM   15  N4  UNL     1       1.077  -1.300   0.481  1.00  0.00    -0.374 N 
HETATM   16  H7  UNL     1       1.462  -2.237   0.818  1.00  0.00     0.161 HD
BRANCH  15  17
HETATM   17  C9  UNL     1       2.108  -0.341   0.296  1.00  0.00     0.030 A 
HETATM   18  C10 UNL     1       1.914   0.958  -0.122  1.00  0.00     0.032 A 
HETATM   19  C11 UNL     1       2.879   1.905  -0.314  1.00  0.00     0.046 A 
HETATM   20  C12 UNL     1       4.183   1.544  -0.071  1.00  0.00     0.138 A 
HETATM   21  F1  UNL     1       5.204   2.388  -0.226  1.00  0.00    -0.204 F 
HETATM   22  C13 UNL     1       4.464   0.266   0.349  1.00  0.00     0.074 A 
HETATM   23 CL1  UNL     1       6.111  -0.210   0.662  1.00  0.00    -0.081 Cl
HETATM   24  C14 UNL     1       3.437  -0.630   0.519  1.00  0.00     0.056 A 
ENDBRANCH  15  17
ENDBRANCH  12  15
TORSDOF 2
