REMARK  6 active torsions:
REMARK  status: ('A' for Active; 'I' for Inactive)
REMARK    1  A    between atoms: C2_2  and  O1_3 
REMARK    2  A    between atoms: O1_3  and  C3_4 
REMARK    3  A    between atoms: C11_15  and  N4_16 
REMARK       I    between atoms: N4_16  and  C12_17 
REMARK    4  A    between atoms: C12_17  and  C13_19 
REMARK    5  A    between atoms: C14_20  and  C15_21 
REMARK    6  A    between atoms: C15_21  and  N5_22 
ROOT
HETATM    1  C3  UNL     1      -2.348  -0.393   0.781  1.00  0.00     0.090 A 
HETATM    2  C4  UNL     1      -3.173   0.623   0.870  1.00  0.00     0.070 A 
HETATM    3  C5  UNL     1      -3.333   1.395  -0.341  1.00  0.00     0.085 A 
HETATM    4  N1  UNL     1      -4.176   2.463  -0.303  1.00  0.00    -0.257 NA
HETATM    5  C6  UNL     1      -4.339   3.203  -1.424  1.00  0.00     0.140 A 
HETATM    6  C7  UNL     1      -3.704   2.947  -2.619  1.00  0.00     0.064 A 
HETATM    7  C8  UNL     1      -3.915   3.773  -3.790  1.00  0.00     0.101 C 
HETATM    8  N2  UNL     1      -4.076   4.421  -4.742  1.00  0.00    -0.191 NA
HETATM    9  C9  UNL     1      -2.842   1.873  -2.696  1.00  0.00     0.055 A 
HETATM   10  C10 UNL     1      -2.696   1.139  -1.538  1.00  0.00     0.060 A 
HETATM   11  N3  UNL     1      -1.840   0.018  -1.491  1.00  0.00    -0.361 N 
HETATM   12  C11 UNL     1      -1.554  -0.864  -0.382  1.00  0.00     0.242 A 
HETATM   13  H9  UNL     1      -1.291  -0.310  -2.310  1.00  0.00     0.162 HD
ENDROOT
BRANCH  12  14
HETATM   14  N4  UNL     1      -0.145  -0.925  -0.083  1.00  0.00    -0.331 N 
HETATM   15  C12 UNL     1       0.743  -2.030  -0.086  1.00  0.00     0.242 C 
HETATM   16  O2  UNL     1       0.221  -3.115  -0.394  1.00  0.00    -0.269 OA
HETATM   17  H11 UNL     1       0.148   0.047   0.155  1.00  0.00     0.165 HD
BRANCH  15  18
HETATM   18  C13 UNL     1       2.148  -1.862   0.253  1.00  0.00     0.072 C 
HETATM   19  C14 UNL     1       2.678  -0.714   0.573  1.00  0.00     0.008 C 
BRANCH  19  20
HETATM   20  C15 UNL     1       4.072  -0.442   0.927  1.00  0.00     0.299 C 
BRANCH  20  21
HETATM   21  N5  UNL     1       4.721   0.503   0.047  1.00  0.00     0.083 N 
HETATM   22  C16 UNL     1       4.922  -0.014  -1.280  1.00  0.00     0.309 C 
HETATM   23  C17 UNL     1       5.888   1.097   0.631  1.00  0.00     0.309 C 
ENDBRANCH  20  21
ENDBRANCH  19  20
ENDBRANCH  15  18
ENDBRANCH  12  14
BRANCH   1  24
HETATM   24  O1  UNL     1      -2.063  -1.243   1.812  1.00  0.00    -0.352 OA
BRANCH  24  25
HETATM   25  C2  UNL     1      -2.919  -1.582   2.859  1.00  0.00     0.171 C 
HETATM   26  C1  UNL     1      -2.248  -2.617   3.731  1.00  0.00     0.034 C 
ENDBRANCH  24  25
ENDBRANCH   1  24
TORSDOF 6
