REMARK  5 active torsions:
REMARK  status: ('A' for Active; 'I' for Inactive)
REMARK    1  A    between atoms: C2_2  and  O1_3 
REMARK    2  A    between atoms: O1_3  and  C3_4 
REMARK       I    between atoms: N2_14  and  C12_15 
REMARK    3  A    between atoms: C12_15  and  C13_17 
REMARK    4  A    between atoms: C14_18  and  C15_19 
REMARK    5  A    between atoms: C15_19  and  N3_20 
ROOT
HETATM    1  C3  UNL     1      -2.494   0.443  -0.523  1.00  0.00     0.094 C 
HETATM    2  C4  UNL     1      -3.790  -0.070  -0.671  1.00  0.00     0.043 C 
HETATM    3  C5  UNL     1      -4.429  -1.363  -0.455  1.00  0.00     0.162 C 
HETATM    4  N1  UNL     1      -4.643  -2.247  -1.667  1.00  0.00    -0.287 NA
HETATM    5  C6  UNL     1      -3.465  -2.120  -2.255  1.00  0.00     0.123 C 
HETATM    6  C7  UNL     1      -2.857  -2.181  -0.870  1.00  0.00    -0.012 C 
HETATM    7  C8  UNL     1      -3.560  -2.354   0.238  1.00  0.00    -0.044 C 
HETATM    8  C9  UNL     1      -4.000  -2.846   1.544  1.00  0.00     0.047 C 
HETATM    9  C10 UNL     1      -1.395  -1.691  -1.009  1.00  0.00     0.045 C 
HETATM   10  C11 UNL     1      -1.214  -0.380  -0.480  1.00  0.00     0.069 C 
HETATM   11  N2  UNL     1      -0.038   0.116  -0.001  1.00  0.00    -0.321 N 
HETATM   12  C12 UNL     1       1.205  -0.507   0.112  1.00  0.00     0.245 C 
HETATM   13  O2  UNL     1       1.314  -1.693  -0.266  1.00  0.00    -0.268 OA
HETATM   14  H13 UNL     1      -0.164   1.085   0.293  1.00  0.00     0.169 HD
ENDROOT
BRANCH   1  15
HETATM   15  O1  UNL     1      -2.260   1.820  -0.396  1.00  0.00    -0.349 OA
BRANCH  15  16
HETATM   16  C2  UNL     1      -2.990   2.688   0.415  1.00  0.00     0.171 C 
HETATM   17  C1  UNL     1      -2.512   4.137   0.273  1.00  0.00     0.034 C 
ENDBRANCH  15  16
ENDBRANCH   1  15
BRANCH  12  18
HETATM   18  C13 UNL     1       2.320   0.244   0.662  1.00  0.00     0.072 C 
HETATM   19  C14 UNL     1       3.508  -0.315   0.782  1.00  0.00     0.008 C 
BRANCH  19  20
HETATM   20  C15 UNL     1       4.726   0.318   1.319  1.00  0.00     0.299 C 
BRANCH  20  21
HETATM   21  N3  UNL     1       5.757   0.329   0.313  1.00  0.00     0.083 N 
HETATM   22  C16 UNL     1       5.381   1.230  -0.754  1.00  0.00     0.309 C 
HETATM   23  C17 UNL     1       6.023  -0.989  -0.205  1.00  0.00     0.309 C 
ENDBRANCH  20  21
ENDBRANCH  19  20
ENDBRANCH  12  18
TORSDOF 5
