REMARK  7 active torsions:
REMARK  status: ('A' for Active; 'I' for Inactive)
REMARK    1  A    between atoms: N1_2  and  C2_3 
REMARK    2  A    between atoms: C2_3  and  C3_4 
REMARK    3  A    between atoms: C3_4  and  C4_5 
REMARK    4  A    between atoms: C4_5  and  C5_6 
REMARK    5  A    between atoms: C5_6  and  C6_8 
REMARK    6  A    between atoms: C13_17  and  N4_18 
REMARK    7  A    between atoms: N4_18  and  C14_19 
ROOT
HETATM    1  C6  UNL     1       0.708  -0.967  -0.157  1.00  0.00    -0.011 C 
HETATM    2  C7  UNL     1      -0.564  -1.014   0.122  1.00  0.00     0.027 C 
HETATM    3  C8  UNL     1      -1.572  -2.038  -0.124  1.00  0.00     0.021 A 
HETATM    4  C9  UNL     1      -1.568  -3.255  -0.813  1.00  0.00     0.068 A 
HETATM    5  N2  UNL     1      -2.657  -4.041  -0.899  1.00  0.00    -0.259 NA
HETATM    6  C10 UNL     1      -3.778  -3.613  -0.289  1.00  0.00     0.142 A 
HETATM    7  C11 UNL     1      -3.828  -2.430   0.396  1.00  0.00     0.089 A 
HETATM    8  C12 UNL     1      -5.085  -2.062   1.015  1.00  0.00     0.103 C 
HETATM    9  N3  UNL     1      -6.101  -1.757   1.503  1.00  0.00    -0.191 NA
HETATM   10  C13 UNL     1      -2.720  -1.615   0.493  1.00  0.00     0.067 A 
HETATM   11  C20 UNL     1      -0.516  -3.955  -1.553  1.00  0.00     0.028 C 
HETATM   12  C21 UNL     1       0.814  -3.919  -1.426  1.00  0.00    -0.024 C 
HETATM   13  C22 UNL     1       1.767  -3.205  -0.539  1.00  0.00     0.032 C 
HETATM   14  C23 UNL     1       1.812  -1.718  -0.774  1.00  0.00     0.046 C 
ENDROOT
BRANCH  10  15
HETATM   15  N4  UNL     1      -2.793  -0.405   1.197  1.00  0.00    -0.354 N 
HETATM   16  H11 UNL     1      -2.483  -0.720   2.143  1.00  0.00     0.166 HD
BRANCH  15  17
HETATM   17  C14 UNL     1      -3.163   0.928   0.854  1.00  0.00     0.034 A 
HETATM   18  C15 UNL     1      -3.560   1.157  -0.447  1.00  0.00     0.032 A 
HETATM   19  C16 UNL     1      -3.911   2.480  -0.730  1.00  0.00     0.046 A 
HETATM   20  C17 UNL     1      -3.846   3.456   0.268  1.00  0.00     0.138 A 
HETATM   21  F1  UNL     1      -4.192   4.750  -0.018  1.00  0.00    -0.204 F 
HETATM   22  C18 UNL     1      -3.433   3.142   1.567  1.00  0.00     0.074 A 
HETATM   23 CL1  UNL     1      -3.355   4.371   2.811  1.00  0.00    -0.081 Cl
HETATM   24  C19 UNL     1      -3.079   1.846   1.881  1.00  0.00     0.056 A 
ENDBRANCH  15  17
ENDBRANCH  10  15
BRANCH   1  25
HETATM   25  C5  UNL     1       1.132   0.324   0.354  1.00  0.00     0.161 C 
HETATM   26  O1  UNL     1       0.409   1.201   0.943  1.00  0.00    -0.292 OA
BRANCH  25  27
HETATM   27  C4  UNL     1       2.127   1.319   0.586  1.00  0.00     0.078 C 
BRANCH  27  28
HETATM   28  C3  UNL     1       3.331   1.807   0.529  1.00  0.00     0.032 C 
BRANCH  28  29
HETATM   29  C2  UNL     1       4.766   2.058   0.303  1.00  0.00     0.275 C 
BRANCH  29  30
HETATM   30  N1  UNL     1       4.957   3.255  -0.518  1.00  0.00     0.079 N 
HETATM   31  C1  UNL     1       6.378   3.396  -0.678  1.00  0.00     0.306 C 
HETATM   32  H4  UNL     1       4.462   3.125  -1.421  1.00  0.00     0.315 HD
ENDBRANCH  29  30
ENDBRANCH  28  29
ENDBRANCH  27  28
ENDBRANCH  25  27
ENDBRANCH   1  25
TORSDOF 7
