REMARK  6 active torsions:
REMARK  status: ('A' for Active; 'I' for Inactive)
REMARK    1  A    between atoms: N1_2  and  C2_3 
REMARK    2  A    between atoms: C2_3  and  C3_4 
REMARK    3  A    between atoms: C3_4  and  C4_5 
REMARK    4  A    between atoms: C5_6  and  C6_8 
REMARK    5  A    between atoms: C12_16  and  N4_17 
REMARK    6  A    between atoms: N4_17  and  C13_18 
ROOT
HETATM    1  C6  UNL     1       0.240   1.510  -0.000  1.00  0.00     0.008 C 
HETATM    2  C7  UNL     1      -1.082   1.648   0.081  1.00  0.00     0.005 A 
HETATM    3  C8  UNL     1      -1.651   2.966  -0.166  1.00  0.00     0.046 A 
HETATM    4  N2  UNL     1      -2.912   3.175  -0.038  1.00  0.00    -0.264 NA
HETATM    5  C9  UNL     1      -3.758   2.105   0.345  1.00  0.00     0.137 A 
HETATM    6  C10 UNL     1      -3.274   0.893   0.566  1.00  0.00     0.067 A 
HETATM    7  C11 UNL     1      -4.328  -0.037   0.952  1.00  0.00     0.099 C 
HETATM    8  N3  UNL     1      -5.166  -0.805   1.265  1.00  0.00    -0.192 NA
HETATM    9  C12 UNL     1      -1.838   0.429   0.417  1.00  0.00     0.163 A 
HETATM   10  C19 UNL     1      -1.043   4.285  -0.574  1.00  0.00     0.091 C 
HETATM   11  C20 UNL     1       0.399   4.328  -0.114  1.00  0.00     0.123 C 
HETATM   12  C21 UNL     1       0.880   5.749  -0.349  1.00  0.00     0.040 C 
HETATM   13  O2  UNL     1       1.160   3.493  -0.893  1.00  0.00    -0.381 OA
HETATM   14  C22 UNL     1       1.457   2.289  -0.290  1.00  0.00     0.210 C 
ENDROOT
BRANCH   9  15
HETATM   15  N4  UNL     1      -1.784  -0.601  -0.608  1.00  0.00    -0.376 N 
HETATM   16  H11 UNL     1      -1.371  -0.168  -1.490  1.00  0.00     0.160 HD
BRANCH  15  17
HETATM   17  C13 UNL     1      -2.141  -1.979  -0.692  1.00  0.00     0.030 A 
HETATM   18  C14 UNL     1      -2.616  -2.714   0.372  1.00  0.00     0.032 A 
HETATM   19  C15 UNL     1      -2.986  -4.041   0.299  1.00  0.00     0.046 A 
HETATM   20  C16 UNL     1      -2.848  -4.615  -0.948  1.00  0.00     0.138 A 
HETATM   21  F1  UNL     1      -3.184  -5.911  -1.124  1.00  0.00    -0.204 F 
HETATM   22  C17 UNL     1      -2.382  -3.918  -2.021  1.00  0.00     0.074 A 
HETATM   23 CL1  UNL     1      -2.231  -4.703  -3.570  1.00  0.00    -0.081 Cl
HETATM   24  C18 UNL     1      -2.026  -2.607  -1.910  1.00  0.00     0.056 A 
ENDBRANCH  15  17
ENDBRANCH   9  15
BRANCH   1  25
HETATM   25  C5  UNL     1       0.674   0.152   0.273  1.00  0.00     0.086 A 
HETATM   26  C4  UNL     1       2.024  -0.398   0.287  1.00  0.00     0.192 A 
HETATM   27  O1  UNL     1       0.641  -1.062   0.552  1.00  0.00    -0.340 OA
BRANCH  26  28
HETATM   28  C3  UNL     1       2.342  -1.637   0.540  1.00  0.00     0.058 C 
BRANCH  28  29
HETATM   29  C2  UNL     1       3.755  -2.099   0.529  1.00  0.00     0.277 C 
BRANCH  29  30
HETATM   30  N1  UNL     1       4.186  -2.644   1.788  1.00  0.00     0.079 N 
HETATM   31  C1  UNL     1       5.583  -3.083   1.727  1.00  0.00     0.306 C 
HETATM   32  H4  UNL     1       3.647  -3.471   2.087  1.00  0.00     0.315 HD
ENDBRANCH  29  30
ENDBRANCH  28  29
ENDBRANCH  26  28
ENDBRANCH   1  25
TORSDOF 6
