REMARK  6 active torsions:
REMARK  status: ('A' for Active; 'I' for Inactive)
REMARK    1  A    between atoms: C2_2  and  C3_4 
REMARK    2  A    between atoms: C4_6  and  C5_7 
REMARK       I    between atoms: C5_7  and  N1_9 
REMARK    3  A    between atoms: N1_9  and  N2_10 
REMARK    4  A    between atoms: C8_13  and  O2_14 
REMARK    5  A    between atoms: O2_14  and  C9_15 
REMARK    6  A    between atoms: C9_15  and  C10_16 
ROOT
HETATM    1  N2  UNL     1       0.719   0.151  -1.338  1.00  0.00    -0.223 NA
HETATM    2  C6  UNL     1      -0.267   0.032  -0.168  1.00  0.00     0.120 C 
HETATM    3  C7  UNL     1      -1.452   0.866  -0.404  1.00  0.00     0.080 C 
HETATM    4  C8  UNL     1      -2.382   1.233   0.671  1.00  0.00     0.045 C 
HETATM    5  C12 UNL     1      -1.933   2.540   0.841  1.00  0.00     0.034 C 
HETATM    6  C13 UNL     1      -1.015   3.690   0.492  1.00  0.00     0.327 C 
HETATM    7  N3  UNL     1      -0.231   3.293  -0.392  1.00  0.00    -0.413 NA
HETATM    8  C14 UNL     1       0.850   3.801  -1.158  1.00  0.00     0.092 C 
HETATM    9  C15 UNL     1       1.662   2.688  -1.521  1.00  0.00     0.051 C 
HETATM   10  C16 UNL     1       2.843   2.817  -2.282  1.00  0.00     0.098 C 
HETATM   11  N4  UNL     1       3.798   2.918  -2.883  1.00  0.00    -0.192 NA
HETATM   12  C17 UNL     1       1.113   1.436  -1.159  1.00  0.00     0.165 C 
ENDROOT
BRANCH   1  13
HETATM   13  N1  UNL     1       1.635  -0.867  -1.211  1.00  0.00    -0.285 N 
HETATM   14  C5  UNL     1       2.172  -1.992  -0.525  1.00  0.00     0.257 C 
HETATM   15  O1  UNL     1       1.456  -2.178   0.516  1.00  0.00    -0.267 OA
HETATM   16  H4  UNL     1       2.092  -0.548  -2.120  1.00  0.00     0.184 HD
BRANCH  14  17
HETATM   17  C4  UNL     1       3.326  -2.733  -0.991  1.00  0.00     0.098 C 
HETATM   18  C3  UNL     1       4.265  -2.873  -1.909  1.00  0.00     0.051 C 
HETATM   19 CL1  UNL     1       4.114  -1.649  -3.156  1.00  0.00    -0.086 Cl
BRANCH  18  20
HETATM   20  C2  UNL     1       5.306  -3.890  -1.925  1.00  0.00     0.119 C 
HETATM   21  C1  UNL     1       6.116  -3.825  -2.934  1.00  0.00     0.140 C 
HETATM   22  F1  UNL     1       5.445  -4.834  -0.981  1.00  0.00    -0.243 F 
ENDBRANCH  18  20
ENDBRANCH  14  17
ENDBRANCH   1  13
BRANCH   4  23
HETATM   23  O2  UNL     1      -3.409   0.890   1.511  1.00  0.00    -0.356 OA
BRANCH  23  24
HETATM   24  C9  UNL     1      -3.413  -0.191   2.390  1.00  0.00     0.174 C 
BRANCH  24  25
HETATM   25  C10 UNL     1      -4.656  -0.253   3.245  1.00  0.00     0.022 C 
HETATM   26  C11 UNL     1      -5.878  -0.375   2.374  1.00  0.00     0.007 C 
ENDBRANCH  24  25
ENDBRANCH  23  24
ENDBRANCH   4  23
TORSDOF 6
