REMARK  5 active torsions:
REMARK  status: ('A' for Active; 'I' for Inactive)
REMARK    1  A    between atoms: C5_7  and  O1_8 
REMARK    2  A    between atoms: O1_8  and  C6_9 
REMARK    3  A    between atoms: C6_9  and  C7_10 
REMARK    4  A    between atoms: C9_13  and  N3_14 
REMARK    5  A    between atoms: N3_14  and  C10_15 
ROOT
HETATM    1  N1  UNL     1      -2.142   2.668   1.681  1.00  0.00    -0.192 NA
HETATM    2  C1  UNL     1      -1.349   1.945   1.282  1.00  0.00     0.098 C 
HETATM    3  C2  UNL     1      -0.377   1.028   0.775  1.00  0.00     0.060 C 
HETATM    4  C3  UNL     1       0.900   1.372   1.018  1.00  0.00     0.108 C 
HETATM    5  N2  UNL     1       2.042   0.603   0.605  1.00  0.00    -0.366 N 
HETATM    6  C4  UNL     1       1.829  -0.625  -0.118  1.00  0.00     0.033 C 
HETATM    7  C5  UNL     1       2.728  -1.075  -0.941  1.00  0.00     0.159 C 
HETATM    8  C8  UNL     1       0.510  -1.221   0.225  1.00  0.00     0.089 C 
HETATM    9  C9  UNL     1      -0.603  -0.232   0.022  1.00  0.00     0.132 C 
HETATM   10  H2  UNL     1       3.027   0.936   0.829  1.00  0.00     0.165 HD
ENDROOT
BRANCH   9  11
HETATM   11  N3  UNL     1      -1.894  -0.764   0.356  1.00  0.00    -0.380 N 
HETATM   12  H11 UNL     1      -1.855  -1.651   0.939  1.00  0.00     0.160 HD
BRANCH  11  13
HETATM   13  C10 UNL     1      -3.182  -0.292   0.032  1.00  0.00     0.030 A 
HETATM   14  C11 UNL     1      -4.330  -0.921   0.492  1.00  0.00     0.032 A 
HETATM   15  C12 UNL     1      -5.581  -0.463   0.155  1.00  0.00     0.046 A 
HETATM   16  C13 UNL     1      -5.762   0.634  -0.648  1.00  0.00     0.138 A 
HETATM   17  F2  UNL     1      -7.025   1.015  -0.928  1.00  0.00    -0.204 F 
HETATM   18  C14 UNL     1      -4.652   1.294  -1.130  1.00  0.00     0.074 A 
HETATM   19 CL1  UNL     1      -4.857   2.696  -2.157  1.00  0.00    -0.081 Cl
HETATM   20  C15 UNL     1      -3.414   0.804  -0.771  1.00  0.00     0.056 A 
ENDBRANCH  11  13
ENDBRANCH   9  11
BRANCH   7  21
HETATM   21  O1  UNL     1       3.894  -0.357  -1.112  1.00  0.00    -0.359 OA
BRANCH  21  22
HETATM   22  C6  UNL     1       5.182  -0.936  -1.054  1.00  0.00     0.205 C 
BRANCH  22  23
HETATM   23  C7  UNL     1       6.235   0.120  -1.281  1.00  0.00     0.248 C 
HETATM   24  F1  UNL     1       6.093   1.070  -0.283  1.00  0.00    -0.253 F 
ENDBRANCH  22  23
ENDBRANCH  21  22
ENDBRANCH   7  21
TORSDOF 5
