REMARK  8 active torsions:
REMARK  status: ('A' for Active; 'I' for Inactive)
REMARK    1  A    between atoms: C2_2  and  N2_8 
REMARK    2  A    between atoms: C3_3  and  C4_4 
REMARK    3  A    between atoms: C4_4  and  N1_5 
REMARK    4  A    between atoms: N1_5  and  C5_6 
REMARK    5  A    between atoms: N2_8  and  C6_9 
REMARK    6  A    between atoms: C11_14  and  O2_15 
REMARK    7  A    between atoms: O2_15  and  C12_16 
REMARK    8  A    between atoms: C12_16  and  C13_17 
ROOT
HETATM    1  C6  UNL     1       0.328  -0.160  -0.697  1.00  0.00     0.067 A 
HETATM    2  C7  UNL     1       0.476   1.205  -0.887  1.00  0.00     0.048 A 
HETATM    3  C8  UNL     1       1.646   1.818  -0.490  1.00  0.00     0.025 A 
HETATM    4  C9  UNL     1       2.666   1.096   0.090  1.00  0.00     0.068 A 
HETATM    5  C10 UNL     1       2.457  -0.234   0.248  1.00  0.00     0.071 A 
HETATM    6  C11 UNL     1       1.335  -0.937  -0.111  1.00  0.00     0.097 A 
HETATM    7  N3  UNL     1       3.776   1.619   0.479  1.00  0.00    -0.268 NA
HETATM    8  C14 UNL     1       3.974   3.035   0.301  1.00  0.00     0.298 C 
HETATM    9  N4  UNL     1       3.053   3.527  -0.694  1.00  0.00    -0.265 NA
HETATM   10  C15 UNL     1       1.842   3.100  -0.644  1.00  0.00     0.095 C 
ENDROOT
BRANCH   1  11
HETATM   11  N2  UNL     1      -0.932  -0.700  -1.147  1.00  0.00    -0.358 N 
HETATM   12  H9  UNL     1      -1.174  -1.725  -1.061  1.00  0.00     0.166 HD
BRANCH  11  13
HETATM   13  C2  UNL     1      -1.896   0.158  -1.729  1.00  0.00     0.003 C 
HETATM   14  C1  UNL     1      -1.781   0.866  -3.049  1.00  0.00     0.068 C 
HETATM   15  C3  UNL     1      -2.999   0.355  -1.050  1.00  0.00     0.017 C 
BRANCH  15  16
HETATM   16  C4  UNL     1      -3.322  -0.244   0.275  1.00  0.00     0.151 C 
BRANCH  16  17
HETATM   17  N1  UNL     1      -3.518   0.871   1.202  1.00  0.00    -0.365 N 
HETATM   18  H7  UNL     1      -3.440   1.888   0.953  1.00  0.00     0.162 HD
BRANCH  17  19
HETATM   19  C5  UNL     1      -3.839   0.486   2.536  1.00  0.00     0.348 C 
HETATM   20  O1  UNL     1      -3.889  -0.785   2.642  1.00  0.00    -0.284 OA
ENDBRANCH  17  19
ENDBRANCH  16  17
ENDBRANCH  15  16
ENDBRANCH  11  13
ENDBRANCH   1  11
BRANCH   6  21
HETATM   21  O2  UNL     1       0.962  -2.237  -0.032  1.00  0.00    -0.346 OA
BRANCH  21  22
HETATM   22  C12 UNL     1       1.585  -3.364   0.462  1.00  0.00     0.207 C 
BRANCH  22  23
HETATM   23  C13 UNL     1       1.870  -3.277   1.939  1.00  0.00     0.248 C 
HETATM   24  F1  UNL     1       0.641  -3.109   2.573  1.00  0.00    -0.253 F 
ENDBRANCH  22  23
ENDBRANCH  21  22
ENDBRANCH   6  21
TORSDOF 8
