REMARK  7 active torsions:
REMARK  status: ('A' for Active; 'I' for Inactive)
REMARK    1  A    between atoms: C2_2  and  C3_4 
REMARK    2  A    between atoms: C3_4  and  S1_5 
REMARK    3  A    between atoms: S1_5  and  C4_6 
REMARK    4  A    between atoms: C4_6  and  C5_7 
REMARK    5  A    between atoms: C6_8  and  N1_9 
REMARK    6  A    between atoms: N1_9  and  C7_10 
REMARK    7  A    between atoms: C12_17  and  N4_18 
ROOT
HETATM    1  C7  UNL     1      -0.330  -1.588  -0.017  1.00  0.00     0.141 A 
HETATM    2  N2  UNL     1      -0.006  -2.596   0.811  1.00  0.00    -0.224 NA
HETATM    3  C8  UNL     1      -0.819  -3.008   1.816  1.00  0.00     0.236 A 
HETATM    4  N3  UNL     1      -1.989  -2.373   1.976  1.00  0.00    -0.241 NA
HETATM    5  C9  UNL     1      -2.393  -1.366   1.206  1.00  0.00     0.073 A 
HETATM    6  C10 UNL     1      -1.553  -0.973   0.201  1.00  0.00     0.042 A 
HETATM    7  C11 UNL     1      -1.745   0.085  -0.773  1.00  0.00     0.065 C 
HETATM    8  C12 UNL     1      -2.718   0.990  -0.758  1.00  0.00     0.099 C 
HETATM    9  N5  UNL     1      -3.813   1.226   0.126  1.00  0.00    -0.353 N 
HETATM   10  C13 UNL     1      -4.272   0.278   1.083  1.00  0.00     0.092 C 
HETATM   11  C14 UNL     1      -3.711  -0.819   1.563  1.00  0.00     0.049 C 
HETATM   12  H12 UNL     1      -4.300   2.156   0.058  1.00  0.00     0.166 HD
ENDROOT
BRANCH   1  13
HETATM   13  N1  UNL     1       0.584  -1.222  -1.047  1.00  0.00    -0.350 N 
HETATM   14  H7  UNL     1       0.178  -1.844  -1.757  1.00  0.00     0.166 HD
BRANCH  13  15
HETATM   15  C6  UNL     1       1.698  -0.366  -1.267  1.00  0.00     0.087 C 
HETATM   16  C5  UNL     1       1.612   0.735  -0.564  1.00  0.00     0.006 C 
BRANCH  16  17
HETATM   17  C4  UNL     1       2.381   1.958  -0.344  1.00  0.00     0.152 C 
BRANCH  17  18
HETATM   18  S1  UNL     1       3.736   1.765  -1.332  1.00  0.00    -0.270 SA
BRANCH  18  19
HETATM   19  C3  UNL     1       4.413   0.248  -1.028  1.00  0.00     0.169 C 
BRANCH  19  20
HETATM   20  C2  UNL     1       4.431   0.027   0.430  1.00  0.00    -0.007 C 
HETATM   21  C1  UNL     1       3.999   0.862   1.357  1.00  0.00     0.028 C 
HETATM   22 BR1  UNL     1       5.224  -1.663  -0.053  1.00  0.00    -0.055 Br
ENDBRANCH  19  20
ENDBRANCH  18  19
ENDBRANCH  17  18
ENDBRANCH  16  17
ENDBRANCH  13  15
ENDBRANCH   1  13
BRANCH   8  23
HETATM   23  N4  UNL     1      -2.659   1.914  -1.847  1.00  0.00    -0.385 N 
HETATM   24  H10 UNL     1      -3.149   2.836  -1.842  1.00  0.00     0.157 HD
HETATM   25  H11 UNL     1      -2.122   1.743  -2.734  1.00  0.00     0.157 HD
ENDBRANCH   8  23
TORSDOF 7
