REMARK  5 active torsions:
REMARK  status: ('A' for Active; 'I' for Inactive)
REMARK    1  A    between atoms: C3_3  and  C4_5 
REMARK    2  A    between atoms: C5_7  and  C6_8 
REMARK    3  A    between atoms: C10_13  and  C11_14 
REMARK    4  A    between atoms: C12_15  and  O1_16 
REMARK    5  A    between atoms: O1_16  and  C13_17 
ROOT
HETATM    1  C6  UNL     1      -0.796  -0.632   0.005  1.00  0.00    -0.019 A 
HETATM    2  C7  UNL     1      -0.227  -1.673  -0.742  1.00  0.00    -0.034 A 
HETATM    3  C8  UNL     1      -1.115  -2.570  -1.540  1.00  0.00     0.050 C 
HETATM    4  C9  UNL     1       1.135  -1.920  -0.793  1.00  0.00     0.124 A 
HETATM    5  N1  UNL     1       1.918  -1.097  -0.074  1.00  0.00    -0.260 NA
HETATM    6  C10 UNL     1       1.455  -0.081   0.666  1.00  0.00     0.065 A 
HETATM    7  C15 UNL     1       0.081   0.170   0.719  1.00  0.00    -0.022 A 
HETATM    8  C16 UNL     1      -0.311   1.295   1.599  1.00  0.00     0.051 C 
ENDROOT
BRANCH   1   9
HETATM    9  C5  UNL     1      -2.229  -0.397   0.057  1.00  0.00     0.039 C 
HETATM   10  C4  UNL     1      -2.955   0.685  -0.146  1.00  0.00     0.073 C 
HETATM   11 CL1  UNL     1      -2.378   2.270  -0.606  1.00  0.00    -0.081 Cl
BRANCH  10  12
HETATM   12  C3  UNL     1      -4.392   0.535   0.002  1.00  0.00     0.134 C 
HETATM   13  C2  UNL     1      -5.212   1.548  -0.177  1.00  0.00     0.013 C 
HETATM   14  C1  UNL     1      -6.680   1.624  -0.079  1.00  0.00     0.039 C 
HETATM   15  F1  UNL     1      -5.452  -0.259   0.276  1.00  0.00    -0.205 F 
ENDBRANCH  10  12
ENDBRANCH   1   9
BRANCH   6  16
HETATM   16  C11 UNL     1       2.390   0.757   1.394  1.00  0.00     0.056 C 
HETATM   17  C12 UNL     1       3.683   0.545   1.319  1.00  0.00     0.137 C 
BRANCH  17  18
HETATM   18  O1  UNL     1       4.786  -0.142   0.857  1.00  0.00    -0.363 OA
BRANCH  18  19
HETATM   19  C13 UNL     1       5.180   0.008  -0.498  1.00  0.00     0.170 C 
HETATM   20  C14 UNL     1       6.474  -0.771  -0.727  1.00  0.00     0.034 C 
ENDBRANCH  18  19
ENDBRANCH  17  18
ENDBRANCH   6  16
TORSDOF 5
