REMARK  4 active torsions:
REMARK  status: ('A' for Active; 'I' for Inactive)
REMARK    1  A    between atoms: N1_1  and  C1_2 
REMARK    2  A    between atoms: C4_7  and  N4_8 
REMARK    3  A    between atoms: N4_8  and  C5_9 
REMARK    4  A    between atoms: P1_18  and  N5_19 
ROOT
HETATM    1  C1  UNL     1      -3.812  -0.638   0.341  1.00  0.00     0.316 C 
HETATM    2  C2  UNL     1      -2.431  -1.017   0.742  1.00  0.00     0.057 C 
HETATM    3  N2  UNL     1      -1.656  -2.089   0.807  1.00  0.00    -0.248 NA
HETATM    4  C3  UNL     1      -0.418  -2.268   0.058  1.00  0.00     0.229 C 
HETATM    5  N3  UNL     1       0.491  -1.364  -0.219  1.00  0.00    -0.253 NA
HETATM    6  C4  UNL     1       0.374   0.078  -0.431  1.00  0.00     0.237 C 
HETATM    7  C11 UNL     1      -1.033   0.525  -0.200  1.00  0.00    -0.029 C 
HETATM    8  C12 UNL     1      -1.869   1.130  -1.075  1.00  0.00     0.037 C 
HETATM    9  P1  UNL     1      -3.669   0.934  -0.658  1.00  0.00     0.040 P 
HETATM   10  C13 UNL     1      -1.649   0.220   1.168  1.00  0.00     0.095 C 
ENDROOT
BRANCH   6  11
HETATM   11  N4  UNL     1       1.260   0.697   0.537  1.00  0.00    -0.364 N 
HETATM   12  H6  UNL     1       0.899   1.363   1.262  1.00  0.00     0.162 HD
BRANCH  11  13
HETATM   13  C5  UNL     1       2.636   0.424   0.536  1.00  0.00     0.031 A 
HETATM   14  C6  UNL     1       3.517   0.992   1.440  1.00  0.00     0.029 A 
HETATM   15  C7  UNL     1       4.887   0.734   1.455  1.00  0.00     0.004 A 
HETATM   16  C8  UNL     1       5.417  -0.134   0.525  1.00  0.00     0.019 A 
HETATM   17  C9  UNL     1       4.583  -0.736  -0.409  1.00  0.00     0.013 A 
HETATM   18 BR1  UNL     1       5.317  -1.933  -1.692  1.00  0.00    -0.051 Br
HETATM   19  C10 UNL     1       3.246  -0.428  -0.356  1.00  0.00     0.048 A 
ENDBRANCH  11  13
ENDBRANCH   6  11
BRANCH   9  20
HETATM   20  N5  UNL     1      -4.111   2.280   0.411  1.00  0.00    -0.402 N 
HETATM   21  H12 UNL     1      -5.108   2.503   0.454  1.00  0.00     0.155 HD
HETATM   22  H13 UNL     1      -3.459   3.092   0.391  1.00  0.00     0.155 HD
ENDBRANCH   9  20
BRANCH   1  23
HETATM   23  N1  UNL     1      -4.345  -1.679  -0.544  1.00  0.00     0.094 N 
HETATM   24  H1  UNL     1      -3.535  -2.240  -0.913  1.00  0.00     0.314 HD
HETATM   25  H2  UNL     1      -4.815  -1.267  -1.374  1.00  0.00     0.314 HD
ENDBRANCH   1  23
TORSDOF 4
