REMARK  7 active torsions:
REMARK  status: ('A' for Active; 'I' for Inactive)
REMARK    1  A    between atoms: N1_2  and  C2_3 
REMARK    2  A    between atoms: C2_3  and  N2_4 
REMARK    3  A    between atoms: N2_4  and  C3_5 
REMARK    4  A    between atoms: C3_5  and  N3_6 
REMARK    5  A    between atoms: C4_7  and  C5_8 
REMARK    6  A    between atoms: C8_13  and  N6_14 
REMARK    7  A    between atoms: N6_14  and  C9_15 
ROOT
HETATM    1  C5  UNL     1      -0.106  -1.514  -0.057  1.00  0.00     0.031 A 
HETATM    2  C6  UNL     1      -0.444  -2.710   0.557  1.00  0.00     0.133 A 
HETATM    3  N4  UNL     1       0.397  -3.773   0.516  1.00  0.00    -0.253 NA
HETATM    4  C7  UNL     1       1.584  -3.730  -0.111  1.00  0.00     0.234 A 
HETATM    5  N5  UNL     1       1.914  -2.568  -0.709  1.00  0.00    -0.224 NA
HETATM    6  C8  UNL     1       1.104  -1.480  -0.693  1.00  0.00     0.141 A 
ENDROOT
BRANCH   1   7
HETATM    7  C4  UNL     1      -1.147  -0.520   0.079  1.00  0.00     0.064 C 
HETATM    8  C3  UNL     1      -2.444  -0.832  -0.131  1.00  0.00     0.096 C 
BRANCH   8   9
HETATM    9  N2  UNL     1      -3.502   0.107  -0.007  1.00  0.00    -0.359 N 
HETATM   10  H5  UNL     1      -4.103  -0.432   0.695  1.00  0.00     0.162 HD
BRANCH   9  11
HETATM   11  C2  UNL     1      -4.074   1.373  -0.356  1.00  0.00     0.270 C 
BRANCH  11  12
HETATM   12  N1  UNL     1      -3.306   2.487   0.121  1.00  0.00    -0.293 NA
HETATM   13  C1  UNL     1      -3.953   3.591   0.319  1.00  0.00     0.144 C 
ENDBRANCH  11  12
ENDBRANCH   9  11
ENDBRANCH   8   9
BRANCH   8  14
HETATM   14  N3  UNL     1      -2.725  -2.192  -0.530  1.00  0.00    -0.386 N 
HETATM   15  H6  UNL     1      -2.885  -3.144  -0.897  1.00  0.00     0.157 HD
HETATM   16  H7  UNL     1      -2.319  -2.242  -1.505  1.00  0.00     0.157 HD
ENDBRANCH   8  14
ENDBRANCH   1   7
BRANCH   6  17
HETATM   17  N6  UNL     1       1.489  -0.277  -1.331  1.00  0.00    -0.340 N 
HETATM   18  H11 UNL     1       1.180   0.110  -2.227  1.00  0.00     0.167 HD
BRANCH  17  19
HETATM   19  C9  UNL     1       2.448   0.400  -0.506  1.00  0.00     0.035 A 
HETATM   20  C10 UNL     1       2.628   0.281   0.846  1.00  0.00     0.029 A 
HETATM   21  C11 UNL     1       3.635   0.982   1.473  1.00  0.00     0.004 A 
HETATM   22  C12 UNL     1       4.510   1.833   0.798  1.00  0.00     0.019 A 
HETATM   23  C13 UNL     1       4.329   1.952  -0.559  1.00  0.00     0.013 A 
HETATM   24 BR1  UNL     1       5.516   3.098  -1.511  1.00  0.00    -0.051 Br
HETATM   25  C14 UNL     1       3.314   1.244  -1.184  1.00  0.00     0.048 A 
ENDBRANCH  17  19
ENDBRANCH   6  17
TORSDOF 7
