REMARK  7 active torsions:
REMARK  status: ('A' for Active; 'I' for Inactive)
REMARK    1  A    between atoms: C5_6  and  N1_7 
REMARK    2  A    between atoms: N1_7  and  C6_8 
REMARK    3  A    between atoms: C9_13  and  C10_14 
REMARK    4  A    between atoms: C11_15  and  C12_16 
REMARK    5  A    between atoms: C12_16  and  N4_17 
REMARK    6  A    between atoms: N4_17  and  C13_18 
REMARK    7  A    between atoms: C13_18  and  N5_19 
ROOT
HETATM    1  C6  UNL     1       1.975  -0.843  -0.004  1.00  0.00     0.137 A 
HETATM    2  N2  UNL     1       2.787  -1.819   0.411  1.00  0.00    -0.224 NA
HETATM    3  C7  UNL     1       2.392  -3.104   0.393  1.00  0.00     0.234 A 
HETATM    4  N3  UNL     1       1.161  -3.434  -0.047  1.00  0.00    -0.253 NA
HETATM    5  C8  UNL     1       0.374  -2.404  -0.458  1.00  0.00     0.133 A 
HETATM    6  C9  UNL     1       0.700  -1.088  -0.470  1.00  0.00     0.027 A 
ENDROOT
BRANCH   6   7
HETATM    7  C10 UNL     1      -0.161  -0.029  -0.914  1.00  0.00     0.014 C 
HETATM    8  C11 UNL     1      -1.389   0.032  -1.393  1.00  0.00    -0.006 C 
BRANCH   8   9
HETATM    9  C12 UNL     1      -2.575  -0.712  -1.770  1.00  0.00     0.148 C 
BRANCH   9  10
HETATM   10  N4  UNL     1      -3.787  -0.322  -1.032  1.00  0.00    -0.373 N 
HETATM   11  H12 UNL     1      -4.589   0.165  -1.502  1.00  0.00     0.161 HD
BRANCH  10  12
HETATM   12  C13 UNL     1      -3.931  -0.588   0.358  1.00  0.00     0.090 C 
HETATM   13  C14 UNL     1      -4.432   0.351   1.140  1.00  0.00     0.016 C 
HETATM   14  C15 UNL     1      -4.793   1.601   0.443  1.00  0.00     0.040 C 
BRANCH  12  15
HETATM   15  N5  UNL     1      -3.524  -1.865   0.857  1.00  0.00    -0.386 N 
HETATM   16  H13 UNL     1      -4.444  -2.342   0.623  1.00  0.00     0.157 HD
HETATM   17  H14 UNL     1      -2.811  -2.483   1.302  1.00  0.00     0.157 HD
ENDBRANCH  12  15
ENDBRANCH  10  12
ENDBRANCH   9  10
ENDBRANCH   8   9
ENDBRANCH   6   7
BRANCH   1  18
HETATM   18  N1  UNL     1       2.438   0.503   0.036  1.00  0.00    -0.362 N 
HETATM   19  H5  UNL     1       2.067   1.418  -0.203  1.00  0.00     0.162 HD
BRANCH  18  20
HETATM   20  C5  UNL     1       3.762   0.687   0.529  1.00  0.00     0.141 A 
HETATM   21  C2  UNL     1       4.343   2.014   0.624  1.00  0.00    -0.024 A 
HETATM   22  C1  UNL     1       4.167   3.052   1.391  1.00  0.00     0.022 C 
HETATM   23  C3  UNL     1       5.264   1.825  -0.491  1.00  0.00     0.017 A 
HETATM   24 BR1  UNL     1       6.602   2.821  -1.410  1.00  0.00    -0.051 Br
HETATM   25  C4  UNL     1       4.755   0.609  -0.605  1.00  0.00     0.022 A 
ENDBRANCH  18  20
ENDBRANCH   1  18
TORSDOF 7
