REMARK  6 active torsions:
REMARK  status: ('A' for Active; 'I' for Inactive)
REMARK    1  A    between atoms: C5_6  and  C6_7 
REMARK    2  A    between atoms: C6_7  and  O1_8 
REMARK    3  A    between atoms: O1_8  and  C7_9 
REMARK    4  A    between atoms: C8_10  and  C9_11 
REMARK    5  A    between atoms: C9_11  and  C10_12 
REMARK    6  A    between atoms: C9_11  and  N1_15 
ROOT
HETATM    1  C9  UNL     1      -0.423  -1.703   0.800  1.00  0.00     0.123 C 
ENDROOT
BRANCH   1   2
HETATM    2  C8  UNL     1      -0.955  -2.100  -0.548  1.00  0.00     0.023 C 
HETATM    3  C7  UNL     1      -0.752  -1.343  -1.591  1.00  0.00     0.133 C 
BRANCH   3   4
HETATM    4  O1  UNL     1      -0.054  -0.149  -1.548  1.00  0.00    -0.359 OA
BRANCH   4   5
HETATM    5  C6  UNL     1       0.370   0.494  -2.736  1.00  0.00     0.213 C 
BRANCH   5   6
HETATM    6  C5  UNL     1       1.132   1.714  -2.345  1.00  0.00    -0.031 A 
HETATM    7  C4  UNL     1       0.545   2.947  -2.164  1.00  0.00     0.009 A 
HETATM    8  C3  UNL     1       1.372   4.015  -1.797  1.00  0.00     0.004 A 
HETATM    9  C2  UNL     1       2.729   3.759  -1.640  1.00  0.00     0.042 A 
HETATM   10  C1  UNL     1       3.318   2.528  -1.820  1.00  0.00     0.117 A 
HETATM   11  F1  UNL     1       4.648   2.324  -1.656  1.00  0.00    -0.206 F 
HETATM   12  C17 UNL     1       2.483   1.482  -2.184  1.00  0.00     0.051 A 
ENDBRANCH   5   6
ENDBRANCH   4   5
ENDBRANCH   3   4
ENDBRANCH   1   2
BRANCH   1  13
HETATM   13  C10 UNL     1       0.511  -0.547   0.683  1.00  0.00     0.040 C 
HETATM   14  C11 UNL     1       0.122   0.591   1.250  1.00  0.00     0.240 C 
HETATM   15 CL1  UNL     1       1.194   1.987   1.139  1.00  0.00    -0.255 Cl
ENDBRANCH   1  13
BRANCH   1  16
HETATM   16  N1  UNL     1      -1.495  -1.465   1.704  1.00  0.00    -0.318 N 
HETATM   17  C12 UNL     1      -2.309  -0.353   1.260  1.00  0.00     0.213 A 
HETATM   18  N2  UNL     1      -3.339  -0.040   2.012  1.00  0.00    -0.237 NA
HETATM   19  C13 UNL     1      -3.634  -0.751   3.191  1.00  0.00     0.236 A 
HETATM   20  N3  UNL     1      -2.909  -1.732   3.575  1.00  0.00    -0.225 NA
HETATM   21  C14 UNL     1      -1.770  -2.197   2.885  1.00  0.00     0.123 A 
HETATM   22  C15 UNL     1      -0.841  -3.104   2.952  1.00  0.00    -0.087 A 
HETATM   23  B1  UNL     1      -1.055  -4.399   4.737  1.00  0.00     0.190 B 
HETATM   24  C16 UNL     1       0.262  -4.055   2.881  1.00  0.00    -0.037 A 
ENDBRANCH   1  16
TORSDOF 6
