REMARK  8 active torsions:
REMARK  status: ('A' for Active; 'I' for Inactive)
REMARK    1  A    between atoms: N1_2  and  C2_3 
REMARK    2  A    between atoms: N1_2  and  C22_28 
REMARK    3  A    between atoms: C2_3  and  C3_4 
REMARK    4  A    between atoms: C4_5  and  C5_6 
REMARK    5  A    between atoms: C5_6  and  N2_7 
REMARK    6  A    between atoms: C13_16  and  N4_17 
REMARK    7  A    between atoms: N4_17  and  C14_18 
REMARK    8  A    between atoms: C22_28  and  C23_29 
ROOT
HETATM    1  N2  UNL     1       0.181  -1.806  -0.168  1.00  0.00    -0.371 N 
HETATM    2  C6  UNL     1      -0.642  -3.004  -0.848  1.00  0.00    -0.004 C 
HETATM    3  C7  UNL     1      -1.888  -3.162  -1.446  1.00  0.00     0.046 C 
HETATM    4  C8  UNL     1      -2.374  -1.948  -0.992  1.00  0.00     0.009 C 
HETATM    5  C9  UNL     1      -1.492  -1.806   0.492  1.00  0.00     0.079 A 
HETATM    6  C10 UNL     1      -2.371  -1.910   1.432  1.00  0.00     0.119 A 
HETATM    7  N3  UNL     1      -2.338  -3.437   1.752  1.00  0.00    -0.288 NA
HETATM    8  C11 UNL     1      -1.842  -4.507   0.964  1.00  0.00     0.090 C 
HETATM    9  C12 UNL     1      -0.663  -4.470  -0.206  1.00  0.00     0.099 C 
HETATM   10  C13 UNL     1      -2.103  -0.398   0.709  1.00  0.00     0.095 A 
HETATM   11  C20 UNL     1      -1.065  -0.910  -0.318  1.00  0.00     0.070 A 
HETATM   12  C21 UNL     1      -1.562  -0.869  -1.777  1.00  0.00     0.040 C 
ENDROOT
BRANCH  10  13
HETATM   13  N4  UNL     1      -2.842   0.806   1.250  1.00  0.00    -0.375 N 
HETATM   14  H16 UNL     1      -2.539   1.077   2.208  1.00  0.00     0.160 HD
BRANCH  13  15
HETATM   15  C14 UNL     1      -3.814   1.492   0.548  1.00  0.00     0.030 A 
HETATM   16  C15 UNL     1      -4.447   1.238  -0.641  1.00  0.00     0.032 A 
HETATM   17  C16 UNL     1      -5.370   2.063  -1.219  1.00  0.00     0.046 A 
HETATM   18  C17 UNL     1      -5.750   3.247  -0.644  1.00  0.00     0.138 A 
HETATM   19  F1  UNL     1      -6.668   4.037  -1.245  1.00  0.00    -0.204 F 
HETATM   20  C18 UNL     1      -5.113   3.526   0.573  1.00  0.00     0.074 A 
HETATM   21 CL1  UNL     1      -5.571   5.037   1.354  1.00  0.00    -0.081 Cl
HETATM   22  C19 UNL     1      -4.185   2.675   1.132  1.00  0.00     0.056 A 
ENDBRANCH  13  15
ENDBRANCH  10  13
BRANCH   1  23
HETATM   23  C5  UNL     1       1.555  -1.417   0.301  1.00  0.00     0.150 C 
BRANCH  23  24
HETATM   24  C4  UNL     1       1.636  -0.007   0.538  1.00  0.00    -0.009 C 
HETATM   25  C3  UNL     1       2.590   0.676  -0.162  1.00  0.00     0.001 C 
BRANCH  25  26
HETATM   26  C2  UNL     1       3.176   2.003  -0.397  1.00  0.00     0.299 C 
BRANCH  26  27
HETATM   27  N1  UNL     1       4.583   2.104  -0.077  1.00  0.00     0.089 N 
HETATM   28  C1  UNL     1       4.794   1.995   1.352  1.00  0.00     0.310 C 
BRANCH  27  29
HETATM   29  C22 UNL     1       5.311   1.061  -0.738  1.00  0.00     0.303 C 
BRANCH  29  30
HETATM   30  C23 UNL     1       6.811   1.357  -0.572  1.00  0.00     0.252 C 
HETATM   31  F2  UNL     1       7.526   0.331  -1.207  1.00  0.00    -0.254 F 
ENDBRANCH  29  30
ENDBRANCH  27  29
ENDBRANCH  26  27
ENDBRANCH  25  26
ENDBRANCH  23  24
ENDBRANCH   1  23
TORSDOF 8
