REMARK  8 active torsions:
REMARK  status: ('A' for Active; 'I' for Inactive)
REMARK    1  A    between atoms: N1_2  and  C2_3 
REMARK    2  A    between atoms: N1_2  and  C21_29 
REMARK    3  A    between atoms: C2_3  and  C3_4 
REMARK    4  A    between atoms: C4_5  and  C5_6 
REMARK       I    between atoms: C5_6  and  N2_8 
REMARK    5  A    between atoms: N2_8  and  C6_9 
REMARK    6  A    between atoms: C13_18  and  N5_19 
REMARK    7  A    between atoms: N5_19  and  C14_20 
REMARK    8  A    between atoms: C21_29  and  C22_30 
ROOT
HETATM    1  C6  UNL     1       0.460  -0.470   1.535  1.00  0.00     0.019 A 
HETATM    2  C7  UNL     1       1.379  -0.177   0.598  1.00  0.00     0.041 A 
HETATM    3  C8  UNL     1       2.219   0.952   1.036  1.00  0.00     0.019 A 
HETATM    4  C9  UNL     1       1.732   1.294   2.282  1.00  0.00     0.052 A 
HETATM    5  N3  UNL     1       2.276   2.319   3.003  1.00  0.00    -0.263 NA
HETATM    6  C10 UNL     1       3.312   2.981   2.439  1.00  0.00     0.142 A 
HETATM    7  C11 UNL     1       3.849   2.695   1.201  1.00  0.00     0.089 A 
HETATM    8  C12 UNL     1       4.943   3.410   0.634  1.00  0.00     0.103 C 
HETATM    9  N4  UNL     1       5.840   3.979   0.166  1.00  0.00    -0.191 NA
HETATM   10  C13 UNL     1       3.276   1.651   0.495  1.00  0.00     0.067 A 
HETATM   11  C20 UNL     1       0.592   0.437   2.703  1.00  0.00     0.117 A 
ENDROOT
BRANCH  10  12
HETATM   12  N5  UNL     1       3.772   1.298  -0.772  1.00  0.00    -0.354 N 
HETATM   13  H11 UNL     1       3.217   1.789  -1.511  1.00  0.00     0.166 HD
BRANCH  12  14
HETATM   14  C14 UNL     1       4.841   0.431  -1.128  1.00  0.00     0.034 A 
HETATM   15  C15 UNL     1       5.108   0.191  -2.459  1.00  0.00     0.032 A 
HETATM   16  C16 UNL     1       6.141  -0.636  -2.815  1.00  0.00     0.046 A 
HETATM   17  C17 UNL     1       6.883  -1.203  -1.785  1.00  0.00     0.138 A 
HETATM   18  F1  UNL     1       7.922  -2.034  -2.117  1.00  0.00    -0.204 F 
HETATM   19  C18 UNL     1       6.651  -0.991  -0.431  1.00  0.00     0.074 A 
HETATM   20 CL1  UNL     1       7.650  -1.757   0.791  1.00  0.00    -0.081 Cl
HETATM   21  C19 UNL     1       5.600  -0.151  -0.130  1.00  0.00     0.056 A 
ENDBRANCH  12  14
ENDBRANCH  10  12
BRANCH   1  22
HETATM   22  N2  UNL     1      -0.423  -1.549   1.234  1.00  0.00    -0.327 N 
HETATM   23  C5  UNL     1      -1.766  -1.085   1.214  1.00  0.00     0.245 C 
HETATM   24  O1  UNL     1      -2.084   0.112   1.434  1.00  0.00    -0.268 OA
HETATM   25  H8  UNL     1      -0.241  -2.550   1.041  1.00  0.00     0.169 HD
BRANCH  23  26
HETATM   26  C4  UNL     1      -2.927  -1.922   0.941  1.00  0.00     0.072 C 
HETATM   27  C3  UNL     1      -4.072  -1.234   0.981  1.00  0.00     0.008 C 
BRANCH  27  28
HETATM   28  C2  UNL     1      -5.408  -1.853   0.737  1.00  0.00     0.299 C 
BRANCH  28  29
HETATM   29  N1  UNL     1      -5.980  -1.185  -0.389  1.00  0.00     0.089 N 
HETATM   30  C1  UNL     1      -5.262  -1.482  -1.588  1.00  0.00     0.310 C 
BRANCH  29  31
HETATM   31  C21 UNL     1      -6.238   0.201  -0.172  1.00  0.00     0.303 C 
BRANCH  31  32
HETATM   32  C22 UNL     1      -7.216   0.789  -1.158  1.00  0.00     0.252 C 
HETATM   33  F2  UNL     1      -7.417   2.144  -0.884  1.00  0.00    -0.254 F 
ENDBRANCH  31  32
ENDBRANCH  29  31
ENDBRANCH  28  29
ENDBRANCH  27  28
ENDBRANCH  23  26
ENDBRANCH   1  22
TORSDOF 8
