REMARK  7 active torsions:
REMARK  status: ('A' for Active; 'I' for Inactive)
REMARK    1  A    between atoms: C2_2  and  C3_3 
REMARK    2  A    between atoms: C5_5  and  C6_6 
REMARK    3  A    between atoms: C10_12  and  O1_13 
REMARK    4  A    between atoms: O1_13  and  C11_14 
REMARK    5  A    between atoms: C11_14  and  C12_15 
REMARK    6  A    between atoms: C13_16  and  C14_17 
REMARK    7  A    between atoms: C15_18  and  C16_19 
ROOT
HETATM    1  C3  UNL     1      -2.518  -0.461  -0.282  1.00  0.00    -0.024 A 
HETATM    2  C4  UNL     1      -3.505   0.517  -0.377  1.00  0.00     0.025 A 
HETATM    3  C5  UNL     1      -3.366   1.674   0.337  1.00  0.00     0.012 A 
HETATM    4  C8  UNL     1      -2.281   1.888   1.140  1.00  0.00     0.018 A 
HETATM    5  C9  UNL     1      -1.276   0.948   1.267  1.00  0.00     0.038 A 
HETATM    6  C10 UNL     1      -1.437  -0.230   0.528  1.00  0.00     0.075 A 
ENDROOT
BRANCH   6   7
HETATM    7  O1  UNL     1      -0.499  -1.275   0.553  1.00  0.00    -0.347 OA
BRANCH   7   8
HETATM    8  C11 UNL     1       0.664  -1.131   1.370  1.00  0.00     0.203 C 
BRANCH   8   9
HETATM    9  C12 UNL     1       1.544  -2.295   1.273  1.00  0.00    -0.000 C 
HETATM   10  C13 UNL     1       2.791  -2.314   0.865  1.00  0.00    -0.002 C 
BRANCH  10  11
HETATM   11  C14 UNL     1       3.651  -1.241   0.405  1.00  0.00    -0.003 C 
HETATM   12  C15 UNL     1       4.901  -1.201  -0.015  1.00  0.00    -0.007 C 
BRANCH  12  13
HETATM   13  C16 UNL     1       5.560   0.052  -0.439  1.00  0.00     0.101 C 
HETATM   14  C17 UNL     1       4.612   1.223  -0.248  1.00  0.00     0.031 C 
HETATM   15 CL1  UNL     1       5.958  -0.002  -2.190  1.00  0.00    -0.121 Cl
ENDBRANCH  12  13
ENDBRANCH  10  11
ENDBRANCH   8   9
ENDBRANCH   7   8
ENDBRANCH   6   7
BRANCH   1  16
HETATM   16  C2  UNL     1      -2.684  -1.716  -1.068  1.00  0.00     0.037 C 
HETATM   17  C1  UNL     1      -1.785  -1.726  -2.287  1.00  0.00     0.010 C 
ENDBRANCH   1  16
BRANCH   3  18
HETATM   18  C6  UNL     1      -4.336   2.762   0.307  1.00  0.00     0.162 A 
HETATM   19  N1  UNL     1      -4.553   3.940   0.802  1.00  0.00    -0.222 NA
HETATM   20  C7  UNL     1      -5.780   4.079   0.101  1.00  0.00     0.237 A 
HETATM   21  N2  UNL     1      -5.573   2.899  -0.400  1.00  0.00    -0.222 NA
ENDBRANCH   3  18
TORSDOF 7
