REMARK  2 active torsions:
REMARK  status: ('A' for Active; 'I' for Inactive)
REMARK    1  A    between atoms: C5_6  and  N1_7 
REMARK    2  A    between atoms: N1_7  and  C6_8 
ROOT
HETATM    1  C6  UNL     1      -0.157  -1.136  -0.390  1.00  0.00     0.133 C 
HETATM    2  N2  UNL     1      -0.648  -0.239   0.354  1.00  0.00    -0.232 N 
HETATM    3  C7  UNL     1       0.008   0.533   1.284  1.00  0.00     0.228 A 
HETATM    4  N3  UNL     1      -1.113   0.848   0.912  1.00  0.00    -0.275 N 
HETATM    5  C8  UNL     1      -2.011   1.893   1.203  1.00  0.00     0.177 C 
HETATM    6  C9  UNL     1      -3.127   1.901   0.141  1.00  0.00     0.199 C 
HETATM    7  O1  UNL     1      -3.774   0.612   0.158  1.00  0.00    -0.332 OA
HETATM    8  C10 UNL     1      -3.119  -0.446  -0.495  1.00  0.00     0.183 C 
HETATM    9  N4  UNL     1      -2.817  -0.250  -1.761  1.00  0.00    -0.153 NA
HETATM   10  N5  UNL     1      -1.607  -0.832  -2.239  1.00  0.00    -0.296 N 
HETATM   11  C11 UNL     1      -0.982  -1.875  -1.392  1.00  0.00     0.194 C 
HETATM   12  C12 UNL     1      -2.098  -2.602  -0.716  1.00  0.00     0.012 C 
HETATM   13  C13 UNL     1      -2.720  -1.758   0.080  1.00  0.00     0.058 C 
HETATM   14  H10 UNL     1      -1.211  -0.510  -3.148  1.00  0.00     0.183 HD
ENDROOT
BRANCH   1  15
HETATM   15  N1  UNL     1       1.202  -1.454  -0.336  1.00  0.00    -0.342 N 
HETATM   16  H4  UNL     1       1.626  -2.366  -0.641  1.00  0.00     0.167 HD
BRANCH  15  17
HETATM   17  C5  UNL     1       2.266  -0.646   0.122  1.00  0.00     0.035 A 
HETATM   18  C4  UNL     1       3.061  -0.675   1.269  1.00  0.00     0.029 A 
HETATM   19  C3  UNL     1       4.056   0.248   1.495  1.00  0.00     0.004 A 
HETATM   20  C2  UNL     1       4.310   1.256   0.577  1.00  0.00     0.024 A 
HETATM   21  C1  UNL     1       3.529   1.292  -0.558  1.00  0.00     0.036 A 
HETATM   22 CL1  UNL     1       3.922   2.604  -1.673  1.00  0.00    -0.084 Cl
HETATM   23  C14 UNL     1       2.520   0.366  -0.800  1.00  0.00     0.053 A 
ENDBRANCH  15  17
ENDBRANCH   1  15
TORSDOF 2
