REMARK  7 active torsions:
REMARK  status: ('A' for Active; 'I' for Inactive)
REMARK    1  A    between atoms: N1_1  and  C1_2 
REMARK    2  A    between atoms: C6_7  and  N2_8 
REMARK       I    between atoms: N2_8  and  C7_9 
REMARK    3  A    between atoms: C7_9  and  C8_11 
REMARK    4  A    between atoms: C9_12  and  C10_13 
REMARK    5  A    between atoms: C13_16  and  C14_17 
REMARK    6  A    between atoms: C14_17  and  C15_18 
REMARK    7  A    between atoms: C15_18  and  C16_19 
ROOT
HETATM    1  C8  UNL     1       1.770   0.344   0.554  1.00  0.00     0.077 C 
HETATM    2  C9  UNL     1       1.555  -0.957   0.445  1.00  0.00     0.042 C 
ENDROOT
BRANCH   2   3
HETATM    3  C10 UNL     1       0.201  -1.526   0.499  1.00  0.00     0.075 A 
HETATM    4  C11 UNL     1      -0.231  -2.839   0.406  1.00  0.00     0.040 A 
HETATM    5  C12 UNL     1      -1.603  -2.856   0.516  1.00  0.00     0.035 A 
HETATM    6  C13 UNL     1      -1.968  -1.538   0.674  1.00  0.00     0.054 A 
HETATM    7  O2  UNL     1      -0.880  -0.803   0.658  1.00  0.00    -0.315 OA
BRANCH   6   8
HETATM    8  C14 UNL     1      -3.372  -1.024   0.839  1.00  0.00     0.071 C 
BRANCH   8   9
HETATM    9  C15 UNL     1      -3.878  -0.743  -0.532  1.00  0.00     0.061 C 
BRANCH   9  10
HETATM   10  C16 UNL     1      -5.235  -0.228  -0.654  1.00  0.00     0.017 C 
HETATM   11  N3  UNL     1      -6.102  -0.909  -1.332  1.00  0.00    -0.251 NA
HETATM   12  C17 UNL     1      -7.480  -0.654  -1.615  1.00  0.00     0.232 C 
HETATM   13  N4  UNL     1      -8.290   0.114  -0.959  1.00  0.00    -0.254 NA
HETATM   14  C18 UNL     1      -7.987   0.889   0.208  1.00  0.00     0.114 C 
HETATM   15  C19 UNL     1      -6.765   1.247   0.582  1.00  0.00    -0.002 C 
HETATM   16  C20 UNL     1      -5.392   1.042   0.050  1.00  0.00     0.083 C 
ENDBRANCH   9  10
ENDBRANCH   8   9
ENDBRANCH   6   8
ENDBRANCH   2   3
BRANCH   1  17
HETATM   17  C7  UNL     1       3.113   0.901   0.500  1.00  0.00     0.245 C 
HETATM   18  N2  UNL     1       4.272   0.117   0.329  1.00  0.00    -0.322 N 
HETATM   19  H7  UNL     1       4.211  -0.903   0.234  1.00  0.00     0.169 HD
HETATM   20  O1  UNL     1       3.278   2.143   0.608  1.00  0.00    -0.268 OA
BRANCH  18  21
HETATM   21  C6  UNL     1       5.596   0.644   0.272  1.00  0.00     0.061 A 
HETATM   22  C1  UNL     1       5.963   0.957  -1.035  1.00  0.00     0.052 A 
HETATM   23  C2  UNL     1       7.201   1.482  -1.340  1.00  0.00     0.031 A 
HETATM   24  C3  UNL     1       8.107   1.704  -0.309  1.00  0.00     0.002 A 
HETATM   25  C4  UNL     1       7.736   1.391   0.982  1.00  0.00     0.002 A 
HETATM   26  C5  UNL     1       6.502   0.867   1.291  1.00  0.00     0.032 A 
BRANCH  22  27
HETATM   27  N1  UNL     1       5.140   0.785  -2.194  1.00  0.00    -0.397 N 
HETATM   28  H1  UNL     1       4.217   1.197  -2.351  1.00  0.00     0.156 HD
HETATM   29  H2  UNL     1       5.375   0.216  -3.034  1.00  0.00     0.156 HD
ENDBRANCH  22  27
ENDBRANCH  18  21
ENDBRANCH   1  17
TORSDOF 7
