REMARK  7 active torsions:
REMARK  status: ('A' for Active; 'I' for Inactive)
REMARK    1  A    between atoms: C2_2  and  C13_17 
REMARK    2  A    between atoms: C3_3  and  C4_4 
REMARK    3  A    between atoms: C4_4  and  N1_5 
REMARK    4  A    between atoms: N1_5  and  C5_6 
REMARK    5  A    between atoms: C13_17  and  O1_19 
REMARK    6  A    between atoms: O1_19  and  C15_20 
REMARK    7  A    between atoms: C15_20  and  C16_21 
ROOT
HETATM    1  C1  UNL     1       0.041  -2.107   0.833  1.00  0.00     0.046 C 
HETATM    2  C2  UNL     1      -0.605  -1.117  -0.098  1.00  0.00    -0.058 C 
HETATM    3  C3  UNL     1       0.246  -0.512  -0.915  1.00  0.00    -0.003 C 
ENDROOT
BRANCH   3   4
HETATM    4  C4  UNL     1       1.699  -0.763  -0.934  1.00  0.00     0.149 C 
BRANCH   4   5
HETATM    5  N1  UNL     1       2.490   0.440  -0.648  1.00  0.00    -0.371 N 
HETATM    6  H7  UNL     1       1.915   1.285  -0.475  1.00  0.00     0.161 HD
BRANCH   5   7
HETATM    7  C5  UNL     1       3.907   0.337  -0.635  1.00  0.00     0.137 A 
HETATM    8  N2  UNL     1       4.494  -0.845  -0.883  1.00  0.00    -0.224 NA
HETATM    9  C6  UNL     1       5.823  -0.962  -0.876  1.00  0.00     0.235 A 
HETATM   10  N3  UNL     1       6.634   0.094  -0.622  1.00  0.00    -0.241 NA
HETATM   11  C7  UNL     1       6.125   1.315  -0.363  1.00  0.00     0.072 A 
HETATM   12  C8  UNL     1       6.899   2.420  -0.098  1.00  0.00     0.034 A 
HETATM   13  C12 UNL     1       4.749   1.397  -0.379  1.00  0.00     0.040 A 
HETATM   14  C9  UNL     1       6.339   3.671   0.166  1.00  0.00     0.026 A 
HETATM   15  C10 UNL     1       4.960   3.771   0.154  1.00  0.00     0.035 A 
HETATM   16 CL1  UNL     1       4.227   5.328   0.483  1.00  0.00    -0.084 Cl
HETATM   17  C11 UNL     1       4.212   2.640  -0.116  1.00  0.00     0.041 A 
ENDBRANCH   5   7
ENDBRANCH   4   5
ENDBRANCH   3   4
BRANCH   2  18
HETATM   18  C13 UNL     1      -2.080  -0.812  -0.134  1.00  0.00     0.146 C 
HETATM   19  C14 UNL     1      -2.269   0.242  -1.225  1.00  0.00     0.044 C 
BRANCH  18  20
HETATM   20  O1  UNL     1      -2.398  -0.324   1.105  1.00  0.00    -0.377 OA
BRANCH  20  21
HETATM   21  C15 UNL     1      -3.326  -1.037   1.834  1.00  0.00     0.207 C 
BRANCH  21  22
HETATM   22  C16 UNL     1      -4.615  -1.081   1.105  1.00  0.00    -0.032 A 
HETATM   23  C17 UNL     1      -5.119  -2.050   0.269  1.00  0.00     0.009 A 
HETATM   24  C18 UNL     1      -6.339  -1.927  -0.347  1.00  0.00     0.004 A 
HETATM   25  C19 UNL     1      -7.144  -0.823  -0.170  1.00  0.00     0.042 A 
HETATM   26  C20 UNL     1      -6.696   0.184   0.657  1.00  0.00     0.117 A 
HETATM   27  F1  UNL     1      -7.429   1.300   0.883  1.00  0.00    -0.206 F 
HETATM   28  C21 UNL     1      -5.465   0.022   1.257  1.00  0.00     0.051 A 
ENDBRANCH  21  22
ENDBRANCH  20  21
ENDBRANCH  18  20
ENDBRANCH   2  18
TORSDOF 7
