REMARK  6 active torsions:
REMARK  status: ('A' for Active; 'I' for Inactive)
REMARK    1  A    between atoms: C1_2  and  P1_3 
REMARK    2  A    between atoms: P1_3  and  C2_4 
REMARK    3  A    between atoms: C3_5  and  C4_6 
REMARK    4  A    between atoms: C5_7  and  C6_8 
REMARK    5  A    between atoms: C9_13  and  C10_14 
REMARK    6  A    between atoms: C10_14  and  P2_15 
ROOT
HETATM    1  C6  UNL     1      -0.221  -1.344  -2.228  1.00  0.00     0.269 C 
HETATM    2  N1  UNL     1       0.396  -2.425  -1.474  1.00  0.00    -0.249 NA
HETATM    3  C7  UNL     1       1.129  -2.095  -0.436  1.00  0.00     0.204 C 
HETATM    4  N2  UNL     1       1.139  -0.683  -0.297  1.00  0.00    -0.351 N 
HETATM    5  C8  UNL     1       1.842   0.580  -0.411  1.00  0.00     0.030 C 
HETATM    6  C9  UNL     1       2.482   1.131   0.605  1.00  0.00     0.007 C 
HETATM    7  C11 UNL     1       1.919   1.292  -1.685  1.00  0.00     0.051 C 
HETATM    8  C12 UNL     1       1.718   1.576  -2.977  1.00  0.00     0.037 C 
HETATM    9 CL1  UNL     1       2.020   2.656  -4.299  1.00  0.00    -0.087 Cl
HETATM   10  C13 UNL     1       0.746   0.476  -3.386  1.00  0.00     0.222 C 
HETATM   11  O1  UNL     1       0.526  -0.229  -2.260  1.00  0.00    -0.356 OA
HETATM   12  H10 UNL     1       0.357  -0.086   0.046  1.00  0.00     0.166 HD
ENDROOT
BRANCH   1  13
HETATM   13  C5  UNL     1      -1.549  -1.131  -1.544  1.00  0.00     0.028 C 
HETATM   14  C4  UNL     1      -2.427  -1.074  -0.578  1.00  0.00     0.000 C 
BRANCH  14  15
HETATM   15  C3  UNL     1      -3.706  -0.866   0.068  1.00  0.00     0.001 C 
HETATM   16  C2  UNL     1      -3.769  -1.051   1.357  1.00  0.00     0.006 C 
BRANCH  16  17
HETATM   17  P1  UNL     1      -2.275  -1.555   2.279  1.00  0.00    -0.076 P 
HETATM   18  H3  UNL     1      -1.186  -0.628   2.053  1.00  0.00     0.064 HD
BRANCH  17  19
HETATM   19  C1  UNL     1      -2.638  -1.824   4.060  1.00  0.00     0.256 C 
HETATM   20  F1  UNL     1      -1.725  -1.114   4.809  1.00  0.00    -0.251 F 
ENDBRANCH  17  19
ENDBRANCH  16  17
ENDBRANCH  14  15
ENDBRANCH   1  13
BRANCH   6  21
HETATM   21  C10 UNL     1       3.273   2.306   0.935  1.00  0.00     0.057 C 
BRANCH  21  22
HETATM   22  P2  UNL     1       2.391   3.228   2.311  1.00  0.00    -0.138 P 
HETATM   23  H14 UNL     1       0.949   3.132   2.035  1.00  0.00     0.054 HD
HETATM   24  H15 UNL     1       2.614   2.498   3.545  1.00  0.00     0.054 HD
ENDBRANCH  21  22
ENDBRANCH   6  21
TORSDOF 6
