REMARK  4 active torsions:
REMARK  status: ('A' for Active; 'I' for Inactive)
REMARK    1  A    between atoms: C2_3  and  C3_4 
REMARK    2  A    between atoms: C3_4  and  N1_5 
REMARK    3  A    between atoms: N1_5  and  C4_6 
REMARK    4  A    between atoms: C9_13  and  C10_14 
ROOT
HETATM    1  C4  UNL     1      -2.782  -0.381  -0.431  1.00  0.00     0.137 A 
HETATM    2  N2  UNL     1      -3.840  -1.173  -0.277  1.00  0.00    -0.224 NA
HETATM    3  C5  UNL     1      -3.738  -2.425   0.162  1.00  0.00     0.235 A 
HETATM    4  N3  UNL     1      -2.576  -2.999   0.486  1.00  0.00    -0.241 NA
HETATM    5  C6  UNL     1      -1.466  -2.245   0.351  1.00  0.00     0.072 A 
HETATM    6  C7  UNL     1      -0.250  -2.786   0.669  1.00  0.00     0.033 A 
HETATM    7  C8  UNL     1       0.917  -2.039   0.543  1.00  0.00     0.014 A 
HETATM    8  C9  UNL     1       0.811  -0.733   0.085  1.00  0.00    -0.025 A 
HETATM    9  C18 UNL     1      -0.426  -0.220  -0.227  1.00  0.00     0.030 A 
HETATM   10  C19 UNL     1      -1.572  -0.964  -0.099  1.00  0.00     0.039 A 
ENDROOT
BRANCH   8  11
HETATM   11  C10 UNL     1       2.024   0.065  -0.055  1.00  0.00    -0.029 A 
HETATM   12  C11 UNL     1       3.242  -0.370   0.228  1.00  0.00     0.003 A 
HETATM   13  C12 UNL     1       4.238   0.694  -0.026  1.00  0.00     0.017 A 
HETATM   14  C13 UNL     1       5.320   0.286  -0.912  1.00  0.00    -0.013 A 
HETATM   15  C15 UNL     1       5.209   0.993   1.037  1.00  0.00     0.048 A 
HETATM   16  C16 UNL     1       3.370   1.793  -0.497  1.00  0.00    -0.008 A 
HETATM   17  C14 UNL     1       6.204   0.550   0.033  1.00  0.00    -0.028 A 
HETATM   18  C17 UNL     1       2.091   1.447  -0.519  1.00  0.00     0.009 A 
ENDBRANCH   8  11
BRANCH   1  19
HETATM   19  N1  UNL     1      -2.934   0.968  -0.909  1.00  0.00    -0.371 N 
HETATM   20  H5  UNL     1      -2.165   1.643  -1.054  1.00  0.00     0.161 HD
BRANCH  19  21
HETATM   21  C3  UNL     1      -4.280   1.421  -1.212  1.00  0.00     0.149 C 
BRANCH  21  22
HETATM   22  C2  UNL     1      -5.152   1.356  -0.002  1.00  0.00     0.004 C 
HETATM   23  C1  UNL     1      -4.953   0.980   1.256  1.00  0.00     0.082 C 
HETATM   24 CL1  UNL     1      -6.126   0.968   2.587  1.00  0.00    -0.097 Cl
ENDBRANCH  21  22
ENDBRANCH  19  21
ENDBRANCH   1  19
TORSDOF 4
