REMARK  5 active torsions:
REMARK  status: ('A' for Active; 'I' for Inactive)
REMARK    1  A    between atoms: C5_6  and  C6_7 
REMARK    2  A    between atoms: C6_7  and  O1_8 
REMARK    3  A    between atoms: O1_8  and  C7_9 
REMARK    4  A    between atoms: C10_12  and  N1_13 
REMARK    5  A    between atoms: N1_13  and  C11_14 
ROOT
HETATM    1  C7  UNL     1       0.471  -0.017  -0.086  1.00  0.00     0.091 A 
HETATM    2  C8  UNL     1       0.003  -1.189   0.467  1.00  0.00     0.041 A 
HETATM    3  C9  UNL     1      -1.338  -1.487   0.493  1.00  0.00     0.032 A 
HETATM    4  C10 UNL     1      -2.302  -0.623  -0.038  1.00  0.00     0.035 A 
HETATM    5  C15 UNL     1      -1.767   0.528  -0.574  1.00  0.00     0.056 A 
HETATM    6  C16 UNL     1      -0.434   0.872  -0.625  1.00  0.00     0.069 A 
HETATM    7 CL1  UNL     1       0.139   2.359  -1.329  1.00  0.00    -0.081 Cl
ENDROOT
BRANCH   1   8
HETATM    8  O1  UNL     1       1.825   0.285  -0.113  1.00  0.00    -0.345 OA
BRANCH   8   9
HETATM    9  C6  UNL     1       2.732  -0.647   0.447  1.00  0.00     0.214 C 
BRANCH   9  10
HETATM   10  C5  UNL     1       4.125  -0.154   0.327  1.00  0.00    -0.031 A 
HETATM   11  C4  UNL     1       4.561   0.610   1.403  1.00  0.00     0.009 A 
HETATM   12  C3  UNL     1       5.843   1.127   1.407  1.00  0.00     0.004 A 
HETATM   13  C2  UNL     1       6.678   0.866   0.318  1.00  0.00     0.042 A 
HETATM   14  C1  UNL     1       6.218   0.100  -0.744  1.00  0.00     0.117 A 
HETATM   15  F1  UNL     1       7.016  -0.157  -1.798  1.00  0.00    -0.206 F 
HETATM   16  C17 UNL     1       4.927  -0.427  -0.759  1.00  0.00     0.051 A 
ENDBRANCH   9  10
ENDBRANCH   8   9
ENDBRANCH   1   8
BRANCH   4  17
HETATM   17  N1  UNL     1      -3.667  -0.948  -0.000  1.00  0.00    -0.341 N 
HETATM   18  H8  UNL     1      -3.900  -1.864   0.445  1.00  0.00     0.167 HD
BRANCH  17  19
HETATM   19  C11 UNL     1      -4.769  -0.197  -0.487  1.00  0.00     0.130 A 
HETATM   20  C12 UNL     1      -6.052  -0.679  -0.361  1.00  0.00     0.070 A 
HETATM   21  C13 UNL     1      -7.169  -0.015  -0.804  1.00  0.00     0.122 A 
HETATM   22  N2  UNL     1      -7.000   1.167  -1.391  1.00  0.00    -0.254 NA
HETATM   23  C14 UNL     1      -5.773   1.691  -1.543  1.00  0.00     0.234 A 
HETATM   24  N3  UNL     1      -4.725   0.991  -1.088  1.00  0.00    -0.225 NA
ENDBRANCH  17  19
ENDBRANCH   4  17
TORSDOF 5
