REMARK  3 active torsions:
REMARK  status: ('A' for Active; 'I' for Inactive)
REMARK    1  A    between atoms: C7_8  and  C8_9 
REMARK       I    between atoms: C8_9  and  N2_11 
REMARK    2  A    between atoms: N2_11  and  C9_12 
REMARK    3  A    between atoms: C14_17  and  N3_18 
ROOT
HETATM    1  C1  UNL     1      -3.313   1.615  -2.321  1.00  0.00     0.043 C 
HETATM    2  C2  UNL     1      -3.056   0.331  -1.677  1.00  0.00    -0.083 C 
HETATM    3  C3  UNL     1      -2.571   0.729  -0.524  1.00  0.00     0.003 C 
HETATM    4  C4  UNL     1      -2.101   1.507   0.568  1.00  0.00     0.014 C 
HETATM    5  C5  UNL     1      -1.057   1.441   1.313  1.00  0.00    -0.009 C 
HETATM    6  C6  UNL     1      -0.501   0.301   1.534  1.00  0.00     0.111 C 
HETATM    7  N1  UNL     1      -0.161  -0.548   0.464  1.00  0.00    -0.304 N 
HETATM    8  C7  UNL     1       0.393   0.027  -0.606  1.00  0.00     0.108 C 
HETATM    9  C15 UNL     1       0.315   0.197  -1.891  1.00  0.00     0.032 C 
HETATM   10  C16 UNL     1      -0.755  -0.451  -2.551  1.00  0.00    -0.018 C 
HETATM   11  C17 UNL     1      -1.270  -1.092  -1.481  1.00  0.00     0.064 C 
HETATM   12  C18 UNL     1      -2.486  -2.026  -1.385  1.00  0.00    -0.021 C 
HETATM   13  C19 UNL     1      -3.532  -2.900  -1.074  1.00  0.00    -0.019 C 
HETATM   14  C20 UNL     1      -3.550  -3.301   0.291  1.00  0.00     0.024 C 
HETATM   15  C21 UNL     1      -2.689  -2.684   1.129  1.00  0.00     0.042 C 
HETATM   16  C22 UNL     1      -1.722  -1.967   1.992  1.00  0.00     0.138 C 
HETATM   17  C23 UNL     1      -0.581  -1.665   1.141  1.00  0.00     0.117 C 
HETATM   18  N4  UNL     1       0.115  -2.668   1.094  1.00  0.00    -0.228 NA
HETATM   19  C24 UNL     1      -0.642  -3.918   1.446  1.00  0.00     0.235 C 
HETATM   20  N5  UNL     1      -2.011  -3.843   1.782  1.00  0.00    -0.246 NA
HETATM   21  C25 UNL     1      -3.213  -1.031  -2.369  1.00  0.00     0.043 C 
ENDROOT
BRANCH   8  22
HETATM   22  C8  UNL     1       1.594   0.800  -0.279  1.00  0.00     0.273 C 
HETATM   23  O1  UNL     1       2.108   1.337  -1.328  1.00  0.00    -0.266 OA
HETATM   24  N2  UNL     1       2.301   1.083   0.897  1.00  0.00    -0.320 N 
HETATM   25  H7  UNL     1       1.880   0.641   1.721  1.00  0.00     0.169 HD
BRANCH  24  26
HETATM   26  C9  UNL     1       3.473   1.873   1.017  1.00  0.00     0.061 A 
HETATM   27  C10 UNL     1       3.325   3.242   1.205  1.00  0.00     0.032 A 
HETATM   28  C11 UNL     1       4.477   3.982   1.324  1.00  0.00     0.002 A 
HETATM   29  C12 UNL     1       5.763   3.493   1.277  1.00  0.00     0.002 A 
HETATM   30  C13 UNL     1       5.897   2.132   1.089  1.00  0.00     0.031 A 
HETATM   31  C14 UNL     1       4.760   1.374   0.967  1.00  0.00     0.052 A 
BRANCH  31  32
HETATM   32  N3  UNL     1       4.964  -0.020   0.783  1.00  0.00    -0.397 N 
HETATM   33  H12 UNL     1       4.579  -0.982   0.833  1.00  0.00     0.156 HD
HETATM   34  H13 UNL     1       5.874  -0.452   0.433  1.00  0.00     0.156 HD
ENDBRANCH  31  32
ENDBRANCH  24  26
ENDBRANCH   8  22
TORSDOF 3
