REMARK  4 active torsions:
REMARK  status: ('A' for Active; 'I' for Inactive)
REMARK    1  A    between atoms: N1_1  and  C1_2 
REMARK    2  A    between atoms: C6_7  and  N2_8 
REMARK       I    between atoms: N2_8  and  C7_9 
REMARK    3  A    between atoms: C7_9  and  C8_11 
REMARK    4  A    between atoms: C11_14  and  C12_15 
ROOT
HETATM    1  N2  UNL     1      -1.539   0.001  -0.486  1.00  0.00    -0.319 N 
HETATM    2  C7  UNL     1      -1.253   0.874   0.595  1.00  0.00     0.280 C 
HETATM    3  O1  UNL     1      -2.109   1.493   1.294  1.00  0.00    -0.265 OA
HETATM    4  H7  UNL     1      -0.742  -0.460  -0.997  1.00  0.00     0.169 HD
ENDROOT
BRANCH   2   5
HETATM    5  C8  UNL     1       0.142   1.097   0.954  1.00  0.00     0.144 A 
HETATM    6  C9  UNL     1       0.603   1.923   1.987  1.00  0.00     0.046 A 
HETATM    7  C10 UNL     1       1.984   1.885   2.027  1.00  0.00     0.041 A 
HETATM    8  C11 UNL     1       2.285   1.024   0.999  1.00  0.00     0.087 A 
HETATM    9  O2  UNL     1       1.203   0.593   0.406  1.00  0.00    -0.304 OA
BRANCH   8  10
HETATM   10  C12 UNL     1       3.556   0.549   0.500  1.00  0.00     0.010 A 
HETATM   11  C13 UNL     1       4.766   0.831   0.919  1.00  0.00     0.027 A 
HETATM   12  P1  UNL     1       6.011   0.033   0.026  1.00  0.00    -0.055 P 
HETATM   13  C14 UNL     1       6.021  -1.087  -1.337  1.00  0.00     0.071 A 
HETATM   14  C16 UNL     1       4.213  -0.292  -0.482  1.00  0.00    -0.017 A 
HETATM   15  C15 UNL     1       4.540  -1.112  -1.460  1.00  0.00    -0.008 A 
ENDBRANCH   8  10
ENDBRANCH   2   5
BRANCH   1  16
HETATM   16  C6  UNL     1      -2.952  -0.135  -0.740  1.00  0.00     0.061 A 
HETATM   17  C1  UNL     1      -3.554  -1.169  -0.033  1.00  0.00     0.052 A 
HETATM   18  C2  UNL     1      -4.922  -1.385  -0.208  1.00  0.00     0.031 A 
HETATM   19  C3  UNL     1      -5.627  -0.571  -1.070  1.00  0.00     0.002 A 
HETATM   20  C4  UNL     1      -5.028   0.458  -1.774  1.00  0.00     0.002 A 
HETATM   21  C5  UNL     1      -3.676   0.668  -1.598  1.00  0.00     0.032 A 
BRANCH  17  22
HETATM   22  N1  UNL     1      -2.829  -2.023   0.868  1.00  0.00    -0.397 N 
HETATM   23  H1  UNL     1      -2.768  -2.917   0.304  1.00  0.00     0.156 HD
HETATM   24  H2  UNL     1      -2.448  -1.837   1.837  1.00  0.00     0.156 HD
ENDBRANCH  17  22
ENDBRANCH   1  16
TORSDOF 4
