REMARK  8 active torsions:
REMARK  status: ('A' for Active; 'I' for Inactive)
REMARK    1  A    between atoms: C5_5  and  O1_6 
REMARK    2  A    between atoms: O1_6  and  C6_7 
REMARK    3  A    between atoms: C15_19  and  C16_20 
REMARK    4  A    between atoms: C16_20  and  C17_21 
REMARK    5  A    between atoms: C17_21  and  C18_22 
REMARK    6  A    between atoms: C18_22  and  C19_23 
REMARK    7  A    between atoms: C19_23  and  C20_24 
REMARK    8  A    between atoms: C20_24  and  C21_25 
ROOT
HETATM    1  C6  UNL     1       0.472  -0.319  -0.739  1.00  0.00     0.084 C 
HETATM    2  C7  UNL     1       0.232  -1.114  -1.838  1.00  0.00     0.016 C 
HETATM    3  C8  UNL     1      -0.488  -2.079  -2.731  1.00  0.00     0.095 C 
HETATM    4  C9  UNL     1      -1.694  -2.666  -2.475  1.00  0.00     0.072 C 
HETATM    5  N1  UNL     1      -2.933  -3.003  -1.757  1.00  0.00    -0.373 N 
HETATM    6  C10 UNL     1      -3.236  -2.549  -0.452  1.00  0.00     0.137 A 
HETATM    7  N2  UNL     1      -4.509  -2.676  -0.125  1.00  0.00    -0.224 NA
HETATM    8  C11 UNL     1      -5.081  -2.317   1.035  1.00  0.00     0.235 A 
HETATM    9  N3  UNL     1      -4.271  -1.761   1.975  1.00  0.00    -0.241 NA
HETATM   10  C12 UNL     1      -2.949  -1.600   1.706  1.00  0.00     0.073 A 
HETATM   11  C13 UNL     1      -2.388  -1.993   0.475  1.00  0.00     0.037 A 
HETATM   12  C14 UNL     1      -1.059  -1.786   0.330  1.00  0.00     0.031 C 
HETATM   13  C15 UNL     1      -0.583  -0.365   0.250  1.00  0.00     0.121 C 
HETATM   14  N4  UNL     1      -0.255  -0.013   1.611  1.00  0.00    -0.280 NA
HETATM   15  C22 UNL     1      -1.091  -0.273   2.602  1.00  0.00     0.114 C 
HETATM   16  C23 UNL     1      -2.377  -1.007   2.781  1.00  0.00     0.051 C 
HETATM   17  H10 UNL     1      -3.563  -3.609  -2.306  1.00  0.00     0.161 HD
ENDROOT
BRANCH   1  18
HETATM   18  O1  UNL     1       1.561   0.461  -0.530  1.00  0.00    -0.316 OA
BRANCH  18  19
HETATM   19  C5  UNL     1       2.739   0.171   0.094  1.00  0.00     0.059 C 
HETATM   20  C4  UNL     1       2.822   0.234   1.592  1.00  0.00     0.092 C 
HETATM   21  C3  UNL     1       4.224   0.380   2.071  1.00  0.00    -0.018 C 
HETATM   22  C2  UNL     1       5.331   0.069   1.445  1.00  0.00    -0.083 C 
HETATM   23  C1  UNL     1       6.663   0.273   2.057  1.00  0.00     0.043 C 
HETATM   24  C26 UNL     1       5.165  -0.501   0.085  1.00  0.00     0.069 C 
HETATM   25  C24 UNL     1       3.863  -0.175  -0.524  1.00  0.00    -0.050 C 
HETATM   26  C25 UNL     1       3.862  -0.259  -2.002  1.00  0.00     0.046 C 
ENDBRANCH  18  19
ENDBRANCH   1  18
BRANCH  13  27
HETATM   27  C16 UNL     1      -1.695   0.570  -0.250  1.00  0.00     0.063 C 
BRANCH  27  28
HETATM   28  C17 UNL     1      -1.174   1.953  -0.394  1.00  0.00     0.084 C 
BRANCH  28  29
HETATM   29  C18 UNL     1      -1.943   2.986  -0.198  1.00  0.00    -0.100 C 
BRANCH  29  30
HETATM   30  C19 UNL     1      -2.847   3.907  -0.111  1.00  0.00    -0.098 C 
BRANCH  30  31
HETATM   31  C20 UNL     1      -3.803   4.801  -0.008  1.00  0.00     0.111 C 
BRANCH  31  32
HETATM   32  C21 UNL     1      -5.233   4.412  -0.084  1.00  0.00     0.240 C 
HETATM   33  F1  UNL     1      -5.838   5.015  -1.189  1.00  0.00    -0.254 F 
ENDBRANCH  31  32
ENDBRANCH  30  31
ENDBRANCH  29  30
ENDBRANCH  28  29
ENDBRANCH  27  28
ENDBRANCH  13  27
TORSDOF 8
