REMARK  8 active torsions:
REMARK  status: ('A' for Active; 'I' for Inactive)
REMARK    1  A    between atoms: C2_2  and  O1_3 
REMARK    2  A    between atoms: O1_3  and  C3_4 
REMARK    3  A    between atoms: C7_8  and  C8_9 
REMARK    4  A    between atoms: C8_9  and  C9_10 
REMARK    5  A    between atoms: C15_18  and  C16_19 
REMARK    6  A    between atoms: C16_19  and  C17_20 
REMARK    7  A    between atoms: C17_20  and  C18_21 
REMARK    8  A    between atoms: C18_21  and  O4_23 
ROOT
HETATM    1  C9  UNL     1       2.191   0.567   0.824  1.00  0.00     0.008 C 
HETATM    2  C10 UNL     1       0.959   1.040   0.812  1.00  0.00     0.042 A 
HETATM    3  N1  UNL     1       0.495   2.389   1.057  1.00  0.00    -0.322 N 
HETATM    4  C11 UNL     1      -0.899   2.368   0.939  1.00  0.00     0.257 A 
HETATM    5  O2  UNL     1      -1.527   3.447   1.114  1.00  0.00    -0.267 OA
HETATM    6  C12 UNL     1      -1.434   1.071   0.625  1.00  0.00     0.046 A 
HETATM    7  C13 UNL     1      -2.731   0.802   0.471  1.00  0.00     0.048 A 
HETATM    8  C14 UNL     1      -3.356  -0.472   0.156  1.00  0.00     0.042 A 
HETATM    9  C15 UNL     1      -4.730  -0.716   0.010  1.00  0.00    -0.024 A 
HETATM   10  C19 UNL     1      -4.866  -2.055  -0.284  1.00  0.00    -0.038 A 
HETATM   11  C20 UNL     1      -6.173  -2.690  -0.512  1.00  0.00     0.050 C 
HETATM   12  C21 UNL     1      -3.585  -2.622  -0.316  1.00  0.00     0.099 A 
HETATM   13  N2  UNL     1      -2.717  -1.619  -0.044  1.00  0.00    -0.352 N 
HETATM   14  C22 UNL     1      -1.344  -2.077  -0.041  1.00  0.00     0.156 A 
HETATM   15  C23 UNL     1      -0.353  -1.050   0.258  1.00  0.00     0.008 A 
HETATM   16  C24 UNL     1      -0.243   0.235   0.546  1.00  0.00     0.004 A 
HETATM   17  H12 UNL     1       1.122   3.210   1.279  1.00  0.00     0.169 HD
ENDROOT
BRANCH   1  18
HETATM   18  C8  UNL     1       3.205  -0.453   0.699  1.00  0.00     0.068 C 
BRANCH  18  19
HETATM   19  C7  UNL     1       4.270  -0.168  -0.316  1.00  0.00    -0.052 A 
HETATM   20  C6  UNL     1       3.889  -0.522  -1.589  1.00  0.00     0.007 A 
HETATM   21  C5  UNL     1       4.772  -0.331  -2.637  1.00  0.00     0.003 A 
HETATM   22  C4  UNL     1       6.032   0.218  -2.379  1.00  0.00     0.037 A 
HETATM   23  C3  UNL     1       6.387   0.567  -1.070  1.00  0.00     0.069 A 
HETATM   24  C25 UNL     1       5.511   0.380  -0.019  1.00  0.00     0.044 A 
BRANCH  23  25
HETATM   25  O1  UNL     1       7.616   1.111  -0.784  1.00  0.00    -0.352 OA
BRANCH  25  26
HETATM   26  C2  UNL     1       8.106   1.492   0.468  1.00  0.00     0.171 C 
HETATM   27  C1  UNL     1       8.145   0.272   1.370  1.00  0.00     0.034 C 
ENDBRANCH  25  26
ENDBRANCH  23  25
ENDBRANCH  18  19
ENDBRANCH   1  18
BRANCH   9  28
HETATM   28  C16 UNL     1      -5.650   0.403   0.197  1.00  0.00     0.052 C 
BRANCH  28  29
HETATM   29  C17 UNL     1      -7.097   0.093   0.223  1.00  0.00     0.115 C 
BRANCH  29  30
HETATM   30  C18 UNL     1      -7.795   1.416   0.438  1.00  0.00     0.139 C 
HETATM   31  O3  UNL     1      -7.730   2.495  -0.235  1.00  0.00    -0.650 OA
BRANCH  30  32
HETATM   32  O4  UNL     1      -8.652   2.237   1.143  1.00  0.00    -0.776 OA
HETATM   33  H18 UNL     1      -8.486   2.572   2.080  1.00  0.00     0.167 HD
ENDBRANCH  30  32
ENDBRANCH  29  30
ENDBRANCH  28  29
ENDBRANCH   9  28
TORSDOF 8
