REMARK  7 active torsions:
REMARK  status: ('A' for Active; 'I' for Inactive)
REMARK    1  A    between atoms: C4_4  and  C5_5 
REMARK    2  A    between atoms: C13_15  and  C14_16 
REMARK    3  A    between atoms: C14_16  and  N2_17 
REMARK    4  A    between atoms: N2_17  and  C15_18 
REMARK    5  A    between atoms: C18_21  and  C19_22 
REMARK    6  A    between atoms: C19_22  and  C20_23 
REMARK    7  A    between atoms: C20_23  and  O3_25 
ROOT
HETATM    1  C5  UNL     1      -3.160   0.183  -0.557  1.00  0.00    -0.028 A 
HETATM    2  C6  UNL     1      -2.363  -0.930  -0.499  1.00  0.00     0.013 A 
HETATM    3  C7  UNL     1      -1.026  -0.821  -0.174  1.00  0.00     0.015 A 
HETATM    4  C8  UNL     1      -0.418   0.368   0.106  1.00  0.00     0.006 A 
HETATM    5  C9  UNL     1      -1.242   1.468   0.040  1.00  0.00     0.047 A 
HETATM    6  C10 UNL     1      -2.580   1.404  -0.281  1.00  0.00     0.042 A 
HETATM    7  N1  UNL     1      -0.397   2.563   0.364  1.00  0.00    -0.322 N 
HETATM    8  C11 UNL     1       0.941   2.175   0.632  1.00  0.00     0.256 A 
HETATM    9  O1  UNL     1       1.895   2.934   0.943  1.00  0.00    -0.267 OA
HETATM   10  C12 UNL     1       0.946   0.727   0.466  1.00  0.00     0.042 A 
HETATM   11  C13 UNL     1       2.014  -0.027   0.629  1.00  0.00     0.010 C 
HETATM   12  H10 UNL     1      -0.687   3.561   0.412  1.00  0.00     0.169 HD
ENDROOT
BRANCH  11  13
HETATM   13  C14 UNL     1       2.490  -1.402   0.581  1.00  0.00     0.147 C 
BRANCH  13  14
HETATM   14  N2  UNL     1       3.555  -1.489  -0.433  1.00  0.00    -0.395 N 
HETATM   15  H14 UNL     1       3.490  -2.002  -1.345  1.00  0.00     0.159 HD
BRANCH  14  16
HETATM   16  C15 UNL     1       4.802  -0.841  -0.215  1.00  0.00     0.095 C 
HETATM   17  C16 UNL     1       5.918  -1.552  -0.214  1.00  0.00    -0.014 A 
HETATM   18  C17 UNL     1       6.796  -2.709  -0.303  1.00  0.00     0.022 A 
HETATM   19  C18 UNL     1       7.373  -1.552  -0.073  1.00  0.00    -0.036 A 
BRANCH  19  20
HETATM   20  C19 UNL     1       8.613  -0.746   0.169  1.00  0.00     0.149 C 
BRANCH  20  21
HETATM   21  C20 UNL     1       8.444  -0.109   1.512  1.00  0.00     0.143 C 
HETATM   22  O2  UNL     1       7.428  -0.250   2.273  1.00  0.00    -0.650 OA
BRANCH  21  23
HETATM   23  O3  UNL     1       9.409   0.721   2.071  1.00  0.00    -0.776 OA
HETATM   24  H19 UNL     1       9.159   1.594   2.515  1.00  0.00     0.167 HD
ENDBRANCH  21  23
ENDBRANCH  20  21
ENDBRANCH  19  20
ENDBRANCH  14  16
ENDBRANCH  13  14
ENDBRANCH  11  13
BRANCH   1  25
HETATM   25  C4  UNL     1      -4.577   0.148  -0.894  1.00  0.00    -0.047 C 
HETATM   26  C3  UNL     1      -5.364   1.405  -0.942  1.00  0.00     0.070 C 
HETATM   27  C2  UNL     1      -6.844   1.175  -0.998  1.00  0.00     0.122 C 
HETATM   28  C1  UNL     1      -7.476   1.120   0.388  1.00  0.00     0.040 C 
HETATM   29  O4  UNL     1      -7.247   0.155  -1.823  1.00  0.00    -0.382 OA
HETATM   30  C22 UNL     1      -6.663  -1.067  -1.522  1.00  0.00     0.196 C 
HETATM   31  C21 UNL     1      -5.244  -0.958  -1.174  1.00  0.00     0.007 C 
ENDBRANCH   1  25
TORSDOF 7
