REMARK  6 active torsions:
REMARK  status: ('A' for Active; 'I' for Inactive)
REMARK    1  A    between atoms: C4_4  and  O1_5 
REMARK    2  A    between atoms: O1_5  and  C5_6 
REMARK    3  A    between atoms: C17_21  and  C18_22 
REMARK    4  A    between atoms: C18_22  and  C19_23 
REMARK    5  A    between atoms: C19_23  and  C20_24 
REMARK    6  A    between atoms: C20_24  and  O4_26 
ROOT
HETATM    1  C5  UNL     1      -1.373  -0.045  -0.429  1.00  0.00     0.064 C 
HETATM    2  C6  UNL     1      -0.878  -0.762   0.640  1.00  0.00    -0.021 C 
HETATM    3  C7  UNL     1      -0.884  -2.154   1.266  1.00  0.00     0.027 C 
HETATM    4  C8  UNL     1      -0.683  -2.869   0.169  1.00  0.00     0.040 C 
HETATM    5  C9  UNL     1      -1.737  -3.410  -0.723  1.00  0.00     0.256 C 
HETATM    6  O2  UNL     1      -1.789  -4.410  -1.332  1.00  0.00    -0.267 OA
HETATM    7  N1  UNL     1      -2.889  -2.638  -0.933  1.00  0.00    -0.333 N 
HETATM    8  C10 UNL     1      -4.071  -1.845  -1.150  1.00  0.00     0.087 C 
HETATM    9  C11 UNL     1      -3.644  -0.562  -1.505  1.00  0.00    -0.003 C 
HETATM   10  C12 UNL     1      -2.201  -0.665  -1.489  1.00  0.00     0.094 C 
HETATM   11  C13 UNL     1       0.459  -3.301  -0.649  1.00  0.00    -0.031 C 
HETATM   12  C14 UNL     1       0.171  -4.388  -1.556  1.00  0.00     0.050 C 
HETATM   13  C15 UNL     1       1.659  -2.662  -0.542  1.00  0.00     0.095 C 
HETATM   14  N2  UNL     1       2.192  -1.455   0.075  1.00  0.00    -0.369 N 
HETATM   15  C16 UNL     1       1.517  -0.291   0.623  1.00  0.00     0.009 C 
HETATM   16  C17 UNL     1       2.377   0.714   0.662  1.00  0.00    -0.001 C 
HETATM   17  C21 UNL     1       0.163   0.150   1.146  1.00  0.00     0.097 C 
HETATM   18  H6  UNL     1      -2.739  -2.021  -0.118  1.00  0.00     0.168 HD
HETATM   19  H15 UNL     1       3.206  -1.497   0.090  1.00  0.00     0.165 HD
ENDROOT
BRANCH  16  20
HETATM   20  C18 UNL     1       3.779   1.002   0.324  1.00  0.00     0.039 C 
BRANCH  20  21
HETATM   21  C19 UNL     1       4.499   1.441   1.580  1.00  0.00     0.113 C 
BRANCH  21  22
HETATM   22  C20 UNL     1       5.908   1.728   1.230  1.00  0.00     0.139 C 
HETATM   23  O3  UNL     1       6.167   1.539  -0.000  1.00  0.00    -0.650 OA
BRANCH  22  24
HETATM   24  O4  UNL     1       6.947   2.161   2.036  1.00  0.00    -0.776 OA
HETATM   25  H21 UNL     1       7.865   1.747   1.954  1.00  0.00     0.167 HD
ENDBRANCH  22  24
ENDBRANCH  21  22
ENDBRANCH  20  21
ENDBRANCH  16  20
BRANCH   1  26
HETATM   26  O1  UNL     1      -1.032   1.323  -0.491  1.00  0.00    -0.314 OA
BRANCH  26  27
HETATM   27  C4  UNL     1      -1.893   2.333  -0.184  1.00  0.00     0.076 A 
HETATM   28  C3  UNL     1      -3.285   2.459   0.140  1.00  0.00     0.044 A 
HETATM   29  C2  UNL     1      -3.137   3.768   0.256  1.00  0.00    -0.057 A 
HETATM   30  C1  UNL     1      -3.908   4.989   0.566  1.00  0.00     0.048 C 
HETATM   31  C22 UNL     1      -1.708   3.640  -0.077  1.00  0.00     0.044 A 
ENDBRANCH  26  27
ENDBRANCH   1  26
TORSDOF 6
