REMARK  2 active torsions:
REMARK  status: ('A' for Active; 'I' for Inactive)
REMARK    1  A    between atoms: O1_2  and  C2_3 
REMARK    2  A    between atoms: C6_7  and  C7_8 
ROOT
HETATM    1  C7  UNL     1      -0.161   0.687   0.335  1.00  0.00    -0.024 A 
HETATM    2  C8  UNL     1      -0.820   1.897   0.389  1.00  0.00     0.012 A 
HETATM    3  C9  UNL     1      -2.198   1.888   0.304  1.00  0.00     0.001 A 
HETATM    4  C10 UNL     1      -2.872   0.673   0.168  1.00  0.00    -0.043 A 
HETATM    5  C11 UNL     1      -2.153  -0.529   0.118  1.00  0.00     0.033 A 
HETATM    6  C12 UNL     1      -0.775  -0.535   0.202  1.00  0.00     0.041 A 
HETATM    7  N1  UNL     1      -2.688  -1.862  -0.019  1.00  0.00    -0.326 N 
HETATM    8  C13 UNL     1      -4.000  -2.146  -0.485  1.00  0.00     0.244 C 
HETATM    9  O2  UNL     1      -4.188  -3.400  -0.570  1.00  0.00    -0.271 OA
HETATM   10  C14 UNL     1      -5.129  -1.239  -0.870  1.00  0.00     0.246 C 
HETATM   11  O3  UNL     1      -5.406  -0.293   0.115  1.00  0.00    -0.443 OA
HETATM   12  B1  UNL     1      -4.442   0.808   0.085  1.00  0.00     0.348 B 
HETATM   13  H10 UNL     1      -2.049  -2.644   0.247  1.00  0.00     0.169 HD
HETATM   14  H13 UNL     1      -4.810   1.829   0.573  1.00  0.00     0.013 HD
ENDROOT
BRANCH   1  15
HETATM   15  C6  UNL     1       1.306   0.633   0.423  1.00  0.00    -0.023 A 
HETATM   16  C5  UNL     1       1.891   1.628   1.211  1.00  0.00     0.012 A 
HETATM   17  C4  UNL     1       3.272   1.735   1.411  1.00  0.00     0.004 A 
HETATM   18  C3  UNL     1       4.050   0.771   0.765  1.00  0.00     0.037 A 
HETATM   19  C2  UNL     1       3.493  -0.222  -0.019  1.00  0.00     0.069 A 
HETATM   20  C15 UNL     1       2.116  -0.298  -0.195  1.00  0.00     0.049 A 
BRANCH  19  21
HETATM   21  O1  UNL     1       4.268  -1.178  -0.659  1.00  0.00    -0.356 OA
HETATM   22  C1  UNL     1       5.690  -1.131  -0.500  1.00  0.00     0.210 C 
ENDBRANCH  19  21
ENDBRANCH   1  15
TORSDOF 2
