REMARK  5 active torsions:
REMARK  status: ('A' for Active; 'I' for Inactive)
REMARK    1  A    between atoms: C2_2  and  C3_3 
REMARK    2  A    between atoms: C5_5  and  O1_6 
REMARK    3  A    between atoms: C16_18  and  C17_19 
REMARK    4  A    between atoms: C17_19  and  N2_20 
REMARK    5  A    between atoms: N2_20  and  C18_21 
ROOT
HETATM    1  C3  UNL     1      -3.389   1.346  -0.787  1.00  0.00     0.046 C 
HETATM    2  C4  UNL     1      -3.102   1.130   0.702  1.00  0.00     0.077 C 
HETATM    3  C5  UNL     1      -2.314  -0.144   0.959  1.00  0.00     0.045 C 
HETATM    4  C7  UNL     1      -0.987  -0.494   1.074  1.00  0.00     0.035 C 
HETATM    5  C8  UNL     1       0.499  -0.134   1.064  1.00  0.00     0.141 C 
HETATM    6  N1  UNL     1       0.484   1.269   0.696  1.00  0.00    -0.377 N 
HETATM    7  C9  UNL     1      -0.416   0.979  -0.390  1.00  0.00     0.040 A 
HETATM    8  C10 UNL     1      -1.509   1.772  -0.536  1.00  0.00     0.038 A 
HETATM    9  C11 UNL     1      -2.054   1.010  -1.507  1.00  0.00    -0.048 A 
HETATM   10  C12 UNL     1      -2.126  -0.020  -2.377  1.00  0.00     0.009 A 
HETATM   11  C13 UNL     1      -0.922  -0.763  -2.130  1.00  0.00     0.015 A 
HETATM   12  C14 UNL     1      -0.117  -0.198  -1.101  1.00  0.00    -0.001 A 
HETATM   13  C15 UNL     1       1.097  -0.620  -0.294  1.00  0.00    -0.021 C 
HETATM   14  C16 UNL     1       2.086  -1.194  -0.934  1.00  0.00     0.003 C 
HETATM   15  H12 UNL     1       0.818   2.232   0.886  1.00  0.00     0.160 HD
ENDROOT
BRANCH  14  16
HETATM   16  C17 UNL     1       3.302  -1.690  -0.252  1.00  0.00     0.147 C 
BRANCH  16  17
HETATM   17  N2  UNL     1       4.517  -1.057  -0.726  1.00  0.00    -0.396 N 
HETATM   18  H19 UNL     1       5.239  -1.600  -1.275  1.00  0.00     0.159 HD
BRANCH  17  19
HETATM   19  C18 UNL     1       5.195   0.173  -0.736  1.00  0.00     0.078 C 
HETATM   20  C19 UNL     1       6.209   0.425   0.062  1.00  0.00    -0.014 C 
HETATM   21  C20 UNL     1       6.956   1.706   0.089  1.00  0.00     0.037 C 
ENDBRANCH  17  19
ENDBRANCH  16  17
ENDBRANCH  14  16
BRANCH   3  22
HETATM   22  O1  UNL     1      -3.150  -1.276   1.127  1.00  0.00    -0.360 OA
HETATM   23  C6  UNL     1      -4.024  -1.456   2.194  1.00  0.00     0.209 C 
ENDBRANCH   3  22
BRANCH   1  24
HETATM   24  C2  UNL     1      -4.426   0.396  -1.263  1.00  0.00    -0.027 C 
HETATM   25  C1  UNL     1      -5.333  -0.551  -1.352  1.00  0.00     0.007 C 
ENDBRANCH   1  24
TORSDOF 5
