REMARK  0 active torsions:
REMARK  status: ('A' for Active; 'I' for Inactive)
ROOT
HETATM    1  F1  UNL     1       1.269  -4.056   0.102  1.00  0.00    -0.211 F 
HETATM    2  C1  UNL     1       1.639  -2.762  -0.184  1.00  0.00     0.092 C 
HETATM    3  C2  UNL     1       2.963  -2.472  -0.050  1.00  0.00     0.019 C 
HETATM    4  C3  UNL     1       3.024  -1.033  -0.421  1.00  0.00     0.113 C 
HETATM    5  C4  UNL     1       4.111  -0.229  -0.463  1.00  0.00     0.117 C 
HETATM    6  O1  UNL     1       3.957   1.114  -0.839  1.00  0.00    -0.333 OA
HETATM    7  C5  UNL     1       2.901   1.806  -0.233  1.00  0.00     0.169 A 
HETATM    8  C6  UNL     1       1.807   1.289  -0.877  1.00  0.00     0.108 A 
HETATM    9  C7  UNL     1       0.546   1.712  -0.555  1.00  0.00     0.133 A 
HETATM   10  N1  UNL     1       0.365   2.644   0.394  1.00  0.00    -0.224 NA
HETATM   11  C8  UNL     1       1.470   3.152   1.024  1.00  0.00     0.238 A 
HETATM   12  N2  UNL     1       2.708   2.736   0.712  1.00  0.00    -0.218 NA
HETATM   13  N3  UNL     1      -0.762   1.374  -0.984  1.00  0.00    -0.339 N 
HETATM   14  C9  UNL     1      -1.890   0.814  -0.329  1.00  0.00     0.060 A 
HETATM   15  C10 UNL     1      -2.701   1.954  -0.242  1.00  0.00     0.032 A 
HETATM   16  C11 UNL     1      -3.974   1.974   0.350  1.00  0.00     0.002 A 
HETATM   17  C12 UNL     1      -4.498   0.821   0.892  1.00  0.00     0.002 A 
HETATM   18  C13 UNL     1      -3.649  -0.283   0.778  1.00  0.00     0.031 A 
HETATM   19  C14 UNL     1      -2.376  -0.333   0.194  1.00  0.00     0.055 A 
HETATM   20  N4  UNL     1      -1.890  -1.655   0.314  1.00  0.00    -0.388 N 
HETATM   21  C15 UNL     1      -0.603  -2.250   0.601  1.00  0.00     0.126 C 
HETATM   22  C16 UNL     1       0.347  -2.150  -0.565  1.00  0.00     0.089 C 
HETATM   23  H6  UNL     1      -0.683   1.688  -1.962  1.00  0.00     0.167 HD
HETATM   24  H11 UNL     1      -2.559  -2.476   0.156  1.00  0.00     0.159 HD
ENDROOT
TORSDOF 0
