REMARK  5 active torsions:
REMARK  status: ('A' for Active; 'I' for Inactive)
REMARK    1  A    between atoms: C1_2  and  O2_3 
REMARK    2  A    between atoms: C1_2  and  C2_4 
REMARK    3  A    between atoms: C2_4  and  C3_5 
REMARK    4  A    between atoms: C12_17  and  C13_18 
REMARK    5  A    between atoms: C13_18  and  O5_20 
ROOT
HETATM    1  C3  UNL     1      -2.460   0.327   0.146  1.00  0.00    -0.024 A 
HETATM    2  C4  UNL     1      -2.956   1.523   0.350  1.00  0.00     0.091 A 
HETATM    3  N1  UNL     1      -1.890   2.451   0.409  1.00  0.00    -0.394 N 
HETATM    4  C5  UNL     1      -0.650   1.705   0.231  1.00  0.00     0.159 A 
HETATM    5  C6  UNL     1      -1.022   0.282   0.044  1.00  0.00    -0.016 A 
HETATM    6  C7  UNL     1      -0.195  -0.697  -0.158  1.00  0.00     0.053 A 
HETATM    7  C8  UNL     1      -0.377  -2.125  -0.362  1.00  0.00     0.257 A 
HETATM    8  O3  UNL     1      -1.427  -2.804  -0.398  1.00  0.00    -0.267 OA
HETATM    9  N2  UNL     1       0.846  -2.823  -0.543  1.00  0.00    -0.322 N 
HETATM   10  C9  UNL     1       1.856  -1.802  -0.452  1.00  0.00     0.046 A 
HETATM   11  C10 UNL     1       3.222  -2.024  -0.569  1.00  0.00     0.031 A 
HETATM   12  C11 UNL     1       4.046  -0.932  -0.455  1.00  0.00     0.020 A 
HETATM   13  C12 UNL     1       3.539   0.330  -0.234  1.00  0.00     0.038 A 
HETATM   14  C14 UNL     1       2.189   0.429  -0.136  1.00  0.00     0.033 A 
HETATM   15  C15 UNL     1       1.257  -0.593  -0.233  1.00  0.00     0.008 A 
HETATM   16  H5  UNL     1      -1.815   3.481   0.542  1.00  0.00     0.159 HD
HETATM   17  H8  UNL     1       0.998  -3.848  -0.707  1.00  0.00     0.169 HD
ENDROOT
BRANCH   1  18
HETATM   18  C2  UNL     1      -3.418  -0.789   0.052  1.00  0.00     0.150 C 
BRANCH  18  19
HETATM   19  C1  UNL     1      -4.835  -0.267   0.230  1.00  0.00     0.143 C 
HETATM   20  O1  UNL     1      -5.569   0.354  -0.584  1.00  0.00    -0.650 OA
BRANCH  19  21
HETATM   21  O2  UNL     1      -5.642  -0.374   1.381  1.00  0.00    -0.776 OA
HETATM   22  H1  UNL     1      -6.042   0.432   1.839  1.00  0.00     0.167 HD
ENDBRANCH  19  21
ENDBRANCH  18  19
ENDBRANCH   1  18
BRANCH  13  23
HETATM   23  C13 UNL     1       4.458   1.449  -0.122  1.00  0.00     0.176 C 
HETATM   24  O4  UNL     1       3.969   2.591   0.079  1.00  0.00    -0.646 OA
BRANCH  23  25
HETATM   25  O5  UNL     1       5.825   1.260  -0.234  1.00  0.00    -0.773 OA
HETATM   26  H11 UNL     1       6.451   1.896   0.271  1.00  0.00     0.167 HD
ENDBRANCH  23  25
ENDBRANCH  13  23
TORSDOF 5
