REMARK  5 active torsions:
REMARK  status: ('A' for Active; 'I' for Inactive)
REMARK    1  A    between atoms: C8_8  and  C9_9 
REMARK    2  A    between atoms: C9_9  and  C10_10 
REMARK    3  A    between atoms: C10_10  and  N1_12 
REMARK    4  A    between atoms: C13_14  and  C14_15 
REMARK    5  A    between atoms: C16_17  and  C17_18 
ROOT
HETATM    1  C1  UNL     1      -4.595  -1.348  -0.555  1.00  0.00     0.039 C 
HETATM    2  C2  UNL     1      -3.416  -1.001   0.464  1.00  0.00     0.119 C 
HETATM    3  C3  UNL     1      -3.927   0.227   1.142  1.00  0.00     0.032 C 
HETATM    4  C4  UNL     1      -3.697   1.470   0.374  1.00  0.00     0.007 C 
HETATM    5  C5  UNL     1      -2.280   2.073   0.617  1.00  0.00     0.036 C 
HETATM    6  C6  UNL     1      -1.321   0.992   0.483  1.00  0.00    -0.061 C 
HETATM    7  C7  UNL     1      -1.079   0.528   1.878  1.00  0.00     0.045 C 
HETATM    8  C8  UNL     1      -0.362   0.141   0.167  1.00  0.00     0.014 C 
HETATM    9  N2  UNL     1      -0.223  -1.213   0.716  1.00  0.00    -0.371 N 
HETATM   10  C18 UNL     1      -1.222  -1.553  -0.303  1.00  0.00     0.290 C 
HETATM   11  O1  UNL     1      -2.351  -0.834  -0.340  1.00  0.00    -0.367 OA
HETATM   12  H22 UNL     1       0.482  -0.957   1.431  1.00  0.00     0.161 HD
ENDROOT
BRANCH   8  13
HETATM   13  C9  UNL     1       0.418   0.610  -0.938  1.00  0.00     0.113 C 
BRANCH  13  14
HETATM   14  C10 UNL     1       1.861   0.809  -0.639  1.00  0.00     0.005 C 
HETATM   15  C11 UNL     1       2.605   1.889  -0.719  1.00  0.00     0.038 C 
BRANCH  14  16
HETATM   16  N1  UNL     1       2.424  -0.412  -0.203  1.00  0.00    -0.362 N 
HETATM   17  C12 UNL     1       3.724  -0.457   0.109  1.00  0.00     0.026 A 
HETATM   18  C13 UNL     1       4.838  -0.496   0.380  1.00  0.00    -0.021 A 
HETATM   19  C17 UNL     1       4.794  -0.803  -0.965  1.00  0.00     0.080 A 
HETATM   20  H18 UNL     1       2.401  -1.411   0.042  1.00  0.00     0.165 HD
BRANCH  18  21
HETATM   21  C14 UNL     1       5.862  -0.536   0.608  1.00  0.00    -0.059 A 
HETATM   22  C15 UNL     1       6.971  -0.584   0.830  1.00  0.00     0.034 A 
HETATM   23  C16 UNL     1       6.334  -0.865  -0.628  1.00  0.00     0.039 A 
ENDBRANCH  18  21
ENDBRANCH  14  16
ENDBRANCH  13  14
ENDBRANCH   8  13
TORSDOF 5
