REMARK  7 active torsions:
REMARK  status: ('A' for Active; 'I' for Inactive)
REMARK    1  A    between atoms: O1_2  and  C2_3 
REMARK    2  A    between atoms: C2_3  and  C3_5 
REMARK    3  A    between atoms: C7_9  and  N1_10 
REMARK    4  A    between atoms: C9_12  and  C10_13 
REMARK    5  A    between atoms: C13_17  and  C14_18 
REMARK    6  A    between atoms: C14_18  and  C15_19 
REMARK    7  A    between atoms: C15_19  and  C16_20 
ROOT
HETATM    1  C3  UNL     1       2.640  -0.607  -0.294  1.00  0.00     0.128 C 
HETATM    2  C4  UNL     1       1.368  -0.651  -1.142  1.00  0.00     0.026 C 
HETATM    3  C5  UNL     1       0.466  -1.551  -0.370  1.00  0.00     0.021 C 
HETATM    4  C6  UNL     1       1.428  -2.356   0.516  1.00  0.00     0.055 C 
HETATM    5  C7  UNL     1       2.124  -1.091   1.015  1.00  0.00     0.186 C 
HETATM    6  C8  UNL     1       0.903  -0.328   1.463  1.00  0.00     0.021 C 
HETATM    7  C9  UNL     1      -0.153  -0.731   0.720  1.00  0.00    -0.045 C 
ENDROOT
BRANCH   7   8
HETATM    8  C10 UNL     1      -1.527  -0.337   1.078  1.00  0.00     0.075 A 
HETATM    9  C11 UNL     1      -1.687   0.530   2.306  1.00  0.00     0.049 C 
HETATM   10  N2  UNL     1      -2.455  -1.469   1.218  1.00  0.00    -0.382 N 
HETATM   11  C12 UNL     1      -3.214  -1.077   0.108  1.00  0.00     0.090 A 
HETATM   12  H16 UNL     1      -2.543  -2.272   1.877  1.00  0.00     0.160 HD
HETATM   13  C13 UNL     1      -2.399  -0.035  -0.059  1.00  0.00    -0.033 A 
BRANCH  13  14
HETATM   14  C14 UNL     1      -2.232   1.111  -0.959  1.00  0.00     0.045 C 
BRANCH  14  15
HETATM   15  C15 UNL     1      -3.327   1.103  -2.028  1.00  0.00     0.075 C 
BRANCH  15  16
HETATM   16  C16 UNL     1      -4.675   1.184  -1.446  1.00  0.00     0.117 A 
HETATM   17  O3  UNL     1      -4.682   1.244  -0.187  1.00  0.00    -0.194 OA
HETATM   18  O4  UNL     1      -5.964   1.259  -0.949  1.00  0.00     0.000 OA
HETATM   19  H22 UNL     1      -6.712   1.659  -1.535  1.00  0.00     0.000 HD
ENDBRANCH  15  16
ENDBRANCH  14  15
ENDBRANCH  13  14
ENDBRANCH   7   8
BRANCH   5  20
HETATM   20  N1  UNL     1       3.080  -1.335   2.029  1.00  0.00     0.092 N 
HETATM   21  H10 UNL     1       2.848  -2.086   2.690  1.00  0.00     0.314 HD
HETATM   22  H11 UNL     1       3.378  -0.435   2.423  1.00  0.00     0.314 HD
ENDBRANCH   5  20
BRANCH   1  23
HETATM   23  C2  UNL     1       3.292   0.686  -0.302  1.00  0.00     0.265 C 
HETATM   24  O2  UNL     1       3.501   1.873  -0.573  1.00  0.00    -0.265 OA
BRANCH  23  25
HETATM   25  O1  UNL     1       4.456   0.777   0.456  1.00  0.00    -0.326 OA
HETATM   26  C1  UNL     1       5.222   1.943   0.571  1.00  0.00     0.213 C 
ENDBRANCH  23  25
ENDBRANCH   1  23
TORSDOF 7
