REMARK  7 active torsions:
REMARK  status: ('A' for Active; 'I' for Inactive)
REMARK    1  A    between atoms: C2_2  and  O1_3 
REMARK    2  A    between atoms: O1_3  and  C3_4 
REMARK    3  A    between atoms: C7_8  and  C8_9 
REMARK    4  A    between atoms: C19_20  and  C20_21 
REMARK    5  A    between atoms: C20_21  and  C21_22 
REMARK    6  A    between atoms: C21_22  and  C22_23 
REMARK    7  A    between atoms: C22_23  and  O3_25 
ROOT
HETATM    1  C8  UNL     1       3.121  -0.642  -1.751  1.00  0.00     0.066 A 
HETATM    2  C9  UNL     1       2.638  -1.922  -1.229  1.00  0.00    -0.012 A 
HETATM    3  C10 UNL     1       1.503  -2.257  -0.626  1.00  0.00     0.011 A 
HETATM    4  C11 UNL     1       0.581  -1.123  -0.466  1.00  0.00    -0.005 A 
HETATM    5  C12 UNL     1      -0.583  -1.366   0.129  1.00  0.00     0.053 A 
HETATM    6  C13 UNL     1      -1.523  -0.279   0.308  1.00  0.00     0.103 A 
HETATM    7  C14 UNL     1      -2.711  -0.386   0.882  1.00  0.00    -0.032 C 
HETATM    8  C15 UNL     1      -3.091  -1.757   1.381  1.00  0.00     0.065 C 
HETATM    9  C16 UNL     1      -4.537  -1.571   1.656  1.00  0.00    -0.019 C 
HETATM   10  C17 UNL     1      -4.908  -0.303   1.524  1.00  0.00    -0.079 C 
HETATM   11  C18 UNL     1      -6.359  -0.006   1.784  1.00  0.00     0.044 C 
HETATM   12  C19 UNL     1      -3.811   0.573   1.149  1.00  0.00     0.046 C 
HETATM   13  O4  UNL     1      -1.225   1.017  -0.134  1.00  0.00    -0.237 OA
HETATM   14  N1  UNL     1      -0.031   1.310  -0.753  1.00  0.00    -0.260 N 
HETATM   15  C24 UNL     1       0.876   0.229  -0.919  1.00  0.00     0.062 A 
HETATM   16  C25 UNL     1       2.049   0.392  -1.499  1.00  0.00     0.019 A 
HETATM   17  H27 UNL     1       0.297   2.230  -1.120  1.00  0.00     0.195 HD
ENDROOT
BRANCH  12  18
HETATM   18  C20 UNL     1      -4.011   1.576   0.091  1.00  0.00     0.023 C 
BRANCH  18  19
HETATM   19  C21 UNL     1      -4.313   1.100  -1.281  1.00  0.00     0.112 C 
BRANCH  19  20
HETATM   20  C22 UNL     1      -5.554   0.299  -1.376  1.00  0.00     0.258 C 
HETATM   21  O2  UNL     1      -6.602  -0.364  -1.386  1.00  0.00    -0.265 OA
BRANCH  20  22
HETATM   22  O3  UNL     1      -5.729  -0.049  -2.686  1.00  0.00    -0.326 OA
HETATM   23  C23 UNL     1      -6.771  -0.802  -3.206  1.00  0.00     0.213 C 
ENDBRANCH  20  22
ENDBRANCH  19  20
ENDBRANCH  18  19
ENDBRANCH  12  18
BRANCH   1  24
HETATM   24  C7  UNL     1       4.393  -0.205  -1.126  1.00  0.00    -0.044 A 
HETATM   25  C6  UNL     1       5.460   0.140  -1.927  1.00  0.00     0.008 A 
HETATM   26  C5  UNL     1       6.601   0.536  -1.306  1.00  0.00     0.003 A 
HETATM   27  C4  UNL     1       6.755   0.613   0.057  1.00  0.00     0.037 A 
HETATM   28  C3  UNL     1       5.689   0.268   0.897  1.00  0.00     0.069 A 
HETATM   29  C26 UNL     1       4.517  -0.138   0.252  1.00  0.00     0.044 A 
BRANCH  28  30
HETATM   30  O1  UNL     1       5.605   0.266   2.259  1.00  0.00    -0.352 OA
BRANCH  30  31
HETATM   31  C2  UNL     1       6.667   0.643   3.088  1.00  0.00     0.171 C 
HETATM   32  C1  UNL     1       7.120   2.061   2.879  1.00  0.00     0.034 C 
ENDBRANCH  30  31
ENDBRANCH  28  30
ENDBRANCH   1  24
TORSDOF 7
