REMARK  7 active torsions:
REMARK  status: ('A' for Active; 'I' for Inactive)
REMARK    1  A    between atoms: C2_2  and  C3_3 
REMARK    2  A    between atoms: C4_4  and  C5_5 
REMARK    3  A    between atoms: C5_5  and  C6_6 
REMARK    4  A    between atoms: C16_16  and  C17_17 
REMARK    5  A    between atoms: C17_17  and  C18_18 
REMARK    6  A    between atoms: C18_18  and  C19_19 
REMARK    7  A    between atoms: C19_19  and  O2_21 
ROOT
HETATM    1  C6  UNL     1       1.492   0.095  -1.216  1.00  0.00     0.062 C 
HETATM    2  C7  UNL     1       1.771   1.394  -0.466  1.00  0.00    -0.015 C 
HETATM    3  C8  UNL     1       1.089   2.180   0.343  1.00  0.00     0.009 C 
HETATM    4  C9  UNL     1      -0.358   2.164   0.096  1.00  0.00     0.000 C 
HETATM    5  C10 UNL     1      -0.765   3.200   0.844  1.00  0.00     0.026 C 
HETATM    6  C11 UNL     1      -2.216   3.088   1.445  1.00  0.00     0.101 C 
HETATM    7  C12 UNL     1      -2.283   3.632  -0.042  1.00  0.00     0.015 C 
HETATM    8  C13 UNL     1      -2.536   2.793  -1.044  1.00  0.00     0.026 C 
HETATM    9  C14 UNL     1      -1.540   1.603  -0.712  1.00  0.00     0.097 C 
HETATM   10  C15 UNL     1      -2.245   0.466  -0.262  1.00  0.00     0.021 C 
HETATM   11  C16 UNL     1      -1.913  -0.834  -0.436  1.00  0.00    -0.051 C 
HETATM   12  C20 UNL     1      -0.611  -0.965  -1.139  1.00  0.00    -0.033 C 
HETATM   13  C21 UNL     1      -0.061  -2.280  -1.489  1.00  0.00     0.050 C 
HETATM   14  C22 UNL     1       0.004   0.165  -1.472  1.00  0.00     0.021 C 
HETATM   15  N1  UNL     1      -0.888   1.208  -2.001  1.00  0.00    -0.372 N 
HETATM   16  C23 UNL     1      -1.707   5.035   0.306  1.00  0.00     0.252 C 
HETATM   17  O3  UNL     1      -2.234   6.107  -0.003  1.00  0.00    -0.268 OA
HETATM   18  N2  UNL     1      -0.410   4.585   1.064  1.00  0.00    -0.326 N 
HETATM   19  H23 UNL     1      -1.177   1.711  -2.869  1.00  0.00     0.161 HD
HETATM   20  H24 UNL     1       0.464   4.781   1.545  1.00  0.00     0.169 HD
ENDROOT
BRANCH  11  21
HETATM   21  C17 UNL     1      -2.755  -1.951  -0.045  1.00  0.00     0.049 C 
BRANCH  21  22
HETATM   22  C18 UNL     1      -2.290  -2.890   0.999  1.00  0.00     0.114 C 
BRANCH  22  23
HETATM   23  C19 UNL     1      -3.409  -3.901   1.158  1.00  0.00     0.139 C 
HETATM   24  O1  UNL     1      -3.755  -4.492   0.071  1.00  0.00    -0.650 OA
BRANCH  23  25
HETATM   25  O2  UNL     1      -4.280  -4.486   2.103  1.00  0.00    -0.776 OA
HETATM   26  H19 UNL     1      -5.252  -4.129   2.139  1.00  0.00     0.167 HD
ENDBRANCH  23  25
ENDBRANCH  22  23
ENDBRANCH  21  22
ENDBRANCH  11  21
BRANCH   1  27
HETATM   27  C5  UNL     1       1.926  -0.881  -0.187  1.00  0.00     0.041 C 
BRANCH  27  28
HETATM   28  C4  UNL     1       3.386  -0.614   0.203  1.00  0.00    -0.026 C 
HETATM   29  C3  UNL     1       4.462  -1.401   0.112  1.00  0.00    -0.005 C 
BRANCH  29  30
HETATM   30  C2  UNL     1       5.717  -0.807   0.585  1.00  0.00    -0.011 C 
HETATM   31  C1  UNL     1       6.718  -1.665   0.460  1.00  0.00     0.011 C 
ENDBRANCH  29  30
ENDBRANCH  27  28
ENDBRANCH   1  27
TORSDOF 7
