REMARK  5 active torsions:
REMARK  status: ('A' for Active; 'I' for Inactive)
REMARK    1  A    between atoms: O1_2  and  C2_3 
REMARK    2  A    between atoms: C10_13  and  C11_14 
REMARK    3  A    between atoms: C14_17  and  C15_18 
REMARK    4  A    between atoms: C15_18  and  C16_19 
REMARK    5  A    between atoms: C16_19  and  O3_21 
ROOT
HETATM    1  C11 UNL     1      -0.782  -0.239  -0.397  1.00  0.00     0.033 C 
HETATM    2  C12 UNL     1      -1.693   0.618   0.119  1.00  0.00    -0.051 C 
HETATM    3  C13 UNL     1      -1.154   1.782   0.863  1.00  0.00     0.046 C 
HETATM    4  C14 UNL     1      -3.185   0.621   0.063  1.00  0.00     0.043 C 
HETATM    5  C18 UNL     1      -3.627   0.110  -1.314  1.00  0.00     0.179 C 
HETATM    6  O4  UNL     1      -3.513  -1.271  -1.402  1.00  0.00    -0.371 OA
HETATM    7  C19 UNL     1      -2.307  -1.592  -2.048  1.00  0.00     0.290 C 
HETATM    8  N2  UNL     1      -1.260  -1.412  -1.093  1.00  0.00    -0.368 N 
HETATM    9  H24 UNL     1      -0.718  -2.290  -0.811  1.00  0.00     0.161 HD
ENDROOT
BRANCH   1  10
HETATM   10  C10 UNL     1       0.621   0.000  -0.216  1.00  0.00     0.047 C 
HETATM   11  C9  UNL     1       1.859  -0.362  -0.427  1.00  0.00     0.046 A 
HETATM   12  C5  UNL     1       3.148   0.208  -0.028  1.00  0.00     0.007 A 
HETATM   13  C8  UNL     1       2.152  -1.541  -1.250  1.00  0.00     0.257 A 
HETATM   14  C4  UNL     1       3.413   1.311   0.742  1.00  0.00     0.017 A 
HETATM   15  C6  UNL     1       4.093  -0.603  -0.594  1.00  0.00     0.049 A 
HETATM   16  C3  UNL     1       4.710   1.686   1.004  1.00  0.00     0.038 A 
HETATM   17  C2  UNL     1       5.708   0.909   0.462  1.00  0.00     0.070 A 
HETATM   18  C7  UNL     1       5.384  -0.187  -0.303  1.00  0.00     0.067 A 
HETATM   19  N1  UNL     1       3.584  -1.688  -1.351  1.00  0.00    -0.322 N 
HETATM   20  H7  UNL     1       4.239  -2.366  -1.824  1.00  0.00     0.169 HD
HETATM   21  O2  UNL     1       1.569  -2.458  -1.893  1.00  0.00    -0.267 OA
BRANCH  17  22
HETATM   22  O1  UNL     1       7.016   1.286   0.726  1.00  0.00    -0.356 OA
HETATM   23  C1  UNL     1       8.150   0.616   0.259  1.00  0.00     0.210 C 
ENDBRANCH  17  22
ENDBRANCH   1  10
BRANCH   4  24
HETATM   24  C15 UNL     1      -3.830  -0.192   1.132  1.00  0.00     0.042 C 
BRANCH  24  25
HETATM   25  C16 UNL     1      -5.348  -0.165   1.042  1.00  0.00     0.114 C 
HETATM   26  C17 UNL     1      -5.852  -1.033   2.190  1.00  0.00     0.039 C 
BRANCH  25  27
HETATM   27  O3  UNL     1      -5.860   1.119   1.163  1.00  0.00    -0.396 OA
HETATM   28  H19 UNL     1      -6.540   1.271   0.459  1.00  0.00     0.210 HD
ENDBRANCH  25  27
ENDBRANCH  24  25
ENDBRANCH   4  24
TORSDOF 5
