REMARK  7 active torsions:
REMARK  status: ('A' for Active; 'I' for Inactive)
REMARK    1  A    between atoms: C3_3  and  C4_4 
REMARK    2  A    between atoms: C10_12  and  C11_13 
REMARK    3  A    between atoms: C11_13  and  O3_15 
REMARK    4  A    between atoms: C15_20  and  C16_21 
REMARK    5  A    between atoms: C16_21  and  C17_22 
REMARK    6  A    between atoms: C17_22  and  C18_23 
REMARK    7  A    between atoms: C18_23  and  O5_25 
ROOT
HETATM    1  C4  UNL     1      -0.517  -0.660   0.091  1.00  0.00     0.013 C 
HETATM    2  C5  UNL     1      -1.575  -1.338   0.447  1.00  0.00     0.044 A 
HETATM    3  C6  UNL     1      -1.791  -2.599   1.122  1.00  0.00     0.257 A 
HETATM    4  O1  UNL     1      -0.944  -3.407   1.560  1.00  0.00    -0.267 OA
HETATM    5  N1  UNL     1      -3.159  -2.928   1.293  1.00  0.00    -0.322 N 
HETATM    6  C7  UNL     1      -3.815  -1.825   0.697  1.00  0.00     0.046 A 
HETATM    7  C8  UNL     1      -5.183  -1.584   0.567  1.00  0.00     0.031 A 
HETATM    8  C9  UNL     1      -5.734  -0.477  -0.024  1.00  0.00     0.020 A 
HETATM    9  C10 UNL     1      -4.881   0.470  -0.526  1.00  0.00     0.038 A 
HETATM   10  C12 UNL     1      -3.533   0.250  -0.408  1.00  0.00     0.033 A 
HETATM   11  C13 UNL     1      -2.956  -0.881   0.194  1.00  0.00     0.007 A 
HETATM   12  H5  UNL     1      -3.625  -3.749   1.733  1.00  0.00     0.169 HD
ENDROOT
BRANCH   1  13
HETATM   13  C3  UNL     1       0.904  -0.886   0.231  1.00  0.00    -0.090 A 
HETATM   14  C2  UNL     1       1.809  -0.020  -0.258  1.00  0.00    -0.061 A 
HETATM   15  C1  UNL     1       1.591   1.261  -0.995  1.00  0.00     0.048 C 
HETATM   16  C15 UNL     1       3.143  -0.502   0.033  1.00  0.00    -0.066 A 
HETATM   17  C14 UNL     1       3.172  -1.656   0.696  1.00  0.00    -0.070 A 
HETATM   18  B1  UNL     1       1.652  -2.089   0.934  1.00  0.00     0.220 B 
HETATM   19  H10 UNL     1       1.338  -2.451   2.066  1.00  0.00    -0.016 HD
BRANCH  16  20
HETATM   20  C16 UNL     1       4.426   0.144  -0.366  1.00  0.00     0.048 C 
BRANCH  20  21
HETATM   21  C17 UNL     1       4.580   1.503   0.280  1.00  0.00     0.114 C 
BRANCH  21  22
HETATM   22  C18 UNL     1       5.900   2.062  -0.153  1.00  0.00     0.139 C 
HETATM   23  O4  UNL     1       6.862   2.192   0.690  1.00  0.00    -0.650 OA
BRANCH  22  24
HETATM   24  O5  UNL     1       6.156   2.467  -1.467  1.00  0.00    -0.776 OA
HETATM   25  H16 UNL     1       7.123   2.569  -1.786  1.00  0.00     0.167 HD
ENDBRANCH  22  24
ENDBRANCH  21  22
ENDBRANCH  20  21
ENDBRANCH  16  20
ENDBRANCH   1  13
BRANCH   9  26
HETATM   26  C11 UNL     1      -5.360   1.686  -1.168  1.00  0.00     0.176 C 
HETATM   27  O2  UNL     1      -6.617   1.756  -1.208  1.00  0.00    -0.646 OA
BRANCH  26  28
HETATM   28  O3  UNL     1      -4.474   2.622  -1.657  1.00  0.00    -0.773 OA
HETATM   29  H8  UNL     1      -4.809   3.595  -1.647  1.00  0.00     0.167 HD
ENDBRANCH  26  28
ENDBRANCH   9  26
TORSDOF 7
