REMARK  2 active torsions:
REMARK  status: ('A' for Active; 'I' for Inactive)
REMARK    1  A    between atoms: N1_7  and  C6_8 
REMARK    2  A    between atoms: N3_11  and  C9_13 
ROOT
HETATM    1  C6  UNL     1       0.129  -1.459   0.635  1.00  0.00     0.131 A 
HETATM    2  N2  UNL     1       1.440  -1.876   0.996  1.00  0.00     0.000 N 
HETATM    3  C7  UNL     1       1.603  -3.082   1.344  1.00  0.00     0.000 A 
HETATM    4  N3  UNL     1       1.532  -1.804   0.995  1.00  0.00     0.000 N 
HETATM    5  C8  UNL     1       2.372  -0.846   0.897  1.00  0.00     0.183 A 
HETATM    6  C9  UNL     1       1.071  -0.394   0.539  1.00  0.00     0.127 A 
HETATM    7  N4  UNL     1       0.480   0.900   0.153  1.00  0.00    -0.405 N 
HETATM    8  C10 UNL     1       0.967   2.298   0.337  1.00  0.00     0.121 C 
HETATM    9  C11 UNL     1       1.971   2.664  -0.631  1.00  0.00     0.033 A 
HETATM   10  C12 UNL     1       2.849   3.126  -1.609  1.00  0.00     0.023 A 
HETATM   11  C13 UNL     1       3.102   2.010  -0.706  1.00  0.00     0.070 A 
HETATM   12  C14 UNL     1       3.284   1.111   0.022  1.00  0.00    -0.013 C 
HETATM   13  O1  UNL     1       3.468   0.085   0.854  1.00  0.00    -0.293 OA
HETATM   14  H7  UNL     1      -0.455   0.951  -0.367  1.00  0.00     0.154 HD
ENDROOT
BRANCH   1  15
HETATM   15  N1  UNL     1      -1.304  -1.158   0.267  1.00  0.00    -0.316 N 
HETATM   16  C1  UNL     1      -2.264  -0.944   1.278  1.00  0.00     0.187 A 
HETATM   17  F1  UNL     1      -1.978  -0.923   2.599  1.00  0.00    -0.186 F 
HETATM   18  C2  UNL     1      -3.381  -0.783   0.655  1.00  0.00     0.038 A 
HETATM   19  C3  UNL     1      -3.669  -0.807  -0.758  1.00  0.00     0.060 A 
HETATM   20  C4  UNL     1      -2.553  -1.033  -1.666  1.00  0.00    -0.006 A 
HETATM   21  C5  UNL     1      -1.381  -1.207  -1.115  1.00  0.00     0.091 A 
ENDBRANCH   1  15
TORSDOF 2
