REMARK  2 active torsions:
REMARK  status: ('A' for Active; 'I' for Inactive)
REMARK    1  A    between atoms: C11_14  and  S1_15 
REMARK    2  A    between atoms: S1_15  and  N3_16 
ROOT
HETATM    1  C1  UNL     1      -4.220   0.450   0.748  1.00  0.00     0.050 C 
HETATM    2  C2  UNL     1      -3.184  -0.545   0.348  1.00  0.00    -0.038 C 
HETATM    3  C3  UNL     1      -3.575  -1.764  -0.074  1.00  0.00     0.090 C 
HETATM    4  N1  UNL     1      -2.428  -2.528  -0.392  1.00  0.00    -0.394 N 
HETATM    5  C4  UNL     1      -1.461  -1.905   0.564  1.00  0.00     0.159 C 
HETATM    6  C5  UNL     1      -1.704  -0.469   0.315  1.00  0.00    -0.017 C 
HETATM    7  C6  UNL     1      -1.019   0.619   0.067  1.00  0.00     0.053 A 
HETATM    8  C7  UNL     1      -1.459   1.963  -0.235  1.00  0.00     0.257 A 
HETATM    9  O1  UNL     1      -2.577   2.455  -0.387  1.00  0.00    -0.267 OA
HETATM   10  N2  UNL     1      -0.345   2.832  -0.374  1.00  0.00    -0.322 N 
HETATM   11  C8  UNL     1       0.844   2.079  -0.167  1.00  0.00     0.046 A 
HETATM   12  C9  UNL     1       2.156   2.498  -0.195  1.00  0.00     0.032 A 
HETATM   13  C10 UNL     1       3.148   1.579   0.050  1.00  0.00     0.027 A 
HETATM   14  C11 UNL     1       2.827   0.267   0.316  1.00  0.00     0.075 A 
HETATM   15  C12 UNL     1       1.498  -0.065   0.324  1.00  0.00     0.039 A 
HETATM   16  C13 UNL     1       0.427   0.769   0.094  1.00  0.00     0.009 A 
HETATM   17  H5  UNL     1      -2.316  -3.286  -1.084  1.00  0.00     0.159 HD
HETATM   18  H8  UNL     1      -0.343   3.864  -0.592  1.00  0.00     0.169 HD
ENDROOT
BRANCH  14  19
HETATM   19  S1  UNL     1       4.124  -0.865   0.621  1.00  0.00     0.239 S 
HETATM   20  O2  UNL     1       3.661  -1.930   1.576  1.00  0.00    -0.206 OA
HETATM   21  O3  UNL     1       5.307  -0.105   1.146  1.00  0.00    -0.206 OA
BRANCH  19  22
HETATM   22  N3  UNL     1       4.587  -1.549  -0.900  1.00  0.00    -0.225 NA
HETATM   23  H11 UNL     1       4.730  -2.584  -0.837  1.00  0.00     0.136 HD
HETATM   24  H12 UNL     1       3.853  -1.419  -1.641  1.00  0.00     0.136 HD
ENDBRANCH  19  22
ENDBRANCH  14  19
TORSDOF 2
