REMARK  5 active torsions:
REMARK  status: ('A' for Active; 'I' for Inactive)
REMARK    1  A    between atoms: C2_2  and  C3_3 
REMARK    2  A    between atoms: C4_4  and  C5_5 
REMARK    3  A    between atoms: C13_14  and  C14_15 
REMARK    4  A    between atoms: C14_15  and  C15_16 
REMARK    5  A    between atoms: C15_16  and  O3_18 
ROOT
HETATM    1  C5  UNL     1       1.715   0.038  -0.089  1.00  0.00     0.003 C 
HETATM    2  C6  UNL     1       0.574  -0.254   0.549  1.00  0.00    -0.069 C 
HETATM    3  C7  UNL     1       0.812  -1.536   1.270  1.00  0.00     0.113 C 
HETATM    4  C8  UNL     1      -0.384  -1.776   2.147  1.00  0.00     0.136 C 
HETATM    5  O1  UNL     1      -0.335  -1.711   3.356  1.00  0.00    -0.297 OA
HETATM    6  C9  UNL     1      -1.721  -2.115   1.572  1.00  0.00     0.134 C 
HETATM    7  C10 UNL     1      -2.131  -1.019   0.622  1.00  0.00     0.001 C 
HETATM    8  C11 UNL     1      -1.842   0.114   0.035  1.00  0.00    -0.046 C 
HETATM    9  C12 UNL     1      -0.531   0.732   0.353  1.00  0.00     0.071 C 
HETATM   10  C13 UNL     1      -2.514   0.975  -0.912  1.00  0.00     0.048 C 
HETATM   11  C16 UNL     1      -3.824   0.562  -1.395  1.00  0.00    -0.021 C 
HETATM   12  C17 UNL     1      -4.478  -0.500  -1.841  1.00  0.00    -0.085 C 
HETATM   13  B1  UNL     1      -5.130  -0.585   0.524  1.00  0.00     0.315 B 
HETATM   14  N1  UNL     1      -3.232  -1.880   0.578  1.00  0.00    -0.442 N 
HETATM   15  H20 UNL     1      -4.011  -2.489   0.547  1.00  0.00     0.138 HD
ENDROOT
BRANCH   1  16
HETATM   16  C4  UNL     1       2.899  -0.805  -0.022  1.00  0.00    -0.004 C 
HETATM   17  C3  UNL     1       4.011  -0.484  -0.665  1.00  0.00    -0.027 C 
BRANCH  17  18
HETATM   18  C2  UNL     1       5.262  -1.247  -0.675  1.00  0.00     0.022 C 
HETATM   19  C1  UNL     1       6.432  -0.437  -0.121  1.00  0.00     0.009 C 
ENDBRANCH  17  18
ENDBRANCH   1  16
BRANCH  10  20
HETATM   20  C14 UNL     1      -2.686   2.404  -0.447  1.00  0.00     0.123 C 
BRANCH  20  21
HETATM   21  C15 UNL     1      -3.386   3.172  -1.520  1.00  0.00     0.140 C 
HETATM   22  O2  UNL     1      -3.867   2.983  -2.690  1.00  0.00    -0.650 OA
BRANCH  21  23
HETATM   23  O3  UNL     1      -3.566   4.506  -1.106  1.00  0.00    -0.776 OA
HETATM   24  H18 UNL     1      -3.870   5.246  -1.725  1.00  0.00     0.167 HD
ENDBRANCH  21  23
ENDBRANCH  20  21
ENDBRANCH  10  20
TORSDOF 5
