REMARK  1 active torsions:
REMARK  status: ('A' for Active; 'I' for Inactive)
REMARK    1  A    between atoms: O1_2  and  C2_3 
ROOT
HETATM    1  C2  UNL     1       4.403  -0.019   0.319  1.00  0.00     0.070 A 
HETATM    2  C3  UNL     1       4.144  -0.516   1.578  1.00  0.00     0.039 A 
HETATM    3  C4  UNL     1       2.853  -0.867   1.911  1.00  0.00     0.034 A 
HETATM    4  C5  UNL     1       1.798  -0.743   1.032  1.00  0.00     0.057 A 
HETATM    5  C6  UNL     1       2.085  -0.227  -0.264  1.00  0.00     0.064 A 
HETATM    6  C7  UNL     1       3.369   0.116  -0.579  1.00  0.00     0.068 A 
HETATM    7  N1  UNL     1       0.808  -0.223  -0.925  1.00  0.00    -0.325 N 
HETATM    8  C8  UNL     1      -0.230   0.720  -0.610  1.00  0.00     0.225 C 
HETATM    9  O2  UNL     1       0.703   1.099   0.134  1.00  0.00    -0.273 OA
HETATM   10  C9  UNL     1      -1.482   0.483  -1.379  1.00  0.00     0.130 C 
HETATM   11  C10 UNL     1      -2.567   1.381  -0.992  1.00  0.00    -0.015 C 
HETATM   12  C11 UNL     1      -3.684   1.160  -0.259  1.00  0.00    -0.085 C 
HETATM   13  C12 UNL     1      -4.658   2.297  -0.020  1.00  0.00     0.043 C 
HETATM   14  C13 UNL     1      -4.299   0.075   0.539  1.00  0.00     0.062 C 
HETATM   15  C14 UNL     1      -3.471  -1.186   0.641  1.00  0.00     0.214 C 
HETATM   16  O3  UNL     1      -2.261  -0.983   1.256  1.00  0.00    -0.239 OA
HETATM   17  O4  UNL     1      -1.663  -2.110   1.475  1.00  0.00    -0.221 OA
HETATM   18  C15 UNL     1      -0.382  -2.163   0.930  1.00  0.00     0.333 C 
HETATM   19  N2  UNL     1       0.476  -1.136   1.490  1.00  0.00    -0.364 N 
HETATM   20  H7  UNL     1       1.140  -1.024  -1.498  1.00  0.00     0.169 HD
HETATM   21  H20 UNL     1       0.282  -0.521   2.310  1.00  0.00     0.162 HD
ENDROOT
BRANCH   1  22
HETATM   22  O1  UNL     1       5.615   0.388  -0.209  1.00  0.00    -0.356 OA
HETATM   23  C1  UNL     1       5.857   0.887  -1.483  1.00  0.00     0.210 C 
ENDBRANCH   1  22
TORSDOF 1
