REMARK  5 active torsions:
REMARK  status: ('A' for Active; 'I' for Inactive)
REMARK    1  A    between atoms: C1_2  and  O2_3 
REMARK    2  A    between atoms: C1_2  and  C2_4 
REMARK    3  A    between atoms: C2_4  and  C3_5 
REMARK    4  A    between atoms: C3_5  and  C4_6 
REMARK    5  A    between atoms: C7_10  and  C8_11 
ROOT
HETATM    1  C4  UNL     1       2.498  -0.790   0.405  1.00  0.00    -0.065 C 
HETATM    2  C5  UNL     1       2.506  -2.047   0.780  1.00  0.00    -0.007 C 
HETATM    3  C6  UNL     1       1.361  -2.459   1.266  1.00  0.00     0.096 C 
HETATM    4  N1  UNL     1       0.178  -1.734   0.954  1.00  0.00    -0.390 N 
HETATM    5  C7  UNL     1       0.080  -0.615   0.006  1.00  0.00     0.108 C 
HETATM    6  C16 UNL     1       1.426   0.075  -0.086  1.00  0.00     0.064 C 
HETATM    7  H7  UNL     1      -0.675  -2.050   1.461  1.00  0.00     0.159 HD
ENDROOT
BRANCH   5   8
HETATM    8  C8  UNL     1      -0.989   0.238   0.460  1.00  0.00     0.007 C 
HETATM    9  C9  UNL     1      -2.151  -0.251   0.132  1.00  0.00    -0.036 C 
HETATM   10  C10 UNL     1      -2.994  -1.340  -0.530  1.00  0.00     0.158 C 
HETATM   11  C14 UNL     1      -3.122   0.772   0.580  1.00  0.00    -0.045 C 
HETATM   12  N2  UNL     1      -4.269  -0.776  -1.158  1.00  0.00    -0.389 N 
HETATM   13  C11 UNL     1      -4.611   0.383  -0.386  1.00  0.00     0.009 C 
HETATM   14  H12 UNL     1      -5.078  -0.705  -1.854  1.00  0.00     0.159 HD
HETATM   15  C12 UNL     1      -4.851   1.749  -0.298  1.00  0.00     0.025 C 
HETATM   16  C15 UNL     1      -4.447   0.136   1.160  1.00  0.00     0.095 C 
HETATM   17  C13 UNL     1      -3.531   2.094   0.557  1.00  0.00     0.010 C 
ENDBRANCH   5   8
BRANCH   1  18
HETATM   18  C3  UNL     1       3.753  -0.041   0.459  1.00  0.00     0.045 C 
BRANCH  18  19
HETATM   19  C2  UNL     1       4.227   0.513  -0.856  1.00  0.00     0.114 C 
BRANCH  19  20
HETATM   20  C1  UNL     1       5.519   1.257  -0.665  1.00  0.00     0.139 C 
HETATM   21  O1  UNL     1       6.121   1.814  -1.616  1.00  0.00    -0.650 OA
BRANCH  20  22
HETATM   22  O2  UNL     1       6.204   1.428   0.535  1.00  0.00    -0.776 OA
HETATM   23  H1  UNL     1       6.736   2.264   0.766  1.00  0.00     0.167 HD
ENDBRANCH  20  22
ENDBRANCH  19  20
ENDBRANCH  18  19
ENDBRANCH   1  18
TORSDOF 5
