REMARK  5 active torsions:
REMARK  status: ('A' for Active; 'I' for Inactive)
REMARK    1  A    between atoms: O1_2  and  C2_3 
REMARK    2  A    between atoms: C10_13  and  C11_14 
REMARK    3  A    between atoms: C14_17  and  C15_18 
REMARK    4  A    between atoms: C15_18  and  C16_19 
REMARK    5  A    between atoms: C16_19  and  O4_21 
ROOT
HETATM    1  C2  UNL     1      -4.954  -0.227  -0.796  1.00  0.00     0.070 A 
HETATM    2  C3  UNL     1      -4.028  -1.057  -1.377  1.00  0.00     0.038 A 
HETATM    3  C4  UNL     1      -2.726  -0.877  -0.976  1.00  0.00     0.017 A 
HETATM    4  C5  UNL     1      -2.307   0.079  -0.034  1.00  0.00     0.007 A 
HETATM    5  C6  UNL     1      -3.226   0.907   0.546  1.00  0.00     0.049 A 
HETATM    6  C7  UNL     1      -4.522   0.699   0.121  1.00  0.00     0.067 A 
HETATM    7  N1  UNL     1      -2.615   1.798   1.465  1.00  0.00    -0.322 N 
HETATM    8  C8  UNL     1      -1.234   1.473   1.424  1.00  0.00     0.257 A 
HETATM    9  O2  UNL     1      -0.634   2.230   2.220  1.00  0.00    -0.267 OA
HETATM   10  C9  UNL     1      -0.955   0.388   0.494  1.00  0.00     0.046 A 
HETATM   11  C10 UNL     1       0.177  -0.136   0.237  1.00  0.00     0.047 C 
HETATM   12  H7  UNL     1      -3.234   2.494   1.980  1.00  0.00     0.169 HD
ENDROOT
BRANCH  11  13
HETATM   13  C11 UNL     1       1.575  -0.285   0.363  1.00  0.00     0.031 C 
HETATM   14  C12 UNL     1       2.463   0.364   1.099  1.00  0.00    -0.051 C 
HETATM   15  C13 UNL     1       2.344   1.461   2.041  1.00  0.00     0.046 C 
HETATM   16  C14 UNL     1       3.825  -0.135   0.926  1.00  0.00     0.044 C 
HETATM   17  C17 UNL     1       3.519  -1.588   0.529  1.00  0.00     0.129 C 
HETATM   18  N2  UNL     1       2.365  -1.282  -0.351  1.00  0.00    -0.389 N 
HETATM   19  H18 UNL     1       2.242  -1.743  -1.277  1.00  0.00     0.159 HD
BRANCH  16  20
HETATM   20  C15 UNL     1       4.372   0.507  -0.336  1.00  0.00     0.120 C 
BRANCH  20  21
HETATM   21  C16 UNL     1       5.753  -0.003  -0.508  1.00  0.00     0.140 C 
HETATM   22  O3  UNL     1       6.297  -0.807   0.279  1.00  0.00    -0.650 OA
BRANCH  21  23
HETATM   23  O4  UNL     1       6.523   0.421  -1.604  1.00  0.00    -0.776 OA
HETATM   24  H15 UNL     1       7.537   0.404  -1.485  1.00  0.00     0.167 HD
ENDBRANCH  21  23
ENDBRANCH  20  21
ENDBRANCH  16  20
ENDBRANCH  11  13
BRANCH   1  25
HETATM   25  O1  UNL     1      -6.298  -0.319  -1.126  1.00  0.00    -0.356 OA
HETATM   26  C1  UNL     1      -6.814  -1.231  -2.046  1.00  0.00     0.210 C 
ENDBRANCH   1  25
TORSDOF 5
