REMARK  7 active torsions:
REMARK  status: ('A' for Active; 'I' for Inactive)
REMARK    1  A    between atoms: C5_5  and  C6_6 
REMARK    2  A    between atoms: C9_9  and  C10_10 
REMARK    3  A    between atoms: C10_10  and  C11_11 
REMARK    4  A    between atoms: N3_20  and  C16_21 
REMARK    5  A    between atoms: C17_22  and  C18_23 
REMARK    6  A    between atoms: C18_23  and  C19_24 
REMARK    7  A    between atoms: C23_28  and  O3_29 
ROOT
HETATM    1  C11 UNL     1      -6.787   1.598  -0.416  1.00  0.00     0.126 C 
HETATM    2  C12 UNL     1      -6.603   2.146   0.928  1.00  0.00     0.059 C 
HETATM    3  N1  UNL     1      -6.473   2.573   2.000  1.00  0.00    -0.197 NA
ENDROOT
BRANCH   1   4
HETATM    4  C10 UNL     1      -7.052   0.134  -0.321  1.00  0.00     0.051 C 
BRANCH   4   5
HETATM    5  C9  UNL     1      -5.935  -0.653   0.334  1.00  0.00     0.155 C 
HETATM    6  C7  UNL     1      -4.669  -0.533  -0.393  1.00  0.00    -0.029 C 
HETATM    7  C6  UNL     1      -3.478  -0.697   0.173  1.00  0.00     0.036 C 
HETATM    8  C8  UNL     1      -4.649  -0.205  -1.856  1.00  0.00     0.048 C 
HETATM    9  N2  UNL     1      -3.611  -1.019   1.560  1.00  0.00    -0.368 N 
HETATM   10  C13 UNL     1      -4.782  -0.736   2.355  1.00  0.00     0.291 C 
HETATM   11  H16 UNL     1      -2.903  -1.481   2.141  1.00  0.00     0.161 HD
HETATM   12  O1  UNL     1      -5.798  -0.157   1.640  1.00  0.00    -0.362 OA
BRANCH   7  13
HETATM   13  C5  UNL     1      -2.175  -0.601  -0.432  1.00  0.00     0.068 C 
HETATM   14  C4  UNL     1      -0.999  -0.762   0.131  1.00  0.00     0.100 C 
HETATM   15  C3  UNL     1       0.283  -0.649  -0.548  1.00  0.00     0.066 C 
HETATM   16  O2  UNL     1      -0.762  -1.069   1.468  1.00  0.00    -0.324 OA
HETATM   17  C2  UNL     1       0.637  -0.386  -1.785  1.00  0.00     0.002 C 
HETATM   18  N3  UNL     1       1.258  -0.908   0.486  1.00  0.00    -0.328 N 
HETATM   19  C1  UNL     1      -0.187  -0.102  -2.971  1.00  0.00     0.038 C 
HETATM   20  C14 UNL     1       0.563  -1.565   1.593  1.00  0.00     0.230 C 
HETATM   21  C15 UNL     1       0.669  -3.048   1.366  1.00  0.00     0.064 C 
BRANCH  18  22
HETATM   22  C16 UNL     1       2.663  -0.590   0.459  1.00  0.00     0.090 C 
HETATM   23  C17 UNL     1       3.172   0.615   0.259  1.00  0.00    -0.008 C 
BRANCH  23  24
HETATM   24  C18 UNL     1       4.439   1.382   0.152  1.00  0.00     0.043 C 
BRANCH  24  25
HETATM   25  C19 UNL     1       5.572   0.370   0.348  1.00  0.00     0.068 A 
HETATM   26  C20 UNL     1       5.537  -0.685  -0.669  1.00  0.00    -0.015 A 
HETATM   27  C21 UNL     1       6.670  -0.657  -1.389  1.00  0.00    -0.001 A 
HETATM   28  C22 UNL     1       7.523   0.436  -0.874  1.00  0.00     0.033 A 
HETATM   29  C23 UNL     1       6.884   1.026   0.130  1.00  0.00     0.053 A 
BRANCH  29  30
HETATM   30  O3  UNL     1       7.191   2.084   0.970  1.00  0.00    -0.360 OA
HETATM   31  C24 UNL     1       7.468   3.384   0.534  1.00  0.00     0.209 C 
ENDBRANCH  29  30
ENDBRANCH  24  25
ENDBRANCH  23  24
ENDBRANCH  18  22
ENDBRANCH   7  13
ENDBRANCH   4   5
ENDBRANCH   1   4
TORSDOF 7
