REMARK  4 active torsions:
REMARK  status: ('A' for Active; 'I' for Inactive)
REMARK    1  A    between atoms: C3_3  and  C4_4 
REMARK    2  A    between atoms: C4_4  and  C5_5 
REMARK    3  A    between atoms: C5_5  and  C6_6 
REMARK    4  A    between atoms: C6_6  and  O2_8 
ROOT
HETATM    1  C1  UNL     1       3.036   1.699   0.691  1.00  0.00     0.017 C 
HETATM    2  C2  UNL     1       1.772   1.121   0.151  1.00  0.00     0.045 C 
HETATM    3  C3  UNL     1       1.699  -0.370   0.168  1.00  0.00    -0.060 C 
HETATM    4  C7  UNL     1       0.604  -1.180   0.368  1.00  0.00     0.071 C 
HETATM    5  N1  UNL     1      -0.826  -0.884   0.183  1.00  0.00    -0.441 N 
HETATM    6  B1  UNL     1      -1.583   0.141  -0.766  1.00  0.00     0.367 B 
HETATM    7  C8  UNL     1      -2.874   0.519   0.068  1.00  0.00    -0.063 C 
HETATM    8  C9  UNL     1      -3.638  -0.700   0.129  1.00  0.00    -0.057 A 
HETATM    9  C10 UNL     1      -4.729  -0.466   0.901  1.00  0.00     0.007 A 
HETATM   10  C11 UNL     1      -5.598  -1.626   1.039  1.00  0.00    -0.003 A 
HETATM   11  C12 UNL     1      -5.023  -2.581   0.329  1.00  0.00    -0.022 A 
HETATM   12  C13 UNL     1      -3.747  -2.090  -0.314  1.00  0.00     0.065 A 
HETATM   13  C14 UNL     1      -3.083   1.742   0.614  1.00  0.00    -0.002 C 
HETATM   14  C15 UNL     1      -1.932   2.571   0.275  1.00  0.00     0.004 C 
HETATM   15  C16 UNL     1      -0.817   2.466  -0.405  1.00  0.00    -0.052 C 
HETATM   16  C17 UNL     1       0.465   3.050  -0.887  1.00  0.00     0.071 C 
HETATM   17  C18 UNL     1       1.351   1.785  -1.096  1.00  0.00     0.232 C 
HETATM   18  N2  UNL     1       0.421   1.016  -1.897  1.00  0.00     0.091 N 
HETATM   19  C19 UNL     1      -0.880   1.397  -1.448  1.00  0.00     0.238 C 
HETATM   20  H11 UNL     1      -1.526  -1.396   0.760  1.00  0.00     0.138 HD
HETATM   21  H22 UNL     1       0.514   1.279  -2.902  1.00  0.00     0.316 HD
ENDROOT
BRANCH   3  22
HETATM   22  C4  UNL     1       2.814  -1.293  -0.058  1.00  0.00     0.046 C 
BRANCH  22  23
HETATM   23  C5  UNL     1       3.941  -1.293   0.906  1.00  0.00     0.114 C 
BRANCH  23  24
HETATM   24  C6  UNL     1       4.900  -2.351   0.387  1.00  0.00     0.139 C 
HETATM   25  O1  UNL     1       4.402  -3.526   0.285  1.00  0.00    -0.650 OA
BRANCH  24  26
HETATM   26  O2  UNL     1       6.222  -2.326  -0.007  1.00  0.00    -0.776 OA
HETATM   27  H9  UNL     1       6.569  -2.798  -0.836  1.00  0.00     0.167 HD
ENDBRANCH  24  26
ENDBRANCH  23  24
ENDBRANCH  22  23
ENDBRANCH   3  22
TORSDOF 4
