REMARK  7 active torsions:
REMARK  status: ('A' for Active; 'I' for Inactive)
REMARK    1  A    between atoms: C2_2  and  C3_3 
REMARK    2  A    between atoms: C2_2  and  C6_8 
REMARK    3  A    between atoms: C3_3  and  C4_4 
REMARK    4  A    between atoms: C4_4  and  C5_5 
REMARK    5  A    between atoms: C5_5  and  O2_7 
REMARK    6  A    between atoms: C6_8  and  O3_9 
REMARK    7  A    between atoms: C14_19  and  C15_20 
ROOT
HETATM    1  C6  UNL     1       2.653   0.112  -0.640  1.00  0.00     0.076 C 
HETATM    2  C8  UNL     1       1.401   0.462  -0.309  1.00  0.00     0.059 C 
HETATM    3  C9  UNL     1       0.776   1.619  -0.989  1.00  0.00     0.049 C 
HETATM    4  C10 UNL     1      -0.497   1.963  -1.098  1.00  0.00     0.047 A 
HETATM    5  C11 UNL     1      -0.953   3.141  -1.807  1.00  0.00     0.257 A 
HETATM    6  O4  UNL     1      -0.278   4.002  -2.411  1.00  0.00    -0.267 OA
HETATM    7  N1  UNL     1      -2.380   3.053  -1.630  1.00  0.00    -0.322 N 
HETATM    8  C12 UNL     1      -2.731   1.910  -0.875  1.00  0.00     0.047 A 
HETATM    9  C13 UNL     1      -3.976   1.431  -0.465  1.00  0.00     0.042 A 
HETATM   10  C14 UNL     1      -4.005   0.260   0.283  1.00  0.00    -0.023 A 
HETATM   11  C21 UNL     1      -2.850  -0.422   0.619  1.00  0.00     0.022 A 
HETATM   12  C22 UNL     1      -1.610   0.033   0.225  1.00  0.00    -0.026 A 
HETATM   13  C23 UNL     1      -1.621   1.202  -0.518  1.00  0.00     0.014 A 
HETATM   14  C24 UNL     1      -0.578  -0.887   0.728  1.00  0.00     0.159 C 
HETATM   15  N2  UNL     1       0.774  -0.318   0.683  1.00  0.00    -0.384 N 
HETATM   16  H14 UNL     1      -3.080   3.754  -2.016  1.00  0.00     0.169 HD
HETATM   17  H24 UNL     1       1.358  -0.529   1.531  1.00  0.00     0.160 HD
ENDROOT
BRANCH   1  18
HETATM   18  C2  UNL     1       3.418  -0.997  -0.075  1.00  0.00     0.041 C 
HETATM   19  C1  UNL     1       3.818  -2.058  -1.091  1.00  0.00     0.017 C 
BRANCH  18  20
HETATM   20  C3  UNL     1       4.690  -0.518   0.613  1.00  0.00     0.021 C 
BRANCH  20  21
HETATM   21  C4  UNL     1       5.375  -1.673   1.313  1.00  0.00     0.110 C 
BRANCH  21  22
HETATM   22  C5  UNL     1       6.601  -1.153   1.962  1.00  0.00     0.139 C 
HETATM   23  O1  UNL     1       7.600  -0.898   1.223  1.00  0.00    -0.650 OA
BRANCH  22  24
HETATM   24  O2  UNL     1       7.068  -0.820   3.234  1.00  0.00    -0.776 OA
HETATM   25  H9  UNL     1       7.335   0.121   3.464  1.00  0.00     0.167 HD
ENDBRANCH  22  24
ENDBRANCH  21  22
ENDBRANCH  20  21
ENDBRANCH  18  20
ENDBRANCH   1  18
BRANCH   1  26
HETATM   26  O3  UNL     1       3.622   0.538  -1.495  1.00  0.00    -0.358 OA
HETATM   27  C7  UNL     1       3.890   1.764  -2.059  1.00  0.00     0.209 C 
ENDBRANCH   1  26
BRANCH  10  28
HETATM   28  C15 UNL     1      -5.298  -0.247   0.709  1.00  0.00    -0.026 A 
HETATM   29  C16 UNL     1      -6.359   0.585   0.993  1.00  0.00     0.012 A 
HETATM   30  C17 UNL     1      -7.628   0.235   1.402  1.00  0.00     0.001 A 
HETATM   31  C18 UNL     1      -7.831  -1.137   1.536  1.00  0.00     0.000 A 
HETATM   32  C19 UNL     1      -6.831  -2.053   1.275  1.00  0.00     0.001 A 
HETATM   33  C20 UNL     1      -5.580  -1.608   0.867  1.00  0.00     0.012 A 
ENDBRANCH  10  28
TORSDOF 7
