REMARK  7 active torsions:
REMARK  status: ('A' for Active; 'I' for Inactive)
REMARK    1  A    between atoms: C2_2  and  C3_3 
REMARK    2  A    between atoms: C3_3  and  C4_4 
REMARK    3  A    between atoms: C10_12  and  O2_13 
REMARK    4  A    between atoms: C12_15  and  O3_16 
REMARK    5  A    between atoms: C15_20  and  C16_21 
REMARK    6  A    between atoms: C16_21  and  C17_22 
REMARK    7  A    between atoms: C17_22  and  O4_23 
ROOT
HETATM    1  C4  UNL     1      -0.430   0.240   1.107  1.00  0.00     0.142 C 
HETATM    2  C5  UNL     1      -0.206  -0.819   2.169  1.00  0.00     0.233 C 
HETATM    3  O1  UNL     1      -0.997  -1.132   3.130  1.00  0.00    -0.272 OA
HETATM    4  N1  UNL     1       1.027  -1.509   2.045  1.00  0.00    -0.324 N 
HETATM    5  C6  UNL     1       1.692  -0.804   0.983  1.00  0.00     0.078 A 
HETATM    6  C7  UNL     1       0.935   0.248   0.468  1.00  0.00    -0.013 A 
HETATM    7  C8  UNL     1       1.617   0.958  -0.488  1.00  0.00     0.013 A 
HETATM    8  C9  UNL     1       2.893   0.724  -0.942  1.00  0.00     0.040 A 
HETATM    9  C10 UNL     1       3.591  -0.331  -0.398  1.00  0.00     0.103 A 
HETATM   10  C12 UNL     1       2.995  -1.097   0.565  1.00  0.00     0.126 A 
HETATM   11  H7  UNL     1       1.347  -2.317   2.593  1.00  0.00     0.169 HD
ENDROOT
BRANCH   1  12
HETATM   12  C3  UNL     1      -1.446  -0.330   0.179  1.00  0.00     0.052 C 
HETATM   13  N2  UNL     1      -0.808  -1.655  -0.213  1.00  0.00    -0.388 N 
HETATM   14  C13 UNL     1      -0.007  -1.470  -1.370  1.00  0.00     0.080 C 
HETATM   15  H14 UNL     1      -0.888  -2.613   0.243  1.00  0.00     0.159 HD
HETATM   16  C14 UNL     1      -0.476  -0.377  -1.942  1.00  0.00    -0.003 C 
HETATM   17  C15 UNL     1      -1.639   0.211  -1.151  1.00  0.00     0.041 C 
BRANCH  12  18
HETATM   18  C2  UNL     1      -2.699  -0.816   0.886  1.00  0.00     0.028 C 
HETATM   19  C1  UNL     1      -3.418   0.199   1.697  1.00  0.00     0.007 C 
ENDBRANCH  12  18
BRANCH  17  20
HETATM   20  C16 UNL     1      -1.876   1.599  -1.493  1.00  0.00     0.037 C 
BRANCH  20  21
HETATM   21  C17 UNL     1      -3.120   2.224  -0.917  1.00  0.00     0.165 C 
BRANCH  21  22
HETATM   22  O4  UNL     1      -4.218   1.509  -1.332  1.00  0.00    -0.401 OA
HETATM   23  H22 UNL     1      -5.030   1.913  -0.918  1.00  0.00     0.209 HD
ENDBRANCH  21  22
ENDBRANCH  20  21
ENDBRANCH  17  20
ENDBRANCH   1  12
BRANCH  10  24
HETATM   24  O3  UNL     1       3.744  -2.137   1.070  1.00  0.00    -0.356 OA
HETATM   25  H13 UNL     1       3.850  -2.962   0.492  1.00  0.00     0.218 HD
ENDBRANCH  10  24
BRANCH   9  26
HETATM   26  O2  UNL     1       4.877  -0.600  -0.829  1.00  0.00    -0.353 OA
HETATM   27  C11 UNL     1       5.546   0.147  -1.813  1.00  0.00     0.210 C 
ENDBRANCH   9  26
TORSDOF 7
