REMARK  2 active torsions:
REMARK  status: ('A' for Active; 'I' for Inactive)
REMARK    1  A    between atoms: C3_3  and  C4_4 
REMARK    2  A    between atoms: C4_4  and  C5_5 
ROOT
HETATM    1  C5  UNL     1      -0.131   0.310  -0.559  1.00  0.00     0.033 A 
HETATM    2  C6  UNL     1       0.496   1.304  -1.489  1.00  0.00     0.190 A 
HETATM    3  O1  UNL     1       0.441   1.929  -2.636  1.00  0.00    -0.171 OA
HETATM    4  N1  UNL     1       1.705   1.878  -0.970  1.00  0.00    -0.333 N 
HETATM    5  C7  UNL     1       1.757   1.207   0.261  1.00  0.00     0.046 A 
HETATM    6  C8  UNL     1       2.622   1.218   1.372  1.00  0.00     0.042 A 
HETATM    7  C9  UNL     1       2.445   0.460   2.524  1.00  0.00    -0.024 A 
HETATM    8  C10 UNL     1       3.483   0.628   3.507  1.00  0.00    -0.026 A 
HETATM    9  C11 UNL     1       3.880  -0.407   4.411  1.00  0.00     0.012 A 
HETATM   10  C12 UNL     1       4.850  -0.003   5.236  1.00  0.00     0.001 A 
HETATM   11  C13 UNL     1       5.573   1.118   5.465  1.00  0.00     0.000 A 
HETATM   12  C14 UNL     1       5.149   2.155   4.535  1.00  0.00     0.001 A 
HETATM   13  C15 UNL     1       4.162   1.793   3.675  1.00  0.00     0.012 A 
HETATM   14  C16 UNL     1       1.380  -0.393   2.678  1.00  0.00     0.013 A 
HETATM   15  C17 UNL     1       0.453  -0.472   1.598  1.00  0.00     0.015 A 
HETATM   16  C18 UNL     1       0.750   0.313   0.561  1.00  0.00     0.005 A 
HETATM   17  H5  UNL     1       2.463   2.535  -1.164  1.00  0.00     0.168 HD
ENDROOT
BRANCH   1  18
HETATM   18  C4  UNL     1      -1.143  -0.147  -1.265  1.00  0.00     0.049 C 
BRANCH  18  19
HETATM   19  C3  UNL     1      -2.181  -0.584  -2.049  1.00  0.00     0.062 C 
HETATM   20  C2  UNL     1      -3.052  -1.520  -1.732  1.00  0.00     0.069 C 
HETATM   21  C1  UNL     1      -2.768  -2.069  -0.349  1.00  0.00     0.078 C 
HETATM   22  O2  UNL     1      -4.170  -2.198  -2.254  1.00  0.00    -0.353 OA
HETATM   23  C22 UNL     1      -4.550  -2.391  -3.626  1.00  0.00     0.179 C 
HETATM   24  C21 UNL     1      -5.112  -1.105  -4.203  1.00  0.00     0.055 C 
HETATM   25  C20 UNL     1      -4.024  -0.350  -4.883  1.00  0.00    -0.008 C 
HETATM   26  C19 UNL     1      -2.830   0.226  -4.639  1.00  0.00     0.084 C 
HETATM   27  N2  UNL     1      -2.298   0.164  -3.279  1.00  0.00    -0.364 N 
HETATM   28  H14 UNL     1      -1.768   1.086  -3.168  1.00  0.00     0.165 HD
ENDBRANCH  18  19
ENDBRANCH   1  18
TORSDOF 2
