REMARK  7 active torsions:
REMARK  status: ('A' for Active; 'I' for Inactive)
REMARK    1  A    between atoms: C2_2  and  C3_3 
REMARK    2  A    between atoms: C3_3  and  C4_4 
REMARK    3  A    between atoms: C4_4  and  C5_5 
REMARK    4  A    between atoms: C12_12  and  C13_14 
REMARK    5  A    between atoms: C13_14  and  C14_15 
REMARK    6  A    between atoms: C14_15  and  C15_16 
REMARK    7  A    between atoms: C15_16  and  O3_18 
ROOT
HETATM    1  C5  UNL     1      -1.920  -1.464  -2.228  1.00  0.00    -0.052 A 
HETATM    2  C6  UNL     1      -2.181  -1.964  -1.032  1.00  0.00     0.006 A 
HETATM    3  C7  UNL     1      -1.807  -1.021   0.031  1.00  0.00     0.010 A 
HETATM    4  C8  UNL     1      -1.314   0.062  -0.598  1.00  0.00    -0.023 A 
HETATM    5  C9  UNL     1      -0.723   1.435  -0.564  1.00  0.00    -0.022 C 
HETATM    6  C10 UNL     1      -0.059   1.705   0.533  1.00  0.00     0.067 A 
HETATM    7  C11 UNL     1       0.706   2.628   1.283  1.00  0.00     0.010 A 
HETATM    8  C12 UNL     1       0.956   1.905   2.370  1.00  0.00    -0.076 A 
HETATM    9  O1  UNL     1       0.225   0.876   1.773  1.00  0.00     0.000 OA
HETATM   10  C16 UNL     1      -1.175   1.957  -1.888  1.00  0.00     0.013 C 
HETATM   11  C17 UNL     1      -0.826   3.226  -2.216  1.00  0.00     0.063 C 
HETATM   12  N1  UNL     1      -1.933   0.991  -2.593  1.00  0.00    -0.380 N 
HETATM   13  C18 UNL     1      -1.286  -0.175  -2.100  1.00  0.00     0.144 A 
HETATM   14  H10 UNL     1      -0.679   0.674   2.214  1.00  0.00     0.000 HD
HETATM   15  H18 UNL     1      -2.693   1.278  -3.230  1.00  0.00     0.160 HD
ENDROOT
BRANCH   1  16
HETATM   16  C4  UNL     1      -2.181  -2.148  -3.505  1.00  0.00     0.054 C 
BRANCH  16  17
HETATM   17  C3  UNL     1      -0.940  -2.319  -4.244  1.00  0.00     0.071 C 
BRANCH  17  18
HETATM   18  C2  UNL     1       0.116  -2.764  -3.582  1.00  0.00    -0.176 C 
HETATM   19  C1  UNL     1       1.036  -3.390  -2.870  1.00  0.00     0.091 C 
ENDBRANCH  17  18
ENDBRANCH  16  17
ENDBRANCH   1  16
BRANCH   8  20
HETATM   20  C13 UNL     1       1.438   1.434   3.710  1.00  0.00     0.045 C 
BRANCH  20  21
HETATM   21  C14 UNL     1       2.330   0.209   3.426  1.00  0.00     0.114 C 
BRANCH  21  22
HETATM   22  C15 UNL     1       2.826  -0.287   4.710  1.00  0.00     0.139 C 
HETATM   23  O2  UNL     1       2.436   0.372   5.723  1.00  0.00    -0.650 OA
BRANCH  22  24
HETATM   24  O3  UNL     1       3.344  -0.830   5.865  1.00  0.00    -0.776 OA
HETATM   25  H15 UNL     1       4.219  -1.342   5.892  1.00  0.00     0.167 HD
ENDBRANCH  22  24
ENDBRANCH  21  22
ENDBRANCH  20  21
ENDBRANCH   8  20
TORSDOF 7
