REMARK  8 active torsions:
REMARK  status: ('A' for Active; 'I' for Inactive)
REMARK    1  A    between atoms: C3_3  and  C4_4 
REMARK    2  A    between atoms: C8_10  and  C9_11 
REMARK    3  A    between atoms: C9_11  and  C10_12 
REMARK    4  A    between atoms: C14_16  and  O2_17 
REMARK    5  A    between atoms: C21_26  and  C22_27 
REMARK    6  A    between atoms: C22_27  and  C23_28 
REMARK    7  A    between atoms: C23_28  and  C24_29 
REMARK    8  A    between atoms: C24_29  and  O5_31 
ROOT
HETATM    1  C4  UNL     1      -3.558   0.761  -0.752  1.00  0.00     0.017 C 
HETATM    2  C5  UNL     1      -2.592  -0.126  -0.675  1.00  0.00     0.041 C 
HETATM    3  C6  UNL     1      -1.235   0.361  -0.461  1.00  0.00     0.264 C 
HETATM    4  O1  UNL     1      -1.250   1.399   0.243  1.00  0.00    -0.267 OA
HETATM    5  N1  UNL     1       0.074  -0.086  -0.874  1.00  0.00    -0.267 N 
HETATM    6  C7  UNL     1       0.958   0.906  -0.366  1.00  0.00     0.106 A 
HETATM    7  C8  UNL     1       2.222   0.647  -0.657  1.00  0.00    -0.056 A 
HETATM    8  C17 UNL     1       2.835  -0.458  -1.392  1.00  0.00     0.067 A 
HETATM    9  C18 UNL     1       1.767  -1.384  -1.841  1.00  0.00     0.036 A 
HETATM   10  C19 UNL     1       0.480  -1.252  -1.624  1.00  0.00     0.178 A 
HETATM   11  O3  UNL     1      -0.218  -2.310  -2.192  1.00  0.00    -0.194 OA
HETATM   12  N2  UNL     1      -1.583  -2.607  -2.154  1.00  0.00    -0.124 NA
HETATM   13  C20 UNL     1      -2.499  -2.607  -1.304  1.00  0.00     0.123 C 
HETATM   14  C21 UNL     1      -3.084  -1.515  -0.828  1.00  0.00    -0.009 C 
ENDROOT
BRANCH   7  15
HETATM   15  C9  UNL     1       3.216   1.633  -0.163  1.00  0.00     0.074 C 
BRANCH  15  16
HETATM   16  C10 UNL     1       4.183   0.955   0.763  1.00  0.00    -0.051 A 
HETATM   17  C11 UNL     1       3.853   0.922   2.124  1.00  0.00     0.007 A 
HETATM   18  C12 UNL     1       4.742   0.298   2.978  1.00  0.00     0.003 A 
HETATM   19  C13 UNL     1       5.925  -0.290   2.569  1.00  0.00     0.037 A 
HETATM   20  C14 UNL     1       6.207  -0.232   1.214  1.00  0.00     0.068 A 
HETATM   21  C16 UNL     1       5.359   0.377   0.312  1.00  0.00     0.044 A 
BRANCH  20  22
HETATM   22  O2  UNL     1       7.399  -0.828   0.831  1.00  0.00    -0.356 OA
HETATM   23  C15 UNL     1       7.808  -0.842  -0.512  1.00  0.00     0.210 C 
ENDBRANCH  20  22
ENDBRANCH  15  16
ENDBRANCH   7  15
BRANCH   1  24
HETATM   24  C3  UNL     1      -3.667   2.201  -0.680  1.00  0.00    -0.003 C 
HETATM   25  C2  UNL     1      -4.789   2.932  -0.783  1.00  0.00    -0.031 C 
HETATM   26  C1  UNL     1      -6.027   2.146  -0.992  1.00  0.00     0.036 C 
ENDBRANCH   1  24
BRANCH  14  27
HETATM   27  C22 UNL     1      -4.465  -1.725  -0.376  1.00  0.00     0.052 C 
BRANCH  27  28
HETATM   28  C23 UNL     1      -4.709  -1.345   1.069  1.00  0.00     0.115 C 
BRANCH  28  29
HETATM   29  C24 UNL     1      -6.138  -1.605   1.387  1.00  0.00     0.139 C 
HETATM   30  O4  UNL     1      -7.069  -2.063   0.647  1.00  0.00    -0.650 OA
BRANCH  29  31
HETATM   31  O5  UNL     1      -6.527  -1.306   2.684  1.00  0.00    -0.776 OA
HETATM   32  H24 UNL     1      -7.504  -1.252   2.942  1.00  0.00     0.167 HD
ENDBRANCH  29  31
ENDBRANCH  28  29
ENDBRANCH  27  28
ENDBRANCH  14  27
TORSDOF 8
