REMARK  9 active torsions:
REMARK  status: ('A' for Active; 'I' for Inactive)
REMARK    1  A    between atoms: O1_2  and  C2_3 
REMARK    2  A    between atoms: C6_7  and  C7_8 
REMARK    3  A    between atoms: C7_8  and  C8_9 
REMARK    4  A    between atoms: C15_18  and  N2_19 
REMARK    5  A    between atoms: N2_19  and  C16_20 
REMARK    6  A    between atoms: C17_21  and  C18_22 
REMARK    7  A    between atoms: C18_22  and  C19_23 
REMARK    8  A    between atoms: C19_23  and  C20_24 
REMARK    9  A    between atoms: C20_24  and  O4_26 
ROOT
HETATM    1  C8  UNL     1      -2.733   0.981  -1.641  1.00  0.00     0.008 C 
HETATM    2  C9  UNL     1      -1.495   0.542  -1.766  1.00  0.00     0.038 C 
HETATM    3  N1  UNL     1      -0.722   0.514  -2.987  1.00  0.00    -0.326 N 
HETATM    4  C10 UNL     1       0.522  -0.036  -2.595  1.00  0.00     0.235 C 
HETATM    5  O2  UNL     1       1.470  -0.010  -3.421  1.00  0.00    -0.272 OA
HETATM    6  C11 UNL     1       0.529  -0.575  -1.240  1.00  0.00     0.143 C 
HETATM    7  C12 UNL     1      -0.729   0.016  -0.646  1.00  0.00    -0.018 C 
HETATM    8  C13 UNL     1      -0.768  -0.106   0.665  1.00  0.00    -0.010 C 
HETATM    9  C14 UNL     1       0.368  -0.784   1.377  1.00  0.00     0.085 C 
HETATM   10  C15 UNL     1       1.604  -0.096   0.917  1.00  0.00     0.015 C 
HETATM   11  C21 UNL     1       1.647  -0.011  -0.404  1.00  0.00    -0.043 C 
HETATM   12  C22 UNL     1       2.766   0.628  -1.135  1.00  0.00     0.046 C 
HETATM   13  H9  UNL     1      -1.048   0.839  -3.932  1.00  0.00     0.169 HD
ENDROOT
BRANCH  10  14
HETATM   14  N2  UNL     1       2.662   0.437   1.703  1.00  0.00    -0.369 N 
HETATM   15  H14 UNL     1       3.090   1.367   1.505  1.00  0.00     0.165 HD
BRANCH  14  16
HETATM   16  C16 UNL     1       3.334  -0.100   2.834  1.00  0.00     0.084 C 
HETATM   17  C17 UNL     1       4.507  -0.706   2.793  1.00  0.00    -0.009 C 
BRANCH  17  18
HETATM   18  C18 UNL     1       5.253  -0.888   1.530  1.00  0.00     0.039 C 
BRANCH  18  19
HETATM   19  C19 UNL     1       6.597  -0.185   1.658  1.00  0.00     0.113 C 
BRANCH  19  20
HETATM   20  C20 UNL     1       7.298  -0.397   0.376  1.00  0.00     0.139 C 
HETATM   21  O3  UNL     1       6.786  -1.055  -0.577  1.00  0.00    -0.650 OA
BRANCH  20  22
HETATM   22  O4  UNL     1       8.562   0.165   0.262  1.00  0.00    -0.776 OA
HETATM   23  H21 UNL     1       9.201  -0.120  -0.480  1.00  0.00     0.167 HD
ENDBRANCH  20  22
ENDBRANCH  19  20
ENDBRANCH  18  19
ENDBRANCH  17  18
ENDBRANCH  14  16
ENDBRANCH  10  14
BRANCH   1  24
HETATM   24  C7  UNL     1      -3.888   1.230  -0.779  1.00  0.00     0.072 C 
BRANCH  24  25
HETATM   25  C6  UNL     1      -5.100   0.495  -1.234  1.00  0.00    -0.010 C 
HETATM   26  C2  UNL     1      -6.379   0.603  -0.512  1.00  0.00     0.075 C 
HETATM   27  C3  UNL     1      -7.331   0.139  -1.297  1.00  0.00     0.038 C 
HETATM   28  C4  UNL     1      -6.683  -0.283  -2.554  1.00  0.00     0.016 C 
HETATM   29  C5  UNL     1      -5.405  -0.330  -2.221  1.00  0.00    -0.016 C 
BRANCH  26  30
HETATM   30  O1  UNL     1      -6.555   1.104   0.766  1.00  0.00    -0.355 OA
HETATM   31  C1  UNL     1      -7.572   0.650   1.631  1.00  0.00     0.210 C 
ENDBRANCH  26  30
ENDBRANCH  24  25
ENDBRANCH   1  24
TORSDOF 9
