REMARK  8 active torsions:
REMARK  status: ('A' for Active; 'I' for Inactive)
REMARK    1  A    between atoms: C2_2  and  C3_3 
REMARK    2  A    between atoms: C3_3  and  C14_16 
REMARK    3  A    between atoms: C4_4  and  N1_5 
REMARK    4  A    between atoms: N1_5  and  C5_6 
REMARK    5  A    between atoms: C5_6  and  C6_7 
REMARK    6  A    between atoms: C14_16  and  C15_17 
REMARK    7  A    between atoms: C15_17  and  C16_18 
REMARK    8  A    between atoms: C16_18  and  O3_20 
ROOT
HETATM    1  N1  UNL     1      -0.086   1.069   0.271  1.00  0.00    -0.395 N 
HETATM    2  H7  UNL     1      -0.150   2.122   0.216  1.00  0.00     0.159 HD
ENDROOT
BRANCH   1   3
HETATM    3  C4  UNL     1      -1.166   0.300  -0.224  1.00  0.00     0.086 C 
HETATM    4  C3  UNL     1      -2.292  -0.396  -0.207  1.00  0.00    -0.065 C 
BRANCH   4   5
HETATM    5  C2  UNL     1      -3.037  -1.076  -1.301  1.00  0.00     0.031 C 
HETATM    6  C1  UNL     1      -3.173  -2.559  -1.022  1.00  0.00     0.010 C 
ENDBRANCH   4   5
BRANCH   4   7
HETATM    7  C14 UNL     1      -2.994  -0.606   1.073  1.00  0.00     0.046 C 
BRANCH   7   8
HETATM    8  C15 UNL     1      -4.381   0.000   1.129  1.00  0.00     0.114 C 
BRANCH   8   9
HETATM    9  C16 UNL     1      -4.297   1.488   0.922  1.00  0.00     0.139 C 
HETATM   10  O2  UNL     1      -3.629   1.971  -0.046  1.00  0.00    -0.650 OA
BRANCH   9  11
HETATM   11  O3  UNL     1      -4.891   2.470   1.703  1.00  0.00    -0.776 OA
HETATM   12  H19 UNL     1      -5.355   3.308   1.359  1.00  0.00     0.167 HD
ENDBRANCH   9  11
ENDBRANCH   8   9
ENDBRANCH   7   8
ENDBRANCH   4   7
ENDBRANCH   1   3
BRANCH   1  13
HETATM   13  C5  UNL     1       0.997   0.263   0.814  1.00  0.00     0.147 C 
BRANCH  13  14
HETATM   14  C6  UNL     1       1.714  -0.514  -0.224  1.00  0.00     0.009 C 
HETATM   15  C7  UNL     1       2.988  -0.471  -0.583  1.00  0.00     0.024 A 
HETATM   16  C8  UNL     1       4.018  -1.016  -1.475  1.00  0.00     0.193 A 
HETATM   17  C13 UNL     1       4.006   0.402   0.018  1.00  0.00    -0.012 A 
HETATM   18  O1  UNL     1       3.825  -1.898  -2.343  1.00  0.00    -0.287 OA
HETATM   19  C9  UNL     1       5.022  -0.152  -0.882  1.00  0.00     0.022 A 
HETATM   20  C10 UNL     1       6.230   0.377  -0.706  1.00  0.00    -0.007 A 
HETATM   21  C11 UNL     1       6.138   1.386   0.390  1.00  0.00     0.056 A 
HETATM   22  C12 UNL     1       4.692   1.302   0.750  1.00  0.00    -0.010 A 
ENDBRANCH  13  14
ENDBRANCH   1  13
TORSDOF 8
