REMARK  1 active torsions:
REMARK  status: ('A' for Active; 'I' for Inactive)
REMARK    1  A    between atoms: N1_1  and  N2_2 
ROOT
HETATM    1  N2  UNL     1      -0.748  -1.022   0.462  1.00  0.00    -0.309 N 
HETATM    2  C1  UNL     1       0.301  -0.742   1.421  1.00  0.00     0.182 C 
HETATM    3  C2  UNL     1       1.574  -0.642   0.704  1.00  0.00    -0.029 A 
HETATM    4  C3  UNL     1       2.173  -1.884   0.467  1.00  0.00     0.051 A 
HETATM    5  C4  UNL     1       3.369  -2.113  -0.179  1.00  0.00     0.117 A 
HETATM    6  F1  UNL     1       3.884  -3.342  -0.369  1.00  0.00    -0.206 F 
HETATM    7  C5  UNL     1       4.045  -0.979  -0.643  1.00  0.00     0.043 A 
HETATM    8  C6  UNL     1       3.446   0.266  -0.407  1.00  0.00     0.012 A 
HETATM    9  C7  UNL     1       2.244   0.442   0.247  1.00  0.00    -0.037 A 
HETATM   10  C8  UNL     1       1.968   1.896   0.289  1.00  0.00     0.086 C 
HETATM   11  C9  UNL     1       1.823   2.455  -1.094  1.00  0.00     0.105 C 
HETATM   12  N3  UNL     1       0.556   2.299  -1.392  1.00  0.00    -0.247 NA
HETATM   13  C10 UNL     1      -0.110   2.165  -0.166  1.00  0.00     0.124 C 
HETATM   14  C11 UNL     1       0.671   2.227   0.899  1.00  0.00     0.038 C 
HETATM   15  N4  UNL     1      -1.509   1.979  -0.029  1.00  0.00    -0.339 N 
HETATM   16  C12 UNL     1      -2.372   0.858  -0.086  1.00  0.00     0.061 A 
HETATM   17  C13 UNL     1      -3.682   1.136  -0.387  1.00  0.00     0.032 A 
HETATM   18  C14 UNL     1      -4.644   0.166  -0.476  1.00  0.00     0.002 A 
HETATM   19  C15 UNL     1      -4.296  -1.150  -0.256  1.00  0.00     0.002 A 
HETATM   20  C16 UNL     1      -2.977  -1.416   0.046  1.00  0.00     0.033 A 
HETATM   21  C17 UNL     1      -2.002  -0.444   0.137  1.00  0.00     0.072 A 
HETATM   22  H11 UNL     1      -1.919   2.936   0.153  1.00  0.00     0.167 HD
ENDROOT
BRANCH   1  23
HETATM   23  N1  UNL     1      -0.325  -2.157  -0.242  1.00  0.00    -0.247 NA
HETATM   24  H1  UNL     1       0.251  -1.752  -1.046  1.00  0.00     0.143 HD
HETATM   25  H2  UNL     1      -1.056  -2.696  -0.705  1.00  0.00     0.143 HD
ENDBRANCH   1  23
TORSDOF 1
