REMARK  1 active torsions:
REMARK  status: ('A' for Active; 'I' for Inactive)
REMARK    1  A    between atoms: C2_2  and  N1_3 
ROOT
HETATM    1  N1  UNL     1      -0.730  -1.049   0.618  1.00  0.00    -0.339 N 
HETATM    2  C3  UNL     1      -0.355  -2.262  -0.203  1.00  0.00     0.306 C 
HETATM    3  O1  UNL     1       0.938  -1.941  -0.548  1.00  0.00    -0.301 OA
HETATM    4  C4  UNL     1       1.998  -2.271  -1.241  1.00  0.00     0.264 C 
HETATM    5  O2  UNL     1       1.830  -3.312  -1.912  1.00  0.00    -0.265 OA
HETATM    6  C5  UNL     1       3.085  -1.252  -0.975  1.00  0.00     0.149 C 
HETATM    7  C6  UNL     1       2.545   0.142  -0.813  1.00  0.00    -0.051 C 
HETATM    8  C7  UNL     1       1.310   0.015  -1.170  1.00  0.00    -0.014 C 
HETATM    9  C8  UNL     1      -0.040  -0.199  -1.576  1.00  0.00     0.086 C 
HETATM   10  C9  UNL     1      -1.056  -0.085  -0.406  1.00  0.00     0.135 C 
HETATM   11  N2  UNL     1      -2.328  -0.502  -0.921  1.00  0.00    -0.389 N 
HETATM   12  C10 UNL     1      -3.481   0.093  -0.353  1.00  0.00     0.144 C 
HETATM   13  C11 UNL     1      -3.549   1.563  -0.569  1.00  0.00    -0.007 C 
HETATM   14  C12 UNL     1      -2.319   2.067  -0.348  1.00  0.00     0.009 C 
HETATM   15  C13 UNL     1      -1.109   1.294   0.044  1.00  0.00    -0.012 C 
HETATM   16  C14 UNL     1      -0.270   2.049   0.762  1.00  0.00     0.011 C 
HETATM   17  C15 UNL     1       1.029   1.777   1.390  1.00  0.00     0.202 C 
HETATM   18  O3  UNL     1       1.972   2.673   0.735  1.00  0.00    -0.359 OA
HETATM   19  C16 UNL     1       3.278   2.108   0.584  1.00  0.00     0.135 C 
HETATM   20  C17 UNL     1       3.478   0.984  -0.104  1.00  0.00     0.031 C 
HETATM   21  H11 UNL     1      -2.375  -0.747  -1.908  1.00  0.00     0.156 HD
ENDROOT
BRANCH   1  22
HETATM   22  C2  UNL     1      -0.640  -1.134   2.052  1.00  0.00     0.080 C 
HETATM   23  C1  UNL     1      -1.735  -1.760   2.502  1.00  0.00     0.029 C 
ENDBRANCH   1  22
TORSDOF 1
