REMARK  7 active torsions:
REMARK  status: ('A' for Active; 'I' for Inactive)
REMARK    1  A    between atoms: N1_2  and  C2_3 
REMARK    2  A    between atoms: C5_7  and  C6_8 
REMARK    3  A    between atoms: C9_11  and  O1_12 
REMARK    4  A    between atoms: C16_19  and  P1_20 
REMARK    5  A    between atoms: C19_23  and  C20_24 
REMARK    6  A    between atoms: C20_24  and  C21_25 
REMARK    7  A    between atoms: C21_25  and  O3_27 
ROOT
HETATM    1  C2  UNL     1      -1.371  -2.738  -0.947  1.00  0.00     0.332 C 
HETATM    2  N2  UNL     1       0.015  -2.763  -1.348  1.00  0.00    -0.359 N 
HETATM    3  C3  UNL     1       0.567  -1.479  -1.019  1.00  0.00     0.037 A 
HETATM    4  C4  UNL     1       1.862  -1.081  -0.753  1.00  0.00     0.042 A 
HETATM    5  C5  UNL     1       2.095   0.259  -0.460  1.00  0.00    -0.024 A 
HETATM    6  C13 UNL     1       1.041   1.149  -0.441  1.00  0.00     0.013 A 
HETATM    7  C14 UNL     1      -0.226   0.715  -0.709  1.00  0.00     0.011 A 
HETATM    8  C15 UNL     1      -0.515  -0.615  -1.009  1.00  0.00    -0.019 A 
HETATM    9  C16 UNL     1      -1.759  -1.325  -1.328  1.00  0.00     0.103 C 
HETATM   10  H6  UNL     1       0.530  -3.556  -1.793  1.00  0.00     0.162 HD
ENDROOT
BRANCH   9  11
HETATM   11  P1  UNL     1      -3.162  -0.896  -0.338  1.00  0.00    -0.083 P 
HETATM   12  C17 UNL     1      -2.934  -0.090   1.010  1.00  0.00    -0.051 A 
HETATM   13  C18 UNL     1      -2.245  -0.531   2.259  1.00  0.00     0.049 C 
HETATM   14  C19 UNL     1      -3.573   1.184   0.702  1.00  0.00    -0.035 A 
HETATM   15  C22 UNL     1      -3.865   0.699  -0.487  1.00  0.00    -0.051 A 
HETATM   16  C23 UNL     1      -4.575   1.251  -1.675  1.00  0.00     0.049 C 
HETATM   17  H18 UNL     1      -4.136  -1.908  -0.206  1.00  0.00     0.063 HD
BRANCH  14  18
HETATM   18  C20 UNL     1      -3.812   2.475   1.381  1.00  0.00     0.149 C 
BRANCH  18  19
HETATM   19  C21 UNL     1      -4.616   2.333   2.610  1.00  0.00     0.143 C 
HETATM   20  O2  UNL     1      -4.960   1.152   2.859  1.00  0.00    -0.650 OA
BRANCH  19  21
HETATM   21  O3  UNL     1      -5.356   2.347   3.778  1.00  0.00    -0.776 OA
HETATM   22  H24 UNL     1      -5.068   2.910   4.589  1.00  0.00     0.167 HD
ENDBRANCH  19  21
ENDBRANCH  18  19
ENDBRANCH  14  18
ENDBRANCH   9  11
BRANCH   1  23
HETATM   23  N1  UNL     1      -2.189  -3.759  -1.449  1.00  0.00     0.103 N 
HETATM   24  C1  UNL     1      -2.322  -3.906  -2.851  1.00  0.00     0.309 C 
HETATM   25  H4  UNL     1      -2.026  -4.631  -0.944  1.00  0.00     0.318 HD
ENDBRANCH   1  23
BRANCH   5  26
HETATM   26  C6  UNL     1       3.433   0.766  -0.167  1.00  0.00    -0.026 A 
HETATM   27  C7  UNL     1       4.272  -0.136   0.461  1.00  0.00     0.015 A 
HETATM   28  C8  UNL     1       5.559   0.311   0.757  1.00  0.00     0.037 A 
HETATM   29  C9  UNL     1       5.975   1.584   0.440  1.00  0.00     0.068 A 
HETATM   30  C11 UNL     1       5.101   2.464  -0.193  1.00  0.00     0.037 A 
HETATM   31  C12 UNL     1       3.810   2.056  -0.504  1.00  0.00     0.015 A 
BRANCH  29  32
HETATM   32  O1  UNL     1       7.238   2.074   0.711  1.00  0.00    -0.356 OA
HETATM   33  C10 UNL     1       8.241   1.304   1.350  1.00  0.00     0.210 C 
ENDBRANCH  29  32
ENDBRANCH   5  26
TORSDOF 7
