REMARK  2 active torsions:
REMARK  status: ('A' for Active; 'I' for Inactive)
REMARK    1  A    between atoms: O1_2  and  C2_3 
REMARK    2  A    between atoms: C7_8  and  C8_9 
ROOT
HETATM    1  C8  UNL     1      -2.642   0.870   0.571  1.00  0.00     0.001 C 
HETATM    2  C9  UNL     1      -1.887   1.428   1.463  1.00  0.00     0.147 C 
HETATM    3  O2  UNL     1      -0.936   1.476   2.436  1.00  0.00    -0.354 OA
HETATM    4  C10 UNL     1       0.455   1.379   2.086  1.00  0.00     0.165 C 
HETATM    5  C11 UNL     1       1.209   0.369   1.702  1.00  0.00     0.060 C 
HETATM    6  C12 UNL     1       2.329  -0.550   1.249  1.00  0.00     0.159 C 
HETATM    7  O3  UNL     1       3.161   0.144   0.436  1.00  0.00    -0.381 OA
HETATM    8  C13 UNL     1       4.364   0.487   1.091  1.00  0.00     0.169 C 
HETATM    9  C14 UNL     1       5.204   1.283   0.139  1.00  0.00     0.030 C 
HETATM   10  C15 UNL     1       5.757   0.396  -0.958  1.00  0.00     0.030 C 
HETATM   11  C16 UNL     1       4.648  -0.448  -1.455  1.00  0.00    -0.010 C 
HETATM   12  C17 UNL     1       3.681  -1.152  -1.954  1.00  0.00     0.079 C 
HETATM   13  N1  UNL     1       2.813  -2.188  -1.568  1.00  0.00    -0.395 N 
HETATM   14  C18 UNL     1       2.526  -2.632  -0.240  1.00  0.00     0.156 C 
HETATM   15  C19 UNL     1       1.790  -1.776   0.656  1.00  0.00    -0.021 C 
HETATM   16  C20 UNL     1       0.526  -2.093   1.148  1.00  0.00     0.022 C 
HETATM   17  C21 UNL     1      -0.579  -1.777   2.024  1.00  0.00     0.101 C 
HETATM   18  C22 UNL     1      -1.632  -1.479   1.009  1.00  0.00     0.017 C 
HETATM   19  C23 UNL     1      -2.320  -0.490   0.555  1.00  0.00     0.039 C 
HETATM   20  N2  UNL     1      -1.604  -2.829   0.428  1.00  0.00    -0.327 N 
HETATM   21  C24 UNL     1      -0.182  -3.282   0.498  1.00  0.00     0.252 C 
HETATM   22  O4  UNL     1       0.085  -4.452   0.035  1.00  0.00    -0.268 OA
HETATM   23  H20 UNL     1       2.456  -2.526  -2.519  1.00  0.00     0.159 HD
HETATM   24  H26 UNL     1      -2.381  -3.443   0.007  1.00  0.00     0.169 HD
ENDROOT
BRANCH   1  25
HETATM   25  C7  UNL     1      -3.531   1.708  -0.140  1.00  0.00     0.009 A 
HETATM   26  C2  UNL     1      -4.452   1.204  -1.036  1.00  0.00     0.079 A 
HETATM   27  C3  UNL     1      -5.293   1.964  -1.816  1.00  0.00     0.037 A 
HETATM   28  C4  UNL     1      -5.253   3.349  -1.731  1.00  0.00     0.003 A 
HETATM   29  C5  UNL     1      -4.320   3.852  -0.820  1.00  0.00     0.001 A 
HETATM   30  C6  UNL     1      -3.524   3.084  -0.086  1.00  0.00     0.015 A 
BRANCH  26  31
HETATM   31  O1  UNL     1      -4.598  -0.134  -1.213  1.00  0.00    -0.355 OA
HETATM   32  C1  UNL     1      -5.433  -0.859  -2.046  1.00  0.00     0.210 C 
ENDBRANCH  26  31
ENDBRANCH   1  25
TORSDOF 2
