REMARK  2 active torsions:
REMARK  status: ('A' for Active; 'I' for Inactive)
REMARK    1  A    between atoms: N1_1  and  C1_2 
REMARK    2  A    between atoms: C11_15  and  N5_16 
ROOT
HETATM    1  C1  UNL     1       4.885  -0.063   0.524  1.00  0.00     0.026 A 
HETATM    2  C2  UNL     1       4.503  -0.806   1.620  1.00  0.00     0.032 A 
HETATM    3  C3  UNL     1       3.193  -0.911   2.032  1.00  0.00     0.040 A 
HETATM    4  C4  UNL     1       2.249  -0.220   1.278  1.00  0.00     0.085 A 
HETATM    5  C5  UNL     1       2.569   0.544   0.165  1.00  0.00    -0.005 A 
HETATM    6  C6  UNL     1       3.903   0.602  -0.186  1.00  0.00     0.040 A 
HETATM    7  C7  UNL     1       1.756   1.345  -0.766  1.00  0.00     0.157 C 
HETATM    8  N2  UNL     1       0.380   1.416  -0.474  1.00  0.00    -0.403 N 
HETATM    9  C8  UNL     1      -0.355   0.221  -0.393  1.00  0.00     0.189 C 
HETATM   10  C9  UNL     1      -0.286  -0.305   0.994  1.00  0.00     0.174 C 
HETATM   11  N3  UNL     1      -0.957  -0.828   1.985  1.00  0.00    -0.220 NA
HETATM   12  C10 UNL     1      -2.346  -1.171   2.136  1.00  0.00     0.232 C 
HETATM   13  N4  UNL     1      -3.242  -1.492   1.263  1.00  0.00    -0.253 NA
HETATM   14  C11 UNL     1      -3.236  -1.640  -0.188  1.00  0.00     0.235 C 
HETATM   15  C12 UNL     1      -2.871  -0.399  -0.874  1.00  0.00    -0.006 A 
HETATM   16  C13 UNL     1      -3.969   0.097  -1.587  1.00  0.00     0.012 A 
HETATM   17  C14 UNL     1      -3.931   1.244  -2.325  1.00  0.00     0.001 A 
HETATM   18  C15 UNL     1      -2.764   1.958  -2.383  1.00  0.00     0.001 A 
HETATM   19  C16 UNL     1      -1.663   1.508  -1.699  1.00  0.00     0.010 A 
HETATM   20  C17 UNL     1      -1.694   0.333  -0.939  1.00  0.00    -0.018 A 
HETATM   21  O1  UNL     1       0.915  -0.339   1.713  1.00  0.00    -0.293 OA
HETATM   22  H8  UNL     1       0.061   2.207   0.100  1.00  0.00     0.154 HD
ENDROOT
BRANCH   1  23
HETATM   23  N1  UNL     1       6.266  -0.010   0.169  1.00  0.00    -0.399 N 
HETATM   24  H1  UNL     1       6.472   0.956   0.563  1.00  0.00     0.156 HD
HETATM   25  H2  UNL     1       6.376  -0.944  -0.297  1.00  0.00     0.156 HD
ENDBRANCH   1  23
BRANCH  14  26
HETATM   26  N5  UNL     1      -4.507  -2.094  -0.582  1.00  0.00    -0.406 N 
HETATM   27  H12 UNL     1      -4.607  -2.510  -1.511  1.00  0.00     0.152 HD
HETATM   28  H13 UNL     1      -5.194  -2.322   0.140  1.00  0.00     0.152 HD
ENDBRANCH  14  26
TORSDOF 2
