REMARK  6 active torsions:
REMARK  status: ('A' for Active; 'I' for Inactive)
REMARK    1  A    between atoms: O1_2  and  C2_3 
REMARK    2  A    between atoms: C5_6  and  C6_7 
REMARK    3  A    between atoms: C17_21  and  C18_22 
REMARK    4  A    between atoms: C18_22  and  C19_23 
REMARK    5  A    between atoms: C19_23  and  C20_24 
REMARK    6  A    between atoms: C20_24  and  O3_26 
ROOT
HETATM    1  C6  UNL     1       3.612   0.343   0.101  1.00  0.00    -0.024 A 
HETATM    2  C7  UNL     1       2.888  -0.448  -0.761  1.00  0.00     0.013 A 
HETATM    3  C8  UNL     1       1.547  -0.640  -0.522  1.00  0.00     0.015 A 
HETATM    4  C9  UNL     1       0.851  -0.097   0.530  1.00  0.00     0.007 A 
HETATM    5  C10 UNL     1       1.594   0.691   1.378  1.00  0.00     0.047 A 
HETATM    6  C11 UNL     1       2.940   0.902   1.165  1.00  0.00     0.042 A 
HETATM    7  N1  UNL     1       0.667   1.144   2.355  1.00  0.00    -0.322 N 
HETATM    8  C12 UNL     1      -0.626   0.626   2.091  1.00  0.00     0.257 A 
HETATM    9  O2  UNL     1      -1.490   0.984   2.911  1.00  0.00    -0.267 OA
HETATM   10  C13 UNL     1      -0.553  -0.200   0.894  1.00  0.00     0.051 A 
HETATM   11  C14 UNL     1      -1.577  -0.889   0.432  1.00  0.00    -0.017 C 
HETATM   12  C15 UNL     1      -1.579  -1.847  -0.685  1.00  0.00     0.157 C 
HETATM   13  N2  UNL     1      -1.944  -1.062  -1.870  1.00  0.00    -0.393 N 
HETATM   14  C16 UNL     1      -3.305  -0.566  -1.931  1.00  0.00     0.115 C 
HETATM   15  C17 UNL     1      -4.318  -0.406  -1.036  1.00  0.00     0.062 C 
HETATM   16  O4  UNL     1      -4.010  -0.798   0.248  1.00  0.00    -0.345 OA
HETATM   17  C22 UNL     1      -2.868  -0.595   1.079  1.00  0.00     0.156 C 
HETATM   18  C23 UNL     1      -3.067  -1.388   2.334  1.00  0.00     0.045 C 
HETATM   19  H9  UNL     1       1.030   1.780   3.125  1.00  0.00     0.169 HD
HETATM   20  H12 UNL     1      -1.332  -0.817  -2.688  1.00  0.00     0.159 HD
ENDROOT
BRANCH   1  21
HETATM   21  C5  UNL     1       5.036   0.602  -0.073  1.00  0.00    -0.026 A 
HETATM   22  C4  UNL     1       5.670   1.763   0.305  1.00  0.00     0.015 A 
HETATM   23  C3  UNL     1       7.036   1.899   0.089  1.00  0.00     0.037 A 
HETATM   24  C2  UNL     1       7.779   0.881  -0.505  1.00  0.00     0.068 A 
HETATM   25  C25 UNL     1       7.120  -0.272  -0.875  1.00  0.00     0.037 A 
HETATM   26  C24 UNL     1       5.773  -0.427  -0.670  1.00  0.00     0.015 A 
BRANCH  24  27
HETATM   27  O1  UNL     1       9.116   1.211  -0.631  1.00  0.00    -0.356 OA
HETATM   28  C1  UNL     1      10.015   0.300  -1.210  1.00  0.00     0.210 C 
ENDBRANCH  24  27
ENDBRANCH   1  21
BRANCH  15  29
HETATM   29  C18 UNL     1      -5.536   0.155  -1.634  1.00  0.00     0.068 C 
BRANCH  29  30
HETATM   30  C19 UNL     1      -6.082   1.416  -1.100  1.00  0.00     0.038 C 
BRANCH  30  31
HETATM   31  C20 UNL     1      -6.537   1.345   0.311  1.00  0.00     0.114 C 
HETATM   32  C21 UNL     1      -7.630   0.265   0.357  1.00  0.00     0.039 C 
BRANCH  31  33
HETATM   33  O3  UNL     1      -5.547   1.085   1.205  1.00  0.00    -0.396 OA
HETATM   34  H22 UNL     1      -5.812   0.571   2.018  1.00  0.00     0.210 HD
ENDBRANCH  31  33
ENDBRANCH  30  31
ENDBRANCH  29  30
ENDBRANCH  15  29
TORSDOF 6
