REMARK  8 active torsions:
REMARK  status: ('A' for Active; 'I' for Inactive)
REMARK    1  A    between atoms: C2_2  and  C3_3 
REMARK    2  A    between atoms: C3_3  and  N1_10 
REMARK    3  A    between atoms: C4_4  and  C5_5 
REMARK    4  A    between atoms: C5_5  and  C6_6 
REMARK    5  A    between atoms: C6_6  and  C7_7 
REMARK    6  A    between atoms: C7_7  and  O2_9 
REMARK    7  A    between atoms: N1_10  and  C8_11 
REMARK    8  A    between atoms: C8_11  and  C9_12 
ROOT
HETATM    1  C8  UNL     1       0.076  -1.217   0.436  1.00  0.00     0.148 C 
ENDROOT
BRANCH   1   2
HETATM    2  N1  UNL     1      -1.097  -0.583   1.057  1.00  0.00    -0.390 N 
HETATM    3  H12 UNL     1      -1.050   0.286   1.654  1.00  0.00     0.159 HD
BRANCH   2   4
HETATM    4  C3  UNL     1      -2.337  -1.249   0.784  1.00  0.00     0.001 C 
HETATM    5  C4  UNL     1      -3.055  -0.674  -0.167  1.00  0.00    -0.002 C 
BRANCH   4   6
HETATM    6  C2  UNL     1      -2.454  -2.412   1.667  1.00  0.00     0.052 C 
HETATM    7  C1  UNL     1      -2.433  -2.043   3.132  1.00  0.00     0.011 C 
ENDBRANCH   4   6
BRANCH   5   8
HETATM    8  C5  UNL     1      -2.701   0.545  -0.938  1.00  0.00     0.039 C 
BRANCH   8   9
HETATM    9  C6  UNL     1      -2.624   0.224  -2.423  1.00  0.00     0.113 C 
BRANCH   9  10
HETATM   10  C7  UNL     1      -3.969  -0.274  -2.848  1.00  0.00     0.139 C 
HETATM   11  O1  UNL     1      -5.077  -0.458  -2.242  1.00  0.00    -0.650 OA
BRANCH  10  12
HETATM   12  O2  UNL     1      -3.971  -0.598  -4.217  1.00  0.00    -0.776 OA
HETATM   13  H11 UNL     1      -4.876  -0.771  -4.678  1.00  0.00     0.167 HD
ENDBRANCH  10  12
ENDBRANCH   9  10
ENDBRANCH   8   9
ENDBRANCH   5   8
ENDBRANCH   2   4
ENDBRANCH   1   2
BRANCH   1  14
HETATM   14  C9  UNL     1       1.228  -0.399   0.828  1.00  0.00     0.010 C 
HETATM   15  C10 UNL     1       2.050   0.237   0.012  1.00  0.00     0.042 A 
HETATM   16  C11 UNL     1       2.054   0.309  -1.443  1.00  0.00     0.256 A 
HETATM   17  C17 UNL     1       3.193   1.049   0.408  1.00  0.00     0.007 A 
HETATM   18  O3  UNL     1       1.232  -0.251  -2.212  1.00  0.00    -0.267 OA
HETATM   19  N2  UNL     1       3.135   1.117  -1.905  1.00  0.00    -0.322 N 
HETATM   20  C12 UNL     1       3.803   1.546  -0.720  1.00  0.00     0.046 A 
HETATM   21  H16 UNL     1       3.360   1.328  -2.904  1.00  0.00     0.169 HD
HETATM   22  C13 UNL     1       4.927   2.360  -0.684  1.00  0.00     0.032 A 
HETATM   23  C14 UNL     1       5.452   2.683   0.551  1.00  0.00     0.021 A 
HETATM   24  C15 UNL     1       4.864   2.201   1.703  1.00  0.00     0.011 A 
HETATM   25 BR1  UNL     1       5.536   2.605   3.460  1.00  0.00    -0.051 Br
HETATM   26  C16 UNL     1       3.747   1.392   1.642  1.00  0.00     0.033 A 
ENDBRANCH   1  14
TORSDOF 8
