REMARK  8 active torsions:
REMARK  status: ('A' for Active; 'I' for Inactive)
REMARK    1  A    between atoms: C2_2  and  C3_3 
REMARK    2  A    between atoms: C2_2  and  N1_9 
REMARK    3  A    between atoms: C3_3  and  C4_4 
REMARK    4  A    between atoms: C4_4  and  C5_5 
REMARK    5  A    between atoms: C5_5  and  C6_6 
REMARK    6  A    between atoms: C6_6  and  O2_8 
REMARK    7  A    between atoms: C7_10  and  C8_11 
REMARK    8  A    between atoms: C8_11  and  C9_12 
ROOT
HETATM    1  C9  UNL     1       1.859  -1.580  -0.263  1.00  0.00    -0.004 C 
HETATM    2  C10 UNL     1       2.719  -1.055   0.591  1.00  0.00     0.041 A 
HETATM    3  C11 UNL     1       3.025  -1.571   1.944  1.00  0.00     0.256 A 
HETATM    4  O3  UNL     1       2.517  -2.586   2.487  1.00  0.00    -0.267 OA
HETATM    5  N2  UNL     1       3.992  -0.661   2.433  1.00  0.00    -0.322 N 
HETATM    6  C12 UNL     1       4.326   0.377   1.524  1.00  0.00     0.046 A 
HETATM    7  C13 UNL     1       5.208   1.432   1.638  1.00  0.00     0.032 A 
HETATM    8  C14 UNL     1       5.342   2.307   0.591  1.00  0.00     0.021 A 
HETATM    9  C15 UNL     1       4.589   2.119  -0.568  1.00  0.00     0.011 A 
HETATM   10 BR1  UNL     1       4.757   3.316  -2.033  1.00  0.00    -0.051 Br
HETATM   11  C16 UNL     1       3.731   1.038  -0.596  1.00  0.00     0.033 A 
HETATM   12  C17 UNL     1       3.549   0.131   0.409  1.00  0.00     0.007 A 
HETATM   13  H16 UNL     1       4.369  -0.817   3.388  1.00  0.00     0.169 HD
ENDROOT
BRANCH   1  14
HETATM   14  C8  UNL     1       1.236  -1.498  -1.569  1.00  0.00     0.074 C 
BRANCH  14  15
HETATM   15  C7  UNL     1      -0.261  -1.330  -1.410  1.00  0.00     0.087 C 
HETATM   16  N1  UNL     1      -0.950  -0.444  -2.019  1.00  0.00    -0.301 NA
BRANCH  16  17
HETATM   17  C2  UNL     1      -2.355  -0.282  -1.874  1.00  0.00     0.103 C 
HETATM   18  C1  UNL     1      -3.026  -1.531  -2.387  1.00  0.00     0.034 C 
BRANCH  17  19
HETATM   19  C3  UNL     1      -2.708  -0.081  -0.400  1.00  0.00     0.027 C 
BRANCH  19  20
HETATM   20  C4  UNL     1      -4.189   0.064  -0.210  1.00  0.00     0.012 C 
BRANCH  20  21
HETATM   21  C5  UNL     1      -4.591   0.263   1.235  1.00  0.00     0.110 C 
BRANCH  21  22
HETATM   22  C6  UNL     1      -3.965   1.498   1.818  1.00  0.00     0.139 C 
HETATM   23  O1  UNL     1      -2.749   1.529   2.174  1.00  0.00    -0.650 OA
BRANCH  22  24
HETATM   24  O2  UNL     1      -4.670   2.685   2.008  1.00  0.00    -0.776 OA
HETATM   25  H11 UNL     1      -4.237   3.477   2.501  1.00  0.00     0.167 HD
ENDBRANCH  22  24
ENDBRANCH  21  22
ENDBRANCH  20  21
ENDBRANCH  19  20
ENDBRANCH  17  19
ENDBRANCH  16  17
ENDBRANCH  14  15
ENDBRANCH   1  14
TORSDOF 8
