REMARK  1 active torsions:
REMARK  status: ('A' for Active; 'I' for Inactive)
REMARK    1  A    between atoms: C4_4  and  O1_5 
ROOT
HETATM    1  C1  UNL     1       3.194  -1.330   1.127  1.00  0.00     0.044 C 
HETATM    2  C2  UNL     1       2.399  -0.263   0.435  1.00  0.00    -0.077 A 
HETATM    3  C3  UNL     1       1.799   0.742   1.121  1.00  0.00     0.019 A 
HETATM    4  C4  UNL     1       1.290   1.292  -0.149  1.00  0.00     0.113 A 
HETATM    5  C5  UNL     1      -0.159   1.469  -0.220  1.00  0.00     0.007 A 
HETATM    6  C6  UNL     1      -0.444   2.332  -1.268  1.00  0.00     0.013 A 
HETATM    7  C7  UNL     1      -1.677   2.830  -1.712  1.00  0.00     0.001 A 
HETATM    8  C8  UNL     1      -2.794   2.411  -1.014  1.00  0.00     0.002 A 
HETATM    9  C9  UNL     1      -2.511   1.535   0.051  1.00  0.00     0.030 A 
HETATM   10  C10 UNL     1      -1.266   1.043   0.483  1.00  0.00     0.037 A 
HETATM   11  N1  UNL     1      -1.705   0.190   1.586  1.00  0.00    -0.387 N 
HETATM   12  C11 UNL     1      -2.560  -0.930   1.412  1.00  0.00     0.146 C 
HETATM   13  C12 UNL     1      -1.966  -2.279   1.250  1.00  0.00     0.198 C 
HETATM   14  O2  UNL     1      -1.078  -2.348   0.195  1.00  0.00    -0.320 OA
HETATM   15  C13 UNL     1       0.202  -1.915   0.117  1.00  0.00     0.258 C 
HETATM   16  O3  UNL     1      -0.077  -1.658   1.283  1.00  0.00    -0.265 OA
HETATM   17  C14 UNL     1       0.970  -2.026  -1.146  1.00  0.00     0.112 C 
HETATM   18  C15 UNL     1       1.163  -0.663  -1.768  1.00  0.00     0.022 C 
HETATM   19  C16 UNL     1       1.941   0.219  -0.897  1.00  0.00     0.057 A 
HETATM   20  H10 UNL     1      -1.140   0.857   2.121  1.00  0.00     0.159 HD
ENDROOT
BRANCH   4  21
HETATM   21  O1  UNL     1       2.020   2.511  -0.375  1.00  0.00    -0.380 OA
HETATM   22  H5  UNL     1       2.971   2.310  -0.471  1.00  0.00     0.211 HD
ENDBRANCH   4  21
TORSDOF 1
