REMARK  5 active torsions:
REMARK  status: ('A' for Active; 'I' for Inactive)
REMARK    1  A    between atoms: C5_6  and  C6_7 
REMARK    2  A    between atoms: C6_7  and  C7_8 
REMARK    3  A    between atoms: C7_8  and  C8_9 
REMARK    4  A    between atoms: C8_9  and  O2_11 
REMARK    5  A    between atoms: N1_14  and  C11_15 
ROOT
HETATM    1  C1  UNL     1      -3.210  -2.888   1.610  1.00  0.00     0.098 C 
HETATM    2  C2  UNL     1      -2.322  -2.541   0.693  1.00  0.00    -0.138 C 
HETATM    3  P1  UNL     1      -1.321  -2.042  -0.449  1.00  0.00    -0.004 P 
HETATM    4  C3  UNL     1       0.145  -2.869  -0.037  1.00  0.00     0.063 C 
HETATM    5  C4  UNL     1       1.225  -1.966  -0.655  1.00  0.00     0.042 C 
HETATM    6  C5  UNL     1       1.299  -0.626  -0.113  1.00  0.00    -0.057 C 
HETATM    7  C9  UNL     1       0.203   0.093   0.107  1.00  0.00     0.010 C 
HETATM    8  C10 UNL     1       0.416   1.455   0.666  1.00  0.00     0.068 C 
HETATM    9  N1  UNL     1      -1.151  -0.337  -0.152  1.00  0.00    -0.343 N 
HETATM   10  H3  UNL     1      -1.933  -2.231  -1.621  1.00  0.00     0.086 HD
ENDROOT
BRANCH   9  11
HETATM   11  C11 UNL     1      -2.264   0.518  -0.167  1.00  0.00     0.182 C 
HETATM   12  C12 UNL     1      -2.115   1.646  -1.186  1.00  0.00     0.055 C 
HETATM   13  C13 UNL     1      -2.846   2.818  -0.571  1.00  0.00     0.125 C 
HETATM   14  N2  UNL     1      -3.260   2.399   0.727  1.00  0.00    -0.359 N 
HETATM   15  C14 UNL     1      -2.753   1.100   1.075  1.00  0.00     0.240 C 
HETATM   16  H21 UNL     1      -3.862   2.957   1.369  1.00  0.00     0.162 HD
HETATM   17  O3  UNL     1      -2.694   0.495   2.181  1.00  0.00    -0.271 OA
ENDBRANCH   9  11
BRANCH   6  18
HETATM   18  C6  UNL     1       2.649  -0.076   0.189  1.00  0.00     0.046 C 
BRANCH  18  19
HETATM   19  C7  UNL     1       3.515  -0.019  -1.062  1.00  0.00     0.114 C 
BRANCH  19  20
HETATM   20  C8  UNL     1       4.860   0.532  -0.749  1.00  0.00     0.139 C 
HETATM   21  O1  UNL     1       5.709   0.649  -1.677  1.00  0.00    -0.650 OA
BRANCH  20  22
HETATM   22  O2  UNL     1       5.673   1.033   0.265  1.00  0.00    -0.776 OA
HETATM   23  H12 UNL     1       5.660   2.031   0.498  1.00  0.00     0.167 HD
ENDBRANCH  20  22
ENDBRANCH  19  20
ENDBRANCH  18  19
ENDBRANCH   6  18
TORSDOF 5
