REMARK  10 active torsions:
REMARK  status: ('A' for Active; 'I' for Inactive)
REMARK    1  A    between atoms: C2_2  and  O1_3 
REMARK    2  A    between atoms: O1_3  and  C3_4 
REMARK    3  A    between atoms: C3_4  and  C4_5 
REMARK    4  A    between atoms: C4_5  and  C5_6 
REMARK    5  A    between atoms: C5_6  and  C6_7 
REMARK    6  A    between atoms: C6_7  and  C7_8 
REMARK    7  A    between atoms: C7_8  and  C8_9 
REMARK    8  A    between atoms: C8_9  and  O3_11 
REMARK    9  A    between atoms: C15_19  and  C16_20 
REMARK   10  A    between atoms: C16_20  and  O5_22 
ROOT
HETATM    1  C5  UNL     1      -0.200   0.854  -0.247  1.00  0.00    -0.047 C 
HETATM    2  C9  UNL     1       1.059   1.067   0.422  1.00  0.00    -0.005 C 
HETATM    3  C10 UNL     1       1.470   2.134   1.065  1.00  0.00     0.003 C 
HETATM    4  C11 UNL     1       1.775   1.960   2.346  1.00  0.00     0.101 C 
HETATM    5  N1  UNL     1       2.847   1.034   2.630  1.00  0.00    -0.364 N 
HETATM    6  C12 UNL     1       3.042  -0.011   1.653  1.00  0.00     0.043 A 
HETATM    7  C13 UNL     1       4.001  -0.985   1.682  1.00  0.00     0.031 A 
HETATM    8  C14 UNL     1       4.082  -1.908   0.653  1.00  0.00     0.020 A 
HETATM    9  C15 UNL     1       3.213  -1.891  -0.437  1.00  0.00     0.038 A 
HETATM   10  C17 UNL     1       2.275  -0.883  -0.395  1.00  0.00     0.032 A 
HETATM   11  C18 UNL     1       2.141   0.078   0.618  1.00  0.00     0.003 A 
HETATM   12  H15 UNL     1       3.494   1.030   3.451  1.00  0.00     0.165 HD
ENDROOT
BRANCH   1  13
HETATM   13  C4  UNL     1      -0.781  -0.249  -0.791  1.00  0.00     0.007 C 
BRANCH  13  14
HETATM   14  C3  UNL     1      -1.039  -1.634  -1.193  1.00  0.00     0.195 C 
BRANCH  14  15
HETATM   15  O1  UNL     1      -2.207  -2.207  -0.743  1.00  0.00    -0.388 OA
BRANCH  15  16
HETATM   16  C2  UNL     1      -3.382  -1.631  -1.103  1.00  0.00     0.163 C 
HETATM   17  C1  UNL     1      -4.598  -2.383  -0.567  1.00  0.00     0.033 C 
ENDBRANCH  15  16
ENDBRANCH  14  15
ENDBRANCH  13  14
ENDBRANCH   1  13
BRANCH   1  18
HETATM   18  C6  UNL     1      -0.920   2.141  -0.440  1.00  0.00     0.049 C 
BRANCH  18  19
HETATM   19  C7  UNL     1      -1.377   2.799   0.801  1.00  0.00     0.114 C 
BRANCH  19  20
HETATM   20  C8  UNL     1      -2.106   4.076   0.403  1.00  0.00     0.139 C 
HETATM   21  O2  UNL     1      -2.256   4.446  -0.810  1.00  0.00    -0.650 OA
BRANCH  20  22
HETATM   22  O3  UNL     1      -2.598   4.809   1.485  1.00  0.00    -0.776 OA
HETATM   23  H13 UNL     1      -3.107   5.672   1.279  1.00  0.00     0.167 HD
ENDBRANCH  20  22
ENDBRANCH  19  20
ENDBRANCH  18  19
ENDBRANCH   1  18
BRANCH   9  24
HETATM   24  C16 UNL     1       3.278  -2.847  -1.529  1.00  0.00     0.176 C 
HETATM   25  O4  UNL     1       4.156  -3.742  -1.508  1.00  0.00    -0.646 OA
BRANCH  24  26
HETATM   26  O5  UNL     1       2.368  -2.731  -2.549  1.00  0.00    -0.773 OA
HETATM   27  H18 UNL     1       2.362  -3.385  -3.347  1.00  0.00     0.167 HD
ENDBRANCH  24  26
ENDBRANCH   9  24
TORSDOF 10
