REMARK  4 active torsions:
REMARK  status: ('A' for Active; 'I' for Inactive)
REMARK    1  A    between atoms: C12_12  and  C13_13 
REMARK    2  A    between atoms: C13_13  and  C14_14 
REMARK    3  A    between atoms: C14_14  and  C15_15 
REMARK    4  A    between atoms: C15_15  and  O2_17 
ROOT
HETATM    1  C1  UNL     1      -0.181   0.020   1.700  1.00  0.00     0.012 C 
HETATM    2  C2  UNL     1       1.047  -0.194   0.773  1.00  0.00    -0.035 C 
HETATM    3  C3  UNL     1       2.252  -0.208   0.344  1.00  0.00     0.064 A 
HETATM    4  C4  UNL     1       3.107  -0.613  -0.828  1.00  0.00     0.089 A 
HETATM    5  C5  UNL     1       3.543   0.046   0.186  1.00  0.00     0.110 A 
HETATM    6  C6  UNL     1       4.125   0.791   1.289  1.00  0.00     0.035 C 
HETATM    7  C7  UNL     1       3.300   2.097   1.428  1.00  0.00    -0.026 C 
HETATM    8  C8  UNL     1       2.129   2.757   1.148  1.00  0.00    -0.004 C 
HETATM    9  C9  UNL     1       0.798   2.578   0.507  1.00  0.00    -0.004 C 
HETATM   10  C10 UNL     1      -0.112   1.763  -0.090  1.00  0.00    -0.017 C 
HETATM   11  C11 UNL     1       0.039   0.299  -0.295  1.00  0.00     0.044 C 
HETATM   12  C12 UNL     1      -0.923  -0.590  -0.751  1.00  0.00    -0.047 C 
HETATM   13  C16 UNL     1      -0.495  -1.846  -0.475  1.00  0.00     0.034 C 
HETATM   14  C17 UNL     1      -1.326  -3.010  -0.837  1.00  0.00     0.070 C 
HETATM   15  N1  UNL     1       0.760  -2.346   0.054  1.00  0.00    -0.239 N 
HETATM   16  O3  UNL     1       1.434  -2.329  -1.131  1.00  0.00    -0.112 OA
HETATM   17  O4  UNL     1       2.062  -1.230  -1.451  1.00  0.00    -0.210 OA
HETATM   18  H21 UNL     1       0.761  -2.559   1.072  1.00  0.00     0.197 HD
ENDROOT
BRANCH  12  19
HETATM   19  C13 UNL     1      -2.212  -0.534  -1.425  1.00  0.00     0.047 C 
BRANCH  19  20
HETATM   20  C14 UNL     1      -3.302   0.140  -0.630  1.00  0.00     0.114 C 
BRANCH  20  21
HETATM   21  C15 UNL     1      -4.604   0.122  -1.399  1.00  0.00     0.139 C 
HETATM   22  O1  UNL     1      -4.804  -0.347  -2.548  1.00  0.00    -0.650 OA
BRANCH  21  23
HETATM   23  O2  UNL     1      -5.664   0.695  -0.727  1.00  0.00    -0.776 OA
HETATM   24  H17 UNL     1      -6.472   0.979  -1.279  1.00  0.00     0.167 HD
ENDBRANCH  21  23
ENDBRANCH  20  21
ENDBRANCH  19  20
ENDBRANCH  12  19
TORSDOF 4
