REMARK  9 active torsions:
REMARK  status: ('A' for Active; 'I' for Inactive)
REMARK    1  A    between atoms: C3_3  and  C4_4 
REMARK    2  A    between atoms: C4_4  and  C5_5 
REMARK    3  A    between atoms: C10_12  and  C11_13 
REMARK    4  A    between atoms: C11_13  and  O2_14 
REMARK    5  A    between atoms: C15_20  and  C16_21 
REMARK    6  A    between atoms: C16_21  and  C17_22 
REMARK    7  A    between atoms: C17_22  and  C18_23 
REMARK    8  A    between atoms: C18_23  and  C19_24 
REMARK    9  A    between atoms: C19_24  and  O5_26 
ROOT
HETATM    1  C1  UNL     1      -0.925  -1.626   1.151  1.00  0.00     0.052 C 
HETATM    2  C2  UNL     1      -1.326  -0.715   0.037  1.00  0.00    -0.018 A 
HETATM    3  C3  UNL     1      -0.430   0.017  -0.625  1.00  0.00     0.106 A 
HETATM    4  O3  UNL     1      -0.876   0.824  -1.635  1.00  0.00    -0.238 OA
HETATM    5  N2  UNL     1      -2.159   0.979  -2.069  1.00  0.00    -0.271 N 
HETATM    6  C14 UNL     1      -3.051   0.170  -1.319  1.00  0.00     0.122 A 
HETATM    7  C15 UNL     1      -2.721  -0.643  -0.321  1.00  0.00    -0.032 A 
HETATM    8  H12 UNL     1      -2.489   1.596  -2.845  1.00  0.00     0.194 HD
ENDROOT
BRANCH   3   9
HETATM    9  C4  UNL     1       0.979  -0.005  -0.333  1.00  0.00     0.057 C 
BRANCH   9  10
HETATM   10  C5  UNL     1       2.072   0.562  -0.766  1.00  0.00     0.047 A 
HETATM   11  C6  UNL     1       1.763   1.453  -1.823  1.00  0.00     0.257 A 
HETATM   12  O1  UNL     1       1.093   2.134  -2.684  1.00  0.00    -0.267 OA
HETATM   13  N1  UNL     1       3.092   1.971  -2.208  1.00  0.00    -0.322 N 
HETATM   14  C7  UNL     1       4.095   1.361  -1.361  1.00  0.00     0.046 A 
HETATM   15  H5  UNL     1       3.599   2.625  -2.865  1.00  0.00     0.169 HD
HETATM   16  C8  UNL     1       5.459   1.344  -1.131  1.00  0.00     0.031 A 
HETATM   17  C13 UNL     1       3.479   0.482  -0.459  1.00  0.00     0.007 A 
HETATM   18  C9  UNL     1       6.187   0.648  -0.224  1.00  0.00     0.011 A 
HETATM   19  C10 UNL     1       5.447  -0.184   0.604  1.00  0.00    -0.034 A 
HETATM   20  C12 UNL     1       4.056  -0.301   0.518  1.00  0.00     0.024 A 
BRANCH  19  21
HETATM   21  C11 UNL     1       6.171  -0.990   1.623  1.00  0.00     0.202 C 
BRANCH  21  22
HETATM   22  O2  UNL     1       6.538  -2.238   1.147  1.00  0.00    -0.396 OA
HETATM   23  H10 UNL     1       6.901  -2.134   0.223  1.00  0.00     0.209 HD
ENDBRANCH  21  22
ENDBRANCH  19  21
ENDBRANCH   9  10
ENDBRANCH   3   9
BRANCH   7  24
HETATM   24  C16 UNL     1      -3.663  -1.445   0.482  1.00  0.00     0.041 C 
BRANCH  24  25
HETATM   25  C17 UNL     1      -5.088  -0.997   0.251  1.00  0.00     0.015 C 
BRANCH  25  26
HETATM   26  C18 UNL     1      -5.327   0.408   0.687  1.00  0.00     0.110 C 
BRANCH  26  27
HETATM   27  C19 UNL     1      -6.720   0.863   0.439  1.00  0.00     0.139 C 
HETATM   28  O4  UNL     1      -7.758   0.232   0.748  1.00  0.00    -0.650 OA
BRANCH  27  29
HETATM   29  O5  UNL     1      -6.807   2.098  -0.191  1.00  0.00    -0.776 OA
HETATM   30  H20 UNL     1      -7.689   2.551  -0.446  1.00  0.00     0.167 HD
ENDBRANCH  27  29
ENDBRANCH  26  27
ENDBRANCH  25  26
ENDBRANCH  24  25
ENDBRANCH   7  24
TORSDOF 9
