REMARK  6 active torsions:
REMARK  status: ('A' for Active; 'I' for Inactive)
REMARK    1  A    between atoms: C2_2  and  C3_3 
REMARK    2  A    between atoms: C3_3  and  C4_4 
REMARK    3  A    between atoms: C4_4  and  C5_5 
REMARK    4  A    between atoms: C5_5  and  C6_6 
REMARK    5  A    between atoms: C7_9  and  N1_11 
REMARK    6  A    between atoms: N1_11  and  C9_12 
ROOT
HETATM    1  N1  UNL     1       0.562   0.987   0.077  1.00  0.00    -0.355 N 
HETATM    2  H15 UNL     1       0.545   1.608   0.913  1.00  0.00     0.166 HD
ENDROOT
BRANCH   1   3
HETATM    3  C7  UNL     1      -0.327   0.219  -0.722  1.00  0.00     0.008 C 
HETATM    4  C3  UNL     1      -1.665   0.305  -0.681  1.00  0.00    -0.058 C 
HETATM    5  C8  UNL     1       0.278  -0.751  -1.670  1.00  0.00     0.068 C 
BRANCH   4   6
HETATM    6  C2  UNL     1      -2.453  -0.557  -1.569  1.00  0.00     0.031 C 
HETATM    7  C1  UNL     1      -3.343   0.244  -2.500  1.00  0.00     0.010 C 
ENDBRANCH   4   6
BRANCH   4   8
HETATM    8  C4  UNL     1      -2.208   1.298   0.274  1.00  0.00     0.042 C 
BRANCH   8   9
HETATM    9  C5  UNL     1      -3.046   0.713   1.371  1.00  0.00     0.071 C 
BRANCH   9  10
HETATM   10  C6  UNL     1      -4.255   0.001   0.900  1.00  0.00     0.070 A 
HETATM   11  O1  UNL     1      -5.007   0.704   0.212  1.00  0.00    -0.332 OA
HETATM   12  P1  UNL     1      -5.700  -1.004   0.391  1.00  0.00     0.017 P 
HETATM   13  H10 UNL     1      -6.457  -1.470   1.535  1.00  0.00     0.085 HD
HETATM   14  H11 UNL     1      -5.244  -2.193  -0.346  1.00  0.00     0.085 HD
ENDBRANCH   9  10
ENDBRANCH   8   9
ENDBRANCH   4   8
ENDBRANCH   1   3
BRANCH   1  15
HETATM   15  C9  UNL     1       1.950   1.027  -0.228  1.00  0.00     0.114 A 
HETATM   16  C10 UNL     1       2.891   0.213   0.286  1.00  0.00     0.022 A 
HETATM   17  C11 UNL     1       2.629  -0.858   1.258  1.00  0.00     0.013 A 
HETATM   18  C15 UNL     1       4.240   0.471  -0.200  1.00  0.00     0.045 A 
HETATM   19  C12 UNL     1       3.660  -1.607   1.697  1.00  0.00    -0.006 A 
HETATM   20  C13 UNL     1       5.031  -1.388   1.238  1.00  0.00     0.105 A 
HETATM   21 BR1  UNL     1       6.126  -1.086   2.831  1.00  0.00    -0.083 Br
HETATM   22  C14 UNL     1       5.205  -0.297   0.270  1.00  0.00     0.023 A 
HETATM   23  N2  UNL     1       4.102   1.548  -1.099  1.00  0.00    -0.321 N 
HETATM   24  C16 UNL     1       2.709   1.900  -1.129  1.00  0.00     0.273 A 
HETATM   25  H20 UNL     1       4.899   1.964  -1.614  1.00  0.00     0.169 HD
HETATM   26  O2  UNL     1       2.198   2.803  -1.806  1.00  0.00    -0.266 OA
ENDBRANCH   1  15
TORSDOF 6
