REMARK  3 active torsions:
REMARK  status: ('A' for Active; 'I' for Inactive)
REMARK    1  A    between atoms: C5_5  and  O1_6 
REMARK    2  A    between atoms: C8_10  and  C9_11 
REMARK    3  A    between atoms: C15_19  and  C16_20 
ROOT
HETATM    1  C1  UNL     1      -2.693   2.064   1.301  1.00  0.00     0.068 C 
HETATM    2  C2  UNL     1      -2.319   0.867   0.480  1.00  0.00     0.013 C 
HETATM    3  C3  UNL     1      -3.341   0.066   0.251  1.00  0.00     0.010 A 
HETATM    4  C4  UNL     1      -4.573  -0.759   0.062  1.00  0.00     0.115 A 
HETATM    5  C5  UNL     1      -3.401  -1.142  -0.717  1.00  0.00     0.198 A 
HETATM    6  O2  UNL     1      -2.387  -2.018  -0.294  1.00  0.00    -0.312 OA
HETATM    7  C6  UNL     1      -1.002  -1.729  -0.209  1.00  0.00     0.074 C 
HETATM    8  C7  UNL     1      -0.175  -2.936  -0.349  1.00  0.00     0.079 C 
HETATM    9  C8  UNL     1      -0.284  -0.646  -0.020  1.00  0.00     0.072 C 
HETATM   10  N2  UNL     1      -0.998   0.617   0.024  1.00  0.00    -0.357 N 
HETATM   11  H16 UNL     1      -0.555   1.542  -0.320  1.00  0.00     0.166 HD
ENDROOT
BRANCH   9  12
HETATM   12  C9  UNL     1       1.129  -0.448   0.035  1.00  0.00     0.007 C 
HETATM   13  C10 UNL     1       2.155  -1.237  -0.155  1.00  0.00     0.088 C 
HETATM   14  C11 UNL     1       3.616  -1.413  -0.189  1.00  0.00     0.245 C 
HETATM   15  O3  UNL     1       3.996  -2.580   0.022  1.00  0.00    -0.268 OA
HETATM   16  N1  UNL     1       4.597  -0.371  -0.442  1.00  0.00    -0.334 N 
HETATM   17  C12 UNL     1       4.538   1.054  -0.703  1.00  0.00     0.091 C 
HETATM   18  H11 UNL     1       5.569  -0.774  -0.428  1.00  0.00     0.168 HD
HETATM   19  C13 UNL     1       3.597   1.929  -0.298  1.00  0.00     0.018 C 
HETATM   20  C14 UNL     1       2.373   1.847   0.486  1.00  0.00     0.012 C 
HETATM   21  C15 UNL     1       1.464   0.901   0.571  1.00  0.00    -0.012 C 
BRANCH  21  22
HETATM   22  C16 UNL     1       0.518   1.349   1.638  1.00  0.00     0.430 C 
HETATM   23  O4  UNL     1       0.658   2.423   2.258  1.00  0.00    -0.426 OA
ENDBRANCH  21  22
ENDBRANCH   9  12
BRANCH   5  24
HETATM   24  O1  UNL     1      -3.293  -0.735  -2.056  1.00  0.00    -0.361 OA
HETATM   25  H6  UNL     1      -3.577   0.206  -2.188  1.00  0.00     0.213 HD
ENDBRANCH   5  24
TORSDOF 3
