REMARK  10 active torsions:
REMARK  status: ('A' for Active; 'I' for Inactive)
REMARK    1  A    between atoms: C2_2  and  C3_3 
REMARK    2  A    between atoms: C3_3  and  C4_4 
REMARK    3  A    between atoms: C4_4  and  C5_5 
REMARK    4  A    between atoms: C5_5  and  C6_6 
REMARK    5  A    between atoms: C6_6  and  C7_7 
REMARK    6  A    between atoms: C7_7  and  O2_9 
REMARK    7  A    between atoms: C8_10  and  C9_11 
REMARK    8  A    between atoms: C8_10  and  C10_15 
REMARK    9  A    between atoms: C9_11  and  O3_12 
REMARK   10  A    between atoms: O3_12  and  B1_13 
ROOT
HETATM    1  C1  UNL     1       1.024  -0.590   2.333  1.00  0.00     0.044 C 
HETATM    2  C2  UNL     1       0.786  -0.333   0.882  1.00  0.00    -0.075 C 
HETATM    3  C8  UNL     1      -0.356  -0.270   0.163  1.00  0.00    -0.025 C 
ENDROOT
BRANCH   3   4
HETATM    4  C9  UNL     1      -0.381   0.001  -1.300  1.00  0.00     0.184 C 
BRANCH   4   5
HETATM    5  O3  UNL     1      -1.136   1.217  -1.527  1.00  0.00    -0.425 OA
BRANCH   5   6
HETATM    6  B1  UNL     1      -1.106   1.766  -3.223  1.00  0.00     0.552 B 
HETATM    7  O4  UNL     1       0.119   3.260  -3.923  1.00  0.00    -0.293 OA
ENDBRANCH   5   6
ENDBRANCH   4   5
ENDBRANCH   3   4
BRANCH   3   8
HETATM    8  C10 UNL     1      -1.714  -0.371   0.676  1.00  0.00    -0.012 C 
HETATM    9  C11 UNL     1      -2.052  -0.513   1.976  1.00  0.00     0.085 C 
HETATM   10  C12 UNL     1      -3.490  -0.559   2.279  1.00  0.00     0.249 C 
HETATM   11  O5  UNL     1      -4.118  -0.700   3.348  1.00  0.00    -0.268 OA
HETATM   12  N1  UNL     1      -4.065  -0.394   0.983  1.00  0.00    -0.307 N 
HETATM   13  C13 UNL     1      -5.400   0.059   0.687  1.00  0.00     0.096 A 
HETATM   14  C17 UNL     1      -3.002  -0.695   0.085  1.00  0.00     0.082 A 
HETATM   15  C14 UNL     1      -5.687   0.318  -0.604  1.00  0.00     0.017 A 
HETATM   16  C15 UNL     1      -4.586   0.085  -1.573  1.00  0.00     0.000 A 
HETATM   17  C16 UNL     1      -3.350  -0.373  -1.277  1.00  0.00     0.009 A 
HETATM   18  C18 UNL     1      -3.074  -2.310   0.094  1.00  0.00     0.049 C 
ENDBRANCH   3   8
BRANCH   2  19
HETATM   19  C3  UNL     1       2.083  -0.134   0.244  1.00  0.00     0.034 C 
BRANCH  19  20
HETATM   20  C4  UNL     1       2.698   1.108   0.871  1.00  0.00     0.005 C 
BRANCH  20  21
HETATM   21  C5  UNL     1       4.039   1.327   0.216  1.00  0.00     0.011 C 
BRANCH  21  22
HETATM   22  C6  UNL     1       5.002   0.201   0.386  1.00  0.00     0.110 C 
BRANCH  22  23
HETATM   23  C7  UNL     1       6.273   0.555  -0.304  1.00  0.00     0.139 C 
HETATM   24  O1  UNL     1       7.182  -0.331  -0.232  1.00  0.00    -0.650 OA
BRANCH  23  25
HETATM   25  O2  UNL     1       7.386   0.996  -0.974  1.00  0.00    -0.776 OA
HETATM   26  H12 UNL     1       7.362   1.770  -1.651  1.00  0.00     0.167 HD
ENDBRANCH  23  25
ENDBRANCH  22  23
ENDBRANCH  21  22
ENDBRANCH  20  21
ENDBRANCH  19  20
ENDBRANCH   2  19
TORSDOF 10
