REMARK  6 active torsions:
REMARK  status: ('A' for Active; 'I' for Inactive)
REMARK    1  A    between atoms: O1_2  and  C2_3 
REMARK    2  A    between atoms: C2_3  and  C3_4 
REMARK    3  A    between atoms: C3_4  and  C4_5 
REMARK    4  A    between atoms: C5_7  and  C6_8 
REMARK    5  A    between atoms: C11_15  and  S1_16 
REMARK    6  A    between atoms: S1_16  and  N3_17 
ROOT
HETATM    1  C6  UNL     1      -0.507  -1.505  -0.319  1.00  0.00     0.163 A 
HETATM    2  C7  UNL     1      -0.495  -2.752   0.489  1.00  0.00     0.236 A 
HETATM    3  O2  UNL     1       0.301  -3.688   0.753  1.00  0.00    -0.272 OA
HETATM    4  N2  UNL     1      -1.776  -2.888   1.137  1.00  0.00    -0.326 N 
HETATM    5  C8  UNL     1      -2.617  -1.778   0.772  1.00  0.00     0.042 A 
HETATM    6  C9  UNL     1      -3.899  -1.355   1.048  1.00  0.00     0.031 A 
HETATM    7  C10 UNL     1      -4.449  -0.215   0.535  1.00  0.00     0.027 A 
HETATM    8  C11 UNL     1      -3.685   0.550  -0.301  1.00  0.00     0.075 A 
HETATM    9  C12 UNL     1      -2.393   0.205  -0.634  1.00  0.00     0.035 A 
HETATM   10  C13 UNL     1      -1.893  -0.974  -0.072  1.00  0.00    -0.011 A 
HETATM   11  H11 UNL     1      -2.210  -3.596   1.792  1.00  0.00     0.169 HD
ENDROOT
BRANCH   1  12
HETATM   12  C5  UNL     1       0.515  -0.536   0.151  1.00  0.00     0.027 A 
HETATM   13  N1  UNL     1       0.917   0.760  -0.270  1.00  0.00    -0.383 N 
HETATM   14  C4  UNL     1       1.929   0.874   0.758  1.00  0.00     0.114 A 
HETATM   15  H9  UNL     1       0.570   1.379  -1.059  1.00  0.00     0.160 HD
HETATM   16  C14 UNL     1       1.433  -0.462   1.103  1.00  0.00    -0.038 A 
HETATM   17  C15 UNL     1       1.840  -1.417   2.180  1.00  0.00     0.048 C 
BRANCH  14  18
HETATM   18  C3  UNL     1       3.345   0.951   0.250  1.00  0.00     0.056 C 
BRANCH  18  19
HETATM   19  C2  UNL     1       3.757  -0.238  -0.540  1.00  0.00     0.169 C 
BRANCH  19  20
HETATM   20  O1  UNL     1       5.056  -0.126  -0.975  1.00  0.00    -0.396 OA
HETATM   21  C1  UNL     1       5.344   0.934  -1.787  1.00  0.00     0.201 C 
ENDBRANCH  19  20
ENDBRANCH  18  19
ENDBRANCH  14  18
ENDBRANCH   1  12
BRANCH   8  22
HETATM   22  S1  UNL     1      -4.446   2.014  -0.936  1.00  0.00     0.239 S 
HETATM   23  O3  UNL     1      -3.807   2.294  -2.276  1.00  0.00    -0.206 OA
HETATM   24  O4  UNL     1      -5.899   1.777  -1.143  1.00  0.00    -0.206 OA
BRANCH  22  25
HETATM   25  N3  UNL     1      -4.111   3.280   0.160  1.00  0.00    -0.225 NA
HETATM   26  H14 UNL     1      -3.772   4.128  -0.386  1.00  0.00     0.136 HD
HETATM   27  H15 UNL     1      -4.989   3.558   0.692  1.00  0.00     0.136 HD
ENDBRANCH  22  25
ENDBRANCH   8  22
TORSDOF 6
