REMARK  6 active torsions:
REMARK  status: ('A' for Active; 'I' for Inactive)
REMARK    1  A    between atoms: C2_3  and  C3_4 
REMARK    2  A    between atoms: C3_4  and  C4_5 
REMARK    3  A    between atoms: C4_5  and  C5_6 
REMARK    4  A    between atoms: C5_6  and  C6_7 
REMARK    5  A    between atoms: C15_18  and  O3_19 
REMARK    6  A    between atoms: C18_23  and  O4_24 
ROOT
HETATM    1  C1  UNL     1       1.205  -3.001  -1.389  1.00  0.00    -0.041 C 
HETATM    2  B1  UNL     1       0.733  -1.740  -0.568  1.00  0.00     0.300 B 
HETATM    3  C2  UNL     1       1.662  -0.567  -0.143  1.00  0.00    -0.087 C 
HETATM    4  C7  UNL     1       0.860   0.315   0.403  1.00  0.00     0.000 C 
HETATM    5  C8  UNL     1       0.662   1.772   0.609  1.00  0.00     0.065 C 
HETATM    6  C9  UNL     1      -0.704   2.259   0.362  1.00  0.00     0.029 C 
HETATM    7  C10 UNL     1      -1.997   2.297   0.096  1.00  0.00    -0.066 C 
HETATM    8  C11 UNL     1      -2.215   3.762   0.158  1.00  0.00     0.044 C 
HETATM    9  C12 UNL     1      -3.082   1.314  -0.195  1.00  0.00    -0.007 A 
HETATM   10  C13 UNL     1      -4.354   1.719   0.000  1.00  0.00     0.017 A 
HETATM   11  C14 UNL     1      -5.390   0.857  -0.259  1.00  0.00     0.037 A 
HETATM   12  C15 UNL     1      -5.152  -0.420  -0.718  1.00  0.00     0.067 A 
HETATM   13  C16 UNL     1      -3.809  -0.778  -0.898  1.00  0.00     0.066 A 
HETATM   14  C17 UNL     1      -2.720   0.068  -0.646  1.00  0.00     0.044 A 
HETATM   15  N1  UNL     1      -1.531  -0.661  -0.922  1.00  0.00    -0.350 N 
HETATM   16  C18 UNL     1      -0.662  -1.342   0.051  1.00  0.00     0.173 C 
HETATM   17  N2  UNL     1      -0.263  -0.342   1.018  1.00  0.00    -0.355 N 
HETATM   18  H21 UNL     1      -1.471  -0.585  -1.961  1.00  0.00     0.163 HD
HETATM   19  H23 UNL     1      -0.787  -0.252   1.922  1.00  0.00     0.163 HD
ENDROOT
BRANCH   3  20
HETATM   20  C3  UNL     1       3.118  -0.338  -0.263  1.00  0.00     0.025 C 
BRANCH  20  21
HETATM   21  C4  UNL     1       3.791  -1.451   0.516  1.00  0.00     0.010 C 
BRANCH  21  22
HETATM   22  C5  UNL     1       5.289  -1.350   0.472  1.00  0.00     0.071 C 
BRANCH  22  23
HETATM   23  C6  UNL     1       5.689  -0.050   1.066  1.00  0.00     0.117 A 
HETATM   24  O1  UNL     1       5.687   0.942   0.282  1.00  0.00    -0.194 OA
HETATM   25  O2  UNL     1       6.073   1.105   1.713  1.00  0.00     0.000 OA
HETATM   26  H10 UNL     1       6.705   1.003   2.521  1.00  0.00     0.000 HD
ENDBRANCH  22  23
ENDBRANCH  21  22
ENDBRANCH  20  21
ENDBRANCH   3  20
BRANCH  16  27
HETATM   27  O4  UNL     1      -1.313  -2.415   0.633  1.00  0.00    -0.362 OA
HETATM   28  H22 UNL     1      -2.216  -2.050   0.899  1.00  0.00     0.213 HD
ENDBRANCH  16  27
BRANCH  12  29
HETATM   29  O3  UNL     1      -6.210  -1.276  -0.975  1.00  0.00    -0.361 OA
HETATM   30  H19 UNL     1      -6.592  -1.795  -0.207  1.00  0.00     0.217 HD
ENDBRANCH  12  29
TORSDOF 6
