REMARK  4 active torsions:
REMARK  status: ('A' for Active; 'I' for Inactive)
REMARK    1  A    between atoms: C2_2  and  C3_3 
REMARK    2  A    between atoms: C3_3  and  N1_4 
REMARK    3  A    between atoms: N1_4  and  C4_5 
REMARK    4  A    between atoms: N5_18  and  C14_19 
ROOT
HETATM    1  C4  UNL     1      -2.996   0.392   0.604  1.00  0.00     0.028 C 
HETATM    2  C5  UNL     1      -2.751  -0.633   1.402  1.00  0.00     0.037 C 
HETATM    3  C6  UNL     1      -1.366  -1.157   1.540  1.00  0.00     0.191 C 
HETATM    4  C7  UNL     1      -0.441   0.029   1.625  1.00  0.00     0.096 C 
HETATM    5  C8  UNL     1      -0.639   0.865   0.433  1.00  0.00     0.014 C 
HETATM    6  C9  UNL     1      -1.874   1.190   0.087  1.00  0.00     0.053 C 
HETATM    7  N2  UNL     1       0.408   1.343  -0.370  1.00  0.00    -0.367 N 
HETATM    8  C10 UNL     1       1.777   0.983  -0.242  1.00  0.00     0.124 C 
HETATM    9  C11 UNL     1       2.120  -0.293  -0.198  1.00  0.00     0.125 A 
HETATM   10  C12 UNL     1       1.125  -1.355  -0.277  1.00  0.00     0.231 A 
HETATM   11  N3  UNL     1       1.502  -2.588  -0.225  1.00  0.00    -0.212 NA
HETATM   12  C13 UNL     1       2.870  -2.995  -0.092  1.00  0.00     0.258 A 
HETATM   13  N4  UNL     1       3.783  -2.073  -0.019  1.00  0.00    -0.164 NA
HETATM   14  N5  UNL     1       3.466  -0.702  -0.067  1.00  0.00    -0.251 N 
HETATM   15  O1  UNL     1      -0.249  -1.212  -0.407  1.00  0.00    -0.174 OA
HETATM   16  O2  UNL     1      -1.111  -1.912   0.376  1.00  0.00    -0.224 OA
HETATM   17  H12 UNL     1       0.210   2.021  -1.138  1.00  0.00     0.165 HD
ENDROOT
BRANCH  14  18
HETATM   18  C14 UNL     1       4.551   0.244   0.013  1.00  0.00     0.158 A 
HETATM   19  C15 UNL     1       4.717   1.090  -1.176  1.00  0.00     0.005 A 
HETATM   20  C16 UNL     1       5.965   0.946  -1.656  1.00  0.00     0.017 A 
HETATM   21  C17 UNL     1       6.686  -0.013  -0.792  1.00  0.00     0.009 A 
HETATM   22 BR1  UNL     1       8.434  -0.762  -0.751  1.00  0.00    -0.051 Br
HETATM   23  C18 UNL     1       5.857  -0.405   0.161  1.00  0.00     0.023 A 
ENDBRANCH  14  18
BRANCH   1  24
HETATM   24  N1  UNL     1      -4.327   0.774   0.208  1.00  0.00    -0.387 N 
HETATM   25  H6  UNL     1      -4.518   1.636   0.773  1.00  0.00     0.160 HD
BRANCH  24  26
HETATM   26  C3  UNL     1      -5.332   0.263  -0.706  1.00  0.00     0.146 C 
BRANCH  26  27
HETATM   27  C2  UNL     1      -6.549   1.116  -0.680  1.00  0.00    -0.018 C 
HETATM   28  C1  UNL     1      -7.726   0.604  -0.330  1.00  0.00     0.008 C 
ENDBRANCH  26  27
ENDBRANCH  24  26
ENDBRANCH   1  24
TORSDOF 4
