REMARK  7 active torsions:
REMARK  status: ('A' for Active; 'I' for Inactive)
REMARK    1  A    between atoms: C2_2  and  C3_3 
REMARK    2  A    between atoms: C3_3  and  O1_4 
REMARK    3  A    between atoms: O1_4  and  C4_5 
REMARK    4  A    between atoms: C4_5  and  C5_6 
REMARK    5  A    between atoms: C5_6  and  C6_7 
REMARK    6  A    between atoms: C9_10  and  C10_11 
REMARK    7  A    between atoms: C10_11  and  O3_13 
ROOT
HETATM    1  C5  UNL     1       0.358   0.392  -0.861  1.00  0.00     0.078 C 
ENDROOT
BRANCH   1   2
HETATM    2  C4  UNL     1      -0.789   0.857  -0.006  1.00  0.00     0.068 C 
HETATM    3  C13 UNL     1      -0.220   2.072   0.771  1.00  0.00     0.065 C 
HETATM    4  C14 UNL     1      -1.283   3.065   1.085  1.00  0.00    -0.028 C 
HETATM    5  C15 UNL     1      -2.547   3.110   0.683  1.00  0.00    -0.030 C 
HETATM    6  C16 UNL     1      -3.021   2.013  -0.231  1.00  0.00     0.030 C 
HETATM    7  C17 UNL     1      -1.809   1.475  -0.932  1.00  0.00     0.042 C 
BRANCH   2   8
HETATM    8  O1  UNL     1      -1.219  -0.001   0.920  1.00  0.00    -0.380 OA
BRANCH   8   9
HETATM    9  C3  UNL     1      -1.640  -1.240   0.716  1.00  0.00     0.168 C 
BRANCH   9  10
HETATM   10  C2  UNL     1      -2.826  -1.517  -0.155  1.00  0.00     0.022 C 
HETATM   11  C1  UNL     1      -3.068  -3.047  -0.190  1.00  0.00     0.007 C 
ENDBRANCH   9  10
ENDBRANCH   8   9
ENDBRANCH   2   8
ENDBRANCH   1   2
BRANCH   1  12
HETATM   12  C6  UNL     1       1.594   0.043  -0.201  1.00  0.00    -0.041 A 
HETATM   13  C7  UNL     1       2.180  -1.175  -0.186  1.00  0.00    -0.038 A 
HETATM   14  C8  UNL     1       1.912  -2.543  -0.738  1.00  0.00     0.050 C 
HETATM   15  C9  UNL     1       3.255  -0.626   0.623  1.00  0.00     0.050 A 
HETATM   16  C11 UNL     1       2.667   0.552   0.595  1.00  0.00    -0.038 A 
HETATM   17  C12 UNL     1       3.063   1.824   1.185  1.00  0.00     0.050 C 
BRANCH  15  18
HETATM   18  C10 UNL     1       4.484  -1.199   1.211  1.00  0.00     0.177 C 
HETATM   19  O2  UNL     1       5.247  -0.462   1.883  1.00  0.00    -0.646 OA
BRANCH  18  20
HETATM   20  O3  UNL     1       4.797  -2.518   1.032  1.00  0.00    -0.773 OA
HETATM   21  H13 UNL     1       5.747  -2.865   1.049  1.00  0.00     0.167 HD
ENDBRANCH  18  20
ENDBRANCH  15  18
ENDBRANCH   1  12
TORSDOF 7
