REMARK  9 active torsions:
REMARK  status: ('A' for Active; 'I' for Inactive)
REMARK    1  A    between atoms: O1_2  and  C2_3 
REMARK    2  A    between atoms: C9_12  and  C10_13 
REMARK    3  A    between atoms: C10_13  and  C11_14 
REMARK    4  A    between atoms: C11_14  and  C12_15 
REMARK    5  A    between atoms: C12_15  and  C14_17 
REMARK    6  A    between atoms: C14_17  and  C16_19 
REMARK    7  A    between atoms: C16_19  and  C17_20 
REMARK    8  A    between atoms: C17_20  and  C18_21 
REMARK    9  A    between atoms: C18_21  and  O4_23 
ROOT
HETATM    1  C2  UNL     1       5.122   1.144   0.320  1.00  0.00     0.070 A 
HETATM    2  C3  UNL     1       4.037   1.979   0.287  1.00  0.00     0.038 A 
HETATM    3  C4  UNL     1       2.777   1.365   0.255  1.00  0.00     0.017 A 
HETATM    4  C5  UNL     1       2.687  -0.006   0.260  1.00  0.00     0.006 A 
HETATM    5  C6  UNL     1       3.758  -0.858   0.295  1.00  0.00     0.049 A 
HETATM    6  C7  UNL     1       4.989  -0.232   0.325  1.00  0.00     0.067 A 
HETATM    7  N1  UNL     1       3.411  -2.232   0.290  1.00  0.00    -0.322 N 
HETATM    8  C8  UNL     1       1.984  -2.293   0.247  1.00  0.00     0.257 A 
HETATM    9  O2  UNL     1       1.441  -3.446   0.234  1.00  0.00    -0.267 OA
HETATM   10  C9  UNL     1       1.547  -0.897   0.229  1.00  0.00     0.044 A 
HETATM   11  H7  UNL     1       4.114  -3.002   0.315  1.00  0.00     0.169 HD
ENDROOT
BRANCH  10  12
HETATM   12  C10 UNL     1       0.256  -0.644   0.169  1.00  0.00     0.018 C 
BRANCH  12  13
HETATM   13  C11 UNL     1      -1.006  -1.315   0.128  1.00  0.00     0.004 C 
BRANCH  13  14
HETATM   14  C12 UNL     1      -2.255  -0.930   0.071  1.00  0.00    -0.080 C 
HETATM   15  C13 UNL     1      -3.093  -2.171   0.054  1.00  0.00     0.044 C 
BRANCH  14  16
HETATM   16  C14 UNL     1      -2.684   0.460   0.056  1.00  0.00     0.010 C 
HETATM   17  C15 UNL     1      -3.454   0.754   1.346  1.00  0.00     0.015 C 
BRANCH  16  18
HETATM   18  C16 UNL     1      -3.413   0.977  -1.110  1.00  0.00     0.019 C 
BRANCH  18  19
HETATM   19  C17 UNL     1      -4.701   0.411  -1.530  1.00  0.00     0.110 C 
BRANCH  19  20
HETATM   20  C18 UNL     1      -5.818   0.471  -0.574  1.00  0.00     0.139 C 
HETATM   21  O3  UNL     1      -6.438  -0.443   0.077  1.00  0.00    -0.650 OA
BRANCH  20  22
HETATM   22  O4  UNL     1      -6.286   1.753  -0.334  1.00  0.00    -0.776 OA
HETATM   23  H21 UNL     1      -6.963   1.890   0.403  1.00  0.00     0.167 HD
ENDBRANCH  20  22
ENDBRANCH  19  20
ENDBRANCH  18  19
ENDBRANCH  16  18
ENDBRANCH  14  16
ENDBRANCH  13  14
ENDBRANCH  12  13
ENDBRANCH  10  12
BRANCH   1  24
HETATM   24  O1  UNL     1       6.339   1.820   0.348  1.00  0.00    -0.356 OA
HETATM   25  C1  UNL     1       7.520   1.045   0.378  1.00  0.00     0.210 C 
ENDBRANCH   1  24
TORSDOF 9
