REMARK  6 active torsions:
REMARK  status: ('A' for Active; 'I' for Inactive)
REMARK    1  A    between atoms: C2_2  and  C3_3 
REMARK    2  A    between atoms: C3_3  and  C4_4 
REMARK    3  A    between atoms: C4_4  and  O1_5 
REMARK    4  A    between atoms: O1_5  and  C5_6 
REMARK    5  A    between atoms: C11_12  and  N1_13 
REMARK    6  A    between atoms: C16_19  and  O2_20 
ROOT
HETATM    1  C5  UNL     1       1.641  -0.859   0.649  1.00  0.00     0.069 A 
HETATM    2  C6  UNL     1       1.221  -2.142   0.913  1.00  0.00     0.037 A 
HETATM    3  C7  UNL     1      -0.124  -2.524   0.860  1.00  0.00     0.011 A 
HETATM    4  C8  UNL     1      -0.995  -1.509   0.522  1.00  0.00    -0.044 A 
HETATM    5  C9  UNL     1      -0.602  -0.193   0.247  1.00  0.00    -0.016 A 
HETATM    6  C10 UNL     1       0.738   0.109   0.318  1.00  0.00     0.046 A 
HETATM    7  C11 UNL     1      -1.363   1.051  -0.135  1.00  0.00     0.254 C 
HETATM    8  C12 UNL     1      -2.716   0.922   0.578  1.00  0.00     0.078 C 
HETATM    9  C13 UNL     1      -3.817   0.478  -0.302  1.00  0.00     0.079 C 
HETATM   10  C14 UNL     1      -4.628   1.643  -0.781  1.00  0.00     0.046 C 
HETATM   11  N2  UNL     1      -3.489  -0.551  -1.259  1.00  0.00    -0.376 N 
HETATM   12  C15 UNL     1      -3.393  -1.283  -0.009  1.00  0.00     0.042 C 
HETATM   13  C16 UNL     1      -4.596  -0.703   0.225  1.00  0.00     0.093 C 
HETATM   14  C17 UNL     1      -2.334  -2.203   0.544  1.00  0.00     0.098 C 
HETATM   15  H21 UNL     1      -3.460  -0.375  -2.317  1.00  0.00     0.160 HD
ENDROOT
BRANCH   1  16
HETATM   16  O1  UNL     1       2.987  -0.606   0.733  1.00  0.00    -0.351 OA
BRANCH  16  17
HETATM   17  C4  UNL     1       3.456   0.704   0.468  1.00  0.00     0.175 C 
BRANCH  17  18
HETATM   18  C3  UNL     1       4.957   0.688   0.633  1.00  0.00     0.026 C 
BRANCH  18  19
HETATM   19  C2  UNL     1       5.529  -0.310  -0.357  1.00  0.00    -0.002 C 
HETATM   20  C1  UNL     1       5.197   0.055  -1.777  1.00  0.00     0.005 C 
ENDBRANCH  18  19
ENDBRANCH  17  18
ENDBRANCH  16  17
ENDBRANCH   1  16
BRANCH   7  21
HETATM   21  N1  UNL     1      -0.623   2.213   0.329  1.00  0.00     0.087 N 
HETATM   22  H14 UNL     1      -1.177   2.799   0.987  1.00  0.00     0.313 HD
HETATM   23  H15 UNL     1      -0.273   2.789  -0.491  1.00  0.00     0.313 HD
ENDBRANCH   7  21
BRANCH  13  24
HETATM   24  O2  UNL     1      -5.954  -0.677   0.641  1.00  0.00    -0.360 OA
HETATM   25  H22 UNL     1      -6.093  -0.590   1.644  1.00  0.00     0.217 HD
ENDBRANCH  13  24
TORSDOF 6
