REMARK  6 active torsions:
REMARK  status: ('A' for Active; 'I' for Inactive)
REMARK    1  A    between atoms: C2_2  and  O1_3 
REMARK    2  A    between atoms: C2_2  and  C3_4 
REMARK    3  A    between atoms: C4_5  and  C5_6 
REMARK    4  A    between atoms: C11_12  and  C12_13 
REMARK    5  A    between atoms: C16_18  and  P1_19 
REMARK    6  A    between atoms: P1_19  and  O2_20 
ROOT
HETATM    1  C5  UNL     1      -2.227  -0.037   0.069  1.00  0.00     0.026 C 
HETATM    2  C6  UNL     1      -2.366   1.441   0.259  1.00  0.00     0.038 C 
HETATM    3  C7  UNL     1      -2.079  -0.632   1.466  1.00  0.00     0.031 C 
HETATM    4  C8  UNL     1      -1.714  -2.086   1.426  1.00  0.00     0.008 C 
HETATM    5  C9  UNL     1      -0.458  -2.399   0.680  1.00  0.00     0.056 C 
HETATM    6  C10 UNL     1       0.063  -1.106   0.111  1.00  0.00     0.002 C 
HETATM    7  C11 UNL     1       1.341  -0.777   0.167  1.00  0.00     0.009 C 
HETATM    8  N2  UNL     1      -0.859  -0.216  -0.505  1.00  0.00    -0.385 N 
HETATM    9  H29 UNL     1      -0.556   0.315  -1.375  1.00  0.00     0.160 HD
ENDROOT
BRANCH   7  10
HETATM   10  C12 UNL     1       1.928   0.492  -0.378  1.00  0.00     0.063 C 
HETATM   11  C13 UNL     1       1.818   1.612   0.641  1.00  0.00     0.133 C 
HETATM   12  N1  UNL     1       2.945   1.263   1.518  1.00  0.00    -0.388 N 
HETATM   13  C14 UNL     1       3.980   0.797   0.636  1.00  0.00     0.036 A 
HETATM   14  H23 UNL     1       2.967   1.344   2.549  1.00  0.00     0.159 HD
HETATM   15  C15 UNL     1       5.352   0.793   0.845  1.00  0.00     0.043 A 
HETATM   16  C19 UNL     1       3.384   0.326  -0.518  1.00  0.00    -0.022 A 
HETATM   17  C16 UNL     1       6.139   0.280  -0.182  1.00  0.00    -0.005 A 
HETATM   18  C17 UNL     1       5.538  -0.189  -1.332  1.00  0.00     0.015 A 
HETATM   19  C18 UNL     1       4.173  -0.181  -1.534  1.00  0.00     0.011 A 
BRANCH  17  20
HETATM   20  P1  UNL     1       7.965   0.205  -0.058  1.00  0.00     0.042 P 
HETATM   21  H25 UNL     1       8.355   1.158   0.969  1.00  0.00     0.092 HD
BRANCH  20  22
HETATM   22  O2  UNL     1       8.746   0.551  -1.544  1.00  0.00    -0.371 OA
HETATM   23  H26 UNL     1       9.460   1.215  -1.371  1.00  0.00     0.215 HD
ENDBRANCH  20  22
ENDBRANCH  17  20
ENDBRANCH   7  10
BRANCH   1  24
HETATM   24  C4  UNL     1      -3.151  -0.751  -0.790  1.00  0.00     0.033 C 
HETATM   25  C3  UNL     1      -4.579  -0.903  -0.635  1.00  0.00     0.034 C 
BRANCH  25  26
HETATM   26  C2  UNL     1      -5.559   0.187  -0.590  1.00  0.00     0.114 C 
HETATM   27  C1  UNL     1      -5.462   1.166   0.541  1.00  0.00     0.039 C 
BRANCH  26  28
HETATM   28  O1  UNL     1      -6.867  -0.383  -0.497  1.00  0.00    -0.396 OA
HETATM   29  H5  UNL     1      -7.005  -0.521   0.476  1.00  0.00     0.210 HD
ENDBRANCH  26  28
ENDBRANCH  25  26
ENDBRANCH   1  24
TORSDOF 6
