REMARK  3 active torsions:
REMARK  status: ('A' for Active; 'I' for Inactive)
REMARK    1  A    between atoms: O1_1  and  C1_2 
REMARK    2  A    between atoms: C4_5  and  C5_6 
REMARK    3  A    between atoms: N1_8  and  C7_9 
ROOT
HETATM    1  C5  UNL     1      -1.017   0.417   0.418  1.00  0.00     0.076 C 
HETATM    2  C6  UNL     1       0.053  -0.260   0.068  1.00  0.00     0.130 C 
HETATM    3  N1  UNL     1       1.390   0.140   0.253  1.00  0.00    -0.314 N 
HETATM    4  C13 UNL     1       1.666   1.536   0.313  1.00  0.00     0.215 C 
HETATM    5  N2  UNL     1       1.907   1.714  -0.943  1.00  0.00    -0.237 NA
HETATM    6  C14 UNL     1       2.241   3.078  -1.283  1.00  0.00     0.235 C 
HETATM    7  N3  UNL     1       1.231   3.864  -1.001  1.00  0.00    -0.233 NA
HETATM    8  C15 UNL     1       0.027   3.308  -0.439  1.00  0.00     0.256 C 
HETATM    9  N4  UNL     1      -0.961   2.720   0.140  1.00  0.00    -0.168 NA
HETATM   10  N5  UNL     1      -0.881   1.693   1.053  1.00  0.00    -0.275 N 
HETATM   11  H12 UNL     1      -0.772   1.285   2.006  1.00  0.00     0.189 HD
ENDROOT
BRANCH   1  12
HETATM   12  C4  UNL     1      -2.358  -0.070   0.190  1.00  0.00    -0.006 A 
HETATM   13  C3  UNL     1      -2.662  -1.272  -0.407  1.00  0.00     0.016 A 
HETATM   14  C2  UNL     1      -3.947  -1.727  -0.620  1.00  0.00     0.037 A 
HETATM   15  C1  UNL     1      -5.011  -0.969  -0.229  1.00  0.00     0.065 A 
HETATM   16  C17 UNL     1      -4.760   0.238   0.372  1.00  0.00     0.037 A 
HETATM   17  C16 UNL     1      -3.479   0.645   0.560  1.00  0.00     0.016 A 
BRANCH  15  18
HETATM   18  O1  UNL     1      -6.330  -1.353  -0.406  1.00  0.00    -0.361 OA
HETATM   19  H1  UNL     1      -6.946  -1.466   0.396  1.00  0.00     0.217 HD
ENDBRANCH  15  18
ENDBRANCH   1  12
BRANCH   3  20
HETATM   20  C7  UNL     1       2.471  -0.739   0.383  1.00  0.00     0.041 A 
HETATM   21  C8  UNL     1       2.327  -2.130   0.358  1.00  0.00     0.030 A 
HETATM   22  C9  UNL     1       3.406  -3.000   0.488  1.00  0.00     0.004 A 
HETATM   23  C10 UNL     1       4.676  -2.523   0.648  1.00  0.00     0.024 A 
HETATM   24  C11 UNL     1       4.865  -1.163   0.678  1.00  0.00     0.036 A 
HETATM   25 CL1  UNL     1       6.474  -0.511   0.881  1.00  0.00    -0.084 Cl
HETATM   26  C12 UNL     1       3.756  -0.334   0.545  1.00  0.00     0.053 A 
ENDBRANCH   3  20
TORSDOF 3
