REMARK  6 active torsions:
REMARK  status: ('A' for Active; 'I' for Inactive)
REMARK    1  A    between atoms: C2_2  and  C3_3 
REMARK    2  A    between atoms: C8_10  and  C9_11 
REMARK    3  A    between atoms: C18_21  and  N3_22 
REMARK    4  A    between atoms: C19_23  and  C20_24 
REMARK    5  A    between atoms: C20_24  and  C21_25 
REMARK    6  A    between atoms: C21_25  and  O3_27 
ROOT
HETATM    1  C3  UNL     1      -1.515  -1.252  -0.559  1.00  0.00     0.026 C 
HETATM    2  C4  UNL     1      -0.760  -0.412   0.109  1.00  0.00     0.043 A 
HETATM    3  C5  UNL     1      -1.112   0.552   1.142  1.00  0.00     0.256 A 
HETATM    4  O1  UNL     1      -2.235   0.798   1.640  1.00  0.00    -0.267 OA
HETATM    5  N1  UNL     1       0.022   1.275   1.603  1.00  0.00    -0.322 N 
HETATM    6  C6  UNL     1       1.082   0.736   0.830  1.00  0.00     0.047 A 
HETATM    7  C7  UNL     1       2.440   1.021   0.805  1.00  0.00     0.042 A 
HETATM    8  C8  UNL     1       3.391   0.429   0.003  1.00  0.00    -0.024 A 
HETATM    9  C15 UNL     1       2.960  -0.548  -0.867  1.00  0.00     0.013 A 
HETATM   10  C16 UNL     1       1.619  -0.867  -0.880  1.00  0.00     0.015 A 
HETATM   11  C17 UNL     1       0.679  -0.242  -0.049  1.00  0.00     0.006 A 
HETATM   12  H5  UNL     1       0.109   2.021   2.322  1.00  0.00     0.169 HD
ENDROOT
BRANCH   1  13
HETATM   13  C2  UNL     1      -2.898  -1.656  -0.656  1.00  0.00     0.075 A 
HETATM   14  C1  UNL     1      -3.325  -2.401  -1.912  1.00  0.00     0.048 C 
HETATM   15  N2  UNL     1      -3.303  -2.460   0.498  1.00  0.00    -0.360 N 
HETATM   16  C18 UNL     1      -4.295  -1.540   0.925  1.00  0.00     0.101 A 
HETATM   17  H14 UNL     1      -3.071  -3.377   0.980  1.00  0.00     0.162 HD
HETATM   18  C19 UNL     1      -3.957  -0.766  -0.121  1.00  0.00     0.004 A 
BRANCH  16  19
HETATM   19  N3  UNL     1      -5.265  -1.364   1.946  1.00  0.00    -0.385 N 
HETATM   20  H15 UNL     1      -5.009  -0.933   2.845  1.00  0.00     0.157 HD
HETATM   21  H16 UNL     1      -6.157  -1.755   1.535  1.00  0.00     0.157 HD
ENDBRANCH  16  19
BRANCH  18  22
HETATM   22  C20 UNL     1      -4.331   0.541  -0.771  1.00  0.00     0.150 C 
BRANCH  22  23
HETATM   23  C21 UNL     1      -5.429   1.216  -0.031  1.00  0.00     0.143 C 
HETATM   24  O2  UNL     1      -6.135   0.977   1.006  1.00  0.00    -0.650 OA
BRANCH  23  25
HETATM   25  O3  UNL     1      -5.793   2.428  -0.608  1.00  0.00    -0.776 OA
HETATM   26  H19 UNL     1      -6.276   3.179  -0.095  1.00  0.00     0.167 HD
ENDBRANCH  23  25
ENDBRANCH  22  23
ENDBRANCH  18  22
ENDBRANCH   1  13
BRANCH   8  27
HETATM   27  C9  UNL     1       4.790   0.833   0.086  1.00  0.00    -0.026 A 
HETATM   28  C10 UNL     1       5.815  -0.087  -0.168  1.00  0.00     0.012 A 
HETATM   29  C11 UNL     1       7.168   0.210  -0.113  1.00  0.00     0.001 A 
HETATM   30  C12 UNL     1       7.523   1.503   0.215  1.00  0.00     0.000 A 
HETATM   31  C13 UNL     1       6.521   2.416   0.467  1.00  0.00     0.001 A 
HETATM   32  C14 UNL     1       5.189   2.127   0.414  1.00  0.00     0.012 A 
ENDBRANCH   8  27
TORSDOF 6
