REMARK  7 active torsions:
REMARK  status: ('A' for Active; 'I' for Inactive)
REMARK    1  A    between atoms: C5_6  and  C6_7 
REMARK    2  A    between atoms: C9_11  and  C10_12 
REMARK    3  A    between atoms: C10_12  and  C11_13 
REMARK    4  A    between atoms: C11_13  and  C12_14 
REMARK    5  A    between atoms: C12_14  and  O2_16 
REMARK    6  A    between atoms: C16_20  and  C17_21 
REMARK    7  A    between atoms: C18_22  and  O3_23 
ROOT
HETATM    1  C6  UNL     1      -0.948  -0.513  -0.252  1.00  0.00     0.113 C 
HETATM    2  N2  UNL     1      -1.671  -1.202   0.806  1.00  0.00    -0.385 N 
HETATM    3  C7  UNL     1      -2.992  -0.639   0.716  1.00  0.00     0.004 C 
HETATM    4  C8  UNL     1      -4.322  -1.264   1.035  1.00  0.00     0.068 C 
HETATM    5  C9  UNL     1      -2.871   0.614   0.273  1.00  0.00    -0.051 C 
HETATM    6  C13 UNL     1      -1.412   0.918   0.047  1.00  0.00     0.039 C 
HETATM    7  C14 UNL     1      -0.853   1.418   1.338  1.00  0.00     0.017 C 
HETATM    8  H8  UNL     1      -1.508  -1.935   1.556  1.00  0.00     0.160 HD
ENDROOT
BRANCH   1   9
HETATM    9  C5  UNL     1       0.494  -0.671  -0.163  1.00  0.00     0.008 C 
HETATM   10  C4  UNL     1       1.202  -1.426  -0.986  1.00  0.00    -0.030 C 
HETATM   11  C3  UNL     1       0.459  -2.140  -2.051  1.00  0.00     0.158 C 
HETATM   12  C15 UNL     1       2.658  -1.702  -1.030  1.00  0.00    -0.006 C 
HETATM   13  N1  UNL     1       1.423  -3.151  -2.422  1.00  0.00    -0.388 N 
HETATM   14  C2  UNL     1       2.722  -2.808  -1.963  1.00  0.00     0.016 C 
HETATM   15  H3  UNL     1       1.358  -4.053  -2.942  1.00  0.00     0.159 HD
HETATM   16  C1  UNL     1       3.930  -3.289  -2.226  1.00  0.00     0.063 C 
HETATM   17  C16 UNL     1       3.391  -0.943  -0.253  1.00  0.00     0.016 C 
BRANCH  17  18
HETATM   18  C17 UNL     1       4.805  -1.198  -0.222  1.00  0.00     0.025 C 
HETATM   19  C18 UNL     1       5.707  -0.560   0.481  1.00  0.00     0.134 C 
BRANCH  19  20
HETATM   20  O3  UNL     1       6.106   0.398   1.366  1.00  0.00    -0.368 OA
HETATM   21  C19 UNL     1       5.469   1.631   1.527  1.00  0.00     0.208 C 
ENDBRANCH  19  20
ENDBRANCH  17  18
ENDBRANCH   1   9
BRANCH   5  22
HETATM   22  C10 UNL     1      -3.954   1.571   0.028  1.00  0.00     0.047 C 
BRANCH  22  23
HETATM   23  C11 UNL     1      -3.868   2.809   0.859  1.00  0.00     0.114 C 
BRANCH  23  24
HETATM   24  C12 UNL     1      -5.027   3.709   0.523  1.00  0.00     0.139 C 
HETATM   25  O1  UNL     1      -6.180   3.497   0.935  1.00  0.00    -0.650 OA
BRANCH  24  26
HETATM   26  O2  UNL     1      -4.774   4.831  -0.291  1.00  0.00    -0.776 OA
HETATM   27  H16 UNL     1      -5.543   5.261  -0.819  1.00  0.00     0.167 HD
ENDBRANCH  24  26
ENDBRANCH  23  24
ENDBRANCH  22  23
ENDBRANCH   5  22
TORSDOF 7
