REMARK  5 active torsions:
REMARK  status: ('A' for Active; 'I' for Inactive)
REMARK    1  A    between atoms: C3_3  and  C4_4 
REMARK    2  A    between atoms: C4_4  and  C5_5 
REMARK    3  A    between atoms: C5_5  and  C6_6 
REMARK    4  A    between atoms: C6_6  and  O2_8 
REMARK    5  A    between atoms: C9_12  and  C10_13 
ROOT
HETATM    1  C10 UNL     1      -0.215   1.395  -0.243  1.00  0.00     0.047 C 
HETATM    2  C11 UNL     1       0.674   0.496  -0.602  1.00  0.00     0.044 A 
HETATM    3  C12 UNL     1       0.492  -0.734  -1.356  1.00  0.00     0.257 A 
HETATM    4  O3  UNL     1      -0.564  -1.216  -1.831  1.00  0.00    -0.267 OA
HETATM    5  N2  UNL     1       1.737  -1.400  -1.519  1.00  0.00    -0.322 N 
HETATM    6  C13 UNL     1       2.650  -0.544  -0.850  1.00  0.00     0.047 A 
HETATM    7  C14 UNL     1       4.024  -0.673  -0.674  1.00  0.00     0.042 A 
HETATM    8  C15 UNL     1       4.828   0.224  -0.002  1.00  0.00    -0.024 A 
HETATM    9  C16 UNL     1       6.251   0.002   0.127  1.00  0.00    -0.026 A 
HETATM   10  C17 UNL     1       7.041   0.399   1.177  1.00  0.00     0.012 A 
HETATM   11  C18 UNL     1       8.394   0.113   1.158  1.00  0.00     0.001 A 
HETATM   12  C19 UNL     1       9.010  -0.569   0.110  1.00  0.00     0.000 A 
HETATM   13  C20 UNL     1       8.226  -0.963  -0.931  1.00  0.00     0.001 A 
HETATM   14  C21 UNL     1       6.862  -0.681  -0.924  1.00  0.00     0.012 A 
HETATM   15  C22 UNL     1       4.233   1.342   0.545  1.00  0.00     0.013 A 
HETATM   16  C23 UNL     1       2.871   1.493   0.385  1.00  0.00     0.015 A 
HETATM   17  C24 UNL     1       2.095   0.575  -0.295  1.00  0.00     0.006 A 
HETATM   18  H16 UNL     1       1.964  -2.295  -2.002  1.00  0.00     0.169 HD
ENDROOT
BRANCH   1  19
HETATM   19  C9  UNL     1      -1.646   1.688  -0.342  1.00  0.00     0.344 C 
HETATM   20  N1  UNL     1      -2.271   1.858   0.960  1.00  0.00     0.110 N 
HETATM   21  C8  UNL     1      -2.494   0.593   1.616  1.00  0.00     0.277 C 
HETATM   22  H13 UNL     1      -3.162   2.379   0.801  1.00  0.00     0.319 HD
HETATM   23  C7  UNL     1      -3.992   0.284   1.455  1.00  0.00     0.066 C 
HETATM   24  C3  UNL     1      -4.148  -0.321   0.109  1.00  0.00    -0.056 C 
HETATM   25  C2  UNL     1      -3.484  -0.120  -1.026  1.00  0.00     0.005 C 
HETATM   26  C1  UNL     1      -3.824  -0.894  -2.248  1.00  0.00     0.068 C 
HETATM   27  N3  UNL     1      -2.412   0.837  -1.206  1.00  0.00    -0.361 N 
HETATM   28  H25 UNL     1      -2.097   0.974  -2.214  1.00  0.00     0.161 HD
BRANCH  24  29
HETATM   29  C4  UNL     1      -5.168  -1.356  -0.099  1.00  0.00     0.046 C 
BRANCH  29  30
HETATM   30  C5  UNL     1      -6.588  -0.928  -0.061  1.00  0.00     0.114 C 
BRANCH  30  31
HETATM   31  C6  UNL     1      -7.084  -0.335   1.196  1.00  0.00     0.139 C 
HETATM   32  O1  UNL     1      -6.832   0.009   2.378  1.00  0.00    -0.650 OA
BRANCH  31  33
HETATM   33  O2  UNL     1      -8.417   0.001   1.014  1.00  0.00    -0.776 OA
HETATM   34  H8  UNL     1      -9.037   0.453   1.661  1.00  0.00     0.167 HD
ENDBRANCH  31  33
ENDBRANCH  30  31
ENDBRANCH  29  30
ENDBRANCH  24  29
ENDBRANCH   1  19
TORSDOF 5
