REMARK  6 active torsions:
REMARK  status: ('A' for Active; 'I' for Inactive)
REMARK    1  A    between atoms: C2_2  and  C3_3 
REMARK    2  A    between atoms: C3_3  and  C5_5 
REMARK    3  A    between atoms: C6_6  and  C7_7 
REMARK    4  A    between atoms: C8_8  and  O1_9 
REMARK    5  A    between atoms: O1_9  and  C9_10 
REMARK    6  A    between atoms: N3_16  and  C13_17 
ROOT
HETATM    1  C9  UNL     1      -1.094   0.442  -1.378  1.00  0.00     0.199 A 
HETATM    2  N1  UNL     1      -0.383   0.987  -2.378  1.00  0.00    -0.215 NA
HETATM    3  C10 UNL     1      -0.889   0.967  -3.624  1.00  0.00     0.236 A 
HETATM    4  N2  UNL     1      -2.110   0.397  -3.850  1.00  0.00    -0.242 NA
HETATM    5  C11 UNL     1      -2.819  -0.147  -2.846  1.00  0.00     0.085 A 
HETATM    6  C12 UNL     1      -2.320  -0.138  -1.562  1.00  0.00     0.116 A 
HETATM    7  N3  UNL     1      -3.477  -0.815  -1.098  1.00  0.00    -0.336 N 
HETATM    8  C19 UNL     1      -4.062  -0.840  -2.426  1.00  0.00     0.191 A 
ENDROOT
BRANCH   1   9
HETATM    9  O1  UNL     1      -0.647   0.422  -0.071  1.00  0.00    -0.302 OA
BRANCH   9  10
HETATM   10  C8  UNL     1       0.580   0.977   0.210  1.00  0.00     0.144 C 
HETATM   11  C7  UNL     1       1.891   0.874   0.334  1.00  0.00     0.021 C 
BRANCH  11  12
HETATM   12  C6  UNL     1       2.780   1.995   0.722  1.00  0.00    -0.019 C 
HETATM   13  C5  UNL     1       3.846   1.281   0.663  1.00  0.00     0.026 C 
BRANCH  13  14
HETATM   14  C3  UNL     1       5.256   1.129   0.787  1.00  0.00    -0.020 C 
HETATM   15  C4  UNL     1       5.497  -0.155   0.491  1.00  0.00     0.012 C 
BRANCH  14  16
HETATM   16  C2  UNL     1       6.663   1.322   0.996  1.00  0.00     0.018 C 
HETATM   17  C1  UNL     1       7.486   2.291   1.333  1.00  0.00    -0.012 C 
ENDBRANCH  14  16
ENDBRANCH  13  14
ENDBRANCH  11  12
ENDBRANCH   9  10
ENDBRANCH   1   9
BRANCH   7  18
HETATM   18  C13 UNL     1      -3.990  -1.329   0.122  1.00  0.00     0.036 A 
HETATM   19  C14 UNL     1      -5.266  -1.840   0.225  1.00  0.00     0.030 A 
HETATM   20  C15 UNL     1      -5.847  -2.363   1.357  1.00  0.00     0.004 A 
HETATM   21  C16 UNL     1      -5.103  -2.390   2.515  1.00  0.00     0.019 A 
HETATM   22  C17 UNL     1      -3.834  -1.901   2.484  1.00  0.00     0.013 A 
HETATM   23 BR1  UNL     1      -2.816  -1.945   4.096  1.00  0.00    -0.051 Br
HETATM   24  C18 UNL     1      -3.316  -1.394   1.319  1.00  0.00     0.048 A 
ENDBRANCH   7  18
TORSDOF 6
