REMARK  4 active torsions:
REMARK  status: ('A' for Active; 'I' for Inactive)
REMARK    1  A    between atoms: C3_3  and  C4_4 
REMARK    2  A    between atoms: C4_4  and  C5_5 
REMARK    3  A    between atoms: C9_10  and  C10_11 
REMARK    4  A    between atoms: C14_15  and  C15_16 
ROOT
HETATM    1  C5  UNL     1      -6.462  -0.207   0.547  1.00  0.00     0.128 C 
HETATM    2  C6  UNL     1      -6.523   1.213   0.896  1.00  0.00     0.059 C 
HETATM    3  N1  UNL     1      -6.587   2.317   1.172  1.00  0.00    -0.197 NA
ENDROOT
BRANCH   1   4
HETATM    4  C4  UNL     1      -5.222  -0.875   0.975  1.00  0.00     0.053 C 
BRANCH   4   5
HETATM    5  C3  UNL     1      -3.984  -0.365   0.384  1.00  0.00    -0.044 A 
HETATM    6  C2  UNL     1      -3.541   0.445  -0.537  1.00  0.00    -0.043 A 
HETATM    7  C1  UNL     1      -4.207   1.334  -1.543  1.00  0.00     0.049 C 
HETATM    8  C9  UNL     1      -2.168   0.119  -0.166  1.00  0.00    -0.007 A 
HETATM    9  C7  UNL     1      -2.595  -0.706   0.771  1.00  0.00    -0.043 A 
HETATM   10  C8  UNL     1      -2.012  -1.621   1.812  1.00  0.00     0.049 C 
BRANCH   8  11
HETATM   11  C10 UNL     1      -0.860   0.560  -0.673  1.00  0.00     0.052 A 
HETATM   12  C11 UNL     1       0.364   0.249  -0.339  1.00  0.00    -0.011 A 
HETATM   13  C12 UNL     1       0.894  -0.668   0.678  1.00  0.00     0.070 A 
HETATM   14  C22 UNL     1       1.363   0.957  -1.126  1.00  0.00     0.043 A 
HETATM   15  C13 UNL     1       2.383  -0.682   0.684  1.00  0.00    -0.010 A 
HETATM   16  C14 UNL     1       3.255  -0.042  -0.029  1.00  0.00    -0.027 A 
HETATM   17  C21 UNL     1       2.661   0.843  -1.005  1.00  0.00     0.042 A 
HETATM   18  N2  UNL     1       0.659   1.808  -2.056  1.00  0.00    -0.322 N 
HETATM   19  C23 UNL     1      -0.706   1.551  -1.764  1.00  0.00     0.257 A 
HETATM   20  H20 UNL     1       1.083   2.452  -2.769  1.00  0.00     0.169 HD
HETATM   21  O1  UNL     1      -1.549   2.184  -2.452  1.00  0.00    -0.267 OA
BRANCH  16  22
HETATM   22  C15 UNL     1       4.686  -0.196   0.132  1.00  0.00    -0.026 A 
HETATM   23  C16 UNL     1       5.578   0.504  -0.648  1.00  0.00     0.012 A 
HETATM   24  C17 UNL     1       6.945   0.388  -0.529  1.00  0.00     0.001 A 
HETATM   25  C18 UNL     1       7.482  -0.459   0.403  1.00  0.00     0.000 A 
HETATM   26  C19 UNL     1       6.627  -1.194   1.221  1.00  0.00     0.001 A 
HETATM   27  C20 UNL     1       5.286  -1.029   1.048  1.00  0.00     0.012 A 
ENDBRANCH  16  22
ENDBRANCH   8  11
ENDBRANCH   4   5
ENDBRANCH   1   4
TORSDOF 4
