REMARK  10 active torsions:
REMARK  status: ('A' for Active; 'I' for Inactive)
REMARK    1  A    between atoms: O1_2  and  C2_3 
REMARK    2  A    between atoms: C6_7  and  C7_8 
REMARK    3  A    between atoms: C15_18  and  C16_19 
REMARK    4  A    between atoms: C17_20  and  C19_22 
REMARK    5  A    between atoms: C19_22  and  C20_23 
REMARK    6  A    between atoms: C20_23  and  C22_26 
REMARK    7  A    between atoms: C21_24  and  N2_25 
REMARK    8  A    between atoms: C22_26  and  C23_27 
REMARK    9  A    between atoms: C23_27  and  C24_28 
REMARK   10  A    between atoms: C24_28  and  O4_30 
ROOT
HETATM    1  C7  UNL     1       3.762  -0.402  -1.068  1.00  0.00    -0.046 A 
HETATM    2  C8  UNL     1       3.813  -0.439  -2.387  1.00  0.00     0.007 A 
HETATM    3  C9  UNL     1       2.792  -1.129  -3.164  1.00  0.00    -0.002 A 
HETATM    4  C10 UNL     1       1.829  -1.707  -2.454  1.00  0.00    -0.010 A 
HETATM    5  C11 UNL     1       1.644  -1.751  -0.959  1.00  0.00     0.030 A 
HETATM    6  C12 UNL     1       1.637  -3.236  -0.619  1.00  0.00     0.141 C 
HETATM    7  N1  UNL     1       0.456  -3.656  -1.369  1.00  0.00    -0.356 N 
HETATM    8  C13 UNL     1      -0.419  -2.507  -1.417  1.00  0.00     0.248 C 
HETATM    9  O2  UNL     1      -1.493  -2.775  -2.061  1.00  0.00    -0.268 OA
HETATM   10  C14 UNL     1       0.253  -1.401  -0.686  1.00  0.00     0.024 C 
HETATM   11  C15 UNL     1      -0.546  -0.558  -0.102  1.00  0.00     0.014 C 
HETATM   12  C25 UNL     1       2.692  -1.002  -0.234  1.00  0.00     0.059 A 
HETATM   13  H12 UNL     1       0.431  -4.643  -1.723  1.00  0.00     0.162 HD
ENDROOT
BRANCH  11  14
HETATM   14  C16 UNL     1      -1.973  -0.507  -0.024  1.00  0.00     0.003 C 
HETATM   15  C17 UNL     1      -2.891   0.258   0.507  1.00  0.00    -0.080 C 
HETATM   16  C18 UNL     1      -2.356   1.420   1.254  1.00  0.00     0.043 C 
BRANCH  15  17
HETATM   17  C19 UNL     1      -4.306  -0.089   0.297  1.00  0.00     0.069 C 
BRANCH  17  18
HETATM   18  C20 UNL     1      -5.109   0.930  -0.384  1.00  0.00    -0.061 C 
HETATM   19  C21 UNL     1      -5.595   0.670  -1.606  1.00  0.00     0.083 C 
BRANCH  19  20
HETATM   20  N2  UNL     1      -5.366  -0.557  -2.277  1.00  0.00    -0.408 N 
HETATM   21  H21 UNL     1      -6.046  -1.373  -2.209  1.00  0.00     0.155 HD
HETATM   22  H22 UNL     1      -4.499  -0.698  -2.877  1.00  0.00     0.155 HD
ENDBRANCH  19  20
BRANCH  18  23
HETATM   23  C22 UNL     1      -5.422   2.249   0.267  1.00  0.00     0.046 C 
BRANCH  23  24
HETATM   24  C23 UNL     1      -6.188   1.990   1.565  1.00  0.00     0.114 C 
BRANCH  24  25
HETATM   25  C24 UNL     1      -7.463   1.264   1.218  1.00  0.00     0.139 C 
HETATM   26  O3  UNL     1      -8.215   1.747   0.298  1.00  0.00    -0.650 OA
BRANCH  25  27
HETATM   27  O4  UNL     1      -8.204   0.127   1.579  1.00  0.00    -0.776 OA
HETATM   28  H27 UNL     1      -8.261  -0.667   0.940  1.00  0.00     0.167 HD
ENDBRANCH  25  27
ENDBRANCH  24  25
ENDBRANCH  23  24
ENDBRANCH  18  23
ENDBRANCH  17  18
ENDBRANCH  15  17
ENDBRANCH  11  14
BRANCH   1  29
HETATM   29  C6  UNL     1       4.829   0.306  -0.365  1.00  0.00    -0.027 A 
HETATM   30  C5  UNL     1       5.857   0.970  -0.990  1.00  0.00     0.012 A 
HETATM   31  C4  UNL     1       6.892   1.625  -0.372  1.00  0.00     0.004 A 
HETATM   32  C3  UNL     1       6.914   1.623   1.024  1.00  0.00     0.037 A 
HETATM   33  C2  UNL     1       5.921   0.982   1.726  1.00  0.00     0.069 A 
HETATM   34  C26 UNL     1       4.887   0.329   1.036  1.00  0.00     0.048 A 
BRANCH  33  35
HETATM   35  O1  UNL     1       5.776   0.874   3.095  1.00  0.00    -0.356 OA
HETATM   36  C1  UNL     1       6.722   1.452   3.964  1.00  0.00     0.210 C 
ENDBRANCH  33  35
ENDBRANCH   1  29
TORSDOF 10
