REMARK  8 active torsions:
REMARK  status: ('A' for Active; 'I' for Inactive)
REMARK    1  A    between atoms: O1_2  and  C2_3 
REMARK    2  A    between atoms: C2_3  and  C3_5 
REMARK    3  A    between atoms: C3_5  and  C4_6 
REMARK    4  A    between atoms: C4_6  and  C5_7 
REMARK    5  A    between atoms: C5_7  and  C6_8 
REMARK    6  A    between atoms: C6_8  and  C7_9 
REMARK    7  A    between atoms: C7_9  and  S1_10 
REMARK    8  A    between atoms: S1_10  and  O4_12 
ROOT
HETATM    1  C5  UNL     1       0.120   0.445  -0.561  1.00  0.00     0.043 A 
HETATM    2  C9  UNL     1       0.498   0.686  -1.998  1.00  0.00     0.091 A 
HETATM    3  S2  UNL     1       0.960  -0.396  -3.140  1.00  0.00    -0.064 SA
HETATM    4  N1  UNL     1       0.421   2.087  -2.333  1.00  0.00    -0.349 N 
HETATM    5  C10 UNL     1      -0.030   2.743  -1.133  1.00  0.00     0.040 A 
HETATM    6  C11 UNL     1      -0.266   4.095  -0.988  1.00  0.00     0.030 A 
HETATM    7  C12 UNL     1      -0.717   4.597   0.214  1.00  0.00     0.002 A 
HETATM    8  C13 UNL     1      -0.921   3.710   1.250  1.00  0.00     0.001 A 
HETATM    9  C14 UNL     1      -0.672   2.386   1.052  1.00  0.00     0.011 A 
HETATM   10  C15 UNL     1      -0.219   1.814  -0.120  1.00  0.00    -0.016 A 
HETATM   11  H15 UNL     1       0.642   2.536  -3.245  1.00  0.00     0.166 HD
ENDROOT
BRANCH   1  12
HETATM   12  C4  UNL     1      -1.072  -0.427  -0.394  1.00  0.00     0.031 C 
BRANCH  12  13
HETATM   13  C3  UNL     1      -0.976  -1.802  -0.962  1.00  0.00     0.112 C 
BRANCH  13  14
HETATM   14  C2  UNL     1      -2.300  -2.462  -0.652  1.00  0.00     0.258 C 
HETATM   15  O2  UNL     1      -2.355  -3.639  -1.080  1.00  0.00    -0.265 OA
BRANCH  14  16
HETATM   16  O1  UNL     1      -3.337  -1.837   0.029  1.00  0.00    -0.326 OA
HETATM   17  C1  UNL     1      -4.548  -2.522   0.282  1.00  0.00     0.213 C 
ENDBRANCH  14  16
ENDBRANCH  13  14
ENDBRANCH  12  13
ENDBRANCH   1  12
BRANCH   1  18
HETATM   18  C6  UNL     1       1.366  -0.118   0.078  1.00  0.00     0.036 C 
BRANCH  18  19
HETATM   19  C7  UNL     1       1.278  -0.344   1.549  1.00  0.00     0.141 C 
BRANCH  19  20
HETATM   20  S1  UNL     1       2.886  -1.036   2.066  1.00  0.00     0.152 S 
HETATM   21  O3  UNL     1       3.973  -0.010   1.957  1.00  0.00    -0.229 OA
BRANCH  20  22
HETATM   22  O4  UNL     1       3.179  -2.479   1.265  1.00  0.00    -0.301 OA
HETATM   23  C8  UNL     1       4.414  -2.586   0.672  1.00  0.00     0.222 C 
ENDBRANCH  20  22
ENDBRANCH  19  20
ENDBRANCH  18  19
ENDBRANCH   1  18
TORSDOF 8
