REMARK  9 active torsions:
REMARK  status: ('A' for Active; 'I' for Inactive)
REMARK    1  A    between atoms: C1_2  and  O2_3 
REMARK    2  A    between atoms: C1_2  and  C2_4 
REMARK    3  A    between atoms: C2_4  and  C3_5 
REMARK    4  A    between atoms: C3_5  and  C4_6 
REMARK    5  A    between atoms: C4_6  and  C5_7 
REMARK    6  A    between atoms: C5_7  and  O3_8 
REMARK    7  A    between atoms: O3_8  and  C6_9 
REMARK    8  A    between atoms: C6_9  and  O4_10 
REMARK    9  A    between atoms: C6_9  and  P1_11 
ROOT
HETATM    1  C4  UNL     1      -0.093  -0.278  -0.588  1.00  0.00     0.065 A 
HETATM    2  C7  UNL     1      -0.556  -0.904  -1.853  1.00  0.00     0.093 A 
HETATM    3  S1  UNL     1       0.271  -1.563  -3.094  1.00  0.00    -0.064 SA
HETATM    4  N1  UNL     1      -1.988  -0.882  -1.906  1.00  0.00    -0.349 N 
HETATM    5  C8  UNL     1      -2.470  -0.255  -0.707  1.00  0.00     0.040 A 
HETATM    6  C9  UNL     1      -3.761   0.010  -0.276  1.00  0.00     0.030 A 
HETATM    7  C10 UNL     1      -3.924   0.637   0.942  1.00  0.00     0.002 A 
HETATM    8  C11 UNL     1      -2.879   1.015   1.756  1.00  0.00     0.001 A 
HETATM    9  C12 UNL     1      -1.612   0.727   1.277  1.00  0.00     0.011 A 
HETATM   10  C13 UNL     1      -1.380   0.112   0.086  1.00  0.00    -0.014 A 
HETATM   11  H10 UNL     1      -2.650  -1.239  -2.651  1.00  0.00     0.166 HD
ENDROOT
BRANCH   1  12
HETATM   12  C3  UNL     1       0.598  -1.233   0.325  1.00  0.00     0.034 C 
BRANCH  12  13
HETATM   13  C2  UNL     1       1.880  -1.790  -0.255  1.00  0.00     0.111 C 
BRANCH  13  14
HETATM   14  C1  UNL     1       2.426  -2.719   0.795  1.00  0.00     0.139 C 
HETATM   15  O1  UNL     1       1.927  -2.985   1.925  1.00  0.00    -0.650 OA
BRANCH  14  16
HETATM   16  O2  UNL     1       3.617  -3.427   0.614  1.00  0.00    -0.776 OA
HETATM   17  H1  UNL     1       4.370  -3.432   1.274  1.00  0.00     0.167 HD
ENDBRANCH  14  16
ENDBRANCH  13  14
ENDBRANCH  12  13
ENDBRANCH   1  12
BRANCH   1  18
HETATM   18  C5  UNL     1       0.728   0.929  -0.948  1.00  0.00     0.199 C 
BRANCH  18  19
HETATM   19  O3  UNL     1       1.100   1.694   0.172  1.00  0.00    -0.329 OA
BRANCH  19  20
HETATM   20  C6  UNL     1       1.862   2.833  -0.049  1.00  0.00     0.181 C 
BRANCH  20  21
HETATM   21  O4  UNL     1       2.598   3.242  -1.156  1.00  0.00    -0.341 OA
HETATM   22  H8  UNL     1       3.526   2.889  -1.359  1.00  0.00     0.220 HD
ENDBRANCH  20  21
BRANCH  20  23
HETATM   23  P1  UNL     1       1.939   3.939   1.211  1.00  0.00    -0.008 P 
HETATM   24  H9  UNL     1       1.229   3.685   2.459  1.00  0.00     0.071 HD
ENDBRANCH  20  23
ENDBRANCH  19  20
ENDBRANCH  18  19
ENDBRANCH   1  18
TORSDOF 9
