REMARK  5 active torsions:
REMARK  status: ('A' for Active; 'I' for Inactive)
REMARK    1  A    between atoms: C2_2  and  C4_4 
REMARK    2  A    between atoms: C9_9  and  C10_10 
REMARK    3  A    between atoms: C13_13  and  O1_14 
REMARK    4  A    between atoms: O1_14  and  C14_15 
REMARK    5  A    between atoms: C14_15  and  O2_17 
ROOT
HETATM    1  C4  UNL     1      -3.757   1.488   0.122  1.00  0.00    -0.048 C 
HETATM    2  C5  UNL     1      -4.437   1.512   1.460  1.00  0.00     0.049 C 
HETATM    3  C6  UNL     1      -3.144   0.363  -0.195  1.00  0.00    -0.020 C 
HETATM    4  C7  UNL     1      -2.356  -0.202  -1.309  1.00  0.00     0.069 C 
HETATM    5  C8  UNL     1      -0.936  -0.374  -1.053  1.00  0.00    -0.013 C 
HETATM    6  C9  UNL     1       0.218  -0.932  -0.874  1.00  0.00    -0.031 C 
HETATM    7  C20 UNL     1      -0.360  -2.287  -0.759  1.00  0.00     0.069 C 
HETATM    8  C21 UNL     1      -0.020  -2.868   0.608  1.00  0.00     0.004 C 
HETATM    9  C22 UNL     1      -0.952  -3.055   1.523  1.00  0.00     0.164 C 
HETATM   10  O3  UNL     1      -2.316  -2.775   1.422  1.00  0.00    -0.250 OA
HETATM   11  N2  UNL     1      -2.791  -1.525   1.860  1.00  0.00    -0.262 N 
HETATM   12  C23 UNL     1      -3.267  -0.748   0.778  1.00  0.00     0.058 C 
HETATM   13  C24 UNL     1      -4.458  -1.321   0.468  1.00  0.00     0.001 C 
HETATM   14  C25 UNL     1      -5.198  -2.496   1.059  1.00  0.00     0.038 C 
HETATM   15  H32 UNL     1      -2.962  -0.878   2.659  1.00  0.00     0.195 HD
ENDROOT
BRANCH   6  16
HETATM   16  C10 UNL     1       1.631  -0.821  -0.605  1.00  0.00     0.043 C 
HETATM   17  C11 UNL     1       2.318   0.274  -0.366  1.00  0.00    -0.028 C 
HETATM   18  C12 UNL     1       1.486   1.503  -0.386  1.00  0.00     0.048 C 
HETATM   19  C13 UNL     1       3.784   0.473  -0.075  1.00  0.00     0.159 C 
HETATM   20  C16 UNL     1       4.481   0.072  -1.369  1.00  0.00     0.066 C 
HETATM   21  C17 UNL     1       4.609  -1.428  -1.427  1.00  0.00     0.001 C 
HETATM   22  C18 UNL     1       3.668  -2.334  -1.160  1.00  0.00     0.002 C 
HETATM   23  C19 UNL     1       4.186  -3.714  -1.331  1.00  0.00     0.068 C 
HETATM   24  N1  UNL     1       2.294  -2.091  -0.763  1.00  0.00    -0.360 N 
HETATM   25  H27 UNL     1       1.908  -3.030  -0.650  1.00  0.00     0.166 HD
BRANCH  19  26
HETATM   26  O1  UNL     1       3.988   1.793   0.198  1.00  0.00    -0.352 OA
BRANCH  26  27
HETATM   27  C14 UNL     1       4.433   2.057   1.477  1.00  0.00     0.253 C 
HETATM   28  C15 UNL     1       5.849   2.620   1.475  1.00  0.00     0.070 C 
BRANCH  27  29
HETATM   29  O2  UNL     1       3.654   2.923   2.208  1.00  0.00    -0.372 OA
HETATM   30  H20 UNL     1       3.910   3.871   2.007  1.00  0.00     0.212 HD
ENDBRANCH  27  29
ENDBRANCH  26  27
ENDBRANCH  19  26
ENDBRANCH   6  16
BRANCH   1  31
HETATM   31  C2  UNL     1      -3.825   2.692  -0.709  1.00  0.00    -0.065 C 
HETATM   32  C1  UNL     1      -4.524   3.694  -0.133  1.00  0.00     0.019 C 
HETATM   33  C3  UNL     1      -3.441   3.332  -1.976  1.00  0.00     0.048 C 
ENDBRANCH   1  31
TORSDOF 5
