REMARK  1 active torsions:
REMARK  status: ('A' for Active; 'I' for Inactive)
REMARK    1  A    between atoms: O1_2  and  C2_3 
ROOT
HETATM    1  C2  UNL     1      -2.316  -1.112   0.494  1.00  0.00     0.069 A 
HETATM    2  C3  UNL     1      -3.170  -0.036   0.691  1.00  0.00     0.037 A 
HETATM    3  C4  UNL     1      -2.801   1.269   0.417  1.00  0.00     0.011 A 
HETATM    4  C5  UNL     1      -1.523   1.565  -0.081  1.00  0.00    -0.043 A 
HETATM    5  C6  UNL     1      -0.703   0.450  -0.260  1.00  0.00    -0.010 A 
HETATM    6  C7  UNL     1      -1.062  -0.866   0.010  1.00  0.00     0.049 A 
HETATM    7  C8  UNL     1       0.689   0.322  -0.731  1.00  0.00     0.053 C 
HETATM    8  C9  UNL     1       1.417  -0.419   0.076  1.00  0.00    -0.019 A 
HETATM    9  C10 UNL     1       1.312  -1.167   1.310  1.00  0.00     0.013 A 
HETATM   10  C11 UNL     1       2.414  -1.785   1.687  1.00  0.00     0.007 A 
HETATM   11  C12 UNL     1       3.410  -1.462   0.643  1.00  0.00    -0.061 A 
HETATM   12  C13 UNL     1       4.760  -2.074   0.877  1.00  0.00     0.048 C 
HETATM   13  C14 UNL     1       2.808  -0.685  -0.254  1.00  0.00     0.019 A 
HETATM   14  C15 UNL     1       1.354   0.941  -1.904  1.00  0.00     0.257 C 
HETATM   15  O2  UNL     1       2.131   0.142  -2.455  1.00  0.00    -0.267 OA
HETATM   16  N1  UNL     1       1.212   2.279  -2.445  1.00  0.00    -0.333 N 
HETATM   17  C16 UNL     1       0.188   3.285  -2.362  1.00  0.00     0.087 C 
HETATM   18  C17 UNL     1      -0.787   3.483  -1.491  1.00  0.00    -0.005 C 
HETATM   19  C18 UNL     1      -1.460   3.033  -0.278  1.00  0.00     0.068 C 
HETATM   20  H13 UNL     1       2.068   2.478  -2.995  1.00  0.00     0.168 HD
ENDROOT
BRANCH   1  21
HETATM   21  O1  UNL     1      -2.616  -2.434   0.745  1.00  0.00    -0.356 OA
HETATM   22  C1  UNL     1      -3.866  -2.868   1.248  1.00  0.00     0.210 C 
ENDBRANCH   1  21
TORSDOF 1
