REMARK  8 active torsions:
REMARK  status: ('A' for Active; 'I' for Inactive)
REMARK    1  A    between atoms: O1_2  and  C2_3 
REMARK    2  A    between atoms: C2_3  and  C3_5 
REMARK    3  A    between atoms: C3_5  and  C4_6 
REMARK    4  A    between atoms: C4_6  and  C5_7 
REMARK    5  A    between atoms: C5_7  and  C6_8 
REMARK    6  A    between atoms: C6_8  and  C7_9 
REMARK    7  A    between atoms: C7_9  and  C8_10 
REMARK    8  A    between atoms: C8_10  and  O4_12 
ROOT
HETATM    1  C5  UNL     1      -0.272  -0.668   0.152  1.00  0.00     0.030 A 
HETATM    2  C10 UNL     1      -0.260  -0.792   1.640  1.00  0.00     0.147 A 
HETATM    3  S1  UNL     1      -0.254   0.760   1.898  1.00  0.00    -0.066 SA
HETATM    4  N1  UNL     1      -0.256  -2.283   1.692  1.00  0.00    -0.018 N 
HETATM    5  C11 UNL     1      -0.155  -3.700   0.662  1.00  0.00     0.149 A 
HETATM    6  C12 UNL     1      -0.211  -2.872   1.229  1.00  0.00     0.328 A 
HETATM    7  C13 UNL     1      -0.169  -2.182  -0.206  1.00  0.00     0.059 A 
HETATM    8  C14 UNL     1      -0.098  -3.290  -0.768  1.00  0.00    -0.059 A 
HETATM    9  C15 UNL     1      -0.007  -3.540  -2.260  1.00  0.00     0.042 C 
HETATM   10  H15 UNL     1      -0.352  -1.567   2.676  1.00  0.00     0.352 HD
ENDROOT
BRANCH   1  11
HETATM   11  C4  UNL     1      -1.493  -0.246  -0.524  1.00  0.00     0.027 C 
BRANCH  11  12
HETATM   12  C3  UNL     1      -2.152   1.030  -0.529  1.00  0.00     0.112 C 
BRANCH  12  13
HETATM   13  C2  UNL     1      -2.795   1.494   0.708  1.00  0.00     0.258 C 
HETATM   14  O2  UNL     1      -3.288   1.637   1.882  1.00  0.00    -0.265 OA
BRANCH  13  15
HETATM   15  O1  UNL     1      -3.295   2.754   0.722  1.00  0.00    -0.326 OA
HETATM   16  C1  UNL     1      -3.947   3.478   1.696  1.00  0.00     0.213 C 
ENDBRANCH  13  15
ENDBRANCH  12  13
ENDBRANCH  11  12
ENDBRANCH   1  11
BRANCH   1  17
HETATM   17  C6  UNL     1       0.885   0.096  -0.312  1.00  0.00     0.027 C 
BRANCH  17  18
HETATM   18  C7  UNL     1       2.211  -0.285   0.289  1.00  0.00     0.112 C 
BRANCH  18  19
HETATM   19  C8  UNL     1       3.276   0.568  -0.231  1.00  0.00     0.258 C 
HETATM   20  O3  UNL     1       2.797   1.740  -0.418  1.00  0.00    -0.265 OA
BRANCH  19  21
HETATM   21  O4  UNL     1       4.489   0.965  -0.666  1.00  0.00    -0.326 OA
HETATM   22  C9  UNL     1       4.869   2.256  -1.095  1.00  0.00     0.213 C 
ENDBRANCH  19  21
ENDBRANCH  18  19
ENDBRANCH  17  18
ENDBRANCH   1  17
TORSDOF 8
