REMARK  4 active torsions:
REMARK  status: ('A' for Active; 'I' for Inactive)
REMARK    1  A    between atoms: C2_2  and  C3_3 
REMARK    2  A    between atoms: C3_3  and  P1_4 
REMARK    3  A    between atoms: C17_20  and  C18_21 
REMARK    4  A    between atoms: C18_21  and  O2_23 
ROOT
HETATM    1  P1  UNL     1       1.647   0.653  -0.089  1.00  0.00    -0.011 P 
HETATM    2  C4  UNL     1       0.339   0.502   1.026  1.00  0.00    -0.008 C 
HETATM    3  C5  UNL     1      -0.198   1.948   1.099  1.00  0.00     0.002 A 
HETATM    4  C6  UNL     1      -0.567   2.856   2.070  1.00  0.00     0.014 A 
HETATM    5  C7  UNL     1      -1.133   4.032   1.600  1.00  0.00     0.001 A 
HETATM    6  C8  UNL     1      -1.334   4.316   0.264  1.00  0.00     0.002 A 
HETATM    7  C9  UNL     1      -1.020   3.507  -0.805  1.00  0.00     0.032 A 
HETATM    8  C10 UNL     1      -0.477   2.388  -0.289  1.00  0.00     0.065 A 
HETATM    9  N1  UNL     1      -0.089   1.147  -0.976  1.00  0.00    -0.270 N 
HETATM   10  N2  UNL     1      -0.991   0.418  -1.743  1.00  0.00    -0.294 N 
HETATM   11  C11 UNL     1      -1.342  -0.854  -1.017  1.00  0.00     0.056 A 
HETATM   12  C12 UNL     1      -2.038  -1.546  -1.994  1.00  0.00     0.031 A 
HETATM   13  C13 UNL     1      -2.534  -2.765  -1.595  1.00  0.00     0.002 A 
HETATM   14  C14 UNL     1      -2.338  -3.234  -0.317  1.00  0.00     0.001 A 
HETATM   15  C15 UNL     1      -1.645  -2.534   0.641  1.00  0.00     0.011 A 
HETATM   16  C16 UNL     1      -1.118  -1.317   0.330  1.00  0.00    -0.011 A 
HETATM   17  C17 UNL     1      -0.359  -0.621   1.526  1.00  0.00     0.154 C 
HETATM   18  H8  UNL     1       2.271   1.766   0.051  1.00  0.00     0.081 HD
HETATM   19  H13 UNL     1      -1.241   0.900  -2.557  1.00  0.00     0.187 HD
ENDROOT
BRANCH   1  20
HETATM   20  C3  UNL     1       2.196  -0.738  -0.775  1.00  0.00     0.054 C 
BRANCH  20  21
HETATM   21  C2  UNL     1       3.701  -0.685  -1.023  1.00  0.00     0.001 C 
HETATM   22  C1  UNL     1       4.220  -1.951  -1.651  1.00  0.00     0.005 C 
ENDBRANCH  20  21
ENDBRANCH   1  20
BRANCH  17  23
HETATM   23  C18 UNL     1      -1.283  -0.402   2.619  1.00  0.00     0.153 C 
HETATM   24  O1  UNL     1      -2.483  -0.778   2.461  1.00  0.00    -0.649 OA
BRANCH  23  25
HETATM   25  O2  UNL     1      -2.032  -0.121   3.753  1.00  0.00    -0.776 OA
HETATM   26  H19 UNL     1      -1.646  -0.101   4.700  1.00  0.00     0.167 HD
ENDBRANCH  23  25
ENDBRANCH  17  23
TORSDOF 4
