REMARK  6 active torsions:
REMARK  status: ('A' for Active; 'I' for Inactive)
REMARK    1  A    between atoms: C7_9  and  C8_10 
REMARK    2  A    between atoms: C8_10  and  C9_11 
REMARK    3  A    between atoms: C9_11  and  O2_13 
REMARK    4  A    between atoms: C17_22  and  C18_23 
REMARK    5  A    between atoms: C18_23  and  C19_24 
REMARK    6  A    between atoms: C19_24  and  O4_26 
ROOT
HETATM    1  C1  UNL     1       0.615   3.335  -1.136  1.00  0.00     0.150 C 
HETATM    2  N1  UNL     1      -0.582   2.554  -1.352  1.00  0.00    -0.379 N 
HETATM    3  C2  UNL     1      -1.754   3.334  -0.977  1.00  0.00     0.137 C 
HETATM    4  S1  UNL     1      -1.622   4.125   0.490  1.00  0.00    -0.084 SA
HETATM    5  C3  UNL     1      -0.722   3.231   1.562  1.00  0.00     0.019 C 
HETATM    6  C4  UNL     1      -1.170   1.964   1.586  1.00  0.00    -0.005 C 
HETATM    7  C5  UNL     1      -2.336   1.335   0.910  1.00  0.00     0.005 C 
HETATM    8  C6  UNL     1      -1.951   0.154   0.386  1.00  0.00     0.060 C 
HETATM    9  C7  UNL     1      -2.572  -0.913  -0.366  1.00  0.00    -0.048 C 
HETATM   10  C10 UNL     1      -1.435  -1.582  -0.399  1.00  0.00     0.108 C 
HETATM   11  N2  UNL     1      -0.176  -1.244   0.140  1.00  0.00    -0.299 N 
HETATM   12  C11 UNL     1       0.743  -1.555   1.159  1.00  0.00     0.056 A 
HETATM   13  C12 UNL     1       0.439  -2.551   2.062  1.00  0.00     0.031 A 
HETATM   14  C13 UNL     1       1.318  -2.886   3.079  1.00  0.00     0.002 A 
HETATM   15  C14 UNL     1       2.514  -2.183   3.154  1.00  0.00     0.001 A 
HETATM   16  C15 UNL     1       2.754  -1.201   2.222  1.00  0.00     0.015 A 
HETATM   17  C16 UNL     1       1.896  -0.852   1.204  1.00  0.00     0.006 A 
HETATM   18  C17 UNL     1       2.049   0.158   0.174  1.00  0.00     0.012 A 
HETATM   19  S2  UNL     1       0.604   0.095  -0.805  1.00  0.00    -0.070 SA
HETATM   20  C20 UNL     1      -0.222   1.224  -1.874  1.00  0.00     0.212 C 
ENDROOT
BRANCH   9  21
HETATM   21  C8  UNL     1      -3.736  -1.532  -1.040  1.00  0.00     0.146 C 
BRANCH  21  22
HETATM   22  C9  UNL     1      -3.406  -2.785  -1.720  1.00  0.00     0.143 C 
HETATM   23  O1  UNL     1      -2.556  -3.676  -2.054  1.00  0.00    -0.650 OA
BRANCH  22  24
HETATM   24  O2  UNL     1      -4.601  -3.246  -2.288  1.00  0.00    -0.776 OA
HETATM   25  H10 UNL     1      -4.728  -4.108  -2.750  1.00  0.00     0.167 HD
ENDBRANCH  22  24
ENDBRANCH  21  22
ENDBRANCH   9  21
BRANCH  18  26
HETATM   26  C18 UNL     1       3.190   1.100  -0.093  1.00  0.00     0.157 C 
BRANCH  26  27
HETATM   27  C19 UNL     1       4.457   0.375  -0.389  1.00  0.00     0.144 C 
HETATM   28  O3  UNL     1       5.375  -0.136   0.282  1.00  0.00    -0.650 OA
BRANCH  27  29
HETATM   29  O4  UNL     1       4.864   0.124  -1.691  1.00  0.00    -0.776 OA
HETATM   30  H18 UNL     1       5.105  -0.788  -2.066  1.00  0.00     0.167 HD
ENDBRANCH  27  29
ENDBRANCH  26  27
ENDBRANCH  18  26
TORSDOF 6
