REMARK  7 active torsions:
REMARK  status: ('A' for Active; 'I' for Inactive)
REMARK    1  A    between atoms: C8_8  and  C9_9 
REMARK    2  A    between atoms: C9_9  and  C10_10 
REMARK    3  A    between atoms: C10_10  and  O2_12 
REMARK    4  A    between atoms: S1_13  and  S2_14 
REMARK    5  A    between atoms: S2_14  and  C11_15 
REMARK    6  A    between atoms: C12_16  and  C13_17 
REMARK    7  A    between atoms: C13_17  and  O4_19 
ROOT
HETATM    1  C1  UNL     1       4.056   1.644   1.756  1.00  0.00     0.049 C 
HETATM    2  C2  UNL     1       3.887   0.305   1.199  1.00  0.00    -0.048 A 
HETATM    3  C3  UNL     1       4.865  -0.637   1.541  1.00  0.00     0.007 A 
HETATM    4  C4  UNL     1       4.828  -1.939   1.104  1.00  0.00     0.003 A 
HETATM    5  C5  UNL     1       3.769  -2.280   0.301  1.00  0.00     0.031 A 
HETATM    6  C6  UNL     1       2.802  -1.362  -0.042  1.00  0.00     0.052 A 
HETATM    7  C7  UNL     1       2.810  -0.055   0.376  1.00  0.00     0.012 A 
HETATM    8  C8  UNL     1       1.718   0.788  -0.068  1.00  0.00     0.022 A 
HETATM    9  S1  UNL     1       0.689  -0.223  -1.054  1.00  0.00    -0.023 SA
HETATM   10  N2  UNL     1       1.725  -1.768  -0.870  1.00  0.00    -0.321 N 
HETATM   11  C20 UNL     1       1.326  -2.988  -1.514  1.00  0.00     0.165 C 
ENDROOT
BRANCH   9  12
HETATM   12  S2  UNL     1      -1.012   0.219  -2.022  1.00  0.00    -0.024 SA
BRANCH  12  13
HETATM   13  C11 UNL     1      -2.434  -0.165  -0.963  1.00  0.00     0.098 C 
HETATM   14  C12 UNL     1      -3.634   0.269  -1.387  1.00  0.00     0.063 C 
HETATM   15  C14 UNL     1      -4.413  -0.538  -0.452  1.00  0.00     0.101 A 
HETATM   16  C15 UNL     1      -5.790  -0.290  -0.148  1.00  0.00    -0.011 A 
HETATM   17  C18 UNL     1      -3.726  -0.578   0.852  1.00  0.00     0.024 A 
HETATM   18  C16 UNL     1      -5.855  -0.226   1.195  1.00  0.00    -0.001 A 
HETATM   19  C17 UNL     1      -4.548  -0.409   1.870  1.00  0.00     0.026 A 
HETATM   20  N1  UNL     1      -2.384  -0.709   0.371  1.00  0.00    -0.347 N 
HETATM   21  C19 UNL     1      -1.260  -1.239   1.059  1.00  0.00     0.157 C 
BRANCH  14  22
HETATM   22  C13 UNL     1      -4.292   0.996  -2.434  1.00  0.00     0.175 C 
HETATM   23  O3  UNL     1      -5.518   1.225  -2.509  1.00  0.00    -0.646 OA
BRANCH  22  24
HETATM   24  O4  UNL     1      -3.657   1.559  -3.534  1.00  0.00    -0.773 OA
HETATM   25  H10 UNL     1      -3.922   1.354  -4.511  1.00  0.00     0.167 HD
ENDBRANCH  22  24
ENDBRANCH  14  22
ENDBRANCH  12  13
ENDBRANCH   9  12
BRANCH   8  26
HETATM   26  C9  UNL     1       1.405   2.194   0.135  1.00  0.00     0.158 C 
BRANCH  26  27
HETATM   27  C10 UNL     1       2.389   3.151  -0.440  1.00  0.00     0.144 C 
HETATM   28  O1  UNL     1       3.411   2.940  -1.127  1.00  0.00    -0.650 OA
BRANCH  27  29
HETATM   29  O2  UNL     1       2.102   4.458  -0.154  1.00  0.00    -0.776 OA
HETATM   30  H9  UNL     1       2.732   5.196  -0.422  1.00  0.00     0.167 HD
ENDBRANCH  27  29
ENDBRANCH  26  27
ENDBRANCH   8  26
TORSDOF 7
