REMARK  10 active torsions:
REMARK  status: ('A' for Active; 'I' for Inactive)
REMARK    1  A    between atoms: C2_2  and  C3_3 
REMARK    2  A    between atoms: C4_4  and  C5_5 
REMARK    3  A    between atoms: C7_7  and  C8_8 
REMARK    4  A    between atoms: C8_8  and  C9_9 
REMARK    5  A    between atoms: C10_12  and  S1_13 
REMARK    6  A    between atoms: S1_13  and  S2_14 
REMARK    7  A    between atoms: S2_14  and  C11_15 
REMARK    8  A    between atoms: C12_16  and  C13_17 
REMARK    9  A    between atoms: C13_17  and  C14_18 
REMARK   10  A    between atoms: C14_18  and  O4_20 
ROOT
HETATM    1  S1  UNL     1      -0.324  -2.376  -0.437  1.00  0.00    -0.032 SA
ENDROOT
BRANCH   1   2
HETATM    2  C10 UNL     1       0.989  -1.187  -0.573  1.00  0.00     0.092 A 
HETATM    3  C7  UNL     1       2.147  -1.103   0.055  1.00  0.00     0.009 A 
HETATM    4  C6  UNL     1       2.479   0.105  -0.679  1.00  0.00     0.044 A 
HETATM    5  C5  UNL     1       3.443   0.990  -0.787  1.00  0.00     0.030 C 
HETATM    6  N2  UNL     1       1.229  -0.012  -1.335  1.00  0.00    -0.344 N 
HETATM    7  C22 UNL     1       0.548   0.769  -2.358  1.00  0.00     0.157 C 
BRANCH   3   8
HETATM    8  C8  UNL     1       3.018  -1.735   1.063  1.00  0.00     0.114 C 
BRANCH   8   9
HETATM    9  C9  UNL     1       2.418  -2.949   1.646  1.00  0.00     0.121 A 
HETATM   10  O1  UNL     1       1.330  -3.597   1.502  1.00  0.00    -0.194 OA
HETATM   11  O2  UNL     1       2.307  -4.060   2.440  1.00  0.00     0.000 OA
HETATM   12  H11 UNL     1       2.981  -4.300   3.165  1.00  0.00     0.000 HD
ENDBRANCH   8   9
ENDBRANCH   3   8
BRANCH   5  13
HETATM   13  C4  UNL     1       4.681   0.958  -0.023  1.00  0.00    -0.002 C 
HETATM   14  C3  UNL     1       5.671   1.826  -0.103  1.00  0.00    -0.027 C 
BRANCH  14  15
HETATM   15  C2  UNL     1       6.919   1.776   0.679  1.00  0.00     0.022 C 
HETATM   16  C1  UNL     1       8.144   1.669  -0.202  1.00  0.00     0.009 C 
ENDBRANCH  14  15
ENDBRANCH   5  13
ENDBRANCH   1   2
BRANCH   1  17
HETATM   17  S2  UNL     1      -2.022  -1.834  -1.544  1.00  0.00    -0.032 SA
BRANCH  17  18
HETATM   18  C11 UNL     1      -3.204  -0.895  -0.592  1.00  0.00     0.091 A 
HETATM   19  C12 UNL     1      -3.495   0.408  -0.259  1.00  0.00    -0.001 A 
HETATM   20  C15 UNL     1      -4.616   0.445   0.542  1.00  0.00     0.000 A 
HETATM   21  C16 UNL     1      -5.223   1.560   1.082  1.00  0.00     0.014 A 
HETATM   22  C20 UNL     1      -5.009  -0.862   0.697  1.00  0.00     0.045 A 
HETATM   23  C17 UNL     1      -6.336   1.346   1.853  1.00  0.00     0.001 A 
HETATM   24  C18 UNL     1      -6.789   0.058   2.052  1.00  0.00     0.002 A 
HETATM   25  C19 UNL     1      -6.145  -1.022   1.489  1.00  0.00     0.030 A 
HETATM   26  N1  UNL     1      -4.154  -1.677   0.010  1.00  0.00    -0.344 N 
HETATM   27  C21 UNL     1      -4.436  -3.112   0.072  1.00  0.00     0.157 C 
BRANCH  19  28
HETATM   28  C13 UNL     1      -2.610   1.442  -0.778  1.00  0.00     0.152 C 
BRANCH  28  29
HETATM   29  C14 UNL     1      -2.769   1.753  -2.183  1.00  0.00     0.143 C 
HETATM   30  O3  UNL     1      -3.678   1.037  -2.696  1.00  0.00    -0.650 OA
BRANCH  29  31
HETATM   31  O4  UNL     1      -2.343   2.521  -3.244  1.00  0.00    -0.776 OA
HETATM   32  H14 UNL     1      -2.938   3.265  -3.629  1.00  0.00     0.167 HD
ENDBRANCH  29  31
ENDBRANCH  28  29
ENDBRANCH  19  28
ENDBRANCH  17  18
ENDBRANCH   1  17
TORSDOF 10
