REMARK  2 active torsions:
REMARK  status: ('A' for Active; 'I' for Inactive)
REMARK    1  A    between atoms: C2_2  and  C3_3 
REMARK       I    between atoms: C3_3  and  N1_5 
REMARK    2  A    between atoms: N1_5  and  C4_6 
ROOT
HETATM    1  C4  UNL     1       2.660  -0.726  -0.004  1.00  0.00     0.035 A 
HETATM    2  C5  UNL     1       2.408  -2.079   0.108  1.00  0.00     0.032 A 
HETATM    3  C6  UNL     1       1.156  -2.614  -0.104  1.00  0.00     0.040 A 
HETATM    4  C7  UNL     1       0.255  -1.677  -0.421  1.00  0.00     0.084 A 
HETATM    5  C8  UNL     1       0.388  -0.268  -0.568  1.00  0.00    -0.021 A 
HETATM    6  C9  UNL     1       1.682   0.188  -0.336  1.00  0.00     0.039 A 
HETATM    7  C10 UNL     1      -0.671   0.692  -0.969  1.00  0.00     0.055 C 
HETATM    8  C11 UNL     1      -1.961   0.744  -0.341  1.00  0.00     0.071 C 
HETATM    9  C12 UNL     1      -2.583  -0.477   0.291  1.00  0.00     0.003 C 
HETATM   10  C13 UNL     1      -3.310  -0.547   1.441  1.00  0.00     0.013 C 
HETATM   11  C14 UNL     1      -4.025   0.668   1.929  1.00  0.00     0.017 C 
HETATM   12  C15 UNL     1      -4.328   1.758   1.188  1.00  0.00     0.085 C 
HETATM   13  N2  UNL     1      -4.052   1.902  -0.229  1.00  0.00    -0.376 N 
HETATM   14  C16 UNL     1      -3.115   1.246  -1.163  1.00  0.00     0.215 C 
HETATM   15  N3  UNL     1      -3.754   0.422  -2.095  1.00  0.00    -0.256 NA
HETATM   16  C17 UNL     1      -3.709  -0.833  -2.531  1.00  0.00     0.232 C 
HETATM   17  N4  UNL     1      -3.081  -1.906  -1.687  1.00  0.00    -0.217 NA
HETATM   18  C18 UNL     1      -2.262  -1.539  -0.652  1.00  0.00     0.177 C 
HETATM   19  O2  UNL     1      -1.028  -2.334  -0.619  1.00  0.00    -0.291 OA
HETATM   20  H14 UNL     1      -4.714   2.663  -0.561  1.00  0.00     0.161 HD
ENDROOT
BRANCH   1  21
HETATM   21  N1  UNL     1       3.981  -0.190   0.223  1.00  0.00    -0.324 N 
HETATM   22  C3  UNL     1       4.731   0.310   1.297  1.00  0.00     0.241 C 
HETATM   23  O1  UNL     1       4.133   0.319   2.410  1.00  0.00    -0.269 OA
HETATM   24  H4  UNL     1       4.327  -0.268  -0.777  1.00  0.00     0.169 HD
BRANCH  22  25
HETATM   25  C2  UNL     1       6.081   0.740   0.958  1.00  0.00     0.048 C 
HETATM   26  C1  UNL     1       6.769   0.762  -0.171  1.00  0.00     0.037 C 
ENDBRANCH  22  25
ENDBRANCH   1  21
TORSDOF 2
