REMARK  10 active torsions:
REMARK  status: ('A' for Active; 'I' for Inactive)
REMARK    1  A    between atoms: O1_2  and  C2_3 
REMARK    2  A    between atoms: C2_3  and  C3_5 
REMARK    3  A    between atoms: C3_5  and  C4_6 
REMARK    4  A    between atoms: C4_6  and  C5_7 
REMARK    5  A    between atoms: C5_7  and  C6_8 
REMARK    6  A    between atoms: C6_8  and  C7_9 
REMARK    7  A    between atoms: C7_9  and  C8_10 
REMARK    8  A    between atoms: C16_19  and  C17_20 
REMARK    9  A    between atoms: C17_20  and  C18_21 
REMARK   10  A    between atoms: C18_21  and  O4_23 
ROOT
HETATM    1  C8  UNL     1       0.645   0.641  -0.583  1.00  0.00     0.033 C 
HETATM    2  C9  UNL     1       0.826   1.972  -0.159  1.00  0.00     0.326 C 
HETATM    3  N1  UNL     1       0.446   2.576   1.057  1.00  0.00     0.092 NA
HETATM    4  C10 UNL     1       1.146   2.085   2.244  1.00  0.00     0.297 C 
HETATM    5  C11 UNL     1       0.430   0.822   2.610  1.00  0.00     0.003 C 
HETATM    6  C12 UNL     1      -0.754   0.505   2.121  1.00  0.00    -0.004 C 
HETATM    7  C13 UNL     1      -1.985  -0.237   1.857  1.00  0.00     0.007 C 
HETATM    8  C14 UNL     1      -3.103  -0.197   1.230  1.00  0.00     0.084 A 
HETATM    9  C15 UNL     1      -4.141   0.322   0.407  1.00  0.00     0.053 C 
HETATM   10  C16 UNL     1      -3.444  -0.091  -0.960  1.00  0.00     0.020 C 
HETATM   11  C20 UNL     1      -3.163  -1.075  -0.197  1.00  0.00     0.117 A 
HETATM   12  S1  UNL     1      -2.282  -2.042  -1.510  1.00  0.00    -0.115 SA
HETATM   13  C21 UNL     1      -0.473  -1.859  -1.046  1.00  0.00     0.196 C 
HETATM   14  N2  UNL     1      -0.178  -0.454  -0.914  1.00  0.00    -0.383 N 
HETATM   15  N3  UNL     1      -2.910  -1.608   1.050  1.00  0.00    -0.381 N 
HETATM   16  C22 UNL     1      -2.664  -2.992   1.326  1.00  0.00     0.146 C 
HETATM   17  H11 UNL     1       0.507   3.591   0.994  1.00  0.00     0.316 HD
HETATM   18  H26 UNL     1      -0.918   0.230  -1.192  1.00  0.00     0.160 HD
ENDROOT
BRANCH   1  19
HETATM   19  C7  UNL     1       1.720  -0.131  -0.892  1.00  0.00     0.027 C 
BRANCH  19  20
HETATM   20  C6  UNL     1       2.997   0.552  -0.739  1.00  0.00     0.014 C 
BRANCH  20  21
HETATM   21  C5  UNL     1       3.905   0.432   0.206  1.00  0.00    -0.029 C 
BRANCH  21  22
HETATM   22  C4  UNL     1       4.409  -0.067   1.335  1.00  0.00    -0.005 C 
BRANCH  22  23
HETATM   23  C3  UNL     1       5.234  -1.269   1.147  1.00  0.00     0.139 C 
BRANCH  23  24
HETATM   24  C2  UNL     1       6.334  -0.865   0.208  1.00  0.00     0.261 C 
HETATM   25  O2  UNL     1       6.400  -0.785  -1.045  1.00  0.00    -0.265 OA
BRANCH  24  26
HETATM   26  O1  UNL     1       7.596  -0.474   0.655  1.00  0.00    -0.326 OA
HETATM   27  C1  UNL     1       8.625  -0.095  -0.257  1.00  0.00     0.213 C 
ENDBRANCH  24  26
ENDBRANCH  23  24
ENDBRANCH  22  23
ENDBRANCH  21  22
ENDBRANCH  20  21
ENDBRANCH  19  20
ENDBRANCH   1  19
BRANCH  10  28
HETATM   28  C17 UNL     1      -3.593   0.861  -2.046  1.00  0.00     0.125 C 
BRANCH  28  29
HETATM   29  C18 UNL     1      -5.073   0.977  -2.325  1.00  0.00     0.259 C 
HETATM   30  O3  UNL     1      -5.946   1.551  -3.006  1.00  0.00    -0.265 OA
BRANCH  29  31
HETATM   31  O4  UNL     1      -6.022   0.220  -1.657  1.00  0.00    -0.326 OA
HETATM   32  C19 UNL     1      -7.396   0.348  -1.936  1.00  0.00     0.213 C 
ENDBRANCH  29  31
ENDBRANCH  28  29
ENDBRANCH  10  28
TORSDOF 10
