REMARK  5 active torsions:
REMARK  status: ('A' for Active; 'I' for Inactive)
REMARK    1  A    between atoms: O1_2  and  C2_3 
REMARK    2  A    between atoms: C10_11  and  S1_12 
REMARK    3  A    between atoms: S1_12  and  S2_13 
REMARK    4  A    between atoms: S2_13  and  C11_14 
REMARK       I    between atoms: C11_14  and  N1_16 
REMARK    5  A    between atoms: N1_16  and  C13_18 
ROOT
HETATM    1  C2  UNL     1      -4.433  -0.932   0.236  1.00  0.00     0.191 A 
HETATM    2  C3  UNL     1      -4.694   0.376   0.890  1.00  0.00    -0.012 A 
HETATM    3  C4  UNL     1      -5.139   1.482   1.603  1.00  0.00     0.011 A 
HETATM    4  C5  UNL     1      -4.528   2.720   1.617  1.00  0.00     0.003 A 
HETATM    5  C6  UNL     1      -3.359   2.947   0.872  1.00  0.00     0.030 A 
HETATM    6  C7  UNL     1      -2.814   1.929   0.120  1.00  0.00     0.046 A 
HETATM    7  C8  UNL     1      -3.564   0.777   0.236  1.00  0.00     0.012 A 
HETATM    8  C9  UNL     1      -3.224  -0.369  -0.417  1.00  0.00     0.023 A 
HETATM    9  C10 UNL     1      -2.082   0.168  -1.033  1.00  0.00     0.093 A 
HETATM   10  N2  UNL     1      -1.862   1.482  -0.715  1.00  0.00    -0.344 N 
HETATM   11  C19 UNL     1      -0.849   2.421  -1.094  1.00  0.00     0.157 C 
ENDROOT
BRANCH   9  12
HETATM   12  S1  UNL     1      -1.041  -0.786  -2.113  1.00  0.00    -0.029 SA
BRANCH  12  13
HETATM   13  S2  UNL     1       0.493  -1.767  -1.047  1.00  0.00     0.011 SA
BRANCH  13  14
HETATM   14  C11 UNL     1       1.960  -0.757  -0.926  1.00  0.00     0.297 C 
HETATM   15  O2  UNL     1       1.874   0.366  -1.477  1.00  0.00    -0.259 OA
HETATM   16  N1  UNL     1       3.100  -1.252  -0.241  1.00  0.00    -0.312 N 
HETATM   17  C12 UNL     1       3.006  -2.600   0.342  1.00  0.00     0.160 C 
BRANCH  16  18
HETATM   18  C13 UNL     1       4.324  -0.589  -0.056  1.00  0.00     0.037 A 
HETATM   19  C14 UNL     1       4.641   0.673  -0.509  1.00  0.00     0.029 A 
HETATM   20  C15 UNL     1       5.846   1.314  -0.322  1.00  0.00     0.002 A 
HETATM   21  C16 UNL     1       6.839   0.662   0.375  1.00  0.00     0.000 A 
HETATM   22  C17 UNL     1       6.588  -0.600   0.854  1.00  0.00     0.002 A 
HETATM   23  C18 UNL     1       5.361  -1.182   0.631  1.00  0.00     0.029 A 
ENDBRANCH  16  18
ENDBRANCH  13  14
ENDBRANCH  12  13
ENDBRANCH   9  12
BRANCH   1  24
HETATM   24  O1  UNL     1      -4.178  -1.968   1.128  1.00  0.00    -0.381 OA
HETATM   25  C1  UNL     1      -5.076  -2.992   0.790  1.00  0.00     0.202 C 
ENDBRANCH   1  24
TORSDOF 5
