REMARK  0 active torsions:
REMARK  status: ('A' for Active; 'I' for Inactive)
ROOT
HETATM    1  C1  UNL     1       3.212   1.476  -2.284  1.00  0.00     0.150 C 
HETATM    2  N1  UNL     1       3.301   0.346  -1.340  1.00  0.00    -0.379 N 
HETATM    3  C2  UNL     1       3.958  -0.868  -0.765  1.00  0.00     0.136 C 
HETATM    4  C3  UNL     1       3.051  -1.159   0.414  1.00  0.00     0.058 C 
HETATM    5  C4  UNL     1       3.451  -0.755   1.734  1.00  0.00    -0.015 C 
HETATM    6  C5  UNL     1       3.071   0.134   2.744  1.00  0.00     0.004 C 
HETATM    7  C6  UNL     1       2.067   1.260   2.472  1.00  0.00     0.052 C 
HETATM    8  S1  UNL     1       1.573   1.560   0.833  1.00  0.00    -0.082 SA
HETATM    9  S2  UNL     1      -0.385   2.136   1.494  1.00  0.00    -0.071 SA
HETATM   10  C7  UNL     1      -1.395   0.639   1.267  1.00  0.00     0.165 A 
HETATM   11  C8  UNL     1      -0.983  -0.164   0.049  1.00  0.00     0.055 A 
HETATM   12  C9  UNL     1      -0.633  -1.575   0.364  1.00  0.00     0.016 C 
HETATM   13  C10 UNL     1       0.672  -2.072  -0.201  1.00  0.00     0.038 C 
HETATM   14  C11 UNL     1       1.720  -0.985  -0.164  1.00  0.00    -0.037 C 
HETATM   15  C12 UNL     1       2.254   0.258  -0.361  1.00  0.00     0.074 C 
HETATM   16  C13 UNL     1      -2.211  -0.092  -0.820  1.00  0.00    -0.025 A 
HETATM   17  C14 UNL     1      -2.288  -0.635  -2.108  1.00  0.00     0.010 A 
HETATM   18  C15 UNL     1      -3.490  -0.475  -2.757  1.00  0.00     0.001 A 
HETATM   19  C16 UNL     1      -4.570   0.169  -2.211  1.00  0.00     0.002 A 
HETATM   20  C17 UNL     1      -4.446   0.687  -0.937  1.00  0.00     0.030 A 
HETATM   21  C18 UNL     1      -3.266   0.558  -0.238  1.00  0.00     0.037 A 
HETATM   22  N2  UNL     1      -2.777   0.942   1.038  1.00  0.00    -0.370 N 
HETATM   23  C19 UNL     1      -3.638   1.598   2.033  1.00  0.00     0.151 C 
ENDROOT
TORSDOF 0
