REMARK  8 active torsions:
REMARK  status: ('A' for Active; 'I' for Inactive)
REMARK    1  A    between atoms: C4_4  and  C5_5 
REMARK    2  A    between atoms: C5_5  and  C6_6 
REMARK    3  A    between atoms: C6_6  and  C7_7 
REMARK    4  A    between atoms: C7_7  and  O2_9 
REMARK    5  A    between atoms: C10_15  and  C11_16 
REMARK    6  A    between atoms: C11_16  and  C12_17 
REMARK    7  A    between atoms: C12_17  and  C13_18 
REMARK    8  A    between atoms: C13_18  and  O4_20 
ROOT
HETATM    1  C1  UNL     1      -2.563  -2.165   1.864  1.00  0.00     0.040 C 
HETATM    2  C2  UNL     1      -1.824  -0.914   1.368  1.00  0.00     0.047 C 
HETATM    3  C3  UNL     1      -1.959  -0.903  -0.111  1.00  0.00     0.069 C 
HETATM    4  C4  UNL     1      -2.153   0.576  -0.375  1.00  0.00    -0.043 C 
HETATM    5  C8  UNL     1      -1.991   1.184   0.808  1.00  0.00     0.080 C 
HETATM    6  N1  UNL     1      -2.548   0.293   1.803  1.00  0.00    -0.373 N 
HETATM    7  S1  UNL     1      -1.158   2.795   0.621  1.00  0.00    -0.033 SA
HETATM    8  S2  UNL     1       0.866   2.415   1.247  1.00  0.00    -0.032 SA
HETATM    9  C9  UNL     1       1.211   0.716   0.724  1.00  0.00     0.091 A 
HETATM   10  C10 UNL     1       2.224   0.502  -0.176  1.00  0.00    -0.011 A 
HETATM   11  C14 UNL     1       2.241  -0.859  -0.380  1.00  0.00    -0.000 A 
HETATM   12  C15 UNL     1       3.110  -1.518  -1.224  1.00  0.00     0.014 A 
HETATM   13  C16 UNL     1       2.954  -2.899  -1.286  1.00  0.00     0.001 A 
HETATM   14  C17 UNL     1       1.983  -3.526  -0.539  1.00  0.00     0.002 A 
HETATM   15  C18 UNL     1       1.152  -2.776   0.287  1.00  0.00     0.030 A 
HETATM   16  C19 UNL     1       1.244  -1.402   0.404  1.00  0.00     0.046 A 
HETATM   17  N2  UNL     1       0.600  -0.436   1.091  1.00  0.00    -0.337 N 
HETATM   18  C20 UNL     1      -0.455  -0.961   1.933  1.00  0.00     0.161 C 
HETATM   19  H11 UNL     1      -3.217   0.251   2.633  1.00  0.00     0.161 HD
ENDROOT
BRANCH   4  20
HETATM   20  C5  UNL     1      -2.471   1.200  -1.724  1.00  0.00     0.047 C 
BRANCH  20  21
HETATM   21  C6  UNL     1      -3.782   0.497  -2.117  1.00  0.00     0.114 C 
BRANCH  21  22
HETATM   22  C7  UNL     1      -4.818   0.779  -1.108  1.00  0.00     0.139 C 
HETATM   23  O1  UNL     1      -5.010   2.028  -0.917  1.00  0.00    -0.650 OA
BRANCH  22  24
HETATM   24  O2  UNL     1      -5.805   0.643  -0.144  1.00  0.00    -0.776 OA
HETATM   25  H10 UNL     1      -5.521   0.368   0.812  1.00  0.00     0.167 HD
ENDBRANCH  22  24
ENDBRANCH  21  22
ENDBRANCH  20  21
ENDBRANCH   4  20
BRANCH  10  26
HETATM   26  C11 UNL     1       3.046   1.627  -0.724  1.00  0.00     0.053 C 
BRANCH  26  27
HETATM   27  C12 UNL     1       3.993   2.024   0.385  1.00  0.00     0.115 C 
BRANCH  27  28
HETATM   28  C13 UNL     1       4.878   3.142  -0.013  1.00  0.00     0.139 C 
HETATM   29  O3  UNL     1       5.728   3.577   0.835  1.00  0.00    -0.650 OA
BRANCH  28  30
HETATM   30  O4  UNL     1       5.318   4.073  -0.937  1.00  0.00    -0.776 OA
HETATM   31  H16 UNL     1       5.955   3.784  -1.691  1.00  0.00     0.167 HD
ENDBRANCH  28  30
ENDBRANCH  27  28
ENDBRANCH  26  27
ENDBRANCH  10  26
TORSDOF 8
