REMARK  7 active torsions:
REMARK  status: ('A' for Active; 'I' for Inactive)
REMARK    1  A    between atoms: C1_2  and  O2_3 
REMARK    2  A    between atoms: C1_2  and  C2_4 
REMARK    3  A    between atoms: C2_4  and  C3_5 
REMARK    4  A    between atoms: C3_5  and  C4_6 
REMARK    5  A    between atoms: C5_7  and  S1_8 
REMARK    6  A    between atoms: S1_8  and  S2_9 
REMARK    7  A    between atoms: S2_9  and  C6_10 
ROOT
HETATM    1  C4  UNL     1       0.104   0.158  -0.227  1.00  0.00    -0.001 C 
HETATM    2  C5  UNL     1      -0.964  -0.376  -0.770  1.00  0.00     0.157 C 
HETATM    3  O3  UNL     1      -2.107   0.122  -1.371  1.00  0.00    -0.187 OA
HETATM    4  N1  UNL     1      -2.559   1.429  -1.448  1.00  0.00    -0.017 NA
HETATM    5  N2  UNL     1      -1.945   2.481  -1.106  1.00  0.00    -0.125 NA
HETATM    6  C7  UNL     1      -0.626   2.643  -0.548  1.00  0.00     0.092 A 
HETATM    7  C8  UNL     1      -0.368   3.984  -0.444  1.00  0.00     0.034 A 
HETATM    8  C9  UNL     1       0.842   4.394   0.067  1.00  0.00     0.002 A 
HETATM    9  C10 UNL     1       1.727   3.431   0.447  1.00  0.00     0.001 A 
HETATM   10  C11 UNL     1       1.405   2.118   0.316  1.00  0.00     0.014 A 
HETATM   11  C12 UNL     1       0.223   1.615  -0.184  1.00  0.00     0.004 A 
ENDROOT
BRANCH   1  12
HETATM   12  C3  UNL     1       1.244  -0.487   0.375  1.00  0.00     0.053 C 
BRANCH  12  13
HETATM   13  C2  UNL     1       1.297  -1.993   0.416  1.00  0.00     0.115 C 
BRANCH  13  14
HETATM   14  C1  UNL     1       2.603  -2.375   1.127  1.00  0.00     0.139 C 
HETATM   15  O1  UNL     1       3.389  -1.465   1.546  1.00  0.00    -0.650 OA
BRANCH  14  16
HETATM   16  O2  UNL     1       2.890  -3.718   1.292  1.00  0.00    -0.776 OA
HETATM   17  H1  UNL     1       3.877  -3.974   1.444  1.00  0.00     0.167 HD
ENDBRANCH  14  16
ENDBRANCH  13  14
ENDBRANCH  12  13
ENDBRANCH   1  12
BRANCH   2  18
HETATM   18  S1  UNL     1      -1.026  -2.151  -0.769  1.00  0.00    -0.027 SA
BRANCH  18  19
HETATM   19  S2  UNL     1      -2.762  -2.934  -1.605  1.00  0.00    -0.059 SA
BRANCH  19  20
HETATM   20  C6  UNL     1      -4.097  -3.179  -0.406  1.00  0.00     0.308 C 
HETATM   21  F1  UNL     1      -5.161  -3.687  -1.090  1.00  0.00    -0.244 F 
ENDBRANCH  19  20
ENDBRANCH  18  19
ENDBRANCH   2  18
TORSDOF 7
