REMARK  8 active torsions:
REMARK  status: ('A' for Active; 'I' for Inactive)
REMARK    1  A    between atoms: C2_2  and  C3_3 
REMARK    2  A    between atoms: C2_2  and  C4_6 
REMARK    3  A    between atoms: C3_3  and  O2_5 
REMARK    4  A    between atoms: S1_8  and  C6_9 
REMARK    5  A    between atoms: C7_10  and  C8_11 
REMARK    6  A    between atoms: C8_11  and  C9_12 
REMARK    7  A    between atoms: C9_12  and  C10_13 
REMARK    8  A    between atoms: C10_13  and  O4_15 
ROOT
HETATM    1  C4  UNL     1      -2.624  -0.289  -0.655  1.00  0.00     0.046 C 
HETATM    2  C5  UNL     1      -1.205   0.202  -0.818  1.00  0.00     0.030 C 
HETATM    3  S1  UNL     1       0.183  -0.486  -0.360  1.00  0.00    -0.106 SA
HETATM    4  S2  UNL     1       0.263  -2.396  -1.231  1.00  0.00    -0.080 SA
HETATM    5  C14 UNL     1      -1.299  -2.825  -2.055  1.00  0.00     0.200 C 
HETATM    6  N1  UNL     1      -2.451  -2.677  -1.265  1.00  0.00    -0.412 N 
HETATM    7  C15 UNL     1      -2.533  -1.720  -0.258  1.00  0.00     0.124 C 
HETATM    8  H19 UNL     1      -3.146  -3.413  -1.350  1.00  0.00     0.154 HD
ENDROOT
BRANCH   3   9
HETATM    9  C6  UNL     1       1.543   0.541  -0.811  1.00  0.00    -0.008 A 
HETATM   10  C7  UNL     1       2.472   1.088  -0.013  1.00  0.00    -0.045 A 
HETATM   11  C11 UNL     1       3.308   1.822  -0.931  1.00  0.00     0.004 A 
HETATM   12  C12 UNL     1       2.932   1.738  -2.196  1.00  0.00    -0.021 A 
HETATM   13  C13 UNL     1       1.724   0.879  -2.257  1.00  0.00     0.074 A 
BRANCH  10  14
HETATM   14  C8  UNL     1       2.485   0.896   1.435  1.00  0.00     0.050 C 
BRANCH  14  15
HETATM   15  C9  UNL     1       3.692   0.180   1.977  1.00  0.00     0.114 C 
BRANCH  15  16
HETATM   16  C10 UNL     1       4.981   0.852   1.706  1.00  0.00     0.139 C 
HETATM   17  O3  UNL     1       5.748   0.686   0.725  1.00  0.00    -0.650 OA
BRANCH  16  18
HETATM   18  O4  UNL     1       5.534   1.806   2.555  1.00  0.00    -0.776 OA
HETATM   19  H12 UNL     1       6.526   1.824   2.780  1.00  0.00     0.167 HD
ENDBRANCH  16  18
ENDBRANCH  15  16
ENDBRANCH  14  15
ENDBRANCH  10  14
ENDBRANCH   3   9
BRANCH   1  20
HETATM   20  C2  UNL     1      -3.279   0.554   0.416  1.00  0.00     0.089 C 
HETATM   21  C1  UNL     1      -2.557   0.439   1.757  1.00  0.00     0.022 C 
BRANCH  20  22
HETATM   22  C3  UNL     1      -4.722   0.264   0.595  1.00  0.00     0.144 C 
HETATM   23  O1  UNL     1      -5.576   1.139   0.291  1.00  0.00    -0.650 OA
BRANCH  22  24
HETATM   24  O2  UNL     1      -5.319  -0.887   1.074  1.00  0.00    -0.776 OA
HETATM   25  H5  UNL     1      -6.129  -1.326   0.618  1.00  0.00     0.167 HD
ENDBRANCH  22  24
ENDBRANCH  20  22
ENDBRANCH   1  20
TORSDOF 8
