REMARK  7 active torsions:
REMARK  status: ('A' for Active; 'I' for Inactive)
REMARK    1  A    between atoms: C2_2  and  N1_3 
REMARK    2  A    between atoms: N1_3  and  O1_4 
REMARK    3  A    between atoms: N1_3  and  C3_5 
REMARK    4  A    between atoms: C3_5  and  C5_7 
REMARK    5  A    between atoms: C5_7  and  C6_8 
REMARK    6  A    between atoms: C6_8  and  C7_9 
REMARK    7  A    between atoms: N5_19  and  C14_20 
ROOT
HETATM    1  C7  UNL     1       0.588   0.764  -0.588  1.00  0.00     0.057 C 
HETATM    2  C8  UNL     1       0.739   1.446   0.723  1.00  0.00     0.084 C 
HETATM    3  C9  UNL     1      -0.518   2.088   1.211  1.00  0.00     0.125 C 
HETATM    4  N2  UNL     1      -1.430   1.140   1.857  1.00  0.00    -0.396 N 
HETATM    5  C10 UNL     1      -2.370   0.249   1.277  1.00  0.00     0.119 C 
HETATM    6  C11 UNL     1      -2.478  -0.352   0.106  1.00  0.00     0.127 A 
HETATM    7  C12 UNL     1      -1.663  -0.352  -1.097  1.00  0.00     0.201 A 
HETATM    8  N3  UNL     1      -1.937  -1.009  -2.174  1.00  0.00    -0.214 NA
HETATM    9  C13 UNL     1      -3.150  -1.793  -2.148  1.00  0.00     0.258 A 
HETATM   10  N4  UNL     1      -3.922  -1.828  -1.089  1.00  0.00    -0.160 NA
HETATM   11  N5  UNL     1      -3.643  -1.127   0.080  1.00  0.00    -0.227 N 
HETATM   12  O2  UNL     1      -0.445   0.308  -1.406  1.00  0.00    -0.294 OA
HETATM   13  H14 UNL     1      -1.437   1.062   2.915  1.00  0.00     0.158 HD
ENDROOT
BRANCH   1  14
HETATM   14  C6  UNL     1       1.807   0.590  -0.998  1.00  0.00     0.035 C 
BRANCH  14  15
HETATM   15  C5  UNL     1       3.180   0.469  -1.315  1.00  0.00     0.029 C 
BRANCH  15  16
HETATM   16  C3  UNL     1       4.417   0.327  -1.665  1.00  0.00     0.036 C 
HETATM   17  C4  UNL     1       4.756  -0.330  -2.974  1.00  0.00     0.071 C 
BRANCH  16  18
HETATM   18  N1  UNL     1       5.567   0.715  -0.975  1.00  0.00    -0.241 N 
BRANCH  18  19
HETATM   19  C2  UNL     1       6.572   1.467  -1.650  1.00  0.00     0.113 C 
HETATM   20  C1  UNL     1       7.544   0.565  -1.662  1.00  0.00     0.032 C 
ENDBRANCH  18  19
BRANCH  18  21
HETATM   21  O1  UNL     1       5.651   0.342   0.319  1.00  0.00    -0.283 OA
HETATM   22  H4  UNL     1       5.635  -0.640   0.421  1.00  0.00     0.245 HD
ENDBRANCH  18  21
ENDBRANCH  16  18
ENDBRANCH  15  16
ENDBRANCH  14  15
ENDBRANCH   1  14
BRANCH  11  23
HETATM   23  C14 UNL     1      -4.498  -1.171   1.225  1.00  0.00     0.060 A 
HETATM   24  C15 UNL     1      -4.357  -2.113   2.256  1.00  0.00     0.032 A 
HETATM   25  C16 UNL     1      -5.272  -2.017   3.273  1.00  0.00     0.004 A 
HETATM   26  C17 UNL     1      -6.294  -1.108   3.380  1.00  0.00     0.019 A 
HETATM   27  C18 UNL     1      -6.354  -0.226   2.323  1.00  0.00     0.013 A 
HETATM   28 BR1  UNL     1      -7.738   1.110   2.338  1.00  0.00    -0.051 Br
HETATM   29  C19 UNL     1      -5.496  -0.202   1.226  1.00  0.00     0.050 A 
ENDBRANCH  11  23
TORSDOF 7
