REMARK  3 active torsions:
REMARK  status: ('A' for Active; 'I' for Inactive)
REMARK    1  A    between atoms: N1_2  and  C2_3 
REMARK    2  A    between atoms: C8_10  and  N3_11 
REMARK    3  A    between atoms: N3_11  and  C9_12 
ROOT
HETATM    1  C2  UNL     1      -3.689  -0.471  -0.706  1.00  0.00     0.053 C 
HETATM    2  C3  UNL     1      -3.136  -1.435   0.011  1.00  0.00     0.081 C 
HETATM    3  C4  UNL     1      -3.330  -1.351   1.553  1.00  0.00     0.087 C 
HETATM    4  C5  UNL     1      -2.136  -0.338   1.885  1.00  0.00     0.130 C 
HETATM    5  N2  UNL     1      -1.512  -0.229   0.471  1.00  0.00    -0.368 N 
HETATM    6  C6  UNL     1      -2.581   0.523  -0.295  1.00  0.00     0.182 C 
HETATM    7  C7  UNL     1      -0.297  -0.854  -0.073  1.00  0.00     0.131 A 
HETATM    8  C8  UNL     1       1.035  -0.610  -0.202  1.00  0.00     0.158 A 
HETATM    9  N4  UNL     1       1.742  -1.555  -0.792  1.00  0.00    -0.222 NA
HETATM   10  C15 UNL     1       1.191  -2.696  -1.244  1.00  0.00     0.238 A 
HETATM   11  N5  UNL     1      -0.128  -3.053  -1.174  1.00  0.00    -0.215 NA
HETATM   12  C16 UNL     1      -0.899  -2.104  -0.570  1.00  0.00     0.202 A 
HETATM   13  O2  UNL     1      -2.327  -2.572  -0.537  1.00  0.00    -0.292 OA
ENDROOT
BRANCH   8  14
HETATM   14  N3  UNL     1       1.212   0.633   0.363  1.00  0.00    -0.343 N 
HETATM   15  H11 UNL     1       0.616   1.345   0.815  1.00  0.00     0.164 HD
BRANCH  14  16
HETATM   16  C9  UNL     1       2.589   0.913   0.244  1.00  0.00     0.246 C 
HETATM   17  C10 UNL     1       3.445  -0.104   0.954  1.00  0.00     0.027 C 
HETATM   18  C11 UNL     1       4.770  -0.105   0.881  1.00  0.00     0.019 C 
HETATM   19  C12 UNL     1       5.687   0.787   0.165  1.00  0.00     0.009 C 
HETATM   20 BR1  UNL     1       7.532   0.724   0.573  1.00  0.00    -0.051 Br
HETATM   21  C13 UNL     1       5.324   1.663  -0.773  1.00  0.00     0.018 C 
HETATM   22  C14 UNL     1       3.975   1.948  -1.308  1.00  0.00     0.199 C 
HETATM   23  O1  UNL     1       3.065   0.949  -1.060  1.00  0.00    -0.360 OA
ENDBRANCH  14  16
ENDBRANCH   8  14
BRANCH   1  24
HETATM   24  N1  UNL     1      -4.626   0.168  -1.584  1.00  0.00    -0.394 N 
HETATM   25  C1  UNL     1      -5.623   1.090  -1.009  1.00  0.00     0.146 C 
HETATM   26  H4  UNL     1      -4.562  -0.050  -2.605  1.00  0.00     0.159 HD
ENDBRANCH   1  24
TORSDOF 3
