REMARK  7 active torsions:
REMARK  status: ('A' for Active; 'I' for Inactive)
REMARK    1  A    between atoms: C2_2  and  C3_3 
REMARK    2  A    between atoms: C3_3  and  N1_4 
REMARK    3  A    between atoms: C11_15  and  C12_16 
REMARK    4  A    between atoms: C12_16  and  C13_17 
REMARK    5  A    between atoms: C13_17  and  C14_18 
REMARK    6  A    between atoms: C14_18  and  O3_19 
REMARK    7  A    between atoms: C17_22  and  O4_23 
ROOT
HETATM    1  N1  UNL     1      -3.257   0.336   0.082  1.00  0.00    -0.403 N 
HETATM    2  C4  UNL     1      -3.846  -0.715  -0.586  1.00  0.00     0.127 C 
HETATM    3  C5  UNL     1      -3.580  -2.065   0.017  1.00  0.00     0.132 C 
HETATM    4  C6  UNL     1      -2.251  -2.637  -0.428  1.00  0.00     0.277 C 
HETATM    5  O1  UNL     1      -1.566  -3.531   0.097  1.00  0.00    -0.264 OA
HETATM    6  O2  UNL     1      -1.641  -2.178  -1.558  1.00  0.00    -0.227 OA
HETATM    7  N2  UNL     1      -0.542  -2.472  -2.213  1.00  0.00    -0.192 NA
HETATM    8  C7  UNL     1       0.587  -2.903  -1.524  1.00  0.00     0.159 C 
HETATM    9  C8  UNL     1       1.190  -1.840  -0.694  1.00  0.00    -0.009 C 
HETATM   10  C9  UNL     1       1.697  -0.910  -1.540  1.00  0.00     0.011 C 
HETATM   11  C10 UNL     1       2.540   0.228  -1.109  1.00  0.00     0.004 C 
HETATM   12  C11 UNL     1       2.926   0.512   0.135  1.00  0.00    -0.075 C 
HETATM   13  C15 UNL     1       2.257   0.282   1.437  1.00  0.00     0.083 C 
HETATM   14  C16 UNL     1       1.101  -0.609   1.389  1.00  0.00     0.027 C 
HETATM   15  C17 UNL     1       1.263  -1.773   0.782  1.00  0.00     0.087 C 
HETATM   16  S1  UNL     1      -0.465  -0.139   2.081  1.00  0.00    -0.058 SA
HETATM   17  S2  UNL     1      -1.152   1.585   1.062  1.00  0.00    -0.073 SA
HETATM   18  C18 UNL     1      -2.158   1.068  -0.379  1.00  0.00     0.204 C 
HETATM   19  H12 UNL     1      -0.315  -1.740  -2.916  1.00  0.00     0.154 HD
ENDROOT
BRANCH  12  20
HETATM   20  C12 UNL     1       4.239   1.197   0.396  1.00  0.00     0.036 C 
BRANCH  20  21
HETATM   21  C13 UNL     1       4.972   1.506  -0.870  1.00  0.00     0.030 C 
BRANCH  21  22
HETATM   22  C14 UNL     1       6.317   2.172  -0.655  1.00  0.00     0.164 C 
BRANCH  22  23
HETATM   23  O3  UNL     1       7.158   1.358   0.093  1.00  0.00    -0.401 OA
HETATM   24  H23 UNL     1       6.754   0.484   0.331  1.00  0.00     0.209 HD
ENDBRANCH  22  23
ENDBRANCH  21  22
ENDBRANCH  20  21
ENDBRANCH  12  20
BRANCH  15  25
HETATM   25  O4  UNL     1       1.505  -3.074   1.282  1.00  0.00    -0.359 OA
HETATM   26  H26 UNL     1       2.267  -3.625   0.910  1.00  0.00     0.217 HD
ENDBRANCH  15  25
BRANCH   1  27
HETATM   27  C3  UNL     1      -3.825   0.767   1.325  1.00  0.00     0.117 C 
BRANCH  27  28
HETATM   28  C2  UNL     1      -5.175   1.426   1.159  1.00  0.00     0.015 C 
HETATM   29  C1  UNL     1      -5.098   2.657   0.252  1.00  0.00     0.006 C 
ENDBRANCH  27  28
ENDBRANCH   1  27
TORSDOF 7
