REMARK  5 active torsions:
REMARK  status: ('A' for Active; 'I' for Inactive)
REMARK    1  A    between atoms: C3_4  and  C4_5 
REMARK    2  A    between atoms: C8_11  and  N3_12 
REMARK    3  A    between atoms: N3_12  and  C9_13 
REMARK    4  A    between atoms: C14_18  and  C15_19 
REMARK       I    between atoms: C15_19  and  N4_21 
REMARK    5  A    between atoms: N4_21  and  O2_22 
ROOT
HETATM    1  C4  UNL     1       1.276   0.100   0.080  1.00  0.00    -0.003 A 
HETATM    2  C5  UNL     1       1.066  -1.112  -0.412  1.00  0.00     0.019 A 
HETATM    3  C6  UNL     1      -0.173  -1.505  -0.395  1.00  0.00     0.084 A 
HETATM    4  N1  UNL     1      -0.727  -2.668  -0.814  1.00  0.00    -0.240 NA
HETATM    5  C7  UNL     1      -2.074  -2.760  -0.652  1.00  0.00     0.236 A 
HETATM    6  N2  UNL     1      -2.863  -1.789  -0.113  1.00  0.00    -0.224 NA
HETATM    7  C8  UNL     1      -2.287  -0.645   0.294  1.00  0.00     0.141 A 
HETATM    8  C12 UNL     1      -0.935  -0.496   0.155  1.00  0.00     0.041 A 
HETATM    9  C13 UNL     1      -0.098   0.482   0.452  1.00  0.00     0.031 A 
ENDROOT
BRANCH   1  10
HETATM   10  C3  UNL     1       2.548   0.848   0.212  1.00  0.00     0.034 A 
HETATM   11  S1  UNL     1       2.789   2.484   0.883  1.00  0.00    -0.088 SA
HETATM   12  C2  UNL     1       4.287   1.713   0.324  1.00  0.00     0.013 A 
HETATM   13  C1  UNL     1       5.363   2.451   0.482  1.00  0.00     0.032 C 
HETATM   14  C14 UNL     1       3.758   0.460  -0.137  1.00  0.00     0.068 A 
BRANCH  14  15
HETATM   15  C15 UNL     1       4.401  -0.691  -0.731  1.00  0.00     0.277 C 
HETATM   16  O1  UNL     1       3.694  -1.671  -1.048  1.00  0.00    -0.265 OA
HETATM   17  N4  UNL     1       5.777  -0.782  -0.977  1.00  0.00    -0.233 N 
HETATM   18  H11 UNL     1       6.413  -0.007  -0.738  1.00  0.00     0.197 HD
BRANCH  17  19
HETATM   19  O2  UNL     1       6.208  -1.933  -1.540  1.00  0.00    -0.287 OA
HETATM   20  H12 UNL     1       6.140  -2.674  -0.888  1.00  0.00     0.244 HD
ENDBRANCH  17  19
ENDBRANCH  14  15
ENDBRANCH   1  10
BRANCH   7  21
HETATM   21  N3  UNL     1      -3.067   0.393   0.860  1.00  0.00    -0.350 N 
HETATM   22  H4  UNL     1      -2.619   1.278   1.175  1.00  0.00     0.166 HD
BRANCH  21  23
HETATM   23  C9  UNL     1      -4.473   0.274   1.020  1.00  0.00     0.085 C 
HETATM   24  C10 UNL     1      -5.210   0.742   0.013  1.00  0.00    -0.014 C 
HETATM   25  C11 UNL     1      -6.696   0.755  -0.104  1.00  0.00     0.037 C 
ENDBRANCH  21  23
ENDBRANCH   7  21
TORSDOF 5
