REMARK  5 active torsions:
REMARK  status: ('A' for Active; 'I' for Inactive)
REMARK    1  A    between atoms: S1_2  and  C2_5 
REMARK    2  A    between atoms: C2_5  and  C3_6 
REMARK    3  A    between atoms: C3_6  and  N1_7 
REMARK    4  A    between atoms: N1_7  and  C4_8 
REMARK    5  A    between atoms: N4_24  and  C17_25 
ROOT
HETATM    1  C17 UNL     1      -0.595   3.049  -0.696  1.00  0.00     0.117 C 
HETATM    2  C18 UNL     1      -1.357   4.021  -1.228  1.00  0.00     0.418 C 
HETATM    3  F1  UNL     1      -2.078   5.087  -1.602  1.00  0.00    -0.429 F 
ENDROOT
BRANCH   1   4
HETATM    4  N4  UNL     1      -0.350   1.815  -1.348  1.00  0.00    -0.351 N 
HETATM    5  C16 UNL     1      -1.428   1.240  -0.852  1.00  0.00     0.116 C 
HETATM    6  C9  UNL     1      -1.456  -0.005  -1.735  1.00  0.00     0.044 A 
HETATM    7  N3  UNL     1      -2.504   1.290   0.086  1.00  0.00    -0.228 NA
HETATM    8  C8  UNL     1      -1.275  -1.016  -0.912  1.00  0.00     0.015 A 
HETATM    9  C10 UNL     1      -1.772  -1.603  -1.915  1.00  0.00     0.062 A 
HETATM   10  C7  UNL     1      -1.818  -1.071  -2.262  1.00  0.00     0.029 A 
HETATM   11  C5  UNL     1      -0.698  -0.456   0.321  1.00  0.00    -0.047 A 
HETATM   12  C6  UNL     1      -1.440  -1.826  -0.980  1.00  0.00    -0.008 A 
HETATM   13  O3  UNL     1      -0.886  -1.844   0.425  1.00  0.00     0.000 OA
HETATM   14  C4  UNL     1      -0.158   0.203   1.402  1.00  0.00     0.149 C 
HETATM   15  C11 UNL     1      -1.867  -2.984  -1.608  1.00  0.00    -0.018 A 
HETATM   16  C12 UNL     1      -1.899  -3.802  -0.477  1.00  0.00    -0.019 C 
HETATM   17  C13 UNL     1      -3.019  -3.418   0.371  1.00  0.00     0.016 C 
HETATM   18  C14 UNL     1      -3.600  -2.179   0.541  1.00  0.00     0.117 C 
HETATM   19  N2  UNL     1      -3.802  -0.890   0.781  1.00  0.00    -0.254 NA
HETATM   20  C15 UNL     1      -3.355   0.246   0.233  1.00  0.00     0.234 C 
HETATM   21  H17 UNL     1       0.460   2.182  -1.748  1.00  0.00     0.166 HD
BRANCH  14  22
HETATM   22  N1  UNL     1       1.259   0.028   1.318  1.00  0.00    -0.417 N 
HETATM   23  H8  UNL     1       1.494  -0.938   1.674  1.00  0.00     0.153 HD
BRANCH  22  24
HETATM   24  C3  UNL     1       1.996   0.413   0.208  1.00  0.00     0.129 C 
BRANCH  24  25
HETATM   25  C2  UNL     1       3.468   0.099   0.473  1.00  0.00     0.159 C 
BRANCH  25  26
HETATM   26  S1  UNL     1       4.101   0.984   1.874  1.00  0.00     0.142 S 
HETATM   27  C1  UNL     1       5.819   0.541   2.067  1.00  0.00     0.161 C 
HETATM   28  O1  UNL     1       3.340   0.584   3.112  1.00  0.00    -0.228 OA
HETATM   29  O2  UNL     1       3.956   2.470   1.709  1.00  0.00    -0.228 OA
ENDBRANCH  25  26
ENDBRANCH  24  25
ENDBRANCH  22  24
ENDBRANCH  14  22
ENDBRANCH   1   4
TORSDOF 5
