REMARK  9 active torsions:
REMARK  status: ('A' for Active; 'I' for Inactive)
REMARK    1  A    between atoms: N1_2  and  C2_3 
REMARK    2  A    between atoms: N3_7  and  C5_8 
REMARK    3  A    between atoms: C11_15  and  C12_16 
REMARK    4  A    between atoms: C12_16  and  C13_17 
REMARK    5  A    between atoms: C13_17  and  N4_18 
REMARK    6  A    between atoms: N4_18  and  C14_19 
REMARK    7  A    between atoms: C14_19  and  C15_20 
REMARK    8  A    between atoms: C15_20  and  N5_21 
REMARK       I    between atoms: N5_21  and  C16_22 
REMARK    9  A    between atoms: C16_22  and  C17_24 
ROOT
HETATM    1  C2  UNL     1      -2.184  -2.305   0.633  1.00  0.00     0.072 A 
HETATM    2  C3  UNL     1      -3.011  -3.135   1.226  1.00  0.00     0.149 A 
HETATM    3  N2  UNL     1      -4.259  -2.530   1.478  1.00  0.00    -0.253 NA
HETATM    4  C4  UNL     1      -4.597  -1.329   1.187  1.00  0.00     0.214 A 
HETATM    5  N3  UNL     1      -3.675  -0.465   0.545  1.00  0.00    -0.304 N 
HETATM    6  C11 UNL     1      -2.376  -0.931   0.227  1.00  0.00     0.066 A 
ENDROOT
BRANCH   6   7
HETATM    7  C12 UNL     1      -1.419  -0.273  -0.335  1.00  0.00     0.035 C 
BRANCH   7   8
HETATM    8  C13 UNL     1      -0.132   0.073  -0.902  1.00  0.00     0.299 C 
BRANCH   8   9
HETATM    9  N4  UNL     1       0.911  -0.933  -0.771  1.00  0.00     0.088 N 
HETATM   10  H14 UNL     1       1.682  -0.748  -1.440  1.00  0.00     0.316 HD
BRANCH   9  11
HETATM   11  C14 UNL     1       1.435  -1.034   0.554  1.00  0.00     0.289 C 
BRANCH  11  12
HETATM   12  C15 UNL     1       2.285   0.186   0.898  1.00  0.00     0.153 C 
BRANCH  12  13
HETATM   13  N5  UNL     1       3.409   0.283   0.001  1.00  0.00    -0.354 N 
HETATM   14  C16 UNL     1       4.423   1.312   0.018  1.00  0.00     0.275 C 
HETATM   15  O1  UNL     1       4.273   2.179   0.897  1.00  0.00    -0.265 OA
HETATM   16  H19 UNL     1       3.549  -0.448  -0.752  1.00  0.00     0.162 HD
BRANCH  14  17
HETATM   17  C17 UNL     1       5.511   1.268  -0.957  1.00  0.00     0.142 A 
HETATM   18  C18 UNL     1       5.787   0.365  -1.945  1.00  0.00     0.045 A 
HETATM   19  C19 UNL     1       6.948   0.787  -2.595  1.00  0.00     0.027 A 
HETATM   20  C20 UNL     1       7.313   1.959  -1.936  1.00  0.00     0.143 A 
HETATM   21  O2  UNL     1       6.436   2.185  -0.992  1.00  0.00    -0.317 OA
ENDBRANCH  14  17
ENDBRANCH  12  13
ENDBRANCH  11  12
ENDBRANCH   9  11
ENDBRANCH   8   9
ENDBRANCH   7   8
ENDBRANCH   6   7
BRANCH   1  22
HETATM   22  N1  UNL     1      -1.035  -3.120   0.485  1.00  0.00    -0.391 N 
HETATM   23  C1  UNL     1      -0.323  -3.843   1.524  1.00  0.00     0.146 C 
HETATM   24  H4  UNL     1      -0.734  -3.155  -0.510  1.00  0.00     0.159 HD
ENDBRANCH   1  22
BRANCH   5  25
HETATM   25  C5  UNL     1      -4.008   0.895   0.207  1.00  0.00     0.042 A 
HETATM   26  C6  UNL     1      -4.550   1.386  -0.953  1.00  0.00     0.030 A 
HETATM   27  C7  UNL     1      -4.811   2.712  -1.107  1.00  0.00     0.004 A 
HETATM   28  C8  UNL     1      -4.509   3.563  -0.044  1.00  0.00     0.019 A 
HETATM   29  C9  UNL     1      -3.962   3.078   1.133  1.00  0.00     0.013 A 
HETATM   30 BR1  UNL     1      -3.588   4.324   2.527  1.00  0.00    -0.051 Br
HETATM   31  C10 UNL     1      -3.697   1.707   1.279  1.00  0.00     0.049 A 
ENDBRANCH   5  25
TORSDOF 9
