REMARK  6 active torsions:
REMARK  status: ('A' for Active; 'I' for Inactive)
REMARK    1  A    between atoms: N1_1  and  C1_2 
REMARK    2  A    between atoms: C3_4  and  C4_5 
REMARK    3  A    between atoms: C5_7  and  C6_8 
REMARK    4  A    between atoms: C14_16  and  O2_17 
REMARK    5  A    between atoms: O2_17  and  C15_18 
REMARK    6  A    between atoms: C15_18  and  C16_19 
ROOT
HETATM    1  C6  UNL     1      -2.996   0.755   0.939  1.00  0.00    -0.023 A 
HETATM    2  C7  UNL     1      -3.118   1.858   1.684  1.00  0.00     0.010 A 
HETATM    3  C8  UNL     1      -2.114   2.913   1.735  1.00  0.00    -0.002 A 
HETATM    4  C9  UNL     1      -1.058   2.688   0.977  1.00  0.00    -0.011 A 
HETATM    5  C10 UNL     1      -0.769   1.541   0.110  1.00  0.00     0.020 A 
HETATM    6  C11 UNL     1      -1.828   0.487   0.063  1.00  0.00     0.060 A 
HETATM    7  C12 UNL     1       0.173   1.668  -1.000  1.00  0.00     0.021 A 
HETATM    8  C13 UNL     1       1.209   1.655  -1.826  1.00  0.00     0.043 A 
HETATM    9  C14 UNL     1       2.411   1.025  -1.186  1.00  0.00     0.172 A 
HETATM   10  C22 UNL     1       1.924   0.660   0.174  1.00  0.00     0.045 A 
HETATM   11 CL1  UNL     1       2.830  -0.116   1.452  1.00  0.00    -0.086 Cl
HETATM   12  C23 UNL     1       0.667   1.046   0.211  1.00  0.00    -0.034 A 
ENDROOT
BRANCH   1  13
HETATM   13  C5  UNL     1      -4.101  -0.184   1.020  1.00  0.00     0.087 C 
HETATM   14  C3  UNL     1      -4.160  -1.328   0.362  1.00  0.00     0.018 C 
HETATM   15  C2  UNL     1      -5.425  -2.086   0.645  1.00  0.00     0.109 C 
HETATM   16  C1  UNL     1      -6.249  -0.983   1.278  1.00  0.00     0.364 C 
HETATM   17  O3  UNL     1      -5.261  -0.099   1.755  1.00  0.00    -0.315 OA
BRANCH  14  18
HETATM   18  C4  UNL     1      -3.269  -1.977  -0.551  1.00  0.00     0.268 C 
HETATM   19  O1  UNL     1      -3.302  -3.058  -1.188  1.00  0.00    -0.302 OA
ENDBRANCH  14  18
BRANCH  16  20
HETATM   20  N1  UNL     1      -7.134  -1.461   2.306  1.00  0.00     0.107 N 
HETATM   21  H1  UNL     1      -7.277  -0.668   2.986  1.00  0.00     0.316 HD
HETATM   22  H2  UNL     1      -8.073  -1.624   1.865  1.00  0.00     0.316 HD
ENDBRANCH  16  20
ENDBRANCH   1  13
BRANCH   9  23
HETATM   23  O2  UNL     1       3.484   1.860  -1.151  1.00  0.00    -0.375 OA
BRANCH  23  24
HETATM   24  C15 UNL     1       4.600   1.424  -1.821  1.00  0.00     0.207 C 
BRANCH  24  25
HETATM   25  C16 UNL     1       5.181   0.158  -1.344  1.00  0.00    -0.032 A 
HETATM   26  C17 UNL     1       6.075   0.306  -0.275  1.00  0.00     0.009 A 
HETATM   27  C18 UNL     1       6.748  -0.735   0.330  1.00  0.00     0.004 A 
HETATM   28  C19 UNL     1       6.557  -2.022  -0.117  1.00  0.00     0.042 A 
HETATM   29  C20 UNL     1       5.681  -2.185  -1.168  1.00  0.00     0.117 A 
HETATM   30  F1  UNL     1       5.437  -3.430  -1.669  1.00  0.00    -0.206 F 
HETATM   31  C21 UNL     1       5.013  -1.144  -1.766  1.00  0.00     0.051 A 
ENDBRANCH  24  25
ENDBRANCH  23  24
ENDBRANCH   9  23
TORSDOF 6
