REMARK  6 active torsions:
REMARK  status: ('A' for Active; 'I' for Inactive)
REMARK    1  A    between atoms: C2_2  and  O1_3 
REMARK    2  A    between atoms: O1_3  and  C3_4 
REMARK    3  A    between atoms: C3_4  and  C4_5 
REMARK       I    between atoms: C4_5  and  N1_7 
REMARK    4  A    between atoms: N1_7  and  C5_8 
REMARK    5  A    between atoms: C12_17  and  N4_18 
REMARK    6  A    between atoms: N4_18  and  C13_19 
ROOT
HETATM    1  C5  UNL     1       1.633  -1.238   0.096  1.00  0.00     0.035 A 
HETATM    2  C6  UNL     1       1.754  -2.563   0.447  1.00  0.00     0.030 A 
HETATM    3  C7  UNL     1       0.622  -3.249   0.784  1.00  0.00     0.016 A 
HETATM    4  C8  UNL     1      -0.611  -2.629   0.772  1.00  0.00     0.000 A 
HETATM    5  C9  UNL     1      -1.681  -3.417   1.130  1.00  0.00     0.073 A 
HETATM    6  C10 UNL     1      -1.579  -4.797   1.499  1.00  0.00     0.102 C 
HETATM    7  N2  UNL     1      -1.488  -5.917   1.796  1.00  0.00    -0.191 NA
HETATM    8  C11 UNL     1      -2.921  -2.828   1.129  1.00  0.00     0.142 A 
HETATM    9  N3  UNL     1      -3.032  -1.549   0.789  1.00  0.00    -0.241 NA
HETATM   10  C12 UNL     1      -2.039  -0.731   0.433  1.00  0.00     0.139 A 
HETATM   11  C19 UNL     1      -0.792  -1.307   0.430  1.00  0.00     0.024 A 
HETATM   12  C20 UNL     1       0.381  -0.670   0.101  1.00  0.00     0.045 A 
ENDROOT
BRANCH  10  13
HETATM   13  N4  UNL     1      -2.159   0.627   0.073  1.00  0.00    -0.340 N 
HETATM   14  H10 UNL     1      -1.350   1.195  -0.200  1.00  0.00     0.167 HD
BRANCH  13  15
HETATM   15  C13 UNL     1      -3.319   1.437   0.014  1.00  0.00     0.035 A 
HETATM   16  C14 UNL     1      -3.364   2.750  -0.406  1.00  0.00     0.029 A 
HETATM   17  C15 UNL     1      -4.496   3.520  -0.454  1.00  0.00     0.004 A 
HETATM   18  C16 UNL     1      -5.702   2.994  -0.067  1.00  0.00     0.019 A 
HETATM   19  C17 UNL     1      -5.731   1.686   0.365  1.00  0.00     0.013 A 
HETATM   20 BR1  UNL     1      -7.420   1.013   0.886  1.00  0.00    -0.051 Br
HETATM   21  C18 UNL     1      -4.556   0.966   0.389  1.00  0.00     0.048 A 
ENDBRANCH  13  15
ENDBRANCH  10  13
BRANCH   1  22
HETATM   22  N1  UNL     1       2.795  -0.494  -0.262  1.00  0.00    -0.325 N 
HETATM   23  C4  UNL     1       3.536  -0.197  -1.442  1.00  0.00     0.246 C 
HETATM   24  O2  UNL     1       3.267  -0.600  -2.603  1.00  0.00    -0.271 OA
HETATM   25  H6  UNL     1       3.089  -0.116   0.672  1.00  0.00     0.169 HD
BRANCH  23  26
HETATM   26  C3  UNL     1       4.720   0.653  -1.308  1.00  0.00     0.277 C 
BRANCH  26  27
HETATM   27  O1  UNL     1       4.986   1.081   0.003  1.00  0.00    -0.355 OA
BRANCH  27  28
HETATM   28  C2  UNL     1       6.121   1.896   0.151  1.00  0.00     0.125 C 
HETATM   29  C1  UNL     1       6.903   2.664  -0.601  1.00  0.00     0.037 C 
ENDBRANCH  27  28
ENDBRANCH  26  27
ENDBRANCH  23  26
ENDBRANCH   1  22
TORSDOF 6
