REMARK  10 active torsions:
REMARK  status: ('A' for Active; 'I' for Inactive)
REMARK    1  A    between atoms: C2_2  and  C3_3 
REMARK    2  A    between atoms: C2_2  and  N4_19 
REMARK    3  A    between atoms: C3_3  and  C4_4 
REMARK    4  A    between atoms: C9_11  and  C10_12 
REMARK    5  A    between atoms: C10_12  and  C11_13 
REMARK    6  A    between atoms: C10_12  and  C13_16 
REMARK    7  A    between atoms: C11_13  and  C12_14 
REMARK    8  A    between atoms: C12_14  and  N3_15 
REMARK    9  A    between atoms: N4_19  and  C15_20 
REMARK   10  A    between atoms: C15_20  and  C16_21 
ROOT
HETATM    1  C4  UNL     1       0.257  -1.063   0.252  1.00  0.00     0.045 A 
HETATM    2  C5  UNL     1       0.954  -1.654  -0.931  1.00  0.00     0.062 A 
HETATM    3  C6  UNL     1      -0.002  -2.389  -1.775  1.00  0.00     0.040 A 
HETATM    4  C7  UNL     1       0.711  -2.973  -2.925  1.00  0.00     0.096 C 
HETATM    5  N1  UNL     1       1.271  -3.459  -3.851  1.00  0.00    -0.192 NA
HETATM    6  C8  UNL     1      -1.290  -2.663  -1.782  1.00  0.00     0.134 A 
HETATM    7  N2  UNL     1      -1.866  -2.054  -0.634  1.00  0.00    -0.267 NA
HETATM    8  C9  UNL     1      -1.167  -1.359   0.237  1.00  0.00     0.028 A 
ENDROOT
BRANCH   1   9
HETATM    9  C3  UNL     1       0.661   0.373   0.426  1.00  0.00     0.066 C 
BRANCH   9  10
HETATM   10  C2  UNL     1       2.131   0.453   0.618  1.00  0.00    -0.004 C 
HETATM   11  C1  UNL     1       3.163  -0.359   0.700  1.00  0.00     0.037 C 
BRANCH  10  12
HETATM   12  N4  UNL     1       2.472   1.853   0.742  1.00  0.00    -0.391 N 
HETATM   13  H16 UNL     1       2.354   2.042   1.763  1.00  0.00     0.159 HD
BRANCH  12  14
HETATM   14  C15 UNL     1       2.870   2.689  -0.378  1.00  0.00     0.156 C 
BRANCH  14  15
HETATM   15  C16 UNL     1       4.198   2.291  -0.917  1.00  0.00     0.410 C 
HETATM   16  O1  UNL     1       5.264   1.753  -1.131  1.00  0.00    -0.428 OA
ENDBRANCH  14  15
ENDBRANCH  12  14
ENDBRANCH  10  12
ENDBRANCH   9  10
ENDBRANCH   1   9
BRANCH   8  17
HETATM   17  C10 UNL     1      -2.019  -0.814   1.291  1.00  0.00     0.081 C 
BRANCH  17  18
HETATM   18  C11 UNL     1      -2.212   0.660   1.145  1.00  0.00     0.004 C 
BRANCH  18  19
HETATM   19  C12 UNL     1      -2.297   2.002   1.169  1.00  0.00     0.077 C 
BRANCH  19  20
HETATM   20  N3  UNL     1      -2.708   3.231   0.617  1.00  0.00    -0.408 N 
HETATM   21  H12 UNL     1      -1.819   3.555   0.163  1.00  0.00     0.155 HD
HETATM   22  H13 UNL     1      -3.702   3.174   0.956  1.00  0.00     0.155 HD
ENDBRANCH  19  20
ENDBRANCH  18  19
ENDBRANCH  17  18
BRANCH  17  23
HETATM   23  C13 UNL     1      -3.315  -1.527   1.362  1.00  0.00    -0.005 C 
HETATM   24  C14 UNL     1      -4.625  -1.265   1.338  1.00  0.00     0.053 C 
HETATM   25 BR1  UNL     1      -6.098  -2.459   1.457  1.00  0.00    -0.064 Br
ENDBRANCH  17  23
ENDBRANCH   8  17
TORSDOF 10
