REMARK  7 active torsions:
REMARK  status: ('A' for Active; 'I' for Inactive)
REMARK    1  A    between atoms: C2_2  and  C3_3 
REMARK    2  A    between atoms: C7_9  and  N3_10 
REMARK    3  A    between atoms: N3_10  and  C8_11 
REMARK    4  A    between atoms: C14_18  and  C15_19 
REMARK    5  A    between atoms: C15_19  and  C16_20 
REMARK    6  A    between atoms: C16_20  and  N4_21 
REMARK       I    between atoms: N4_21  and  C17_22 
REMARK    7  A    between atoms: C17_22  and  C18_24 
ROOT
HETATM    1  C3  UNL     1       2.780   0.427  -0.332  1.00  0.00    -0.004 A 
HETATM    2  C4  UNL     1       3.748  -0.584  -0.444  1.00  0.00     0.073 A 
HETATM    3  C5  UNL     1       5.029  -0.389  -1.055  1.00  0.00     0.102 C 
HETATM    4  N1  UNL     1       6.048  -0.223  -1.559  1.00  0.00    -0.191 NA
HETATM    5  C6  UNL     1       3.470  -1.829   0.044  1.00  0.00     0.142 A 
HETATM    6  N2  UNL     1       2.293  -2.035   0.608  1.00  0.00    -0.241 NA
HETATM    7  C7  UNL     1       1.353  -1.104   0.729  1.00  0.00     0.138 A 
HETATM    8  C14 UNL     1       1.571   0.169   0.254  1.00  0.00     0.019 A 
ENDROOT
BRANCH   1   9
HETATM    9  C2  UNL     1       3.094   1.661  -0.711  1.00  0.00    -0.017 C 
HETATM   10  C1  UNL     1       3.101   3.090  -1.025  1.00  0.00     0.037 C 
ENDBRANCH   1   9
BRANCH   8  11
HETATM   11  C15 UNL     1       0.512   0.931   0.289  1.00  0.00     0.009 C 
BRANCH  11  12
HETATM   12  C16 UNL     1      -0.064   2.218  -0.123  1.00  0.00     0.151 C 
BRANCH  12  13
HETATM   13  N4  UNL     1      -1.483   2.132  -0.498  1.00  0.00    -0.352 N 
HETATM   14  C17 UNL     1      -2.246   3.215  -0.985  1.00  0.00     0.275 C 
HETATM   15  O1  UNL     1      -1.598   4.274  -1.071  1.00  0.00    -0.265 OA
HETATM   16  H14 UNL     1      -1.902   1.166  -0.372  1.00  0.00     0.163 HD
BRANCH  14  17
HETATM   17  C18 UNL     1      -3.640   2.976  -1.325  1.00  0.00     0.142 A 
HETATM   18  C19 UNL     1      -4.458   3.972  -1.823  1.00  0.00     0.045 A 
HETATM   19  C20 UNL     1      -5.686   3.374  -2.020  1.00  0.00     0.027 A 
HETATM   20  C21 UNL     1      -5.551   2.036  -1.628  1.00  0.00     0.143 A 
HETATM   21  O2  UNL     1      -4.306   1.875  -1.227  1.00  0.00    -0.317 OA
ENDBRANCH  14  17
ENDBRANCH  12  13
ENDBRANCH  11  12
ENDBRANCH   8  11
BRANCH   7  22
HETATM   22  N3  UNL     1       0.173  -1.593   1.390  1.00  0.00    -0.340 N 
HETATM   23  H6  UNL     1      -0.723  -1.106   1.703  1.00  0.00     0.167 HD
BRANCH  22  24
HETATM   24  C8  UNL     1      -0.004  -2.950   1.768  1.00  0.00     0.035 A 
HETATM   25  C9  UNL     1       0.481  -3.926   0.928  1.00  0.00     0.029 A 
HETATM   26  C10 UNL     1       0.343  -5.280   1.279  1.00  0.00     0.004 A 
HETATM   27  C11 UNL     1      -0.261  -5.695   2.440  1.00  0.00     0.019 A 
HETATM   28  C12 UNL     1      -0.739  -4.708   3.268  1.00  0.00     0.013 A 
HETATM   29 BR1  UNL     1      -1.602  -5.120   4.917  1.00  0.00    -0.051 Br
HETATM   30  C13 UNL     1      -0.618  -3.380   2.948  1.00  0.00     0.048 A 
ENDBRANCH  22  24
ENDBRANCH   7  22
TORSDOF 7
