REMARK  6 active torsions:
REMARK  status: ('A' for Active; 'I' for Inactive)
REMARK    1  A    between atoms: C2_2  and  C3_3 
REMARK    2  A    between atoms: C2_2  and  N4_21 
REMARK    3  A    between atoms: C9_11  and  N3_12 
REMARK    4  A    between atoms: N3_12  and  C10_13 
REMARK    5  A    between atoms: N4_21  and  C16_22 
REMARK    6  A    between atoms: C16_22  and  C17_23 
ROOT
HETATM    1  C3  UNL     1       0.535  -0.380  -0.133  1.00  0.00     0.039 C 
HETATM    2  C4  UNL     1      -0.222   0.662   0.137  1.00  0.00    -0.005 A 
HETATM    3  C5  UNL     1       0.207   2.063  -0.030  1.00  0.00     0.094 A 
HETATM    4  C6  UNL     1      -0.888   2.996   0.360  1.00  0.00     0.044 A 
HETATM    5  C7  UNL     1      -0.564   4.392   0.226  1.00  0.00     0.097 C 
HETATM    6  N1  UNL     1      -0.318   5.532   0.121  1.00  0.00    -0.192 NA
HETATM    7  C8  UNL     1      -2.093   2.689   0.804  1.00  0.00     0.137 A 
HETATM    8  N2  UNL     1      -2.415   1.314   0.937  1.00  0.00    -0.241 NA
HETATM    9  C9  UNL     1      -1.575   0.382   0.639  1.00  0.00     0.135 A 
ENDROOT
BRANCH   1  10
HETATM   10  C2  UNL     1       1.897  -0.263  -0.631  1.00  0.00     0.019 C 
HETATM   11  C1  UNL     1       2.662  -1.305  -0.907  1.00  0.00     0.042 C 
BRANCH  10  12
HETATM   12  N4  UNL     1       2.697   0.869  -0.924  1.00  0.00    -0.384 N 
HETATM   13  H12 UNL     1       2.351   1.151  -1.861  1.00  0.00     0.160 HD
BRANCH  12  14
HETATM   14  C16 UNL     1       3.760   1.551  -0.196  1.00  0.00     0.184 C 
BRANCH  14  15
HETATM   15  C17 UNL     1       4.848   0.529  -0.017  1.00  0.00     0.070 A 
HETATM   16  C18 UNL     1       5.892   0.321  -0.911  1.00  0.00     0.036 A 
HETATM   17  C19 UNL     1       6.653  -0.695  -0.370  1.00  0.00     0.027 A 
HETATM   18  C20 UNL     1       5.999  -1.021   0.822  1.00  0.00     0.142 A 
HETATM   19  O2  UNL     1       4.941  -0.281   0.999  1.00  0.00    -0.325 OA
ENDBRANCH  14  15
ENDBRANCH  12  14
ENDBRANCH  10  12
ENDBRANCH   1  10
BRANCH   9  20
HETATM   20  N3  UNL     1      -2.063  -0.960   0.847  1.00  0.00    -0.321 N 
HETATM   21  H7  UNL     1      -1.323  -1.658   1.165  1.00  0.00     0.169 HD
BRANCH  20  22
HETATM   22  C10 UNL     1      -3.445  -1.320   0.640  1.00  0.00     0.148 C 
HETATM   23  C11 UNL     1      -3.626  -2.628   0.556  1.00  0.00     0.056 C 
HETATM   24  C12 UNL     1      -4.909  -3.280   0.350  1.00  0.00     0.006 C 
HETATM   25  C13 UNL     1      -6.128  -2.738   0.333  1.00  0.00     0.021 C 
HETATM   26  C14 UNL     1      -6.460  -1.320   0.524  1.00  0.00     0.033 C 
HETATM   27 BR1  UNL     1      -8.303  -0.833   0.659  1.00  0.00    -0.049 Br
HETATM   28  C15 UNL     1      -5.669  -0.246   0.626  1.00  0.00     0.163 C 
HETATM   29  O1  UNL     1      -4.267  -0.198   0.576  1.00  0.00    -0.304 OA
ENDBRANCH  20  22
ENDBRANCH   9  20
TORSDOF 6
