REMARK  4 active torsions:
REMARK  status: ('A' for Active; 'I' for Inactive)
REMARK    1  A    between atoms: C4_6  and  N3_7 
REMARK    2  A    between atoms: N3_7  and  C5_8 
REMARK    3  A    between atoms: C13_17  and  N4_18 
REMARK       I    between atoms: N4_18  and  C14_19 
REMARK    4  A    between atoms: C14_19  and  C15_21 
ROOT
HETATM    1  N1  UNL     1      -0.089  -5.506   2.739  1.00  0.00    -0.191 NA
HETATM    2  C1  UNL     1      -0.407  -4.589   2.113  1.00  0.00     0.102 C 
HETATM    3  C2  UNL     1      -0.801  -3.460   1.322  1.00  0.00     0.073 A 
HETATM    4  C3  UNL     1      -2.151  -3.243   1.086  1.00  0.00     0.142 A 
HETATM    5  N2  UNL     1      -2.476  -2.170   0.334  1.00  0.00    -0.241 NA
HETATM    6  C4  UNL     1      -1.539  -1.340  -0.171  1.00  0.00     0.139 A 
HETATM    7  C11 UNL     1      -0.186  -1.516   0.037  1.00  0.00     0.024 A 
HETATM    8  C12 UNL     1       0.664  -0.599  -0.526  1.00  0.00     0.045 A 
HETATM    9  C13 UNL     1       2.005  -0.869  -0.249  1.00  0.00     0.035 A 
HETATM   10  C19 UNL     1       2.428  -1.929   0.501  1.00  0.00     0.030 A 
HETATM   11  C20 UNL     1       1.507  -2.810   1.035  1.00  0.00     0.016 A 
HETATM   12  C21 UNL     1       0.162  -2.611   0.805  1.00  0.00     0.000 A 
ENDROOT
BRANCH   6  13
HETATM   13  N3  UNL     1      -2.132  -0.290  -0.925  1.00  0.00    -0.340 N 
HETATM   14  H2  UNL     1      -1.657  -0.288  -1.852  1.00  0.00     0.167 HD
BRANCH  13  15
HETATM   15  C5  UNL     1      -3.165   0.629  -0.581  1.00  0.00     0.035 A 
HETATM   16  C6  UNL     1      -3.608   1.473  -1.596  1.00  0.00     0.029 A 
HETATM   17  C7  UNL     1      -4.603   2.373  -1.274  1.00  0.00     0.004 A 
HETATM   18  C8  UNL     1      -5.155   2.455  -0.010  1.00  0.00     0.019 A 
HETATM   19  C9  UNL     1      -4.695   1.597   0.998  1.00  0.00     0.013 A 
HETATM   20 BR1  UNL     1      -5.379   1.614   2.791  1.00  0.00    -0.051 Br
HETATM   21  C10 UNL     1      -3.686   0.678   0.690  1.00  0.00     0.048 A 
ENDBRANCH  13  15
ENDBRANCH   6  13
BRANCH   9  22
HETATM   22  N4  UNL     1       3.011   0.004  -0.772  1.00  0.00    -0.323 N 
HETATM   23  C14 UNL     1       3.358   1.093   0.063  1.00  0.00     0.256 C 
HETATM   24  O1  UNL     1       2.839   1.314   1.197  1.00  0.00    -0.267 OA
HETATM   25  H8  UNL     1       3.456  -0.151  -1.706  1.00  0.00     0.169 HD
BRANCH  23  26
HETATM   26  C15 UNL     1       4.374   2.036  -0.383  1.00  0.00     0.032 A 
HETATM   27  C16 UNL     1       5.094   2.088  -1.495  1.00  0.00     0.017 A 
HETATM   28  C17 UNL     1       5.783   3.297  -1.063  1.00  0.00     0.002 A 
HETATM   29  C18 UNL     1       5.069   3.243   0.038  1.00  0.00     0.017 A 
ENDBRANCH  23  26
ENDBRANCH   9  22
TORSDOF 4
