REMARK  5 active torsions:
REMARK  status: ('A' for Active; 'I' for Inactive)
REMARK    1  A    between atoms: C4_6  and  N3_7 
REMARK    2  A    between atoms: N3_7  and  C5_8 
REMARK    3  A    between atoms: C12_16  and  N4_17 
REMARK    4  A    between atoms: N4_17  and  C13_18 
REMARK    5  A    between atoms: C14_19  and  O1_20 
ROOT
HETATM    1  N1  UNL     1       3.407   4.553  -1.124  1.00  0.00    -0.191 NA
HETATM    2  C1  UNL     1       2.580   3.799  -0.765  1.00  0.00     0.101 C 
HETATM    3  C2  UNL     1       1.558   2.875  -0.338  1.00  0.00     0.062 A 
HETATM    4  C3  UNL     1       1.998   1.612  -0.233  1.00  0.00     0.141 A 
HETATM    5  N2  UNL     1       0.913   0.856   0.182  1.00  0.00    -0.246 NA
HETATM    6  C4  UNL     1       0.904  -0.377   0.364  1.00  0.00     0.109 A 
HETATM    7  C11 UNL     1      -0.455  -0.780   0.809  1.00  0.00     0.135 A 
HETATM    8  C12 UNL     1      -1.443   0.303   0.878  1.00  0.00     0.016 A 
HETATM    9  C18 UNL     1      -1.616   1.628   0.695  1.00  0.00     0.025 A 
HETATM   10  C19 UNL     1      -0.970   2.896   0.309  1.00  0.00     0.003 A 
HETATM   11  C20 UNL     1       0.210   3.386  -0.079  1.00  0.00     0.024 A 
ENDROOT
BRANCH   6  12
HETATM   12  N3  UNL     1       1.805  -1.464   0.268  1.00  0.00    -0.344 N 
HETATM   13  H2  UNL     1       1.566  -2.442   0.540  1.00  0.00     0.167 HD
BRANCH  12  14
HETATM   14  C5  UNL     1       3.096  -1.212  -0.217  1.00  0.00     0.034 A 
HETATM   15  C6  UNL     1       3.261  -1.235  -1.607  1.00  0.00     0.029 A 
HETATM   16  C7  UNL     1       4.492  -1.018  -2.146  1.00  0.00     0.004 A 
HETATM   17  C8  UNL     1       5.557  -0.779  -1.292  1.00  0.00     0.019 A 
HETATM   18  C9  UNL     1       5.389  -0.758   0.076  1.00  0.00     0.013 A 
HETATM   19 BR1  UNL     1       6.815  -0.435   1.290  1.00  0.00    -0.051 Br
HETATM   20  C10 UNL     1       4.145  -0.974   0.679  1.00  0.00     0.048 A 
ENDBRANCH  12  14
ENDBRANCH   6  12
BRANCH   8  21
HETATM   21  N4  UNL     1      -2.639  -0.400   1.302  1.00  0.00    -0.360 N 
HETATM   22  H9  UNL     1      -2.695  -0.604   2.323  1.00  0.00     0.165 HD
BRANCH  21  23
HETATM   23  C13 UNL     1      -3.786  -0.897   0.659  1.00  0.00     0.046 A 
HETATM   24  C14 UNL     1      -4.069  -2.053   0.083  1.00  0.00     0.088 A 
HETATM   25  C15 UNL     1      -5.430  -1.986  -0.414  1.00  0.00     0.035 A 
HETATM   26  C16 UNL     1      -5.970  -0.809  -0.146  1.00  0.00    -0.018 A 
HETATM   27  C17 UNL     1      -4.954   0.020   0.581  1.00  0.00     0.087 A 
BRANCH  24  28
HETATM   28  O1  UNL     1      -3.405  -3.250  -0.146  1.00  0.00    -0.359 OA
HETATM   29  H10 UNL     1      -2.466  -3.280  -0.508  1.00  0.00     0.217 HD
ENDBRANCH  24  28
ENDBRANCH  21  23
ENDBRANCH   8  21
TORSDOF 5
