REMARK  5 active torsions:
REMARK  status: ('A' for Active; 'I' for Inactive)
REMARK    1  A    between atoms: C5_6  and  N1_7 
REMARK    2  A    between atoms: N1_7  and  O1_8 
REMARK    3  A    between atoms: O1_8  and  C6_9 
REMARK    4  A    between atoms: C8_11  and  N2_12 
REMARK    5  A    between atoms: N2_12  and  C9_13 
ROOT
HETATM    1  C6  UNL     1       1.560   0.238  -0.462  1.00  0.00     0.101 A 
HETATM    2  C7  UNL     1       0.370   0.069  -1.014  1.00  0.00     0.066 A 
HETATM    3  C8  UNL     1      -0.972   0.591  -0.667  1.00  0.00     0.253 A 
HETATM    4  O2  UNL     1      -0.875   1.400   0.459  1.00  0.00    -0.334 OA
HETATM    5  C17 UNL     1       0.345   1.613   1.079  1.00  0.00     0.140 A 
HETATM    6  C18 UNL     1       1.503   1.108   0.706  1.00  0.00     0.063 A 
ENDROOT
BRANCH   1   7
HETATM    7  O1  UNL     1       2.746  -0.327  -0.910  1.00  0.00    -0.238 OA
BRANCH   7   8
HETATM    8  N1  UNL     1       3.639  -0.940  -0.062  1.00  0.00    -0.261 N 
HETATM    9  H4  UNL     1       3.312  -1.705   0.599  1.00  0.00     0.195 HD
BRANCH   8  10
HETATM   10  C5  UNL     1       5.018  -0.593  -0.023  1.00  0.00     0.056 A 
HETATM   11  C4  UNL     1       5.982  -1.167   0.807  1.00  0.00     0.031 A 
HETATM   12  C3  UNL     1       7.293  -0.740   0.750  1.00  0.00     0.004 A 
HETATM   13  C2  UNL     1       7.708   0.261  -0.120  1.00  0.00     0.019 A 
HETATM   14  C1  UNL     1       6.789   0.868  -0.968  1.00  0.00     0.013 A 
HETATM   15 BR1  UNL     1       7.239   2.246  -2.198  1.00  0.00    -0.051 Br
HETATM   16  C19 UNL     1       5.498   0.394  -0.859  1.00  0.00     0.050 A 
ENDBRANCH   8  10
ENDBRANCH   7   8
ENDBRANCH   1   7
BRANCH   3  17
HETATM   17  N2  UNL     1      -1.887  -0.526  -0.482  1.00  0.00    -0.360 N 
HETATM   18  H7  UNL     1      -1.541  -1.516  -0.604  1.00  0.00     0.162 HD
BRANCH  17  19
HETATM   19  C9  UNL     1      -3.267  -0.378  -0.138  1.00  0.00     0.026 C 
HETATM   20  C10 UNL     1      -3.893  -1.337   0.527  1.00  0.00     0.003 C 
HETATM   21  C11 UNL     1      -5.329  -1.107   0.858  1.00  0.00     0.044 C 
HETATM   22  C12 UNL     1      -6.012  -0.315  -0.134  1.00  0.00    -0.005 A 
HETATM   23  C13 UNL     1      -7.446  -0.331  -0.421  1.00  0.00     0.025 A 
HETATM   24  C14 UNL     1      -6.689   0.975  -0.098  1.00  0.00     0.029 A 
HETATM   25  C15 UNL     1      -5.194   0.952  -0.416  1.00  0.00    -0.063 A 
HETATM   26  C16 UNL     1      -3.898   0.852  -0.651  1.00  0.00     0.033 C 
ENDBRANCH  17  19
ENDBRANCH   3  17
TORSDOF 5
