REMARK  8 active torsions:
REMARK  status: ('A' for Active; 'I' for Inactive)
REMARK    1  A    between atoms: C4_6  and  N3_7 
REMARK    2  A    between atoms: N3_7  and  C5_8 
REMARK    3  A    between atoms: C11_15  and  C12_16 
REMARK    4  A    between atoms: C12_16  and  C13_17 
REMARK    5  A    between atoms: C13_17  and  C14_18 
REMARK    6  A    between atoms: C14_18  and  B1_19 
REMARK    7  A    between atoms: B1_19  and  C15_20 
REMARK    8  A    between atoms: C15_20  and  C16_22 
ROOT
HETATM    1  N1  UNL     1      -3.461  -5.533  -2.314  1.00  0.00    -0.192 NA
HETATM    2  C1  UNL     1      -3.139  -4.482  -1.880  1.00  0.00     0.097 C 
HETATM    3  C2  UNL     1      -2.757  -3.173  -1.362  1.00  0.00     0.044 A 
HETATM    4  C3  UNL     1      -3.745  -2.320  -1.169  1.00  0.00     0.137 A 
HETATM    5  N2  UNL     1      -3.380  -1.044  -0.666  1.00  0.00    -0.242 NA
HETATM    6  C4  UNL     1      -2.134  -0.807  -0.434  1.00  0.00     0.134 A 
HETATM    7  C11 UNL     1      -1.001  -1.711  -0.627  1.00  0.00    -0.011 A 
HETATM    8  C20 UNL     1      -1.308  -3.065  -1.154  1.00  0.00     0.093 A 
ENDROOT
BRANCH   7   9
HETATM    9  C12 UNL     1       0.232  -1.353  -0.349  1.00  0.00    -0.016 C 
BRANCH   9  10
HETATM   10  C13 UNL     1       1.407  -0.611   0.061  1.00  0.00     0.018 C 
BRANCH  10  11
HETATM   11  C14 UNL     1       2.183  -1.264   1.220  1.00  0.00    -0.040 C 
BRANCH  11  12
HETATM   12  B1  UNL     1       3.405  -0.298   1.498  1.00  0.00     0.251 B 
HETATM   13  H12 UNL     1       3.337   0.407   2.442  1.00  0.00    -0.017 HD
BRANCH  12  14
HETATM   14  C15 UNL     1       4.803  -0.607   0.894  1.00  0.00     0.128 C 
HETATM   15  O1  UNL     1       5.269  -1.768   1.061  1.00  0.00    -0.305 OA
BRANCH  14  16
HETATM   16  C16 UNL     1       5.380   0.546   0.199  1.00  0.00     0.107 A 
HETATM   17  C17 UNL     1       4.963   1.839  -0.039  1.00  0.00     0.041 A 
HETATM   18  C18 UNL     1       5.952   2.457  -0.758  1.00  0.00     0.027 A 
HETATM   19  C19 UNL     1       6.938   1.506  -0.930  1.00  0.00     0.142 A 
HETATM   20  O2  UNL     1       6.562   0.379  -0.346  1.00  0.00    -0.320 OA
ENDBRANCH  14  16
ENDBRANCH  12  14
ENDBRANCH  11  12
ENDBRANCH  10  11
ENDBRANCH   9  10
ENDBRANCH   7   9
BRANCH   6  21
HETATM   21  N3  UNL     1      -1.971   0.506   0.060  1.00  0.00    -0.341 N 
HETATM   22  H2  UNL     1      -1.028   0.856   0.320  1.00  0.00     0.167 HD
BRANCH  21  23
HETATM   23  C5  UNL     1      -2.985   1.481   0.264  1.00  0.00     0.035 A 
HETATM   24  C6  UNL     1      -3.394   2.398  -0.664  1.00  0.00     0.029 A 
HETATM   25  C7  UNL     1      -4.396   3.266  -0.276  1.00  0.00     0.004 A 
HETATM   26  C8  UNL     1      -4.979   3.233   0.990  1.00  0.00     0.019 A 
HETATM   27  C9  UNL     1      -4.542   2.306   1.883  1.00  0.00     0.013 A 
HETATM   28 BR1  UNL     1      -5.371   2.310   3.585  1.00  0.00    -0.051 Br
HETATM   29  C10 UNL     1      -3.547   1.420   1.542  1.00  0.00     0.048 A 
ENDBRANCH  21  23
ENDBRANCH   6  21
TORSDOF 8
