REMARK  3 active torsions:
REMARK  status: ('A' for Active; 'I' for Inactive)
REMARK    1  A    between atoms: C2_2  and  S1_3 
REMARK    2  A    between atoms: S1_3  and  N1_4 
REMARK    3  A    between atoms: C9_13  and  N3_14 
ROOT
HETATM    1  S1  UNL     1      -0.300  -0.173  -0.380  1.00  0.00    -0.048 SA
HETATM    2  N2  UNL     1       0.291   0.677   0.780  1.00  0.00    -0.225 NA
HETATM    3  C8  UNL     1       1.043   1.865   0.665  1.00  0.00     0.150 C 
HETATM    4  C9  UNL     1       2.002   2.801   0.556  1.00  0.00     0.022 C 
HETATM    5  C10 UNL     1       3.464   2.536   0.538  1.00  0.00     0.030 C 
HETATM    6  C11 UNL     1       3.433   1.186   0.669  1.00  0.00     0.059 C 
HETATM    7  C12 UNL     1       4.573   0.230   0.726  1.00  0.00    -0.003 C 
HETATM    8  C13 UNL     1       4.006  -0.960   0.867  1.00  0.00     0.087 C 
HETATM    9  N4  UNL     1       2.662  -1.423   0.963  1.00  0.00    -0.336 N 
HETATM   10  C14 UNL     1       1.639  -2.091   1.695  1.00  0.00     0.245 C 
HETATM   11  O1  UNL     1       2.590  -2.170   2.495  1.00  0.00    -0.271 OA
HETATM   12  C15 UNL     1       0.261  -2.301   1.225  1.00  0.00     0.193 C 
HETATM   13  N5  UNL     1      -0.087  -3.714   1.162  1.00  0.00    -0.347 N 
HETATM   14  C16 UNL     1      -0.707  -4.067  -0.067  1.00  0.00     0.219 C 
HETATM   15  O2  UNL     1      -0.869  -5.223  -0.560  1.00  0.00    -0.274 OA
HETATM   16  C17 UNL     1      -1.113  -2.722  -0.615  1.00  0.00     0.122 C 
HETATM   17  C18 UNL     1       0.090  -1.890  -0.224  1.00  0.00     0.113 C 
HETATM   18  H17 UNL     1       2.336  -1.078   0.038  1.00  0.00     0.168 HD
HETATM   19  H19 UNL     1       0.116  -4.380   1.966  1.00  0.00     0.163 HD
ENDROOT
BRANCH   1  20
HETATM   20  C2  UNL     1       0.471   0.418  -1.639  1.00  0.00     0.036 C 
HETATM   21  C1  UNL     1      -0.229   1.644  -2.098  1.00  0.00     0.045 C 
ENDBRANCH   1  20
BRANCH   1  22
HETATM   22  N1  UNL     1      -1.999   0.092  -0.435  1.00  0.00    -0.304 N 
HETATM   23  C3  UNL     1      -2.810  -0.298  -1.520  1.00  0.00     0.100 A 
HETATM   24  C4  UNL     1      -4.090  -0.039  -1.433  1.00  0.00    -0.003 A 
HETATM   25  C5  UNL     1      -4.835   0.616  -0.347  1.00  0.00     0.076 A 
HETATM   26  C6  UNL     1      -3.939   1.003   0.763  1.00  0.00     0.009 A 
HETATM   27 BR1  UNL     1      -4.683   1.869   2.284  1.00  0.00    -0.054 Br
HETATM   28  C7  UNL     1      -2.661   0.731   0.649  1.00  0.00     0.119 A 
ENDBRANCH   1  22
BRANCH   4  29
HETATM   29  N3  UNL     1       1.459   4.143   0.488  1.00  0.00    -0.401 N 
HETATM   30  H11 UNL     1       1.029   4.829   1.141  1.00  0.00     0.156 HD
HETATM   31  H12 UNL     1       1.435   4.682  -0.421  1.00  0.00     0.156 HD
ENDBRANCH   4  29
TORSDOF 3
