REMARK  5 active torsions:
REMARK  status: ('A' for Active; 'I' for Inactive)
REMARK    1  A    between atoms: C4_6  and  N3_7 
REMARK    2  A    between atoms: N3_7  and  C5_8 
REMARK    3  A    between atoms: C13_17  and  N4_18 
REMARK    4  A    between atoms: N4_18  and  C14_19 
REMARK    5  A    between atoms: C14_19  and  C15_20 
ROOT
HETATM    1  N1  UNL     1       1.505  -5.701  -1.946  1.00  0.00    -0.191 NA
HETATM    2  C1  UNL     1       1.714  -4.647  -1.518  1.00  0.00     0.102 C 
HETATM    3  C2  UNL     1       1.974  -3.347  -0.975  1.00  0.00     0.073 A 
HETATM    4  C3  UNL     1       3.237  -2.992  -0.561  1.00  0.00     0.142 A 
HETATM    5  N2  UNL     1       3.459  -1.776  -0.059  1.00  0.00    -0.241 NA
HETATM    6  C4  UNL     1       2.579  -0.799   0.109  1.00  0.00     0.139 A 
HETATM    7  C11 UNL     1       1.314  -1.151  -0.304  1.00  0.00     0.024 A 
HETATM    8  C12 UNL     1       0.226  -0.310  -0.232  1.00  0.00     0.045 A 
HETATM    9  C13 UNL     1      -1.060  -0.605  -0.628  1.00  0.00     0.029 A 
HETATM   10  C19 UNL     1      -1.305  -1.850  -1.147  1.00  0.00     0.030 A 
HETATM   11  C20 UNL     1      -0.263  -2.747  -1.249  1.00  0.00     0.016 A 
HETATM   12  C21 UNL     1       1.013  -2.379  -0.829  1.00  0.00     0.000 A 
ENDROOT
BRANCH   6  13
HETATM   13  N3  UNL     1       2.828   0.468   0.637  1.00  0.00    -0.340 N 
HETATM   14  H2  UNL     1       2.083   1.186   0.718  1.00  0.00     0.167 HD
BRANCH  13  15
HETATM   15  C5  UNL     1       4.037   0.983   1.124  1.00  0.00     0.035 A 
HETATM   16  C6  UNL     1       5.178   0.227   1.267  1.00  0.00     0.029 A 
HETATM   17  C7  UNL     1       6.384   0.700   1.736  1.00  0.00     0.004 A 
HETATM   18  C8  UNL     1       6.513   2.012   2.104  1.00  0.00     0.019 A 
HETATM   19  C9  UNL     1       5.413   2.823   1.988  1.00  0.00     0.013 A 
HETATM   20 BR1  UNL     1       5.529   4.642   2.479  1.00  0.00    -0.051 Br
HETATM   21  C10 UNL     1       4.241   2.288   1.512  1.00  0.00     0.048 A 
ENDBRANCH  13  15
ENDBRANCH   6  13
BRANCH   9  22
HETATM   22  N4  UNL     1      -2.129   0.328  -0.518  1.00  0.00    -0.388 N 
HETATM   23  H8  UNL     1      -1.911   1.287  -0.112  1.00  0.00     0.159 HD
BRANCH  22  24
HETATM   24  C14 UNL     1      -3.466  -0.032  -0.949  1.00  0.00     0.145 C 
BRANCH  24  25
HETATM   25  C15 UNL     1      -4.368   1.164  -0.702  1.00  0.00     0.102 C 
HETATM   26  C16 UNL     1      -5.795   0.883  -1.124  1.00  0.00     0.036 C 
HETATM   27  C17 UNL     1      -6.583   1.763  -0.173  1.00  0.00     0.105 C 
HETATM   28  C18 UNL     1      -5.897   1.434   1.124  1.00  0.00     0.218 C 
HETATM   29  O1  UNL     1      -6.021   1.171   2.368  1.00  0.00    -0.274 OA
HETATM   30  N5  UNL     1      -4.516   1.429   0.713  1.00  0.00    -0.355 N 
HETATM   31  H16 UNL     1      -3.563   1.564   1.151  1.00  0.00     0.162 HD
ENDBRANCH  24  25
ENDBRANCH  22  24
ENDBRANCH   9  22
TORSDOF 5
