REMARK  4 active torsions:
REMARK  status: ('A' for Active; 'I' for Inactive)
REMARK    1  A    between atoms: C6_7  and  N2_8 
REMARK    2  A    between atoms: C8_10  and  B1_11 
REMARK    3  A    between atoms: B1_11  and  C9_12 
REMARK    4  A    between atoms: C9_12  and  C10_14 
ROOT
HETATM    1  N1  UNL     1      -5.623  -3.122   0.614  1.00  0.00    -0.191 NA
HETATM    2  C1  UNL     1      -4.784  -2.383   0.294  1.00  0.00     0.101 C 
HETATM    3  C2  UNL     1      -3.733  -1.490  -0.108  1.00  0.00     0.063 C 
HETATM    4  C3  UNL     1      -3.956  -0.152   0.044  1.00  0.00     0.024 C 
HETATM    5  C4  UNL     1      -3.557   1.088   0.504  1.00  0.00     0.004 C 
HETATM    6  C5  UNL     1      -2.620   1.905  -0.104  1.00  0.00     0.029 C 
HETATM    7  C6  UNL     1      -1.323   2.371  -0.032  1.00  0.00     0.026 C 
HETATM    8  C7  UNL     1      -0.197   1.650   0.298  1.00  0.00     0.045 C 
HETATM    9  C8  UNL     1      -0.013   0.307   0.146  1.00  0.00     0.020 C 
HETATM   10  N3  UNL     1      -1.105  -0.454   0.302  1.00  0.00    -0.168 NA
HETATM   11  N4  UNL     1      -1.527  -1.173  -0.741  1.00  0.00    -0.162 NA
HETATM   12  C14 UNL     1      -2.554  -2.026  -0.628  1.00  0.00     0.163 C 
ENDROOT
BRANCH   7  13
HETATM   13  N2  UNL     1      -1.197   3.763  -0.345  1.00  0.00    -0.399 N 
HETATM   14  H4  UNL     1      -1.627   4.387   0.385  1.00  0.00     0.156 HD
HETATM   15  H5  UNL     1      -0.692   3.893  -1.255  1.00  0.00     0.156 HD
ENDBRANCH   7  13
BRANCH   9  16
HETATM   16  B1  UNL     1       1.342  -0.354  -0.185  1.00  0.00     0.312 B 
HETATM   17  H7  UNL     1       1.338  -1.379  -0.769  1.00  0.00    -0.010 HD
BRANCH  16  18
HETATM   18  C9  UNL     1       2.711   0.390   0.000  1.00  0.00     0.136 C 
HETATM   19  O1  UNL     1       2.797   1.645   0.046  1.00  0.00    -0.304 OA
BRANCH  18  20
HETATM   20  C10 UNL     1       3.931  -0.417   0.124  1.00  0.00     0.108 A 
HETATM   21  C11 UNL     1       4.022  -1.804   0.095  1.00  0.00     0.042 A 
HETATM   22  C12 UNL     1       5.356  -2.151   0.245  1.00  0.00     0.027 A 
HETATM   23  C13 UNL     1       6.015  -0.944   0.359  1.00  0.00     0.142 A 
HETATM   24  O2  UNL     1       5.148   0.036   0.282  1.00  0.00    -0.320 OA
ENDBRANCH  18  20
ENDBRANCH  16  18
ENDBRANCH   9  16
TORSDOF 4
