REMARK  1 active torsions:
REMARK  status: ('A' for Active; 'I' for Inactive)
REMARK    1  A    between atoms: C11_14  and  C12_15 
ROOT
HETATM    1  N1  UNL     1       5.579  -0.350   1.404  1.00  0.00    -0.191 NA
HETATM    2  C1  UNL     1       4.688   0.087   0.856  1.00  0.00     0.102 C 
HETATM    3  C2  UNL     1       3.559   0.614   0.177  1.00  0.00     0.073 A 
HETATM    4  C3  UNL     1       3.411   1.862  -0.398  1.00  0.00     0.142 A 
HETATM    5  N2  UNL     1       2.330   2.343  -1.033  1.00  0.00    -0.241 NA
HETATM    6  C4  UNL     1       1.215   1.637  -1.192  1.00  0.00     0.139 A 
HETATM    7  C5  UNL     1       1.305   0.385  -0.647  1.00  0.00     0.024 A 
HETATM    8  C6  UNL     1       0.534  -0.734  -0.462  1.00  0.00     0.045 A 
HETATM    9  C7  UNL     1      -0.046  -1.911  -0.173  1.00  0.00     0.029 A 
HETATM   10  C8  UNL     1       1.126  -2.239   0.437  1.00  0.00     0.030 A 
HETATM   11  C9  UNL     1       2.290  -1.463   0.555  1.00  0.00     0.016 A 
HETATM   12  C10 UNL     1       2.403  -0.174   0.031  1.00  0.00     0.000 A 
HETATM   13  N3  UNL     1      -1.349  -2.114  -0.578  1.00  0.00    -0.375 N 
HETATM   14  C11 UNL     1      -2.675  -1.488  -0.248  1.00  0.00     0.176 C 
HETATM   15  C13 UNL     1      -2.450   0.007  -0.132  1.00  0.00    -0.025 A 
HETATM   16  C14 UNL     1      -2.683   0.620   1.068  1.00  0.00     0.029 A 
HETATM   17  C15 UNL     1      -2.024   1.859   1.130  1.00  0.00     0.013 A 
HETATM   18 BR1  UNL     1      -2.268   2.856   2.748  1.00  0.00    -0.051 Br
HETATM   19  C16 UNL     1      -1.238   2.345   0.068  1.00  0.00     0.048 A 
HETATM   20  C17 UNL     1      -1.178   1.514  -1.025  1.00  0.00     0.035 A 
HETATM   21  C18 UNL     1      -1.766   0.292  -1.261  1.00  0.00     0.039 A 
HETATM   22  N4  UNL     1      -0.046   2.130  -1.723  1.00  0.00    -0.340 N 
HETATM   23  H5  UNL     1      -0.868  -2.851  -1.133  1.00  0.00     0.160 HD
HETATM   24  H11 UNL     1      -0.053   2.838  -2.430  1.00  0.00     0.167 HD
ENDROOT
BRANCH  14  25
HETATM   25  C12 UNL     1      -3.057  -1.984   1.096  1.00  0.00     0.261 C 
HETATM   26  O1  UNL     1      -3.778  -2.086   2.092  1.00  0.00    -0.304 OA
ENDBRANCH  14  25
TORSDOF 1
