REMARK  2 active torsions:
REMARK  status: ('A' for Active; 'I' for Inactive)
REMARK    1  A    between atoms: C4_5  and  N2_6 
REMARK    2  A    between atoms: C10_13  and  O1_14 
ROOT
HETATM    1  N1  UNL     1      -1.283   4.152   2.399  1.00  0.00    -0.191 NA
HETATM    2  C1  UNL     1      -0.830   3.346   1.723  1.00  0.00     0.100 C 
HETATM    3  C2  UNL     1      -0.257   2.353   0.912  1.00  0.00     0.054 C 
HETATM    4  C3  UNL     1       0.724   1.429   1.221  1.00  0.00     0.025 C 
HETATM    5  C4  UNL     1       0.761   0.042   0.567  1.00  0.00     0.153 C 
HETATM    6  C10 UNL     1      -0.245  -0.218  -0.539  1.00  0.00     0.127 C 
HETATM    7  C11 UNL     1      -0.055   0.705  -1.740  1.00  0.00     0.017 C 
HETATM    8  C12 UNL     1      -0.248   2.084  -1.808  1.00  0.00     0.013 C 
HETATM    9  C13 UNL     1      -0.927   2.311  -0.459  1.00  0.00    -0.001 C 
HETATM   10  C14 UNL     1      -2.231   2.418   0.042  1.00  0.00     0.096 C 
HETATM   11  N3  UNL     1      -3.251   1.361  -0.337  1.00  0.00    -0.396 N 
HETATM   12  C15 UNL     1      -2.845  -0.007  -0.895  1.00  0.00     0.153 C 
HETATM   13  C16 UNL     1      -1.626  -0.541  -0.187  1.00  0.00     0.086 C 
HETATM   14  C17 UNL     1      -1.869  -2.075  -0.229  1.00  0.00     0.045 C 
HETATM   15  C18 UNL     1      -3.027  -2.335   0.697  1.00  0.00     0.105 C 
HETATM   16  C19 UNL     1      -2.967  -1.114   1.543  1.00  0.00     0.218 C 
HETATM   17  O2  UNL     1      -3.973  -1.067   2.331  1.00  0.00    -0.274 OA
HETATM   18  N4  UNL     1      -1.818  -0.321   1.259  1.00  0.00    -0.347 N 
HETATM   19  H12 UNL     1      -4.026   1.987  -0.043  1.00  0.00     0.159 HD
HETATM   20  H19 UNL     1      -1.533   0.127   2.187  1.00  0.00     0.163 HD
ENDROOT
BRANCH   5  21
HETATM   21  N2  UNL     1       2.104  -0.197   0.177  1.00  0.00    -0.354 N 
HETATM   22  C5  UNL     1       2.903   0.578  -0.702  1.00  0.00     0.087 A 
HETATM   23  C6  UNL     1       4.148   0.314  -1.037  1.00  0.00    -0.004 A 
HETATM   24  C7  UNL     1       4.832  -0.860  -0.498  1.00  0.00     0.076 A 
HETATM   25  C8  UNL     1       4.059  -1.695   0.412  1.00  0.00     0.007 A 
HETATM   26 BR1  UNL     1       4.850  -3.236   1.165  1.00  0.00    -0.054 Br
HETATM   27  C9  UNL     1       2.812  -1.349   0.690  1.00  0.00     0.106 A 
ENDBRANCH   5  21
BRANCH   6  28
HETATM   28  O1  UNL     1       0.333  -1.423  -1.058  1.00  0.00    -0.381 OA
HETATM   29  H8  UNL     1       1.287  -1.308  -1.255  1.00  0.00     0.211 HD
ENDBRANCH   6  28
TORSDOF 2
