REMARK  4 active torsions:
REMARK  status: ('A' for Active; 'I' for Inactive)
REMARK    1  A    between atoms: C2_2  and  O1_3 
REMARK    2  A    between atoms: O1_3  and  C3_4 
REMARK       I    between atoms: C3_4  and  N1_6 
REMARK    3  A    between atoms: N1_6  and  C4_7 
REMARK    4  A    between atoms: C11_16  and  C12_17 
ROOT
HETATM    1  C4  UNL     1       1.031  -1.032  -0.752  1.00  0.00     0.037 A 
HETATM    2  C5  UNL     1       1.331  -2.349  -0.394  1.00  0.00     0.030 A 
HETATM    3  C6  UNL     1       0.431  -3.179   0.274  1.00  0.00     0.016 A 
HETATM    4  C7  UNL     1      -0.820  -2.691   0.603  1.00  0.00    -0.001 A 
HETATM    5  C8  UNL     1      -1.745  -3.481   1.255  1.00  0.00     0.073 A 
HETATM    6  C9  UNL     1      -1.443  -4.835   1.625  1.00  0.00     0.102 C 
HETATM    7  N2  UNL     1      -1.190  -5.921   1.926  1.00  0.00    -0.191 NA
HETATM    8  C10 UNL     1      -2.952  -2.865   1.509  1.00  0.00     0.140 A 
HETATM    9  N3  UNL     1      -3.216  -1.586   1.152  1.00  0.00    -0.258 NA
HETATM   10  C11 UNL     1      -2.311  -0.809   0.514  1.00  0.00     0.078 A 
HETATM   11  C18 UNL     1      -1.091  -1.389   0.240  1.00  0.00     0.007 A 
HETATM   12  C19 UNL     1      -0.216  -0.553  -0.420  1.00  0.00     0.044 A 
ENDROOT
BRANCH  10  13
HETATM   13  C12 UNL     1      -2.817   0.520   0.233  1.00  0.00    -0.005 A 
HETATM   14  C13 UNL     1      -4.070   0.566  -0.393  1.00  0.00     0.014 A 
HETATM   15  C14 UNL     1      -4.738   1.742  -0.730  1.00  0.00     0.002 A 
HETATM   16  C15 UNL     1      -4.117   2.936  -0.426  1.00  0.00     0.019 A 
HETATM   17  C16 UNL     1      -2.896   2.927   0.184  1.00  0.00     0.011 A 
HETATM   18 BR1  UNL     1      -2.007   4.568   0.621  1.00  0.00    -0.051 Br
HETATM   19  C17 UNL     1      -2.263   1.751   0.504  1.00  0.00     0.032 A 
ENDBRANCH  10  13
BRANCH   1  20
HETATM   20  N1  UNL     1       2.039  -0.292  -1.430  1.00  0.00    -0.303 N 
HETATM   21  C3  UNL     1       2.903   0.419  -0.552  1.00  0.00     0.365 C 
HETATM   22  O2  UNL     1       3.061   0.604   0.678  1.00  0.00    -0.238 OA
HETATM   23  H6  UNL     1       2.248  -0.184  -2.437  1.00  0.00     0.171 HD
BRANCH  21  24
HETATM   24  O1  UNL     1       3.973   1.221  -0.958  1.00  0.00    -0.304 OA
BRANCH  24  25
HETATM   25  C2  UNL     1       4.776   1.890   0.026  1.00  0.00     0.176 C 
HETATM   26  C1  UNL     1       5.834   2.667  -0.692  1.00  0.00     0.034 C 
ENDBRANCH  24  25
ENDBRANCH  21  24
ENDBRANCH   1  20
TORSDOF 4
