REMARK  5 active torsions:
REMARK  status: ('A' for Active; 'I' for Inactive)
REMARK    1  A    between atoms: C4_6  and  N3_7 
REMARK    2  A    between atoms: N3_7  and  C5_8 
REMARK    3  A    between atoms: C13_17  and  N4_18 
REMARK    4  A    between atoms: N4_18  and  O1_19 
REMARK    5  A    between atoms: N4_18  and  C14_20 
ROOT
HETATM    1  N1  UNL     1       0.090  -5.415  -2.761  1.00  0.00    -0.191 NA
HETATM    2  C1  UNL     1       0.555  -4.600  -2.082  1.00  0.00     0.102 C 
HETATM    3  C2  UNL     1       1.124  -3.579  -1.236  1.00  0.00     0.073 A 
HETATM    4  C3  UNL     1       2.415  -3.661  -0.750  1.00  0.00     0.142 A 
HETATM    5  N2  UNL     1       2.867  -2.662   0.034  1.00  0.00    -0.241 NA
HETATM    6  C4  UNL     1       2.106  -1.589   0.360  1.00  0.00     0.139 A 
HETATM    7  C11 UNL     1       0.825  -1.510  -0.124  1.00  0.00     0.024 A 
HETATM    8  C12 UNL     1       0.119  -0.387   0.254  1.00  0.00     0.048 A 
HETATM    9  C13 UNL     1      -1.187  -0.235  -0.197  1.00  0.00     0.060 A 
HETATM   10  C18 UNL     1      -1.699  -1.247  -1.013  1.00  0.00     0.032 A 
HETATM   11  C19 UNL     1      -0.982  -2.360  -1.381  1.00  0.00     0.016 A 
HETATM   12  C20 UNL     1       0.306  -2.500  -0.931  1.00  0.00     0.000 A 
ENDROOT
BRANCH   6  13
HETATM   13  N3  UNL     1       2.784  -0.664   1.193  1.00  0.00    -0.340 N 
HETATM   14  H2  UNL     1       2.560  -0.996   2.158  1.00  0.00     0.167 HD
BRANCH  13  15
HETATM   15  C5  UNL     1       3.599   0.474   0.947  1.00  0.00     0.035 A 
HETATM   16  C6  UNL     1       4.104   1.153   2.039  1.00  0.00     0.029 A 
HETATM   17  C7  UNL     1       4.885   2.244   1.744  1.00  0.00     0.004 A 
HETATM   18  C8  UNL     1       5.175   2.674   0.463  1.00  0.00     0.019 A 
HETATM   19  C9  UNL     1       4.637   1.949  -0.581  1.00  0.00     0.013 A 
HETATM   20 BR1  UNL     1       5.050   2.560  -2.348  1.00  0.00    -0.051 Br
HETATM   21  C10 UNL     1       3.837   0.832  -0.361  1.00  0.00     0.048 A 
ENDBRANCH  13  15
ENDBRANCH   6  13
BRANCH   9  22
HETATM   22  N4  UNL     1      -1.994   0.900   0.147  1.00  0.00    -0.237 N 
BRANCH  22  23
HETATM   23  O1  UNL     1      -1.438   1.824   0.930  1.00  0.00    -0.285 OA
HETATM   24  H8  UNL     1      -1.618   1.656   1.905  1.00  0.00     0.245 HD
ENDBRANCH  22  23
BRANCH  22  25
HETATM   25  C14 UNL     1      -3.351   0.987  -0.363  1.00  0.00     0.215 C 
HETATM   26  C15 UNL     1      -3.965   2.278   0.154  1.00  0.00     0.058 C 
HETATM   27  C16 UNL     1      -5.460   2.020   0.185  1.00  0.00     0.106 C 
HETATM   28  C17 UNL     1      -5.497   0.517   0.107  1.00  0.00     0.219 C 
HETATM   29  O2  UNL     1      -6.695   0.091   0.011  1.00  0.00    -0.274 OA
HETATM   30  N5  UNL     1      -4.184  -0.079   0.159  1.00  0.00    -0.338 N 
HETATM   31  H14 UNL     1      -4.280  -1.045   0.542  1.00  0.00     0.164 HD
ENDBRANCH  22  25
ENDBRANCH   9  22
TORSDOF 5
