REMARK  6 active torsions:
REMARK  status: ('A' for Active; 'I' for Inactive)
REMARK    1  A    between atoms: C2_2  and  O1_3 
REMARK    2  A    between atoms: O1_3  and  C3_4 
REMARK       I    between atoms: C3_4  and  N1_6 
REMARK    3  A    between atoms: N1_6  and  C4_7 
REMARK    4  A    between atoms: C10_13  and  C11_14 
REMARK    5  A    between atoms: C11_14  and  O3_15 
REMARK    6  A    between atoms: O3_15  and  C12_16 
ROOT
HETATM    1  C4  UNL     1       2.301  -0.093   1.080  1.00  0.00     0.037 A 
HETATM    2  C5  UNL     1       2.840  -1.298   1.535  1.00  0.00     0.030 A 
HETATM    3  C6  UNL     1       2.009  -2.396   1.618  1.00  0.00     0.016 A 
HETATM    4  C7  UNL     1       0.671  -2.292   1.257  1.00  0.00    -0.004 A 
HETATM    5  C8  UNL     1       0.139  -1.101   0.808  1.00  0.00    -0.013 A 
HETATM    6  C9  UNL     1       0.968  -0.001   0.723  1.00  0.00     0.042 A 
HETATM    7  C10 UNL     1      -1.267  -1.327   0.517  1.00  0.00    -0.010 C 
HETATM    8  C18 UNL     1      -1.435  -2.619   0.657  1.00  0.00     0.007 C 
HETATM    9  C19 UNL     1      -0.444  -3.242   1.230  1.00  0.00     0.067 C 
HETATM   10  C20 UNL     1      -0.346  -4.565   1.760  1.00  0.00     0.101 C 
HETATM   11  N2  UNL     1      -0.268  -5.629   2.170  1.00  0.00    -0.191 NA
ENDROOT
BRANCH   7  12
HETATM   12  C11 UNL     1      -2.232  -0.289   0.151  1.00  0.00     0.216 C 
BRANCH  12  13
HETATM   13  O3  UNL     1      -3.524  -0.859  -0.066  1.00  0.00    -0.347 OA
BRANCH  13  14
HETATM   14  C12 UNL     1      -4.603  -0.034  -0.428  1.00  0.00     0.070 A 
HETATM   15  C13 UNL     1      -4.587   1.323  -0.612  1.00  0.00     0.037 A 
HETATM   16  C14 UNL     1      -5.732   1.992  -0.968  1.00  0.00     0.004 A 
HETATM   17  C15 UNL     1      -6.902   1.275  -1.136  1.00  0.00     0.019 A 
HETATM   18  C16 UNL     1      -6.954  -0.094  -0.958  1.00  0.00     0.013 A 
HETATM   19 BR1  UNL     1      -8.622  -1.013  -1.213  1.00  0.00    -0.051 Br
HETATM   20  C17 UNL     1      -5.788  -0.752  -0.600  1.00  0.00     0.055 A 
ENDBRANCH  13  14
ENDBRANCH  12  13
ENDBRANCH   7  12
BRANCH   1  21
HETATM   21  N1  UNL     1       3.248   0.969   1.035  1.00  0.00    -0.303 N 
HETATM   22  C3  UNL     1       4.034   1.244  -0.098  1.00  0.00     0.365 C 
HETATM   23  O2  UNL     1       3.961   0.583  -1.144  1.00  0.00    -0.238 OA
HETATM   24  H6  UNL     1       3.242   1.471   1.960  1.00  0.00     0.171 HD
BRANCH  22  25
HETATM   25  O1  UNL     1       4.884   2.324   0.094  1.00  0.00    -0.304 OA
BRANCH  25  26
HETATM   26  C2  UNL     1       5.764   2.756  -0.953  1.00  0.00     0.176 C 
HETATM   27  C1  UNL     1       6.655   1.539  -1.237  1.00  0.00     0.034 C 
ENDBRANCH  25  26
ENDBRANCH  22  25
ENDBRANCH   1  21
TORSDOF 6
