REMARK  5 active torsions:
REMARK  status: ('A' for Active; 'I' for Inactive)
REMARK    1  A    between atoms: C2_2  and  O1_3 
REMARK    2  A    between atoms: O1_3  and  C3_4 
REMARK       I    between atoms: C3_4  and  N1_6 
REMARK    3  A    between atoms: N1_6  and  C4_7 
REMARK    4  A    between atoms: C10_15  and  N4_16 
REMARK    5  A    between atoms: N4_16  and  C11_17 
ROOT
HETATM    1  C4  UNL     1       2.028  -1.282   0.674  1.00  0.00     0.034 A 
HETATM    2  C5  UNL     1       1.632  -2.419   0.131  1.00  0.00     0.018 A 
HETATM    3  C6  UNL     1       0.221  -2.346  -0.193  1.00  0.00     0.092 A 
HETATM    4  C7  UNL     1      -0.663  -3.475   0.028  1.00  0.00     0.052 C 
HETATM    5  C8  UNL     1      -0.416  -4.865   0.033  1.00  0.00     0.097 C 
HETATM    6  N2  UNL     1      -0.199  -5.990   0.028  1.00  0.00    -0.192 NA
HETATM    7  C9  UNL     1      -1.932  -3.104   0.275  1.00  0.00     0.138 C 
HETATM    8  N3  UNL     1      -2.467  -1.792   0.366  1.00  0.00    -0.241 NA
HETATM    9  C10 UNL     1      -1.711  -0.748   0.238  1.00  0.00     0.135 C 
HETATM   10  C16 UNL     1      -0.266  -1.084   0.342  1.00  0.00     0.003 A 
HETATM   11  C17 UNL     1       0.817  -0.439   0.809  1.00  0.00     0.041 A 
ENDROOT
BRANCH   1  12
HETATM   12  N1  UNL     1       3.249  -0.708   1.198  1.00  0.00    -0.303 N 
HETATM   13  C3  UNL     1       3.660   0.477   0.489  1.00  0.00     0.365 C 
HETATM   14  O2  UNL     1       2.943   0.867  -0.479  1.00  0.00    -0.238 OA
HETATM   15  H6  UNL     1       3.877  -0.985   1.981  1.00  0.00     0.171 HD
BRANCH  13  16
HETATM   16  O1  UNL     1       4.785   1.267   0.751  1.00  0.00    -0.304 OA
BRANCH  16  17
HETATM   17  C2  UNL     1       4.986   2.403  -0.105  1.00  0.00     0.176 C 
HETATM   18  C1  UNL     1       6.229   3.104   0.379  1.00  0.00     0.034 C 
ENDBRANCH  16  17
ENDBRANCH  13  16
ENDBRANCH   1  12
BRANCH   9  19
HETATM   19  N4  UNL     1      -2.006   0.633   0.266  1.00  0.00    -0.339 N 
HETATM   20  H10 UNL     1      -1.332   1.362   0.591  1.00  0.00     0.167 HD
BRANCH  19  21
HETATM   21  C11 UNL     1      -3.341   0.926  -0.202  1.00  0.00     0.048 A 
HETATM   22  C12 UNL     1      -4.473   0.783   0.563  1.00  0.00     0.050 A 
HETATM   23  C13 UNL     1      -5.766   1.057   0.186  1.00  0.00     0.013 A 
HETATM   24 BR1  UNL     1      -7.180   0.757   1.465  1.00  0.00    -0.051 Br
HETATM   25  C14 UNL     1      -6.146   1.534  -1.059  1.00  0.00     0.021 A 
HETATM   26  C15 UNL     1      -5.309   1.817  -2.128  1.00  0.00     0.019 A 
HETATM   27  P1  UNL     1      -3.626   1.523  -1.824  1.00  0.00    -0.004 P 
ENDBRANCH  19  21
ENDBRANCH   9  19
TORSDOF 5
