REMARK  1 active torsions:
REMARK  status: ('A' for Active; 'I' for Inactive)
REMARK    1  A    between atoms: S1_2  and  C1_3 
ROOT
HETATM    1  C1  UNL     1       2.445  -0.154   0.767  1.00  0.00     0.054 C 
HETATM    2  C2  UNL     1       1.663   0.412  -0.200  1.00  0.00     0.040 C 
HETATM    3  C3  UNL     1       1.886   1.682  -0.900  1.00  0.00    -0.003 C 
HETATM    4  C4  UNL     1       0.888   1.892  -1.779  1.00  0.00     0.086 C 
HETATM    5  N1  UNL     1      -0.215   1.023  -1.996  1.00  0.00    -0.350 N 
HETATM    6  C5  UNL     1      -1.334   1.051  -1.123  1.00  0.00     0.142 A 
HETATM    7  N2  UNL     1      -1.807   2.308  -1.125  1.00  0.00    -0.224 NA
HETATM    8  C6  UNL     1      -2.897   2.666  -0.380  1.00  0.00     0.237 A 
HETATM    9  N3  UNL     1      -3.513   1.737   0.374  1.00  0.00    -0.220 NA
HETATM   10  C7  UNL     1      -3.097   0.455   0.427  1.00  0.00     0.183 A 
HETATM   11  N4  UNL     1      -3.335  -0.759   0.958  1.00  0.00    -0.151 NA
HETATM   12  N5  UNL     1      -2.380  -1.561   0.444  1.00  0.00    -0.251 N 
HETATM   13  C8  UNL     1      -1.382  -0.992  -0.492  1.00  0.00     0.168 A 
HETATM   14  C9  UNL     1      -2.010   0.187  -0.341  1.00  0.00     0.077 A 
HETATM   15  P1  UNL     1      -1.085  -2.646  -0.253  1.00  0.00     0.047 P 
HETATM   16  C10 UNL     1       0.034  -3.284   1.018  1.00  0.00     0.066 C 
HETATM   17  C11 UNL     1       1.191  -2.464   1.353  1.00  0.00     0.002 C 
HETATM   18  C12 UNL     1       1.413  -1.264   0.723  1.00  0.00     0.019 C 
HETATM   19  H4  UNL     1      -0.652   0.284  -2.561  1.00  0.00     0.166 HD
ENDROOT
BRANCH   1  20
HETATM   20  S1  UNL     1       4.020   0.145   1.736  1.00  0.00    -0.046 SA
HETATM   21 CL1  UNL     1       4.794   1.977   1.133  1.00  0.00    -0.043 Cl
ENDBRANCH   1  20
TORSDOF 1
