REMARK  5 active torsions:
REMARK  status: ('A' for Active; 'I' for Inactive)
REMARK    1  A    between atoms: C2_2  and  O1_3 
REMARK    2  A    between atoms: O1_3  and  C3_4 
REMARK       I    between atoms: C3_4  and  N1_6 
REMARK    3  A    between atoms: N1_6  and  C4_7 
REMARK    4  A    between atoms: C11_16  and  N4_17 
REMARK    5  A    between atoms: N4_17  and  C12_18 
ROOT
HETATM    1  C4  UNL     1       2.000  -1.382  -0.096  1.00  0.00     0.037 A 
HETATM    2  C5  UNL     1       2.117  -2.749   0.028  1.00  0.00     0.030 A 
HETATM    3  C6  UNL     1       1.001  -3.544   0.140  1.00  0.00     0.016 A 
HETATM    4  C7  UNL     1      -0.254  -2.970   0.129  1.00  0.00     0.000 A 
HETATM    5  C8  UNL     1      -1.308  -3.843   0.247  1.00  0.00     0.073 A 
HETATM    6  C9  UNL     1      -1.106  -5.258   0.373  1.00  0.00     0.102 C 
HETATM    7  N2  UNL     1      -0.944  -6.392   0.477  1.00  0.00    -0.191 NA
HETATM    8  C10 UNL     1      -2.566  -3.285   0.238  1.00  0.00     0.142 A 
HETATM    9  N3  UNL     1      -2.697  -1.960   0.118  1.00  0.00    -0.241 NA
HETATM   10  C11 UNL     1      -1.695  -1.083   0.001  1.00  0.00     0.139 A 
HETATM   11  C18 UNL     1      -0.429  -1.609   0.007  1.00  0.00     0.024 A 
HETATM   12  C19 UNL     1       0.728  -0.877  -0.101  1.00  0.00     0.045 A 
ENDROOT
BRANCH  10  13
HETATM   13  N4  UNL     1      -1.886   0.314  -0.123  1.00  0.00    -0.340 N 
HETATM   14  H10 UNL     1      -1.082   0.962  -0.234  1.00  0.00     0.167 HD
BRANCH  13  15
HETATM   15  C12 UNL     1      -3.080   1.058  -0.123  1.00  0.00     0.033 A 
HETATM   16  C13 UNL     1      -3.177   2.418  -0.393  1.00  0.00     0.029 A 
HETATM   17  C14 UNL     1      -4.328   3.142  -0.390  1.00  0.00     0.002 A 
HETATM   18  C15 UNL     1      -5.522   2.526  -0.101  1.00  0.00     0.000 A 
HETATM   19  C16 UNL     1      -5.500   1.179   0.176  1.00  0.00     0.002 A 
HETATM   20  C17 UNL     1      -4.304   0.506   0.156  1.00  0.00     0.029 A 
ENDBRANCH  13  15
ENDBRANCH  10  13
BRANCH   1  21
HETATM   21  N1  UNL     1       3.215  -0.666  -0.205  1.00  0.00    -0.303 N 
HETATM   22  C3  UNL     1       3.432   0.722  -0.342  1.00  0.00     0.365 C 
HETATM   23  O2  UNL     1       2.466   1.497  -0.381  1.00  0.00    -0.238 OA
HETATM   24  H6  UNL     1       4.133  -1.163  -0.189  1.00  0.00     0.171 HD
BRANCH  22  25
HETATM   25  O1  UNL     1       4.657   1.355  -0.442  1.00  0.00    -0.304 OA
BRANCH  25  26
HETATM   26  C2  UNL     1       4.671   2.763  -0.574  1.00  0.00     0.176 C 
HETATM   27  C1  UNL     1       6.124   3.190  -0.664  1.00  0.00     0.034 C 
ENDBRANCH  25  26
ENDBRANCH  22  25
ENDBRANCH   1  21
TORSDOF 5
