REMARK  8 active torsions:
REMARK  status: ('A' for Active; 'I' for Inactive)
REMARK    1  A    between atoms: C2_2  and  O1_3 
REMARK    2  A    between atoms: O1_3  and  C3_4 
REMARK       I    between atoms: C3_4  and  N1_6 
REMARK    3  A    between atoms: N1_6  and  C4_7 
REMARK    4  A    between atoms: C8_11  and  B1_12 
REMARK    5  A    between atoms: C11_17  and  N4_18 
REMARK    6  A    between atoms: N4_18  and  C12_19 
REMARK    7  A    between atoms: C12_19  and  C13_20 
REMARK    8  A    between atoms: C13_20  and  C14_21 
ROOT
HETATM    1  B1  UNL     1       0.241   1.572   4.705  1.00  0.00     0.322 B 
HETATM    2  C9  UNL     1      -0.954   1.305   5.664  1.00  0.00    -0.009 C 
HETATM    3  N2  UNL     1      -1.852   1.120   6.366  1.00  0.00    -0.214 NA
HETATM    4  H9  UNL     1       1.060   2.347   5.071  1.00  0.00    -0.003 HD
ENDROOT
BRANCH   1   5
HETATM    5  C8  UNL     1       0.576   0.582   3.550  1.00  0.00    -0.055 A 
HETATM    6  C7  UNL     1      -0.374   0.400   2.570  1.00  0.00    -0.024 A 
HETATM    7  C6  UNL     1      -1.599   1.012   2.534  1.00  0.00     0.014 A 
HETATM    8  C18 UNL     1      -0.090  -0.471   1.548  1.00  0.00     0.022 A 
HETATM    9  C5  UNL     1      -2.482   0.741   1.503  1.00  0.00     0.030 A 
HETATM   10  C4  UNL     1      -2.141  -0.151   0.492  1.00  0.00     0.037 A 
HETATM   11  C19 UNL     1      -0.920  -0.784   0.494  1.00  0.00     0.045 A 
HETATM   12  C11 UNL     1       1.126  -1.118   1.551  1.00  0.00     0.138 A 
HETATM   13  N3  UNL     1       2.024  -0.918   2.519  1.00  0.00    -0.243 NA
HETATM   14  C10 UNL     1       1.795  -0.063   3.559  1.00  0.00     0.116 A 
BRANCH  10  15
HETATM   15  N1  UNL     1      -3.185  -0.281  -0.451  1.00  0.00    -0.303 N 
HETATM   16  C3  UNL     1      -3.551   0.393  -1.636  1.00  0.00     0.365 C 
HETATM   17  O2  UNL     1      -2.835   1.335  -2.011  1.00  0.00    -0.238 OA
HETATM   18  H6  UNL     1      -3.726  -1.100  -0.042  1.00  0.00     0.171 HD
BRANCH  16  19
HETATM   19  O1  UNL     1      -4.688  -0.100  -2.235  1.00  0.00    -0.304 OA
BRANCH  19  20
HETATM   20  C2  UNL     1      -5.147   0.503  -3.426  1.00  0.00     0.176 C 
HETATM   21  C1  UNL     1      -4.082   0.364  -4.486  1.00  0.00     0.034 C 
ENDBRANCH  19  20
ENDBRANCH  16  19
ENDBRANCH  10  15
BRANCH  12  22
HETATM   22  N4  UNL     1       1.611  -2.074   0.592  1.00  0.00    -0.350 N 
HETATM   23  H11 UNL     1       1.393  -3.025   0.244  1.00  0.00     0.166 HD
BRANCH  22  24
HETATM   24  C12 UNL     1       2.741  -1.555  -0.084  1.00  0.00     0.090 C 
BRANCH  24  25
HETATM   25  C13 UNL     1       3.820  -0.889  -0.398  1.00  0.00     0.018 C 
BRANCH  25  26
HETATM   26  C14 UNL     1       5.002  -0.087  -0.600  1.00  0.00     0.014 C 
HETATM   27  C15 UNL     1       5.375  -0.428  -1.822  1.00  0.00    -0.017 A 
HETATM   28  C16 UNL     1       5.500  -1.010  -3.147  1.00  0.00     0.032 A 
HETATM   29  C17 UNL     1       6.448  -0.111  -2.792  1.00  0.00     0.022 A 
HETATM   30 BR1  UNL     1       8.045   0.819  -3.340  1.00  0.00    -0.050 Br
ENDBRANCH  25  26
ENDBRANCH  24  25
ENDBRANCH  22  24
ENDBRANCH  12  22
ENDBRANCH   1   5
TORSDOF 8
