REMARK  5 active torsions:
REMARK  status: ('A' for Active; 'I' for Inactive)
REMARK    1  A    between atoms: C2_2  and  O1_3 
REMARK    2  A    between atoms: O1_3  and  C3_4 
REMARK       I    between atoms: C3_4  and  N1_6 
REMARK    3  A    between atoms: N1_6  and  C4_7 
REMARK    4  A    between atoms: C11_16  and  N4_17 
REMARK    5  A    between atoms: N4_17  and  C12_18 
ROOT
HETATM    1  C4  UNL     1       1.897  -0.860  -0.619  1.00  0.00     0.037 A 
HETATM    2  C5  UNL     1       1.850  -2.256  -0.709  1.00  0.00     0.030 A 
HETATM    3  C6  UNL     1       0.644  -2.913  -0.600  1.00  0.00     0.016 A 
HETATM    4  C7  UNL     1      -0.516  -2.192  -0.402  1.00  0.00     0.000 A 
HETATM    5  C8  UNL     1      -1.716  -2.864  -0.294  1.00  0.00     0.073 A 
HETATM    6  C9  UNL     1      -1.837  -4.289  -0.377  1.00  0.00     0.102 C 
HETATM    7  N2  UNL     1      -1.933  -5.428  -0.427  1.00  0.00    -0.191 NA
HETATM    8  C10 UNL     1      -2.842  -2.096  -0.097  1.00  0.00     0.142 A 
HETATM    9  N3  UNL     1      -2.763  -0.773  -0.017  1.00  0.00    -0.241 NA
HETATM   10  C11 UNL     1      -1.646  -0.036  -0.109  1.00  0.00     0.135 A 
HETATM   11  C18 UNL     1      -0.527  -0.817  -0.306  1.00  0.00     0.024 A 
HETATM   12  C19 UNL     1       0.702  -0.202  -0.421  1.00  0.00     0.045 A 
ENDROOT
BRANCH  10  13
HETATM   13  N4  UNL     1      -1.659   1.362  -0.011  1.00  0.00    -0.366 N 
HETATM   14  H10 UNL     1      -0.818   1.959  -0.077  1.00  0.00     0.161 HD
BRANCH  13  15
HETATM   15  C12 UNL     1      -2.942   1.975   0.196  1.00  0.00     0.111 A 
HETATM   16  C13 UNL     1      -3.626   1.545   1.442  1.00  0.00     0.017 A 
HETATM   17  C14 UNL     1      -4.803   0.973   1.738  1.00  0.00     0.009 A 
HETATM   18 BR1  UNL     1      -5.472   0.507   3.461  1.00  0.00    -0.051 Br
HETATM   19  C15 UNL     1      -5.650   0.674   0.565  1.00  0.00     0.015 A 
HETATM   20  C16 UNL     1      -5.113   1.015  -0.583  1.00  0.00    -0.023 A 
HETATM   21  C17 UNL     1      -3.822   1.646  -0.985  1.00  0.00     0.056 A 
ENDBRANCH  13  15
ENDBRANCH  10  13
BRANCH   1  22
HETATM   22  N1  UNL     1       3.146  -0.187  -0.732  1.00  0.00    -0.303 N 
HETATM   23  C3  UNL     1       4.016   0.126   0.340  1.00  0.00     0.365 C 
HETATM   24  O2  UNL     1       3.803  -0.150   1.538  1.00  0.00    -0.238 OA
HETATM   25  H6  UNL     1       3.306   0.034  -1.733  1.00  0.00     0.171 HD
BRANCH  23  26
HETATM   26  O1  UNL     1       5.153   0.780  -0.061  1.00  0.00    -0.304 OA
BRANCH  26  27
HETATM   27  C2  UNL     1       6.179   1.201   0.815  1.00  0.00     0.176 C 
HETATM   28  C1  UNL     1       7.235   1.876  -0.055  1.00  0.00     0.034 C 
ENDBRANCH  26  27
ENDBRANCH  23  26
ENDBRANCH   1  22
TORSDOF 5
