REMARK  7 active torsions:
REMARK  status: ('A' for Active; 'I' for Inactive)
REMARK    1  A    between atoms: O1_2  and  C2_3 
REMARK    2  A    between atoms: C2_3  and  C3_4 
REMARK    3  A    between atoms: C3_4  and  C4_5 
REMARK    4  A    between atoms: C3_4  and  N1_7 
REMARK    5  A    between atoms: N1_7  and  C5_8 
REMARK    6  A    between atoms: C12_17  and  N4_18 
REMARK    7  A    between atoms: N4_18  and  C13_19 
ROOT
HETATM    1  C5  UNL     1       1.514  -0.203  -0.207  1.00  0.00     0.029 A 
HETATM    2  C6  UNL     1       1.954  -1.510  -0.223  1.00  0.00     0.030 A 
HETATM    3  C7  UNL     1       1.016  -2.520  -0.213  1.00  0.00     0.016 A 
HETATM    4  C8  UNL     1      -0.338  -2.221  -0.188  1.00  0.00     0.000 A 
HETATM    5  C9  UNL     1      -1.193  -3.302  -0.180  1.00  0.00     0.073 A 
HETATM    6  C10 UNL     1      -0.735  -4.650  -0.196  1.00  0.00     0.102 C 
HETATM    7  N2  UNL     1      -0.359  -5.752  -0.189  1.00  0.00    -0.191 NA
HETATM    8  C11 UNL     1      -2.527  -3.042  -0.155  1.00  0.00     0.142 A 
HETATM    9  N3  UNL     1      -2.943  -1.784  -0.141  1.00  0.00    -0.241 NA
HETATM   10  C12 UNL     1      -2.175  -0.690  -0.147  1.00  0.00     0.139 A 
HETATM   11  C19 UNL     1      -0.821  -0.929  -0.171  1.00  0.00     0.024 A 
HETATM   12  C20 UNL     1       0.154   0.018  -0.182  1.00  0.00     0.045 A 
ENDROOT
BRANCH  10  13
HETATM   13  N4  UNL     1      -2.630   0.647  -0.131  1.00  0.00    -0.340 N 
HETATM   14  H12 UNL     1      -1.985   1.439  -0.134  1.00  0.00     0.167 HD
BRANCH  13  15
HETATM   15  C13 UNL     1      -3.952   1.138  -0.111  1.00  0.00     0.035 A 
HETATM   16  C14 UNL     1      -4.314   2.480  -0.073  1.00  0.00     0.029 A 
HETATM   17  C15 UNL     1      -5.604   2.938  -0.054  1.00  0.00     0.004 A 
HETATM   18  C16 UNL     1      -6.643   2.066  -0.072  1.00  0.00     0.019 A 
HETATM   19  C17 UNL     1      -6.355   0.714  -0.110  1.00  0.00     0.013 A 
HETATM   20 BR1  UNL     1      -7.851  -0.464  -0.134  1.00  0.00    -0.051 Br
HETATM   21  C18 UNL     1      -5.050   0.306  -0.127  1.00  0.00     0.048 A 
ENDBRANCH  13  15
ENDBRANCH  10  13
BRANCH   1  22
HETATM   22  N1  UNL     1       2.452   0.861  -0.218  1.00  0.00    -0.377 N 
HETATM   23  H8  UNL     1       2.079   1.854  -0.202  1.00  0.00     0.160 HD
BRANCH  22  24
HETATM   24  C3  UNL     1       3.876   0.573  -0.250  1.00  0.00     0.167 C 
BRANCH  24  25
HETATM   25  C2  UNL     1       4.604   1.890  -0.237  1.00  0.00     0.199 C 
BRANCH  25  26
HETATM   26  O1  UNL     1       5.979   1.794  -0.271  1.00  0.00    -0.394 OA
HETATM   27  C1  UNL     1       6.522   1.101   0.800  1.00  0.00     0.201 C 
ENDBRANCH  25  26
ENDBRANCH  24  25
BRANCH  24  28
HETATM   28  C4  UNL     1       4.298  -0.130  -1.492  1.00  0.00     0.258 C 
HETATM   29  O2  UNL     1       5.311  -0.582  -2.009  1.00  0.00    -0.305 OA
ENDBRANCH  24  28
ENDBRANCH  22  24
ENDBRANCH   1  22
TORSDOF 7
