REMARK  7 active torsions:
REMARK  status: ('A' for Active; 'I' for Inactive)
REMARK    1  A    between atoms: C2_2  and  C3_4 
REMARK    2  A    between atoms: C4_5  and  C5_6 
REMARK    3  A    between atoms: C6_7  and  N1_8 
REMARK    4  A    between atoms: N1_8  and  C7_9 
REMARK    5  A    between atoms: C14_18  and  N4_19 
REMARK       I    between atoms: N4_19  and  C15_20 
REMARK    6  A    between atoms: C15_20  and  O2_22 
REMARK    7  A    between atoms: O2_22  and  C16_23 
ROOT
HETATM    1  C7  UNL     1       1.128  -1.077   0.729  1.00  0.00     0.138 A 
HETATM    2  N2  UNL     1       2.060  -2.040   0.615  1.00  0.00    -0.241 NA
HETATM    3  C8  UNL     1       1.785  -3.190  -0.068  1.00  0.00     0.142 A 
HETATM    4  C9  UNL     1       0.514  -3.330  -0.640  1.00  0.00     0.073 A 
HETATM    5  C10 UNL     1       0.151  -4.510  -1.373  1.00  0.00     0.102 C 
HETATM    6  N3  UNL     1      -0.134  -5.488  -1.961  1.00  0.00    -0.191 NA
HETATM    7  C11 UNL     1      -0.438  -2.353  -0.526  1.00  0.00     0.000 A 
HETATM    8  C12 UNL     1      -1.704  -2.418  -1.058  1.00  0.00     0.016 A 
HETATM    9  C13 UNL     1      -2.580  -1.370  -0.879  1.00  0.00     0.030 A 
HETATM   10  C14 UNL     1      -2.287  -0.220  -0.188  1.00  0.00     0.037 A 
HETATM   11  C18 UNL     1      -1.025  -0.175   0.332  1.00  0.00     0.045 A 
HETATM   12  C19 UNL     1      -0.125  -1.206   0.171  1.00  0.00     0.024 A 
ENDROOT
BRANCH   1  13
HETATM   13  N1  UNL     1       1.550   0.056   1.463  1.00  0.00    -0.350 N 
HETATM   14  H7  UNL     1       1.116   0.958   1.743  1.00  0.00     0.166 HD
BRANCH  13  15
HETATM   15  C6  UNL     1       2.842   0.137   2.013  1.00  0.00     0.090 C 
HETATM   16  C5  UNL     1       3.897   0.518   1.274  1.00  0.00     0.017 C 
BRANCH  16  17
HETATM   17  C4  UNL     1       5.209   0.594   1.853  1.00  0.00     0.003 C 
HETATM   18  C3  UNL     1       6.241   0.968   1.127  1.00  0.00     0.017 C 
BRANCH  18  19
HETATM   19  C2  UNL     1       6.279   1.346  -0.272  1.00  0.00    -0.016 C 
HETATM   20  C1  UNL     1       7.234   1.733  -1.102  1.00  0.00     0.163 C 
HETATM   21 BR1  UNL     1       5.251   1.586  -1.859  1.00  0.00    -0.165 Br
ENDBRANCH  18  19
ENDBRANCH  16  17
ENDBRANCH  13  15
ENDBRANCH   1  13
BRANCH  10  22
HETATM   22  N4  UNL     1      -3.137   0.887   0.030  1.00  0.00    -0.303 N 
HETATM   23  C15 UNL     1      -4.465   1.080  -0.395  1.00  0.00     0.365 C 
HETATM   24  O1  UNL     1      -5.046   0.195  -1.064  1.00  0.00    -0.238 OA
HETATM   25  H11 UNL     1      -2.800   1.710   0.573  1.00  0.00     0.171 HD
BRANCH  23  26
HETATM   26  O2  UNL     1      -5.236   2.178  -0.150  1.00  0.00    -0.304 OA
BRANCH  26  27
HETATM   27  C16 UNL     1      -6.584   2.301  -0.617  1.00  0.00     0.176 C 
HETATM   28  C17 UNL     1      -6.545   2.214  -2.116  1.00  0.00     0.034 C 
ENDBRANCH  26  27
ENDBRANCH  23  26
ENDBRANCH  10  22
TORSDOF 7
