REMARK  6 active torsions:
REMARK  status: ('A' for Active; 'I' for Inactive)
REMARK    1  A    between atoms: C2_2  and  N1_3 
REMARK    2  A    between atoms: C2_2  and  O1_24 
REMARK    3  A    between atoms: N1_3  and  C3_4 
REMARK    4  A    between atoms: C10_13  and  N4_14 
REMARK    5  A    between atoms: N4_14  and  C11_15 
REMARK    6  A    between atoms: O1_24  and  C19_25 
ROOT
HETATM    1  C3  UNL     1       1.448  -0.533   0.291  1.00  0.00     0.035 A 
HETATM    2  C4  UNL     1       1.776  -1.778  -0.172  1.00  0.00     0.030 A 
HETATM    3  C5  UNL     1       0.753  -2.586  -0.612  1.00  0.00     0.016 A 
HETATM    4  C6  UNL     1      -0.551  -2.143  -0.581  1.00  0.00     0.000 A 
HETATM    5  C7  UNL     1      -1.489  -3.035  -1.046  1.00  0.00     0.073 A 
HETATM    6  C8  UNL     1      -1.181  -4.332  -1.532  1.00  0.00     0.102 C 
HETATM    7  N2  UNL     1      -0.921  -5.399  -1.918  1.00  0.00    -0.191 NA
HETATM    8  C9  UNL     1      -2.805  -2.645  -1.038  1.00  0.00     0.142 A 
HETATM    9  N3  UNL     1      -3.104  -1.426  -0.582  1.00  0.00    -0.241 NA
HETATM   10  C10 UNL     1      -2.243  -0.517  -0.119  1.00  0.00     0.139 A 
HETATM   11  C17 UNL     1      -0.923  -0.899  -0.124  1.00  0.00     0.024 A 
HETATM   12  C18 UNL     1       0.134  -0.129   0.305  1.00  0.00     0.045 A 
ENDROOT
BRANCH  10  13
HETATM   13  N4  UNL     1      -2.571   0.772   0.361  1.00  0.00    -0.340 N 
HETATM   14  H7  UNL     1      -1.856   1.427   0.699  1.00  0.00     0.167 HD
BRANCH  13  15
HETATM   15  C11 UNL     1      -3.843   1.388   0.474  1.00  0.00     0.035 A 
HETATM   16  C12 UNL     1      -4.068   2.680   0.931  1.00  0.00     0.029 A 
HETATM   17  C13 UNL     1      -5.313   3.249   1.030  1.00  0.00     0.004 A 
HETATM   18  C14 UNL     1      -6.433   2.552   0.672  1.00  0.00     0.019 A 
HETATM   19  C15 UNL     1      -6.268   1.264   0.211  1.00  0.00     0.013 A 
HETATM   20 BR1  UNL     1      -7.857   0.330  -0.277  1.00  0.00    -0.051 Br
HETATM   21  C16 UNL     1      -4.997   0.739   0.131  1.00  0.00     0.048 A 
ENDBRANCH  13  15
ENDBRANCH  10  13
BRANCH   1  22
HETATM   22  N1  UNL     1       2.472   0.319   0.750  1.00  0.00    -0.338 N 
HETATM   23  H3  UNL     1       2.225   1.284   1.110  1.00  0.00     0.168 HD
BRANCH  22  24
HETATM   24  C2  UNL     1       3.837  -0.074   0.747  1.00  0.00     0.132 C 
HETATM   25  C1  UNL     1       4.506  -1.122   1.220  1.00  0.00     0.071 C 
BRANCH  24  26
HETATM   26  O1  UNL     1       4.641   0.845   0.108  1.00  0.00    -0.337 OA
BRANCH  26  27
HETATM   27  C19 UNL     1       6.033   0.915   0.161  1.00  0.00     0.173 C 
HETATM   28  C20 UNL     1       6.501   2.099  -0.686  1.00  0.00     0.034 C 
ENDBRANCH  26  27
ENDBRANCH  24  26
ENDBRANCH  22  24
ENDBRANCH   1  22
TORSDOF 6
