REMARK  9 active torsions:
REMARK  status: ('A' for Active; 'I' for Inactive)
REMARK    1  A    between atoms: C2_2  and  O1_3 
REMARK    2  A    between atoms: O1_3  and  C3_4 
REMARK       I    between atoms: C3_4  and  N1_6 
REMARK    3  A    between atoms: N1_6  and  C4_7 
REMARK    4  A    between atoms: C11_16  and  N4_17 
REMARK    5  A    between atoms: N4_17  and  C12_18 
REMARK    6  A    between atoms: C12_18  and  C13_19 
REMARK    7  A    between atoms: C13_19  and  C14_20 
REMARK    8  A    between atoms: C14_20  and  C15_21 
REMARK    9  A    between atoms: C15_21  and  C16_22 
ROOT
HETATM    1  C4  UNL     1      -1.584   0.343   0.664  1.00  0.00     0.037 A 
HETATM    2  C5  UNL     1      -1.748  -0.611   1.669  1.00  0.00     0.030 A 
HETATM    3  C6  UNL     1      -0.682  -1.361   2.107  1.00  0.00     0.016 A 
HETATM    4  C7  UNL     1       0.571  -1.183   1.561  1.00  0.00     0.000 A 
HETATM    5  C8  UNL     1       1.665  -1.903   1.972  1.00  0.00     0.073 A 
HETATM    6  C9  UNL     1       1.534  -2.904   3.009  1.00  0.00     0.102 C 
HETATM    7  N2  UNL     1       1.433  -3.683   3.843  1.00  0.00    -0.191 NA
HETATM    8  C10 UNL     1       2.883  -1.635   1.355  1.00  0.00     0.142 A 
HETATM    9  N3  UNL     1       2.998  -0.693   0.375  1.00  0.00    -0.241 NA
HETATM   10  C11 UNL     1       1.913   0.014  -0.024  1.00  0.00     0.138 A 
HETATM   11  C17 UNL     1       0.696  -0.222   0.559  1.00  0.00     0.024 A 
HETATM   12  C18 UNL     1      -0.349   0.530   0.112  1.00  0.00     0.045 A 
ENDROOT
BRANCH  10  13
HETATM   13  N4  UNL     1       2.195   0.961  -1.035  1.00  0.00    -0.350 N 
HETATM   14  H10 UNL     1       2.082   1.991  -0.913  1.00  0.00     0.166 HD
BRANCH  13  15
HETATM   15  C12 UNL     1       2.654   0.451  -2.302  1.00  0.00     0.090 C 
BRANCH  15  16
HETATM   16  C13 UNL     1       3.953   0.809  -2.309  1.00  0.00     0.025 C 
BRANCH  16  17
HETATM   17  C14 UNL     1       4.782   1.518  -1.362  1.00  0.00     0.057 C 
BRANCH  17  18
HETATM   18  C15 UNL     1       5.859   0.954  -0.822  1.00  0.00    -0.121 C 
BRANCH  18  19
HETATM   19  C16 UNL     1       6.884   0.166  -0.518  1.00  0.00     0.111 C 
HETATM   20 BR1  UNL     1       6.432  -1.022   0.881  1.00  0.00    -0.055 Br
ENDBRANCH  18  19
ENDBRANCH  17  18
ENDBRANCH  16  17
ENDBRANCH  15  16
ENDBRANCH  13  15
ENDBRANCH  10  13
BRANCH   1  21
HETATM   21  N1  UNL     1      -2.802   1.006   0.372  1.00  0.00    -0.303 N 
HETATM   22  C3  UNL     1      -3.833   0.656  -0.520  1.00  0.00     0.365 C 
HETATM   23  O2  UNL     1      -3.708  -0.387  -1.177  1.00  0.00    -0.238 OA
HETATM   24  H6  UNL     1      -2.761   1.857   1.001  1.00  0.00     0.171 HD
BRANCH  22  25
HETATM   25  O1  UNL     1      -4.907   1.500  -0.599  1.00  0.00    -0.304 OA
BRANCH  25  26
HETATM   26  C2  UNL     1      -6.015   1.270  -1.448  1.00  0.00     0.176 C 
HETATM   27  C1  UNL     1      -6.668  -0.028  -1.044  1.00  0.00     0.034 C 
ENDBRANCH  25  26
ENDBRANCH  22  25
ENDBRANCH   1  21
TORSDOF 9
