REMARK  4 active torsions:
REMARK  status: ('A' for Active; 'I' for Inactive)
REMARK    1  A    between atoms: C2_2  and  C3_3 
REMARK    2  A    between atoms: C9_9  and  N1_10 
REMARK    3  A    between atoms: N1_10  and  N2_11 
REMARK    4  A    between atoms: N2_11  and  C10_12 
ROOT
HETATM    1  C3  UNL     1      -3.485   0.439   0.431  1.00  0.00    -0.058 A 
HETATM    2  C4  UNL     1      -3.797  -0.853   0.858  1.00  0.00     0.008 A 
HETATM    3  C5  UNL     1      -2.862  -1.863   0.907  1.00  0.00     0.012 A 
HETATM    4  C6  UNL     1      -1.582  -1.567   0.518  1.00  0.00    -0.006 A 
HETATM    5  C7  UNL     1      -1.251  -0.285   0.089  1.00  0.00     0.021 A 
HETATM    6  C8  UNL     1      -2.180   0.736   0.036  1.00  0.00     0.023 A 
HETATM    7  C9  UNL     1       0.165  -0.254  -0.262  1.00  0.00     0.149 A 
HETATM    8  N3  UNL     1       0.636  -1.433  -0.056  1.00  0.00    -0.246 NA
HETATM    9  C16 UNL     1      -0.347  -2.354   0.433  1.00  0.00     0.250 A 
HETATM   10  C17 UNL     1      -0.507  -3.534  -0.395  1.00  0.00     0.091 C 
HETATM   11  N4  UNL     1      -0.622  -4.487  -1.045  1.00  0.00    -0.195 NA
ENDROOT
BRANCH   7  12
HETATM   12  N1  UNL     1       0.998   0.808  -0.754  1.00  0.00    -0.283 N 
HETATM   13  H9  UNL     1       0.593   1.769  -0.721  1.00  0.00     0.188 HD
BRANCH  12  14
HETATM   14  N2  UNL     1       2.295   0.503  -1.244  1.00  0.00    -0.299 N 
HETATM   15  H10 UNL     1       2.199   0.284  -2.269  1.00  0.00     0.187 HD
BRANCH  14  16
HETATM   16  C10 UNL     1       3.506   0.494  -0.501  1.00  0.00     0.049 A 
HETATM   17  C11 UNL     1       3.993  -0.591   0.194  1.00  0.00     0.031 A 
HETATM   18  C12 UNL     1       5.151  -0.663   0.925  1.00  0.00     0.004 A 
HETATM   19  C13 UNL     1       5.916   0.485   0.968  1.00  0.00     0.019 A 
HETATM   20  C14 UNL     1       5.494   1.632   0.289  1.00  0.00     0.013 A 
HETATM   21 BR1  UNL     1       6.655   3.123   0.445  1.00  0.00    -0.051 Br
HETATM   22  C15 UNL     1       4.313   1.618  -0.424  1.00  0.00     0.050 A 
ENDBRANCH  14  16
ENDBRANCH  12  14
ENDBRANCH   7  12
BRANCH   1  23
HETATM   23  C2  UNL     1      -4.516   1.486   0.391  1.00  0.00     0.034 C 
HETATM   24  C1  UNL     1      -5.186   1.483  -0.968  1.00  0.00     0.010 C 
ENDBRANCH   1  23
TORSDOF 4
