REMARK  5 active torsions:
REMARK  status: ('A' for Active; 'I' for Inactive)
REMARK    1  A    between atoms: C2_2  and  C3_3 
REMARK    2  A    between atoms: C2_2  and  C8_10 
REMARK    3  A    between atoms: C3_3  and  N1_4 
REMARK    4  A    between atoms: C14_18  and  N4_19 
REMARK    5  A    between atoms: N4_19  and  C15_20 
ROOT
HETATM    1  C8  UNL     1      -0.726   0.074  -0.838  1.00  0.00    -0.040 A 
HETATM    2  C9  UNL     1      -0.342   0.854  -1.818  1.00  0.00    -0.005 A 
HETATM    3  C10 UNL     1       0.952   1.046  -1.869  1.00  0.00     0.012 A 
HETATM    4  C11 UNL     1       1.719   1.789  -2.737  1.00  0.00     0.074 A 
HETATM    5  C12 UNL     1       1.169   2.544  -3.827  1.00  0.00     0.102 C 
HETATM    6  N2  UNL     1       0.739   3.166  -4.699  1.00  0.00    -0.191 NA
HETATM    7  C13 UNL     1       3.072   1.766  -2.495  1.00  0.00     0.142 A 
HETATM    8  N3  UNL     1       3.616   1.071  -1.486  1.00  0.00    -0.241 NA
HETATM    9  C14 UNL     1       2.907   0.336  -0.620  1.00  0.00     0.139 A 
HETATM   10  C21 UNL     1       1.547   0.346  -0.846  1.00  0.00     0.023 A 
HETATM   11  C22 UNL     1       0.539  -0.264  -0.195  1.00  0.00     0.024 A 
ENDROOT
BRANCH   1  12
HETATM   12  C2  UNL     1      -2.127  -0.355  -0.480  1.00  0.00     0.033 C 
HETATM   13  C1  UNL     1      -3.061   0.300  -1.482  1.00  0.00     0.017 C 
BRANCH  12  14
HETATM   14  C3  UNL     1      -2.512   0.203   0.881  1.00  0.00     0.126 C 
BRANCH  14  15
HETATM   15  N1  UNL     1      -3.831  -0.078   1.212  1.00  0.00    -0.408 N 
HETATM   16  C4  UNL     1      -4.231  -1.393   1.474  1.00  0.00     0.143 C 
HETATM   17  C5  UNL     1      -5.412  -1.765   0.624  1.00  0.00     0.187 C 
HETATM   18  O1  UNL     1      -6.229  -0.708   0.309  1.00  0.00    -0.388 OA
HETATM   19  C6  UNL     1      -6.164   0.376   1.150  1.00  0.00     0.187 C 
HETATM   20  C7  UNL     1      -4.773   0.972   1.259  1.00  0.00     0.143 C 
ENDBRANCH  14  15
ENDBRANCH  12  14
ENDBRANCH   1  12
BRANCH   9  21
HETATM   21  N4  UNL     1       3.420  -0.417   0.464  1.00  0.00    -0.340 N 
HETATM   22  H16 UNL     1       2.738  -0.953   1.046  1.00  0.00     0.167 HD
BRANCH  21  23
HETATM   23  C15 UNL     1       4.774  -0.532   0.861  1.00  0.00     0.035 A 
HETATM   24  C16 UNL     1       5.137  -1.366   1.897  1.00  0.00     0.029 A 
HETATM   25  C17 UNL     1       6.409  -1.561   2.375  1.00  0.00     0.004 A 
HETATM   26  C18 UNL     1       7.431  -0.856   1.763  1.00  0.00     0.019 A 
HETATM   27  C19 UNL     1       7.142  -0.011   0.730  1.00  0.00     0.013 A 
HETATM   28 BR1  UNL     1       8.560   0.970  -0.123  1.00  0.00    -0.051 Br
HETATM   29  C20 UNL     1       5.842   0.136   0.301  1.00  0.00     0.048 A 
ENDBRANCH  21  23
ENDBRANCH   9  21
TORSDOF 5
