REMARK  5 active torsions:
REMARK  status: ('A' for Active; 'I' for Inactive)
REMARK    1  A    between atoms: C4_6  and  C5_7 
REMARK    2  A    between atoms: C15_17  and  N3_18 
REMARK       I    between atoms: N3_18  and  C16_19 
REMARK    3  A    between atoms: C16_19  and  C17_21 
REMARK    4  A    between atoms: C17_21  and  C18_22 
REMARK    5  A    between atoms: C18_22  and  N4_23 
ROOT
HETATM    1  N1  UNL     1      -4.241   2.132  -5.655  1.00  0.00    -0.191 NA
HETATM    2  C1  UNL     1      -4.110   1.768  -4.564  1.00  0.00     0.102 C 
HETATM    3  C2  UNL     1      -3.966   1.327  -3.200  1.00  0.00     0.073 A 
HETATM    4  C3  UNL     1      -4.763   1.941  -2.239  1.00  0.00     0.140 A 
HETATM    5  N2  UNL     1      -4.626   1.527  -0.966  1.00  0.00    -0.258 NA
HETATM    6  C4  UNL     1      -3.765   0.561  -0.582  1.00  0.00     0.078 A 
HETATM    7  C11 UNL     1      -2.972  -0.059  -1.494  1.00  0.00     0.018 A 
HETATM    8  C12 UNL     1      -3.067   0.325  -2.833  1.00  0.00    -0.004 A 
HETATM    9  C13 UNL     1      -2.319  -0.237  -3.797  1.00  0.00    -0.007 C 
HETATM   10  C14 UNL     1      -1.390  -1.297  -3.302  1.00  0.00     0.086 C 
HETATM   11  C15 UNL     1      -0.957  -1.024  -1.909  1.00  0.00     0.027 C 
HETATM   12  C23 UNL     1      -2.091  -1.010  -1.242  1.00  0.00     0.013 C 
ENDROOT
BRANCH   6  13
HETATM   13  C5  UNL     1      -3.659   0.151   0.812  1.00  0.00    -0.006 A 
HETATM   14  C6  UNL     1      -3.614  -1.196   1.180  1.00  0.00     0.014 A 
HETATM   15  C7  UNL     1      -3.514  -1.644   2.485  1.00  0.00     0.001 A 
HETATM   16  C8  UNL     1      -3.456  -0.661   3.455  1.00  0.00     0.000 A 
HETATM   17  C9  UNL     1      -3.495   0.684   3.167  1.00  0.00     0.001 A 
HETATM   18  C10 UNL     1      -3.596   1.055   1.854  1.00  0.00     0.014 A 
ENDBRANCH   6  13
BRANCH  11  19
HETATM   19  N3  UNL     1       0.379  -0.832  -1.466  1.00  0.00    -0.330 N 
HETATM   20  C16 UNL     1       0.655  -0.578  -0.115  1.00  0.00     0.223 C 
HETATM   21  O1  UNL     1      -0.311  -0.523   0.702  1.00  0.00    -0.273 OA
HETATM   22  H10 UNL     1       1.066  -0.903  -2.246  1.00  0.00     0.168 HD
BRANCH  20  23
HETATM   23  C17 UNL     1       2.123  -0.405   0.149  1.00  0.00     0.133 C 
BRANCH  23  24
HETATM   24  C18 UNL     1       2.425  -0.114   1.583  1.00  0.00     0.283 C 
BRANCH  24  25
HETATM   25  N4  UNL     1       3.809   0.062   1.885  1.00  0.00     0.107 N 
HETATM   26  C19 UNL     1       4.568  -1.144   1.761  1.00  0.00     0.300 C 
HETATM   27  C20 UNL     1       6.032  -0.759   1.804  1.00  0.00     0.198 C 
HETATM   28  O2  UNL     1       6.433   0.001   0.729  1.00  0.00    -0.386 OA
HETATM   29  C21 UNL     1       5.447   0.830   0.213  1.00  0.00     0.215 C 
HETATM   30  C22 UNL     1       4.412   1.199   1.259  1.00  0.00     0.317 C 
HETATM   31 BR1  UNL     1       5.313   2.324   2.569  1.00  0.00    -0.056 Br
ENDBRANCH  24  25
ENDBRANCH  23  24
ENDBRANCH  20  23
ENDBRANCH  11  19
TORSDOF 5
