REMARK  0 active torsions:
REMARK  status: ('A' for Active; 'I' for Inactive)
ROOT
HETATM    1  C1  UNL     1       3.883   3.180  -0.755  1.00  0.00     0.026 C 
HETATM    2  C2  UNL     1       3.021   2.234  -0.927  1.00  0.00    -0.011 C 
HETATM    3  C3  UNL     1       2.160   2.122  -2.078  1.00  0.00     0.014 C 
HETATM    4  C4  UNL     1       1.408   1.051  -1.962  1.00  0.00     0.132 C 
HETATM    5  N1  UNL     1       0.451   0.063  -2.246  1.00  0.00    -0.383 N 
HETATM    6  C5  UNL     1       0.322  -0.627  -0.986  1.00  0.00     0.012 C 
HETATM    7  C6  UNL     1       0.647  -1.947  -0.992  1.00  0.00     0.033 C 
HETATM    8  C7  UNL     1      -0.084  -2.117   0.248  1.00  0.00     0.073 A 
HETATM    9  C8  UNL     1      -0.688  -2.390   1.335  1.00  0.00    -0.005 A 
HETATM   10  C9  UNL     1       0.201  -1.136   1.433  1.00  0.00     0.085 A 
HETATM   11  C10 UNL     1       1.608  -1.602   1.472  1.00  0.00     0.049 C 
HETATM   12  C11 UNL     1       2.087  -2.964   1.599  1.00  0.00     0.097 C 
HETATM   13  N2  UNL     1       2.467  -4.022   1.716  1.00  0.00    -0.192 NA
HETATM   14  C12 UNL     1       2.318  -0.498   1.372  1.00  0.00     0.124 C 
HETATM   15  N3  UNL     1       3.181   0.612   1.271  1.00  0.00    -0.284 N 
HETATM   16  C13 UNL     1       3.137   1.408   0.243  1.00  0.00     0.111 A 
HETATM   17 BR1  UNL     1       4.335   1.614   1.710  1.00  0.00     0.019 Br
HETATM   18  C14 UNL     1      -0.065  -0.057   0.423  1.00  0.00     0.077 C 
HETATM   19  C15 UNL     1      -1.615  -0.162   0.227  1.00  0.00     0.040 C 
HETATM   20  C16 UNL     1      -2.387  -0.087   1.471  1.00  0.00     0.057 C 
HETATM   21  C17 UNL     1      -3.844  -0.400   1.096  1.00  0.00     0.170 C 
HETATM   22  O1  UNL     1      -4.329   0.608   0.262  1.00  0.00    -0.391 OA
HETATM   23  C18 UNL     1      -3.605   0.776  -0.877  1.00  0.00     0.170 C 
HETATM   24  C19 UNL     1      -2.107   0.871  -0.713  1.00  0.00     0.057 C 
HETATM   25  N4  UNL     1      -1.582  -1.536  -0.329  1.00  0.00    -0.396 N 
HETATM   26  H5  UNL     1      -0.126  -0.280  -3.075  1.00  0.00     0.160 HD
HETATM   27  H19 UNL     1      -2.594  -1.440  -0.860  1.00  0.00     0.155 HD
ENDROOT
TORSDOF 0
