REMARK  5 active torsions:
REMARK  status: ('A' for Active; 'I' for Inactive)
REMARK    1  A    between atoms: C4_6  and  N3_7 
REMARK    2  A    between atoms: N3_7  and  C5_8 
REMARK    3  A    between atoms: C13_17  and  N4_18 
REMARK       I    between atoms: N4_18  and  C14_19 
REMARK    4  A    between atoms: C14_19  and  C15_21 
REMARK    5  A    between atoms: C15_21  and  N5_22 
ROOT
HETATM    1  N1  UNL     1      -3.348   0.740   6.049  1.00  0.00    -0.191 NA
HETATM    2  C1  UNL     1      -3.296   0.336   4.958  1.00  0.00     0.102 C 
HETATM    3  C2  UNL     1      -3.229  -0.185   3.608  1.00  0.00     0.073 A 
HETATM    4  C3  UNL     1      -4.256  -0.976   3.098  1.00  0.00     0.142 A 
HETATM    5  N2  UNL     1      -4.236  -1.486   1.832  1.00  0.00    -0.241 NA
HETATM    6  C4  UNL     1      -3.174  -1.222   1.019  1.00  0.00     0.139 A 
HETATM    7  C11 UNL     1      -2.112  -0.435   1.472  1.00  0.00     0.024 A 
HETATM    8  C12 UNL     1      -0.989  -0.113   0.737  1.00  0.00     0.045 A 
HETATM    9  C13 UNL     1       0.027   0.668   1.260  1.00  0.00     0.035 A 
HETATM   10  C20 UNL     1      -0.054   1.154   2.550  1.00  0.00     0.030 A 
HETATM   11  C21 UNL     1      -1.167   0.846   3.304  1.00  0.00     0.016 A 
HETATM   12  C22 UNL     1      -2.173   0.062   2.760  1.00  0.00     0.000 A 
ENDROOT
BRANCH   6  13
HETATM   13  N3  UNL     1      -2.969  -1.670  -0.314  1.00  0.00    -0.340 N 
HETATM   14  H2  UNL     1      -2.349  -2.489  -0.389  1.00  0.00     0.167 HD
BRANCH  13  15
HETATM   15  C5  UNL     1      -3.598  -0.992  -1.398  1.00  0.00     0.035 A 
HETATM   16  C6  UNL     1      -4.576  -0.083  -1.034  1.00  0.00     0.029 A 
HETATM   17  C7  UNL     1      -5.280   0.657  -1.971  1.00  0.00     0.004 A 
HETATM   18  C8  UNL     1      -4.945   0.432  -3.309  1.00  0.00     0.019 A 
HETATM   19  C9  UNL     1      -3.971  -0.474  -3.677  1.00  0.00     0.013 A 
HETATM   20 BR1  UNL     1      -3.494  -0.797  -5.511  1.00  0.00    -0.051 Br
HETATM   21  C10 UNL     1      -3.268  -1.215  -2.716  1.00  0.00     0.048 A 
ENDBRANCH  13  15
ENDBRANCH   6  13
BRANCH   9  22
HETATM   22  N4  UNL     1       1.074   0.845   0.281  1.00  0.00    -0.326 N 
HETATM   23  C14 UNL     1       1.966  -0.277   0.452  1.00  0.00     0.250 C 
HETATM   24  O1  UNL     1       1.606  -1.082   1.383  1.00  0.00    -0.271 OA
HETATM   25  H8  UNL     1       1.404   1.464  -0.474  1.00  0.00     0.169 HD
BRANCH  23  26
HETATM   26  C15 UNL     1       3.194  -0.708  -0.198  1.00  0.00     0.375 C 
BRANCH  26  27
HETATM   27  N5  UNL     1       3.651   0.173  -1.257  1.00  0.00     0.101 N 
HETATM   28  C16 UNL     1       4.833  -0.408  -1.894  1.00  0.00     0.299 C 
HETATM   29  C17 UNL     1       5.999  -0.546  -0.985  1.00  0.00     0.198 C 
HETATM   30  O2  UNL     1       6.126   0.532  -0.138  1.00  0.00    -0.388 OA
HETATM   31  C18 UNL     1       5.519   1.637  -0.694  1.00  0.00     0.198 C 
HETATM   32  C19 UNL     1       4.008   1.487  -0.720  1.00  0.00     0.299 C 
ENDBRANCH  26  27
ENDBRANCH  23  26
ENDBRANCH   9  22
TORSDOF 5
