REMARK  5 active torsions:
REMARK  status: ('A' for Active; 'I' for Inactive)
REMARK    1  A    between atoms: C2_2  and  C3_3 
REMARK    2  A    between atoms: C2_2  and  N2_11 
REMARK    3  A    between atoms: C3_3  and  N1_4 
REMARK    4  A    between atoms: N2_11  and  C8_12 
REMARK    5  A    between atoms: C15_21  and  N5_22 
ROOT
HETATM    1  C8  UNL     1       0.274   1.078  -0.940  1.00  0.00     0.029 A 
HETATM    2  C9  UNL     1       0.339   2.421  -1.334  1.00  0.00     0.030 A 
HETATM    3  C10 UNL     1      -0.747   3.270  -1.304  1.00  0.00     0.016 A 
HETATM    4  C11 UNL     1      -1.968   2.811  -0.873  1.00  0.00     0.000 A 
HETATM    5  C12 UNL     1      -3.127   3.553  -0.788  1.00  0.00     0.073 A 
HETATM    6  C13 UNL     1      -3.051   4.922  -1.192  1.00  0.00     0.102 C 
HETATM    7  N3  UNL     1      -3.007   6.048  -1.530  1.00  0.00    -0.191 NA
HETATM    8  C14 UNL     1      -4.306   2.998  -0.334  1.00  0.00     0.142 A 
HETATM    9  N4  UNL     1      -4.303   1.703   0.028  1.00  0.00    -0.241 NA
HETATM   10  C15 UNL     1      -3.190   0.922  -0.034  1.00  0.00     0.140 A 
HETATM   11  C21 UNL     1      -2.041   1.492  -0.484  1.00  0.00     0.024 A 
HETATM   12  C22 UNL     1      -0.962   0.648  -0.513  1.00  0.00     0.045 A 
ENDROOT
BRANCH  10  13
HETATM   13  N5  UNL     1      -3.480  -0.401   0.382  1.00  0.00    -0.338 N 
HETATM   14  C16 UNL     1      -3.745  -0.428   1.782  1.00  0.00     0.094 A 
HETATM   15  C17 UNL     1      -4.040  -1.533   2.455  1.00  0.00     0.036 A 
HETATM   16  C18 UNL     1      -4.115  -2.825   1.780  1.00  0.00     0.010 A 
HETATM   17 BR1  UNL     1      -4.528  -4.479   2.636  1.00  0.00    -0.051 Br
HETATM   18  C19 UNL     1      -3.869  -2.788   0.481  1.00  0.00     0.012 A 
HETATM   19  C20 UNL     1      -3.535  -1.626  -0.360  1.00  0.00     0.158 A 
ENDBRANCH  10  13
BRANCH   1  20
HETATM   20  N2  UNL     1       1.425   0.246  -0.988  1.00  0.00    -0.384 N 
HETATM   21  H13 UNL     1       2.314   0.677  -1.320  1.00  0.00     0.160 HD
BRANCH  20  22
HETATM   22  C2  UNL     1       1.414  -1.139  -0.603  1.00  0.00     0.095 C 
HETATM   23  C1  UNL     1       0.472  -1.969  -1.465  1.00  0.00     0.034 C 
BRANCH  22  24
HETATM   24  C3  UNL     1       2.772  -1.755  -0.668  1.00  0.00     0.150 C 
BRANCH  24  25
HETATM   25  N1  UNL     1       3.780  -1.064   0.111  1.00  0.00    -0.346 N 
HETATM   26  C4  UNL     1       4.023  -1.411   1.522  1.00  0.00     0.152 C 
HETATM   27  C5  UNL     1       5.357  -0.724   1.840  1.00  0.00     0.188 C 
HETATM   28  O1  UNL     1       5.142   0.635   1.771  1.00  0.00    -0.380 OA
HETATM   29  C6  UNL     1       4.950   1.110   0.475  1.00  0.00     0.270 C 
HETATM   30  C7  UNL     1       4.585  -0.008  -0.454  1.00  0.00     0.243 C 
HETATM   31  O2  UNL     1       4.901  -0.136  -1.678  1.00  0.00    -0.271 OA
ENDBRANCH  24  25
ENDBRANCH  22  24
ENDBRANCH  20  22
ENDBRANCH   1  20
TORSDOF 5
