REMARK  7 active torsions:
REMARK  status: ('A' for Active; 'I' for Inactive)
REMARK    1  A    between atoms: N1_7  and  C6_8 
REMARK    2  A    between atoms: C6_8  and  C7_9 
REMARK    3  A    between atoms: C7_9  and  N2_10 
REMARK    4  A    between atoms: N2_10  and  O2_11 
REMARK    5  A    between atoms: N2_10  and  C8_12 
REMARK    6  A    between atoms: C14_20  and  N5_21 
REMARK    7  A    between atoms: N5_21  and  C15_22 
ROOT
HETATM    1  C8  UNL     1      -0.371  -0.067  -0.460  1.00  0.00     0.367 C 
HETATM    2  C9  UNL     1      -0.074  -0.964  -1.646  1.00  0.00     0.042 C 
HETATM    3  C10 UNL     1       1.267  -1.130  -1.665  1.00  0.00     0.004 C 
HETATM    4  C11 UNL     1       2.170  -1.872  -2.532  1.00  0.00     0.070 C 
HETATM    5  C12 UNL     1       1.702  -2.462  -3.748  1.00  0.00     0.101 C 
HETATM    6  N3  UNL     1       1.331  -2.943  -4.716  1.00  0.00    -0.191 NA
HETATM    7  C13 UNL     1       3.425  -1.963  -2.133  1.00  0.00     0.142 C 
HETATM    8  N4  UNL     1       3.868  -1.364  -0.947  1.00  0.00    -0.243 NA
HETATM    9  C14 UNL     1       3.161  -0.664  -0.130  1.00  0.00     0.142 C 
HETATM   10  C21 UNL     1       1.809  -0.347  -0.525  1.00  0.00     0.326 C 
HETATM   11  N6  UNL     1       0.745  -0.500   0.432  1.00  0.00     0.128 N 
HETATM   12  H23 UNL     1       0.853   0.222   1.172  1.00  0.00     0.320 HD
ENDROOT
BRANCH   1  13
HETATM   13  N2  UNL     1      -1.651  -0.439   0.032  1.00  0.00    -0.258 N 
BRANCH  13  14
HETATM   14  C7  UNL     1      -2.095   0.239   1.205  1.00  0.00     0.172 C 
BRANCH  14  15
HETATM   15  C6  UNL     1      -3.495  -0.231   1.540  1.00  0.00     0.145 C 
BRANCH  15  16
HETATM   16  N1  UNL     1      -4.421   0.066   0.456  1.00  0.00    -0.379 N 
HETATM   17  C2  UNL     1      -5.379   1.067   0.741  1.00  0.00     0.021 C 
HETATM   18  C1  UNL     1      -5.833   1.291   1.952  1.00  0.00     0.040 C 
HETATM   19  C3  UNL     1      -5.951   1.963  -0.319  1.00  0.00     0.223 C 
HETATM   20  O1  UNL     1      -5.521   1.474  -1.565  1.00  0.00    -0.384 OA
HETATM   21  C4  UNL     1      -5.719   0.091  -1.530  1.00  0.00     0.187 C 
HETATM   22  C5  UNL     1      -4.483  -0.520  -0.868  1.00  0.00     0.149 C 
ENDBRANCH  15  16
ENDBRANCH  14  15
ENDBRANCH  13  14
BRANCH  13  23
HETATM   23  O2  UNL     1      -1.875  -1.765   0.025  1.00  0.00    -0.290 OA
HETATM   24  H13 UNL     1      -1.997  -2.003  -0.949  1.00  0.00     0.244 HD
ENDBRANCH  13  23
ENDBRANCH   1  13
BRANCH   9  25
HETATM   25  N5  UNL     1       3.739  -0.131   1.039  1.00  0.00    -0.342 N 
HETATM   26  H17 UNL     1       3.117   0.006   1.883  1.00  0.00     0.167 HD
BRANCH  25  27
HETATM   27  C15 UNL     1       5.142   0.211   1.059  1.00  0.00     0.034 A 
HETATM   28  C16 UNL     1       6.182  -0.592   1.457  1.00  0.00     0.029 A 
HETATM   29  C17 UNL     1       7.483  -0.123   1.414  1.00  0.00     0.004 A 
HETATM   30  C18 UNL     1       7.753   1.149   0.973  1.00  0.00     0.019 A 
HETATM   31  C19 UNL     1       6.732   1.981   0.565  1.00  0.00     0.013 A 
HETATM   32 BR1  UNL     1       7.204   3.724  -0.030  1.00  0.00    -0.051 Br
HETATM   33  C20 UNL     1       5.423   1.504   0.611  1.00  0.00     0.048 A 
ENDBRANCH  25  27
ENDBRANCH   9  25
TORSDOF 7
