REMARK  5 active torsions:
REMARK  status: ('A' for Active; 'I' for Inactive)
REMARK    1  A    between atoms: N1_5  and  C5_6 
REMARK    2  A    between atoms: C8_10  and  N3_11 
REMARK    3  A    between atoms: N3_11  and  C9_12 
REMARK    4  A    between atoms: N4_16  and  C13_17 
REMARK    5  A    between atoms: C17_22  and  N5_23 
ROOT
HETATM    1  C5  UNL     1      -2.252   0.259  -0.163  1.00  0.00     0.111 A 
HETATM    2  N2  UNL     1      -1.812  -0.824  -0.683  1.00  0.00    -0.247 NA
HETATM    3  C6  UNL     1      -0.458  -0.963  -1.036  1.00  0.00     0.121 A 
HETATM    4  C7  UNL     1       0.826  -0.769  -1.243  1.00  0.00     0.048 A 
HETATM    5  C8  UNL     1       1.531   0.459  -0.920  1.00  0.00     0.030 A 
HETATM    6  C15 UNL     1       0.877   1.446  -0.391  1.00  0.00     0.031 A 
HETATM    7  C16 UNL     1       0.088   2.492   0.190  1.00  0.00     0.027 A 
HETATM    8  C17 UNL     1      -1.207   2.362   0.423  1.00  0.00     0.009 A 
HETATM    9  C18 UNL     1      -2.473   1.605   0.410  1.00  0.00     0.135 A 
ENDROOT
BRANCH   5  10
HETATM   10  N3  UNL     1       2.878   0.219  -1.314  1.00  0.00    -0.379 N 
HETATM   11  H9  UNL     1       3.106   0.006  -2.327  1.00  0.00     0.160 HD
BRANCH  10  12
HETATM   12  C9  UNL     1       4.010   0.252  -0.410  1.00  0.00     0.044 C 
HETATM   13  C10 UNL     1       4.229   1.596   0.222  1.00  0.00     0.040 C 
HETATM   14  C11 UNL     1       3.828  -0.744   0.718  1.00  0.00     0.052 C 
HETATM   15  C12 UNL     1       4.932  -1.740   0.438  1.00  0.00     0.127 C 
HETATM   16  N4  UNL     1       6.011  -0.894  -0.030  1.00  0.00    -0.357 N 
HETATM   17  C14 UNL     1       5.256  -0.236  -1.073  1.00  0.00     0.155 C 
BRANCH  16  18
HETATM   18  C13 UNL     1       7.360  -0.766   0.399  1.00  0.00     0.350 C 
HETATM   19  O1  UNL     1       7.723  -1.500   1.349  1.00  0.00    -0.284 OA
ENDBRANCH  16  18
ENDBRANCH  10  12
ENDBRANCH   5  10
BRANCH   8  20
HETATM   20  N5  UNL     1      -1.676   3.607   1.013  1.00  0.00    -0.402 N 
HETATM   21  H22 UNL     1      -1.833   4.607   1.260  1.00  0.00     0.156 HD
HETATM   22  H23 UNL     1      -2.348   3.926   1.730  1.00  0.00     0.156 HD
ENDBRANCH   8  20
BRANCH   1  23
HETATM   23  N1  UNL     1      -3.563  -0.359  -0.116  1.00  0.00    -0.341 N 
HETATM   24  C4  UNL     1      -3.892  -1.117   1.092  1.00  0.00     0.157 A 
HETATM   25  C3  UNL     1      -5.280  -1.624   1.031  1.00  0.00    -0.000 A 
HETATM   26  C2  UNL     1      -6.154  -1.508   0.070  1.00  0.00    -0.063 A 
HETATM   27  C1  UNL     1      -7.543  -2.036   0.047  1.00  0.00     0.048 C 
HETATM   28  C20 UNL     1      -5.741  -0.764  -1.112  1.00  0.00     0.024 A 
HETATM   29  C19 UNL     1      -4.511  -0.225  -1.190  1.00  0.00     0.093 A 
ENDBRANCH   1  23
TORSDOF 5
