REMARK  4 active torsions:
REMARK  status: ('A' for Active; 'I' for Inactive)
REMARK    1  A    between atoms: C3_3  and  C4_4 
REMARK    2  A    between atoms: C3_3  and  C10_12 
REMARK    3  A    between atoms: C4_4  and  C5_5 
REMARK    4  A    between atoms: C12_14  and  C13_15 
ROOT
HETATM    1  C10 UNL     1      -0.424   0.016   0.158  1.00  0.00     0.054 A 
HETATM    2  C11 UNL     1      -1.500   0.075   1.172  1.00  0.00    -0.039 A 
HETATM    3  C12 UNL     1      -2.465   0.212   2.033  1.00  0.00     0.036 C 
HETATM    4  N2  UNL     1      -2.693  -0.915   2.833  1.00  0.00    -0.351 N 
HETATM    5  C15 UNL     1      -3.016  -2.051   2.070  1.00  0.00     0.207 C 
HETATM    6  N3  UNL     1      -3.309  -2.254   0.882  1.00  0.00    -0.255 NA
HETATM    7  C16 UNL     1      -3.403  -1.253  -0.098  1.00  0.00     0.136 C 
HETATM    8  C17 UNL     1      -3.303  -0.202  -0.902  1.00  0.00     0.040 C 
HETATM    9  C18 UNL     1      -4.278  -0.216  -1.992  1.00  0.00     0.096 C 
HETATM   10  N4  UNL     1      -5.053  -0.215  -2.882  1.00  0.00    -0.192 NA
HETATM   11  C19 UNL     1      -2.453   0.998  -0.942  1.00  0.00     0.061 C 
HETATM   12  C20 UNL     1      -1.464   1.134   0.191  1.00  0.00     0.035 A 
HETATM   13  H18 UNL     1      -2.634  -0.829   3.895  1.00  0.00     0.166 HD
ENDROOT
BRANCH   1  14
HETATM   14  C3  UNL     1       0.969   0.391   0.472  1.00  0.00    -0.072 C 
HETATM   15  C2  UNL     1       1.506   1.600   0.793  1.00  0.00    -0.027 C 
HETATM   16  C1  UNL     1       1.172   3.046   0.997  1.00  0.00     0.036 C 
BRANCH  14  17
HETATM   17  C4  UNL     1       1.920  -0.795   0.418  1.00  0.00     0.078 C 
BRANCH  17  18
HETATM   18  C5  UNL     1       1.956  -1.445  -0.928  1.00  0.00     0.293 C 
HETATM   19  N1  UNL     1       2.922  -2.563  -0.855  1.00  0.00     0.095 N 
HETATM   20  C6  UNL     1       3.825  -2.508  -2.000  1.00  0.00     0.271 C 
HETATM   21  H8  UNL     1       3.499  -2.467   0.018  1.00  0.00     0.316 HD
HETATM   22  C7  UNL     1       4.812  -1.351  -1.869  1.00  0.00     0.037 C 
HETATM   23  C8  UNL     1       4.000  -0.068  -1.708  1.00  0.00     0.082 C 
HETATM   24  C9  UNL     1       2.562  -0.454  -1.875  1.00  0.00     0.160 C 
HETATM   25  O1  UNL     1       1.862   0.032  -2.779  1.00  0.00    -0.296 OA
ENDBRANCH  17  18
ENDBRANCH  14  17
ENDBRANCH   1  14
BRANCH   3  26
HETATM   26  C13 UNL     1      -3.401   1.346   2.315  1.00  0.00     0.037 C 
HETATM   27  C14 UNL     1      -3.608   2.549   1.859  1.00  0.00     0.058 C 
HETATM   28 BR1  UNL     1      -4.875   3.923   2.329  1.00  0.00    -0.064 Br
ENDBRANCH   3  26
TORSDOF 4
