REMARK  2 active torsions:
REMARK  status: ('A' for Active; 'I' for Inactive)
REMARK    1  A    between atoms: C4_6  and  N3_7 
REMARK    2  A    between atoms: N3_7  and  C5_8 
ROOT
HETATM    1  N1  UNL     1       0.250   5.437   0.311  1.00  0.00    -0.191 NA
HETATM    2  C1  UNL     1       0.456   4.304   0.174  1.00  0.00     0.102 C 
HETATM    3  C2  UNL     1       0.691   2.881  -0.008  1.00  0.00     0.073 A 
HETATM    4  C3  UNL     1       2.015   2.605  -0.170  1.00  0.00     0.142 A 
HETATM    5  N2  UNL     1       2.360   1.337  -0.344  1.00  0.00    -0.241 NA
HETATM    6  C4  UNL     1       1.436   0.376  -0.361  1.00  0.00     0.138 A 
HETATM    7  C10 UNL     1       0.099   0.649  -0.200  1.00  0.00     0.023 A 
HETATM    8  C11 UNL     1      -0.333   1.923  -0.012  1.00  0.00    -0.000 A 
HETATM    9  C12 UNL     1      -1.489   2.498   0.119  1.00  0.00     0.015 C 
HETATM   10  C13 UNL     1      -2.899   2.447   0.229  1.00  0.00     0.018 C 
HETATM   11  C14 UNL     1      -3.985   1.754   0.352  1.00  0.00     0.084 C 
HETATM   12  N4  UNL     1      -3.425   0.461   0.403  1.00  0.00    -0.382 N 
HETATM   13  C15 UNL     1      -2.908  -0.737   0.452  1.00  0.00     0.154 C 
HETATM   14  C16 UNL     1      -2.059  -1.364   1.505  1.00  0.00     0.316 C 
HETATM   15  N5  UNL     1      -1.997  -2.367   0.449  1.00  0.00     0.142 N 
HETATM   16  C17 UNL     1      -3.409  -2.069   0.223  1.00  0.00     0.286 C 
HETATM   17  C18 UNL     1      -3.468  -2.300  -1.261  1.00  0.00     0.210 C 
HETATM   18  O1  UNL     1      -2.377  -1.530  -1.658  1.00  0.00    -0.345 OA
HETATM   19  C19 UNL     1      -1.805  -1.213  -0.426  1.00  0.00     0.311 C 
HETATM   20  C20 UNL     1      -0.582  -0.469  -0.372  1.00  0.00     0.063 C 
HETATM   21  H8  UNL     1      -3.857   0.272   1.361  1.00  0.00     0.160 HD
ENDROOT
BRANCH   6  22
HETATM   22  N3  UNL     1       2.026  -0.923  -0.570  1.00  0.00    -0.339 N 
HETATM   23  H2  UNL     1       1.831  -1.944  -0.647  1.00  0.00     0.167 HD
BRANCH  22  24
HETATM   24  C5  UNL     1       3.421  -1.076  -0.770  1.00  0.00     0.053 C 
HETATM   25  C6  UNL     1       3.936  -1.258  -1.976  1.00  0.00     0.051 C 
HETATM   26  S1  UNL     1       5.374  -1.937  -2.029  1.00  0.00    -0.097 SA
HETATM   27  C7  UNL     1       6.220  -1.836  -0.619  1.00  0.00     0.069 C 
HETATM   28  C8  UNL     1       5.524  -1.348   0.575  1.00  0.00     0.019 C 
HETATM   29 BR1  UNL     1       6.452  -1.209   2.231  1.00  0.00    -0.051 Br
HETATM   30  C9  UNL     1       4.239  -1.013   0.453  1.00  0.00     0.050 C 
ENDBRANCH  22  24
ENDBRANCH   6  22
TORSDOF 2
