REMARK  4 active torsions:
REMARK  status: ('A' for Active; 'I' for Inactive)
REMARK    1  A    between atoms: C1_2  and  C2_3 
REMARK       I    between atoms: C1_2  and  N2_11 
REMARK    2  A    between atoms: C2_3  and  C3_4 
REMARK    3  A    between atoms: C3_4  and  N1_5 
REMARK    4  A    between atoms: N2_11  and  C8_12 
ROOT
HETATM    1  C8  UNL     1      -1.119   2.065  -1.441  1.00  0.00     0.087 C 
HETATM    2  C9  UNL     1      -2.192   2.675  -1.748  1.00  0.00     0.016 C 
HETATM    3  C10 UNL     1      -3.305   2.901  -0.858  1.00  0.00     0.057 C 
HETATM    4  C11 UNL     1      -4.683   2.579  -1.219  1.00  0.00    -0.023 C 
HETATM    5  C12 UNL     1      -5.224   1.652  -0.449  1.00  0.00    -0.007 C 
HETATM    6  C13 UNL     1      -5.443   0.639   0.575  1.00  0.00    -0.021 C 
HETATM    7  C14 UNL     1      -5.879  -0.334   1.454  1.00  0.00     0.054 C 
HETATM    8  C15 UNL     1      -4.880  -0.815   2.456  1.00  0.00     0.018 C 
HETATM    9  C16 UNL     1      -3.729  -1.011   3.181  1.00  0.00    -0.005 C 
HETATM   10 BR1  UNL     1      -3.283  -2.086   4.686  1.00  0.00    -0.058 Br
HETATM   11  C17 UNL     1      -2.815  -0.288   2.301  1.00  0.00     0.357 C 
HETATM   12  N3  UNL     1      -1.656   0.181   2.013  1.00  0.00    -0.362 NA
HETATM   13  C18 UNL     1      -1.485   0.848   0.831  1.00  0.00     0.003 C 
HETATM   14  C19 UNL     1      -1.328   1.400  -0.178  1.00  0.00    -0.027 C 
ENDROOT
BRANCH   1  15
HETATM   15  N2  UNL     1       0.128   1.402  -1.218  1.00  0.00    -0.320 N 
HETATM   16  C1  UNL     1       1.056   0.416  -0.880  1.00  0.00     0.224 C 
HETATM   17  O1  UNL     1       0.372  -0.566  -0.528  1.00  0.00    -0.273 OA
HETATM   18  H13 UNL     1       0.510   2.352  -1.583  1.00  0.00     0.169 HD
BRANCH  16  19
HETATM   19  C2  UNL     1       2.521   0.809  -1.012  1.00  0.00     0.133 C 
BRANCH  19  20
HETATM   20  C3  UNL     1       3.292  -0.146  -0.169  1.00  0.00     0.282 C 
BRANCH  20  21
HETATM   21  N1  UNL     1       3.208  -1.518  -0.472  1.00  0.00     0.093 N 
HETATM   22  C4  UNL     1       3.810  -2.001  -1.663  1.00  0.00     0.298 C 
HETATM   23  C5  UNL     1       5.309  -1.988  -1.541  1.00  0.00     0.198 C 
HETATM   24  O2  UNL     1       5.677  -2.740  -0.444  1.00  0.00    -0.388 OA
HETATM   25  C6  UNL     1       5.193  -2.235   0.734  1.00  0.00     0.198 C 
HETATM   26  C7  UNL     1       3.666  -2.334   0.641  1.00  0.00     0.298 C 
ENDBRANCH  20  21
ENDBRANCH  19  20
ENDBRANCH  16  19
ENDBRANCH   1  15
TORSDOF 4
