REMARK  4 active torsions:
REMARK  status: ('A' for Active; 'I' for Inactive)
REMARK    1  A    between atoms: N2_5  and  C4_6 
REMARK    2  A    between atoms: C4_6  and  C5_7 
REMARK    3  A    between atoms: C5_7  and  C6_8 
REMARK       I    between atoms: C6_8  and  N3_10 
REMARK    4  A    between atoms: N3_10  and  C7_11 
ROOT
HETATM    1  C6  UNL     1       0.481  -0.729  -0.142  1.00  0.00     0.223 C 
HETATM    2  O1  UNL     1      -0.211   0.185   0.366  1.00  0.00    -0.273 OA
HETATM    3  N3  UNL     1       0.287  -1.904  -0.962  1.00  0.00    -0.331 N 
HETATM    4  H12 UNL     1       1.263  -2.203  -1.061  1.00  0.00     0.168 HD
ENDROOT
BRANCH   3   5
HETATM    5  C7  UNL     1      -1.104  -2.212  -1.343  1.00  0.00     0.013 C 
HETATM    6  C8  UNL     1      -1.577  -3.396  -1.033  1.00  0.00     0.023 C 
HETATM    7  C9  UNL     1      -1.999  -4.648  -0.679  1.00  0.00     0.050 C 
HETATM    8  C10 UNL     1      -2.791  -5.665  -0.524  1.00  0.00     0.084 C 
HETATM    9  N4  UNL     1      -3.959  -4.959  -1.136  1.00  0.00    -0.408 N 
HETATM   10  C11 UNL     1      -4.593  -4.050  -0.144  1.00  0.00     0.125 C 
HETATM   11  H16 UNL     1      -4.385  -5.006  -2.110  1.00  0.00     0.154 HD
HETATM   12  C12 UNL     1      -4.803  -2.847   0.406  1.00  0.00    -0.004 C 
HETATM   13  C13 UNL     1      -4.438  -1.362   0.321  1.00  0.00    -0.022 C 
HETATM   14  C14 UNL     1      -3.703  -0.541  -0.400  1.00  0.00     0.031 C 
HETATM   15  C15 UNL     1      -2.744  -0.254  -1.551  1.00  0.00     0.072 C 
HETATM   16 BR1  UNL     1      -3.967   0.348  -2.986  1.00  0.00    -0.090 Br
HETATM   17  C16 UNL     1      -2.002  -1.383  -2.107  1.00  0.00     0.073 C 
ENDBRANCH   3   5
BRANCH   1  18
HETATM   18  C5  UNL     1       1.644  -0.052   0.502  1.00  0.00     0.133 C 
BRANCH  18  19
HETATM   19  C4  UNL     1       1.426   1.411   0.532  1.00  0.00     0.283 C 
BRANCH  19  20
HETATM   20  N2  UNL     1       2.460   2.136   1.241  1.00  0.00     0.103 N 
HETATM   21  C3  UNL     1       3.775   2.043   0.657  1.00  0.00     0.289 C 
HETATM   22  C2  UNL     1       4.634   3.187   1.228  1.00  0.00     0.137 C 
HETATM   23  N1  UNL     1       4.138   4.417   0.621  1.00  0.00    -0.253 NA
HETATM   24  C1  UNL     1       4.305   5.526   1.517  1.00  0.00     0.130 C 
HETATM   25  N5  UNL     1       2.771   4.283   0.316  1.00  0.00    -0.232 NA
HETATM   26  C17 UNL     1       2.067   3.547   1.364  1.00  0.00     0.378 C 
HETATM   27  H26 UNL     1       2.586   3.872  -0.600  1.00  0.00     0.142 HD
ENDBRANCH  19  20
ENDBRANCH  18  19
ENDBRANCH   1  18
TORSDOF 4
