REMARK  6 active torsions:
REMARK  status: ('A' for Active; 'I' for Inactive)
REMARK    1  A    between atoms: N2_5  and  C4_6 
REMARK    2  A    between atoms: C4_6  and  C5_7 
REMARK    3  A    between atoms: C5_7  and  C6_8 
REMARK       I    between atoms: C6_8  and  N3_10 
REMARK    4  A    between atoms: N3_10  and  C7_11 
REMARK    5  A    between atoms: C11_15  and  N4_16 
REMARK    6  A    between atoms: C13_19  and  C14_20 
ROOT
HETATM    1  C7  UNL     1      -1.530  -0.121  -1.038  1.00  0.00     0.035 A 
HETATM    2  C8  UNL     1      -1.591  -0.365  -2.390  1.00  0.00     0.030 A 
HETATM    3  C9  UNL     1      -2.735  -0.646  -3.078  1.00  0.00     0.016 A 
HETATM    4  C10 UNL     1      -3.928  -0.700  -2.425  1.00  0.00    -0.001 A 
HETATM    5  C11 UNL     1      -5.100  -0.993  -3.090  1.00  0.00     0.035 A 
HETATM    6  C12 UNL     1      -6.243  -1.030  -2.318  1.00  0.00     0.141 A 
HETATM    7  N5  UNL     1      -6.209  -0.793  -0.996  1.00  0.00    -0.258 NA
HETATM    8  C13 UNL     1      -5.063  -0.501  -0.317  1.00  0.00     0.078 A 
HETATM    9  C20 UNL     1      -3.908  -0.460  -1.066  1.00  0.00     0.008 A 
HETATM   10  C21 UNL     1      -2.746  -0.182  -0.406  1.00  0.00     0.044 A 
ENDROOT
BRANCH   1  11
HETATM   11  N3  UNL     1      -0.381   0.174  -0.270  1.00  0.00    -0.327 N 
HETATM   12  C6  UNL     1       0.959   0.285  -0.697  1.00  0.00     0.223 C 
HETATM   13  O1  UNL     1       1.242   0.112  -1.906  1.00  0.00    -0.273 OA
HETATM   14  H12 UNL     1      -0.461   0.341   0.748  1.00  0.00     0.169 HD
BRANCH  12  15
HETATM   15  C5  UNL     1       2.101   0.601   0.196  1.00  0.00     0.122 C 
BRANCH  15  16
HETATM   16  C4  UNL     1       3.391   0.639  -0.594  1.00  0.00     0.126 C 
BRANCH  16  17
HETATM   17  N2  UNL     1       4.532   0.934   0.184  1.00  0.00    -0.409 N 
HETATM   18  C3  UNL     1       5.742   0.969  -0.560  1.00  0.00     0.147 C 
HETATM   19  C2  UNL     1       6.961   1.264   0.244  1.00  0.00     0.291 C 
HETATM   20  N1  UNL     1       7.065   0.259   1.282  1.00  0.00     0.087 N 
HETATM   21  C1  UNL     1       7.244  -1.078   0.761  1.00  0.00     0.310 C 
HETATM   22  C23 UNL     1       5.917   0.393   2.121  1.00  0.00     0.291 C 
HETATM   23  C22 UNL     1       4.596   0.307   1.450  1.00  0.00     0.147 C 
ENDBRANCH  16  17
ENDBRANCH  15  16
ENDBRANCH  12  15
ENDBRANCH   1  11
BRANCH   8  24
HETATM   24  C14 UNL     1      -5.209  -0.276   1.112  1.00  0.00    -0.005 A 
HETATM   25  C15 UNL     1      -4.782   0.746   1.931  1.00  0.00     0.014 A 
HETATM   26  C16 UNL     1      -5.031   0.705   3.284  1.00  0.00     0.002 A 
HETATM   27  C17 UNL     1      -5.705  -0.323   3.909  1.00  0.00     0.019 A 
HETATM   28  C18 UNL     1      -6.139  -1.353   3.101  1.00  0.00     0.011 A 
HETATM   29 BR1  UNL     1      -7.070  -2.775   3.955  1.00  0.00    -0.051 Br
HETATM   30  C19 UNL     1      -5.894  -1.322   1.743  1.00  0.00     0.032 A 
ENDBRANCH   8  24
BRANCH   5  31
HETATM   31  N4  UNL     1      -5.026  -1.227  -4.492  1.00  0.00    -0.301 NA
HETATM   32  H15 UNL     1      -5.199  -0.494  -5.218  1.00  0.00     0.124 HD
HETATM   33  H16 UNL     1      -5.183  -0.555  -5.290  1.00  0.00     0.124 HD
ENDBRANCH   5  31
TORSDOF 6
