REMARK  4 active torsions:
REMARK  status: ('A' for Active; 'I' for Inactive)
REMARK    1  A    between atoms: N2_5  and  C4_6 
REMARK    2  A    between atoms: C4_6  and  C5_7 
REMARK    3  A    between atoms: C5_7  and  C6_8 
REMARK       I    between atoms: C6_8  and  N3_10 
REMARK    4  A    between atoms: N3_10  and  C7_11 
ROOT
HETATM    1  C7  UNL     1       2.762   0.287   0.934  1.00  0.00     0.034 A 
HETATM    2  C8  UNL     1       3.740   1.063   1.515  1.00  0.00     0.030 A 
HETATM    3  C9  UNL     1       5.047   0.935   1.120  1.00  0.00     0.015 A 
HETATM    4  C10 UNL     1       5.336   0.025   0.146  1.00  0.00    -0.017 A 
HETATM    5  C11 UNL     1       6.610  -0.161  -0.300  1.00  0.00     0.070 A 
HETATM    6  C12 UNL     1       7.703   0.584   0.226  1.00  0.00     0.101 C 
HETATM    7  N4  UNL     1       8.575   1.202   0.648  1.00  0.00    -0.191 NA
HETATM    8  C13 UNL     1       6.902  -1.066  -1.269  1.00  0.00     0.112 A 
HETATM    9  N5  UNL     1       6.635  -1.998  -2.151  1.00  0.00    -0.365 NA
HETATM   10  B1  UNL     1       4.448  -1.997  -1.708  1.00  0.00     0.345 B 
HETATM   11  C14 UNL     1       4.452  -0.790  -0.494  1.00  0.00    -0.063 A 
HETATM   12  C15 UNL     1       3.132  -0.612  -0.046  1.00  0.00     0.027 A 
ENDROOT
BRANCH   1  13
HETATM   13  N3  UNL     1       1.476   0.543   1.455  1.00  0.00    -0.327 N 
HETATM   14  C6  UNL     1       0.253  -0.047   1.107  1.00  0.00     0.223 C 
HETATM   15  O1  UNL     1       0.189  -0.934   0.222  1.00  0.00    -0.273 OA
HETATM   16  H12 UNL     1       1.286   1.244   2.203  1.00  0.00     0.169 HD
BRANCH  14  17
HETATM   17  C5  UNL     1      -1.080   0.224   1.653  1.00  0.00     0.133 C 
BRANCH  17  18
HETATM   18  C4  UNL     1      -2.160  -0.598   1.040  1.00  0.00     0.281 C 
BRANCH  18  19
HETATM   19  N2  UNL     1      -2.301  -0.416  -0.384  1.00  0.00     0.092 N 
HETATM   20  C3  UNL     1      -3.352  -1.284  -0.851  1.00  0.00     0.302 C 
HETATM   21  C2  UNL     1      -4.677  -0.906  -0.259  1.00  0.00     0.302 C 
HETATM   22  N1  UNL     1      -4.951   0.474  -0.510  1.00  0.00     0.087 N 
HETATM   23  C1  UNL     1      -6.277   0.652  -1.025  1.00  0.00     0.310 C 
HETATM   24  C17 UNL     1      -3.978   1.080  -1.397  1.00  0.00     0.302 C 
HETATM   25  C16 UNL     1      -2.581   0.933  -0.779  1.00  0.00     0.302 C 
ENDBRANCH  18  19
ENDBRANCH  17  18
ENDBRANCH  14  17
ENDBRANCH   1  13
TORSDOF 4
