REMARK  8 active torsions:
REMARK  status: ('A' for Active; 'I' for Inactive)
REMARK    1  A    between atoms: N2_5  and  C4_6 
REMARK    2  A    between atoms: C4_6  and  C5_7 
REMARK    3  A    between atoms: C5_7  and  C6_8 
REMARK       I    between atoms: C6_8  and  N3_10 
REMARK    4  A    between atoms: N3_10  and  C7_11 
REMARK    5  A    between atoms: C7_11  and  C8_12 
REMARK    6  A    between atoms: C8_12  and  C9_13 
REMARK    7  A    between atoms: C9_13  and  C10_14 
REMARK    8  A    between atoms: C14_19  and  C15_20 
ROOT
HETATM    1  C8  UNL     1       1.947   0.907  -0.446  1.00  0.00     0.018 C 
ENDROOT
BRANCH   1   2
HETATM    2  C7  UNL     1       0.762   0.925   0.190  1.00  0.00     0.091 C 
BRANCH   2   3
HETATM    3  N3  UNL     1      -0.450   1.382  -0.450  1.00  0.00    -0.337 N 
HETATM    4  C6  UNL     1      -1.671   0.634  -0.740  1.00  0.00     0.223 C 
HETATM    5  O1  UNL     1      -1.255  -0.447  -0.249  1.00  0.00    -0.273 OA
HETATM    6  H12 UNL     1      -0.163   2.388  -0.620  1.00  0.00     0.168 HD
BRANCH   4   7
HETATM    7  C5  UNL     1      -2.562   1.626  -1.405  1.00  0.00     0.122 C 
BRANCH   7   8
HETATM    8  C4  UNL     1      -3.864   1.038  -1.882  1.00  0.00     0.126 C 
BRANCH   8   9
HETATM    9  N2  UNL     1      -4.680   0.475  -0.913  1.00  0.00    -0.409 N 
HETATM   10  C3  UNL     1      -4.372  -0.697  -0.223  1.00  0.00     0.147 C 
HETATM   11  C2  UNL     1      -5.607  -1.519   0.142  1.00  0.00     0.291 C 
HETATM   12  N1  UNL     1      -6.701  -0.702   0.575  1.00  0.00     0.087 N 
HETATM   13  C1  UNL     1      -7.904  -1.546   0.477  1.00  0.00     0.310 C 
HETATM   14  C22 UNL     1      -6.963   0.436  -0.282  1.00  0.00     0.291 C 
HETATM   15  C21 UNL     1      -5.690   1.275  -0.350  1.00  0.00     0.147 C 
ENDBRANCH   8   9
ENDBRANCH   7   8
ENDBRANCH   4   7
ENDBRANCH   2   3
ENDBRANCH   1   2
BRANCH   1  16
HETATM   16  C9  UNL     1       3.096   0.430   0.286  1.00  0.00     0.014 C 
BRANCH  16  17
HETATM   17  C10 UNL     1       3.780  -0.036   1.269  1.00  0.00    -0.023 A 
HETATM   18  C11 UNL     1       3.008  -0.242   2.377  1.00  0.00     0.031 A 
HETATM   19  C12 UNL     1       3.568  -0.705   3.537  1.00  0.00     0.117 A 
HETATM   20  N4  UNL     1       4.907  -0.935   3.498  1.00  0.00    -0.272 NA
HETATM   21  C13 UNL     1       5.597  -0.713   2.383  1.00  0.00     0.129 A 
HETATM   22  C14 UNL     1       5.128  -0.252   1.170  1.00  0.00    -0.002 A 
BRANCH  22  23
HETATM   23  C15 UNL     1       5.881  -0.174   0.107  1.00  0.00    -0.041 C 
HETATM   24  C16 UNL     1       7.285  -0.459   0.374  1.00  0.00     0.027 C 
HETATM   25  C17 UNL     1       8.238  -0.744  -0.461  1.00  0.00     0.011 C 
HETATM   26 BR1  UNL     1      10.052  -1.114   0.033  1.00  0.00    -0.051 Br
HETATM   27  C18 UNL     1       8.050  -0.700  -1.892  1.00  0.00     0.015 C 
HETATM   28  C19 UNL     1       6.834  -0.330  -2.180  1.00  0.00    -0.021 C 
HETATM   29  C20 UNL     1       5.662   0.043  -1.324  1.00  0.00     0.066 C 
ENDBRANCH  22  23
ENDBRANCH  16  17
ENDBRANCH   1  16
TORSDOF 8
