REMARK  4 active torsions:
REMARK  status: ('A' for Active; 'I' for Inactive)
REMARK    1  A    between atoms: C2_2  and  C3_3 
REMARK       I    between atoms: C3_3  and  N1_5 
REMARK    2  A    between atoms: N1_5  and  C4_6 
REMARK    3  A    between atoms: C4_6  and  C5_7 
REMARK    4  A    between atoms: C10_14  and  N3_16 
ROOT
HETATM    1  C4  UNL     1       0.381  -0.664  -0.692  1.00  0.00     0.085 C 
HETATM    2  P1  UNL     1       0.902   0.427  -2.098  1.00  0.00    -0.051 P 
HETATM    3  C7  UNL     1      -0.713   0.459  -2.946  1.00  0.00     0.047 C 
HETATM    4  C8  UNL     1      -0.999   0.964  -4.253  1.00  0.00     0.100 C 
HETATM    5  N2  UNL     1      -1.232   1.354  -5.315  1.00  0.00    -0.191 NA
HETATM    6  C9  UNL     1      -1.523  -0.081  -2.085  1.00  0.00     0.030 C 
HETATM    7  C10 UNL     1      -1.099  -0.557  -0.778  1.00  0.00     0.078 C 
HETATM    8  C11 UNL     1      -1.681  -1.966  -0.622  1.00  0.00     0.046 C 
HETATM    9  H12 UNL     1       1.292   1.741  -1.728  1.00  0.00     0.065 HD
ENDROOT
BRANCH   1  10
HETATM   10  N1  UNL     1       0.903  -0.182   0.577  1.00  0.00    -0.345 N 
HETATM   11  C3  UNL     1       2.271   0.069   0.839  1.00  0.00     0.218 C 
HETATM   12  O1  UNL     1       3.188  -0.096   0.002  1.00  0.00    -0.274 OA
HETATM   13  H6  UNL     1       0.322   0.031   1.443  1.00  0.00     0.163 HD
BRANCH  11  14
HETATM   14  C2  UNL     1       2.819   0.555   2.118  1.00  0.00     0.098 C 
HETATM   15  C1  UNL     1       4.300   0.729   2.102  1.00  0.00     0.014 C 
ENDBRANCH  11  14
ENDBRANCH   1  10
BRANCH   1  16
HETATM   16  C5  UNL     1       0.977  -2.017  -0.978  1.00  0.00     0.034 C 
HETATM   17  C6  UNL     1       0.539  -2.643  -2.259  1.00  0.00     0.008 C 
ENDBRANCH   1  16
BRANCH   7  18
HETATM   18  N3  UNL     1      -1.662   0.224   0.317  1.00  0.00    -0.370 N 
HETATM   19  C12 UNL     1      -1.216   1.596   0.373  1.00  0.00     0.106 A 
HETATM   20  C13 UNL     1      -1.505   2.468   1.327  1.00  0.00     0.025 A 
HETATM   21 BR1  UNL     1      -0.892   4.272   1.369  1.00  0.00    -0.050 Br
HETATM   22  C14 UNL     1      -2.386   2.062   2.416  1.00  0.00     0.018 A 
HETATM   23  C15 UNL     1      -2.832   0.825   2.344  1.00  0.00    -0.006 A 
HETATM   24  C16 UNL     1      -2.592  -0.230   1.335  1.00  0.00     0.151 A 
ENDBRANCH   7  18
TORSDOF 4
