REMARK  6 active torsions:
REMARK  status: ('A' for Active; 'I' for Inactive)
REMARK    1  A    between atoms: C2_2  and  C3_3 
REMARK    2  A    between atoms: C4_4  and  C5_5 
REMARK    3  A    between atoms: C5_5  and  N1_6 
REMARK    4  A    between atoms: C5_5  and  C6_7 
REMARK    5  A    between atoms: C12_16  and  N5_17 
REMARK       I    between atoms: N5_17  and  C13_18 
REMARK    6  A    between atoms: C13_18  and  C14_20 
ROOT
HETATM    1  C6  UNL     1      -1.478   0.024  -1.287  1.00  0.00     0.083 A 
HETATM    2  N2  UNL     1      -2.219  -0.029  -2.435  1.00  0.00    -0.260 NA
HETATM    3  C7  UNL     1      -1.678   0.264  -3.631  1.00  0.00     0.142 A 
HETATM    4  C8  UNL     1      -0.364   0.636  -3.821  1.00  0.00     0.091 A 
HETATM    5  C9  UNL     1       0.196   0.943  -5.093  1.00  0.00     0.103 C 
HETATM    6  N3  UNL     1       0.666   1.190  -6.116  1.00  0.00    -0.191 NA
HETATM    7  C10 UNL     1       0.412   0.699  -2.682  1.00  0.00     0.091 A 
HETATM    8  N4  UNL     1       1.717   1.049  -2.727  1.00  0.00    -0.256 NA
HETATM    9  C11 UNL     1       2.450   1.102  -1.599  1.00  0.00     0.147 A 
HETATM   10  C12 UNL     1       1.914   0.805  -0.362  1.00  0.00     0.053 A 
HETATM   11  C16 UNL     1       0.582   0.446  -0.302  1.00  0.00     0.047 A 
HETATM   12  C17 UNL     1      -0.161   0.395  -1.464  1.00  0.00     0.024 A 
ENDROOT
BRANCH   1  13
HETATM   13  C5  UNL     1      -2.186  -0.313  -0.084  1.00  0.00     0.293 C 
BRANCH  13  14
HETATM   14  C4  UNL     1      -3.510   0.408  -0.148  1.00  0.00     0.014 C 
HETATM   15  C3  UNL     1      -4.351   0.220   0.857  1.00  0.00    -0.002 C 
BRANCH  15  16
HETATM   16  C2  UNL     1      -4.025  -0.646   1.985  1.00  0.00    -0.010 C 
HETATM   17  C1  UNL     1      -4.845  -0.847   2.994  1.00  0.00     0.011 C 
ENDBRANCH  15  16
ENDBRANCH  13  14
BRANCH  13  18
HETATM   18  N1  UNL     1      -2.572  -1.732  -0.174  1.00  0.00     0.092 N 
HETATM   19  H7  UNL     1      -2.806  -1.988  -1.158  1.00  0.00     0.314 HD
HETATM   20  H8  UNL     1      -1.776  -2.335   0.142  1.00  0.00     0.314 HD
ENDBRANCH  13  18
ENDBRANCH   1  13
BRANCH  10  21
HETATM   21  N5  UNL     1       2.769   0.892   0.750  1.00  0.00    -0.326 N 
HETATM   22  C13 UNL     1       3.546  -0.212   1.220  1.00  0.00     0.221 C 
HETATM   23  O1  UNL     1       3.373  -1.247   0.530  1.00  0.00    -0.273 OA
HETATM   24  H11 UNL     1       2.816   1.824   1.235  1.00  0.00     0.169 HD
BRANCH  22  25
HETATM   25  C14 UNL     1       4.411   0.031   2.417  1.00  0.00     0.098 C 
HETATM   26  C15 UNL     1       5.166  -1.209   2.798  1.00  0.00     0.014 C 
ENDBRANCH  22  25
ENDBRANCH  10  21
TORSDOF 6
