REMARK  3 active torsions:
REMARK  status: ('A' for Active; 'I' for Inactive)
REMARK    1  A    between atoms: N1_2  and  C2_3 
REMARK    2  A    between atoms: C4_6  and  N3_7 
REMARK    3  A    between atoms: N3_7  and  C5_8 
ROOT
HETATM    1  C2  UNL     1       0.193  -2.016  -1.473  1.00  0.00     0.081 A 
HETATM    2  C3  UNL     1       1.543  -2.238  -1.427  1.00  0.00     0.151 A 
HETATM    3  N2  UNL     1       2.366  -1.307  -0.961  1.00  0.00    -0.240 NA
HETATM    4  C4  UNL     1       2.079  -0.102  -0.490  1.00  0.00     0.138 A 
HETATM    5  C11 UNL     1       0.743   0.173  -0.507  1.00  0.00     0.022 A 
HETATM    6  C12 UNL     1      -0.120  -0.776  -1.000  1.00  0.00     0.033 A 
HETATM    7  C13 UNL     1      -1.388  -0.505  -1.172  1.00  0.00     0.051 C 
HETATM    8  C14 UNL     1      -2.882  -0.081  -1.333  1.00  0.00     0.173 C 
HETATM    9  N4  UNL     1      -2.736  -0.323   0.036  1.00  0.00    -0.224 NA
HETATM   10  C15 UNL     1      -3.707  -0.092   0.948  1.00  0.00     0.116 C 
HETATM   11  C16 UNL     1      -3.385   1.186   1.759  1.00  0.00     0.051 C 
HETATM   12  C17 UNL     1      -3.161   2.379   0.840  1.00  0.00     0.218 C 
HETATM   13  C18 UNL     1      -4.386   2.730   0.038  1.00  0.00     0.042 C 
HETATM   14  N5  UNL     1      -2.019   2.120  -0.029  1.00  0.00     0.091 N 
HETATM   15  C19 UNL     1      -0.767   2.160   0.626  1.00  0.00     0.298 C 
HETATM   16  C20 UNL     1       0.268   1.246   0.155  1.00  0.00     0.019 C 
HETATM   17  N6  UNL     1      -2.280  -1.567  -0.461  1.00  0.00    -0.317 N 
HETATM   18  C21 UNL     1      -2.967  -2.750   0.058  1.00  0.00     0.171 C 
HETATM   19  H19 UNL     1      -2.093   2.828  -0.829  1.00  0.00     0.316 HD
ENDROOT
BRANCH   4  20
HETATM   20  N3  UNL     1       3.075   0.795  -0.025  1.00  0.00    -0.340 N 
HETATM   21  H4  UNL     1       2.872   1.778   0.264  1.00  0.00     0.167 HD
BRANCH  20  22
HETATM   22  C5  UNL     1       4.456   0.519   0.095  1.00  0.00     0.035 A 
HETATM   23  C6  UNL     1       5.316   1.390   0.795  1.00  0.00     0.029 A 
HETATM   24  C7  UNL     1       6.655   1.141   0.930  1.00  0.00     0.004 A 
HETATM   25  C8  UNL     1       7.244   0.033   0.394  1.00  0.00     0.019 A 
HETATM   26  C9  UNL     1       6.461  -0.866  -0.308  1.00  0.00     0.013 A 
HETATM   27 BR1  UNL     1       7.245  -2.422  -1.075  1.00  0.00    -0.051 Br
HETATM   28  C10 UNL     1       5.121  -0.570  -0.414  1.00  0.00     0.048 A 
ENDBRANCH  20  22
ENDBRANCH   4  20
BRANCH   1  29
HETATM   29  N1  UNL     1      -0.415  -3.181  -1.901  1.00  0.00    -0.286 NA
HETATM   30  C1  UNL     1      -0.528  -4.329  -1.379  1.00  0.00     0.171 C 
ENDBRANCH   1  29
TORSDOF 3
