REMARK  4 active torsions:
REMARK  status: ('A' for Active; 'I' for Inactive)
REMARK    1  A    between atoms: C4_4  and  C5_5 
REMARK    2  A    between atoms: C4_4  and  N1_8 
REMARK    3  A    between atoms: C10_12  and  N2_13 
REMARK       I    between atoms: N2_13  and  C11_14 
REMARK    4  A    between atoms: C11_14  and  C12_16 
ROOT
HETATM    1  C1  UNL     1      -6.496   1.524  -1.641  1.00  0.00     0.017 C 
HETATM    2  C2  UNL     1      -5.709   1.088  -0.810  1.00  0.00    -0.087 C 
HETATM    3  C3  UNL     1      -4.778   0.568   0.151  1.00  0.00     0.094 C 
HETATM    4  C4  UNL     1      -3.678   0.012  -0.336  1.00  0.00     0.056 C 
ENDROOT
BRANCH   4   5
HETATM    5  C5  UNL     1      -3.410  -0.076  -1.767  1.00  0.00     0.022 C 
HETATM    6  C6  UNL     1      -2.316  -0.630  -2.226  1.00  0.00     0.208 C 
HETATM    7 BR1  UNL     1      -2.039  -0.706  -4.118  1.00  0.00    -0.193 Br
ENDBRANCH   4   5
BRANCH   4   8
HETATM    8  N1  UNL     1      -2.690  -0.533   0.565  1.00  0.00    -0.291 N 
HETATM    9  C7  UNL     1      -1.826   0.127   1.527  1.00  0.00     0.188 C 
HETATM   10  C8  UNL     1      -0.450  -0.212   1.152  1.00  0.00    -0.027 A 
HETATM   11  C9  UNL     1       0.577   0.694   1.040  1.00  0.00     0.039 A 
HETATM   12  C16 UNL     1      -0.262  -1.555   0.910  1.00  0.00    -0.013 A 
HETATM   13  C10 UNL     1       1.845   0.300   0.678  1.00  0.00     0.035 A 
HETATM   14  C14 UNL     1       2.007  -1.030   0.444  1.00  0.00     0.030 A 
HETATM   15  C15 UNL     1       1.019  -1.986   0.540  1.00  0.00     0.013 A 
HETATM   16  C17 UNL     1      -1.406  -2.478   1.049  1.00  0.00     0.239 C 
HETATM   17  C18 UNL     1      -1.159  -3.757   0.341  1.00  0.00     0.091 C 
HETATM   18  N4  UNL     1      -2.578  -1.904   0.457  1.00  0.00    -0.311 N 
HETATM   19  N3  UNL     1      -0.974  -4.759  -0.231  1.00  0.00    -0.195 NA
HETATM   20  H17 UNL     1      -2.828  -2.310  -0.460  1.00  0.00     0.182 HD
BRANCH  13  21
HETATM   21  N2  UNL     1       2.837   1.305   0.589  1.00  0.00    -0.327 N 
HETATM   22  C11 UNL     1       4.199   1.194   0.247  1.00  0.00     0.221 C 
HETATM   23  O1  UNL     1       4.664   0.063  -0.029  1.00  0.00    -0.273 OA
HETATM   24  H8  UNL     1       2.596   2.304   0.792  1.00  0.00     0.169 HD
BRANCH  22  25
HETATM   25  C12 UNL     1       5.162   2.321   0.182  1.00  0.00     0.098 C 
HETATM   26  C13 UNL     1       6.514   1.815  -0.216  1.00  0.00     0.014 C 
ENDBRANCH  22  25
ENDBRANCH  13  21
ENDBRANCH   4   8
TORSDOF 4
