REMARK  5 active torsions:
REMARK  status: ('A' for Active; 'I' for Inactive)
REMARK    1  A    between atoms: C2_2  and  C3_3 
REMARK       I    between atoms: C3_3  and  N1_5 
REMARK    2  A    between atoms: N1_5  and  C4_6 
REMARK    3  A    between atoms: C11_14  and  N3_15 
REMARK    4  A    between atoms: N3_15  and  C12_16 
REMARK    5  A    between atoms: C17_22  and  N4_23 
ROOT
HETATM    1  C4  UNL     1       0.090  -1.856   0.638  1.00  0.00     0.024 C 
HETATM    2  C5  UNL     1      -0.170  -3.093   0.257  1.00  0.00     0.025 C 
HETATM    3  C6  UNL     1       0.850  -3.842  -0.454  1.00  0.00    -0.001 C 
HETATM    4  C7  UNL     1       2.052  -3.310  -0.720  1.00  0.00    -0.017 C 
HETATM    5  C8  UNL     1       2.411  -1.936  -0.300  1.00  0.00     0.049 A 
HETATM    6  C9  UNL     1       3.021  -1.312  -1.526  1.00  0.00     0.002 A 
HETATM    7  C10 UNL     1       2.764  -0.207  -2.193  1.00  0.00     0.115 A 
HETATM    8  N2  UNL     1       1.698   0.537  -1.633  1.00  0.00    -0.247 NA
HETATM    9  C11 UNL     1       1.080   0.107  -0.553  1.00  0.00     0.115 A 
HETATM   10  C18 UNL     1       1.315  -1.124   0.306  1.00  0.00     0.116 A 
ENDROOT
BRANCH   9  11
HETATM   11  N3  UNL     1       0.100   1.100  -0.313  1.00  0.00    -0.342 N 
HETATM   12  H13 UNL     1      -0.821   0.842   0.087  1.00  0.00     0.167 HD
BRANCH  11  13
HETATM   13  C12 UNL     1       0.191   2.524  -0.552  1.00  0.00     0.056 A 
HETATM   14  C13 UNL     1      -0.296   3.013  -1.753  1.00  0.00     0.050 A 
HETATM   15  C14 UNL     1      -0.184   4.385  -1.954  1.00  0.00     0.013 A 
HETATM   16 BR1  UNL     1      -0.871   5.023  -3.615  1.00  0.00    -0.051 Br
HETATM   17  C15 UNL     1       0.374   5.264  -1.042  1.00  0.00     0.021 A 
HETATM   18  C16 UNL     1       0.814   4.653   0.096  1.00  0.00     0.027 A 
HETATM   19  C17 UNL     1       0.775   3.325   0.440  1.00  0.00     0.033 A 
BRANCH  19  20
HETATM   20  N4  UNL     1       1.267   2.792   1.662  1.00  0.00    -0.301 NA
HETATM   21  H17 UNL     1       2.164   2.236   1.536  1.00  0.00     0.124 HD
HETATM   22  H18 UNL     1       2.152   2.258   1.454  1.00  0.00     0.124 HD
ENDBRANCH  19  20
ENDBRANCH  11  13
ENDBRANCH   9  11
BRANCH   1  23
HETATM   23  N1  UNL     1      -0.981  -1.254   1.332  1.00  0.00    -0.330 N 
HETATM   24  C3  UNL     1      -2.287  -1.768   1.445  1.00  0.00     0.221 C 
HETATM   25  O1  UNL     1      -2.772  -2.814   0.972  1.00  0.00    -0.273 OA
HETATM   26  H6  UNL     1      -1.001  -0.388   1.897  1.00  0.00     0.168 HD
BRANCH  24  27
HETATM   27  C2  UNL     1      -3.463  -1.227   2.157  1.00  0.00     0.098 C 
HETATM   28  C1  UNL     1      -4.631  -2.172   2.004  1.00  0.00     0.014 C 
ENDBRANCH  24  27
ENDBRANCH   1  23
TORSDOF 5
