REMARK  1 active torsions:
REMARK  status: ('A' for Active; 'I' for Inactive)
REMARK       I    between atoms: C2_2  and  N1_4 
REMARK    1  A    between atoms: C11_15  and  C12_16 
ROOT
HETATM    1  C1  UNL     1      -4.615   0.968  -0.137  1.00  0.00     0.117 C 
HETATM    2  C2  UNL     1      -3.291   1.592   0.028  1.00  0.00     0.216 C 
HETATM    3  O1  UNL     1      -2.819   2.744   0.287  1.00  0.00    -0.274 OA
HETATM    4  N1  UNL     1      -2.225   0.658  -0.147  1.00  0.00    -0.338 N 
HETATM    5  C3  UNL     1      -0.917   1.354   0.034  1.00  0.00     0.167 C 
HETATM    6  C4  UNL     1       0.079   0.403  -0.662  1.00  0.00    -0.014 C 
HETATM    7  C5  UNL     1      -0.347   0.219  -1.965  1.00  0.00    -0.013 C 
HETATM    8  C6  UNL     1      -1.315  -0.890  -1.711  1.00  0.00     0.059 C 
HETATM    9  C7  UNL     1      -2.122  -0.746  -0.447  1.00  0.00     0.136 C 
HETATM   10  C8  UNL     1      -1.550  -1.575   0.686  1.00  0.00     0.063 C 
HETATM   11  C9  UNL     1      -2.625  -2.063   1.544  1.00  0.00     0.098 C 
HETATM   12  N2  UNL     1      -3.476  -2.436   2.235  1.00  0.00    -0.192 NA
HETATM   13  C10 UNL     1      -0.310  -1.978   1.105  1.00  0.00     0.137 C 
HETATM   14  N3  UNL     1       0.954  -1.391   0.688  1.00  0.00    -0.258 NA
HETATM   15  C11 UNL     1       1.244  -0.298  -0.007  1.00  0.00     0.074 C 
ENDROOT
BRANCH  15  16
HETATM   16  C12 UNL     1       2.672  -0.019   0.017  1.00  0.00    -0.005 A 
HETATM   17  C13 UNL     1       3.410  -0.923   0.728  1.00  0.00     0.014 A 
HETATM   18  C14 UNL     1       4.767  -0.598   0.716  1.00  0.00     0.002 A 
HETATM   19  C15 UNL     1       5.341   0.484   0.085  1.00  0.00     0.019 A 
HETATM   20  C16 UNL     1       4.520   1.342  -0.608  1.00  0.00     0.011 A 
HETATM   21 BR1  UNL     1       5.233   2.856  -1.505  1.00  0.00    -0.051 Br
HETATM   22  C17 UNL     1       3.170   1.079  -0.636  1.00  0.00     0.032 A 
ENDBRANCH  15  16
TORSDOF 1
