REMARK  4 active torsions:
REMARK  status: ('A' for Active; 'I' for Inactive)
REMARK    1  A    between atoms: C2_2  and  C3_3 
REMARK       I    between atoms: C3_3  and  N1_5 
REMARK    2  A    between atoms: N1_5  and  C4_6 
REMARK    3  A    between atoms: C7_9  and  C8_10 
REMARK    4  A    between atoms: C14_18  and  N4_19 
ROOT
HETATM    1  C4  UNL     1      -2.563  -0.319   0.449  1.00  0.00     0.035 A 
HETATM    2  C5  UNL     1      -2.899  -1.642   0.587  1.00  0.00     0.030 A 
HETATM    3  C6  UNL     1      -2.032  -2.697   0.432  1.00  0.00     0.010 A 
HETATM    4  C7  UNL     1      -0.699  -2.434   0.108  1.00  0.00    -0.046 A 
HETATM    5  C10 UNL     1      -0.345  -1.110  -0.035  1.00  0.00    -0.002 A 
HETATM    6  C11 UNL     1       1.010  -0.735  -0.366  1.00  0.00     0.056 C 
HETATM    7  N2  UNL     1       2.078  -1.535  -0.272  1.00  0.00    -0.200 NA
HETATM    8  C12 UNL     1       3.264  -0.964  -0.622  1.00  0.00     0.060 C 
HETATM    9  C13 UNL     1       4.257  -0.470  -0.901  1.00  0.00     0.062 C 
HETATM   10  N3  UNL     1       5.461   0.146  -1.220  1.00  0.00    -0.179 NA
HETATM   11  C14 UNL     1       5.610   1.326  -0.607  1.00  0.00     0.131 C 
HETATM   12  C15 UNL     1       5.093   2.471   0.161  1.00  0.00     0.046 C 
HETATM   13  C16 UNL     1       3.965   2.970   0.591  1.00  0.00    -0.022 C 
HETATM   14  C17 UNL     1       2.528   2.553   0.452  1.00  0.00    -0.001 C 
HETATM   15  C18 UNL     1       1.533   1.727  -0.035  1.00  0.00     0.031 C 
HETATM   16  C19 UNL     1       1.470   0.556  -0.896  1.00  0.00     0.066 C 
HETATM   17  C20 UNL     1      -1.249  -0.084   0.130  1.00  0.00     0.043 A 
ENDROOT
BRANCH   4  18
HETATM   18  C8  UNL     1       0.272  -3.545  -0.063  1.00  0.00     0.035 C 
HETATM   19  C9  UNL     1       0.610  -3.800  -1.510  1.00  0.00     0.010 C 
ENDBRANCH   4  18
BRANCH   1  20
HETATM   20  N1  UNL     1      -3.430   0.775   0.613  1.00  0.00    -0.327 N 
HETATM   21  C3  UNL     1      -4.785   0.781   0.990  1.00  0.00     0.221 C 
HETATM   22  O1  UNL     1      -5.381  -0.293   1.234  1.00  0.00    -0.273 OA
HETATM   23  H6  UNL     1      -3.089   1.745   0.450  1.00  0.00     0.169 HD
BRANCH  21  24
HETATM   24  C2  UNL     1      -5.695   1.930   1.160  1.00  0.00     0.098 C 
HETATM   25  C1  UNL     1      -7.026   1.345   1.640  1.00  0.00     0.014 C 
ENDBRANCH  21  24
ENDBRANCH   1  20
BRANCH  11  26
HETATM   26  N4  UNL     1       6.855   1.344  -1.276  1.00  0.00    -0.383 N 
HETATM   27  H14 UNL     1       7.479   1.531  -2.092  1.00  0.00     0.157 HD
HETATM   28  H15 UNL     1       7.860   1.099  -1.121  1.00  0.00     0.157 HD
ENDBRANCH  11  26
TORSDOF 4
