REMARK  1 active torsions:
REMARK  status: ('A' for Active; 'I' for Inactive)
REMARK    1  A    between atoms: C14_17  and  C15_18 
ROOT
HETATM    1  N1  UNL     1       6.007   0.430  -1.248  1.00  0.00    -0.191 NA
HETATM    2  C1  UNL     1       4.924   0.708  -0.985  1.00  0.00     0.102 C 
HETATM    3  C2  UNL     1       3.586   1.059  -0.660  1.00  0.00     0.073 A 
HETATM    4  C3  UNL     1       3.081   2.355  -0.670  1.00  0.00     0.142 A 
HETATM    5  N2  UNL     1       1.804   2.742  -0.367  1.00  0.00    -0.241 NA
HETATM    6  C4  UNL     1       0.890   1.850  -0.019  1.00  0.00     0.134 A 
HETATM    7  C5  UNL     1       1.365   0.561  -0.000  1.00  0.00     0.022 A 
HETATM    8  C6  UNL     1       0.694  -0.602   0.272  1.00  0.00     0.031 A 
HETATM    9  C7  UNL     1       0.769  -1.956   0.360  1.00  0.00     0.011 A 
HETATM   10  C8  UNL     1       2.085  -2.208   0.039  1.00  0.00     0.016 A 
HETATM   11  C9  UNL     1       2.994  -1.221  -0.278  1.00  0.00     0.015 A 
HETATM   12  C10 UNL     1       2.634   0.108  -0.294  1.00  0.00     0.000 A 
HETATM   13  C11 UNL     1      -0.594  -2.312   0.706  1.00  0.00     0.159 C 
HETATM   14  O1  UNL     1      -0.080  -2.708   1.774  1.00  0.00    -0.292 OA
HETATM   15  C12 UNL     1      -1.665  -2.018  -0.312  1.00  0.00     0.084 C 
HETATM   16  C13 UNL     1      -1.907  -0.593  -0.617  1.00  0.00     0.015 C 
HETATM   17  C14 UNL     1      -2.397   0.339   0.417  1.00  0.00     0.014 C 
HETATM   18  C16 UNL     1      -1.878   1.730   0.196  1.00  0.00     0.126 C 
HETATM   19  N3  UNL     1      -0.481   1.928   0.289  1.00  0.00    -0.374 N 
HETATM   20  H14 UNL     1      -0.241   2.517   1.147  1.00  0.00     0.161 HD
ENDROOT
BRANCH  17  21
HETATM   21  C15 UNL     1      -3.866   0.256   0.745  1.00  0.00     0.091 C 
HETATM   22 BR1  UNL     1      -4.406  -1.465   1.417  1.00  0.00    -0.096 Br
ENDBRANCH  17  21
TORSDOF 1
