REMARK  0 active torsions:
REMARK  status: ('A' for Active; 'I' for Inactive)
ROOT
HETATM    1  N1  UNL     1      -0.825   4.373  -1.043  1.00  0.00    -0.192 NA
HETATM    2  C1  UNL     1      -0.943   3.195  -0.890  1.00  0.00     0.099 C 
HETATM    3  C2  UNL     1      -1.115   1.742  -0.706  1.00  0.00     0.063 C 
HETATM    4  C3  UNL     1      -2.348   1.342  -0.299  1.00  0.00     0.104 C 
HETATM    5  N2  UNL     1      -3.246   0.245   0.071  1.00  0.00    -0.383 N 
HETATM    6  C4  UNL     1      -2.480  -0.979   0.248  1.00  0.00     0.087 A 
HETATM    7  C5  UNL     1      -2.201  -0.651   1.534  1.00  0.00     0.081 A 
HETATM    8  C6  UNL     1      -1.133  -1.277   2.127  1.00  0.00    -0.003 A 
HETATM    9  C7  UNL     1      -1.169  -1.796   0.845  1.00  0.00     0.151 A 
HETATM   10  C8  UNL     1      -1.511  -2.078  -0.451  1.00  0.00     0.098 A 
HETATM   11  C9  UNL     1      -2.575  -1.453  -1.019  1.00  0.00     0.006 A 
HETATM   12 BR1  UNL     1      -3.834  -1.061  -2.403  1.00  0.00    -0.057 Br
HETATM   13  N3  UNL     1       0.288  -2.170   0.779  1.00  0.00    -0.063 N 
HETATM   14  C10 UNL     1       1.736  -2.479   0.696  1.00  0.00     0.574 C 
HETATM   15  C11 UNL     1       2.670  -1.540   0.401  1.00  0.00     0.008 C 
HETATM   16  C12 UNL     1       3.345  -0.259   0.057  1.00  0.00     0.113 C 
HETATM   17  C13 UNL     1       2.573   0.886  -0.122  1.00  0.00     0.048 C 
HETATM   18  C14 UNL     1       3.737   1.763  -0.426  1.00  0.00     0.416 C 
HETATM   19  O1  UNL     1       4.782   2.456  -0.678  1.00  0.00    -0.428 OA
HETATM   20  N4  UNL     1       1.279   1.641  -0.150  1.00  0.00    -0.401 N 
HETATM   21  C15 UNL     1       0.213   1.180  -1.058  1.00  0.00     0.147 C 
HETATM   22  C16 UNL     1       0.187  -0.282  -0.877  1.00  0.00     0.027 C 
HETATM   23  C17 UNL     1       0.297  -0.713   0.393  1.00  0.00     0.189 C 
HETATM   24  H2  UNL     1      -4.261   0.293   0.188  1.00  0.00     0.160 HD
HETATM   25  H10 UNL     1       1.386   2.412   0.535  1.00  0.00     0.154 HD
ENDROOT
TORSDOF 0
