REMARK  3 active torsions:
REMARK  status: ('A' for Active; 'I' for Inactive)
REMARK    1  A    between atoms: C2_3  and  N1_4 
REMARK    2  A    between atoms: N1_4  and  C3_5 
REMARK    3  A    between atoms: C3_5  and  N2_6 
ROOT
HETATM    1  N2  UNL     1       0.782  -0.864   0.415  1.00  0.00    -0.253 NA
HETATM    2  C4  UNL     1       0.125   0.192   0.757  1.00  0.00     0.153 C 
HETATM    3  N3  UNL     1       0.745   1.361   1.251  1.00  0.00    -0.219 NA
HETATM    4  C5  UNL     1       0.110   2.467   1.454  1.00  0.00     0.260 C 
HETATM    5  O1  UNL     1      -1.249   2.579   1.194  1.00  0.00    -0.306 OA
HETATM    6  C6  UNL     1      -1.939   1.475   0.705  1.00  0.00     0.085 C 
HETATM    7  C7  UNL     1      -3.194   1.792   0.339  1.00  0.00     0.049 C 
HETATM    8  C8  UNL     1      -4.256   0.923  -0.226  1.00  0.00    -0.000 A 
HETATM    9  C9  UNL     1      -5.397   1.568  -0.402  1.00  0.00     0.179 A 
HETATM   10  O2  UNL     1      -6.523   0.917  -0.928  1.00  0.00    -0.250 OA
HETATM   11  N4  UNL     1      -6.348  -0.429  -1.242  1.00  0.00    -0.272 N 
HETATM   12  C10 UNL     1      -5.136  -1.172  -1.071  1.00  0.00     0.124 A 
HETATM   13  C11 UNL     1      -4.110  -0.503  -0.571  1.00  0.00    -0.011 A 
HETATM   14  C12 UNL     1      -2.928  -1.405  -0.453  1.00  0.00     0.156 C 
HETATM   15  N5  UNL     1      -1.718  -0.668  -0.465  1.00  0.00    -0.402 N 
HETATM   16  C13 UNL     1      -1.354   0.128   0.605  1.00  0.00     0.207 C 
HETATM   17  H7  UNL     1      -7.199  -0.919  -1.639  1.00  0.00     0.193 HD
HETATM   18  H11 UNL     1      -1.173  -0.664  -1.333  1.00  0.00     0.154 HD
ENDROOT
BRANCH   1  19
HETATM   19  C3  UNL     1       2.221  -0.999   0.488  1.00  0.00     0.272 C 
BRANCH  19  20
HETATM   20  N1  UNL     1       2.878  -0.284  -0.577  1.00  0.00    -0.370 N 
HETATM   21  H1  UNL     1       2.553   0.298  -1.376  1.00  0.00     0.161 HD
BRANCH  20  22
HETATM   22  C2  UNL     1       4.300  -0.368  -0.575  1.00  0.00     0.065 A 
HETATM   23  C1  UNL     1       5.200   0.601  -0.479  1.00  0.00     0.125 A 
HETATM   24  F1  UNL     1       5.075   1.946  -0.357  1.00  0.00    -0.208 F 
HETATM   25  C16 UNL     1       6.579   0.039  -0.520  1.00  0.00     0.123 A 
HETATM   26  C15 UNL     1       6.373  -1.418  -0.655  1.00  0.00     0.020 A 
HETATM   27  C14 UNL     1       5.054  -1.616  -0.683  1.00  0.00     0.052 A 
HETATM   28 CL1  UNL     1       7.684  -2.573  -0.752  1.00  0.00    -0.088 Cl
ENDBRANCH  20  22
ENDBRANCH  19  20
ENDBRANCH   1  19
TORSDOF 3
