REMARK  2 active torsions:
REMARK  status: ('A' for Active; 'I' for Inactive)
REMARK    1  A    between atoms: C9_12  and  N4_13 
REMARK    2  A    between atoms: N4_13  and  C10_14 
ROOT
HETATM    1  C1  UNL     1      -5.463   1.061  -1.448  1.00  0.00     0.149 C 
HETATM    2  N1  UNL     1      -4.274   0.299  -1.189  1.00  0.00    -0.391 N 
HETATM    3  C2  UNL     1      -3.158   0.961  -0.687  1.00  0.00     0.085 C 
HETATM    4  C3  UNL     1      -2.329   1.588   0.146  1.00  0.00     0.014 C 
HETATM    5  C4  UNL     1      -1.025   2.052  -0.186  1.00  0.00    -0.011 C 
HETATM    6  C5  UNL     1       0.047   2.446  -0.401  1.00  0.00     0.038 A 
HETATM    7  C6  UNL     1       1.198   2.930  -0.334  1.00  0.00     0.102 A 
HETATM    8  C7  UNL     1       0.480   4.222  -1.020  1.00  0.00    -0.002 C 
HETATM    9  N2  UNL     1      -0.070   5.247  -1.544  1.00  0.00    -0.100 N 
HETATM   10  C8  UNL     1       2.453   3.419  -0.241  1.00  0.00     0.118 A 
HETATM   11  N3  UNL     1       3.054   2.434   0.434  1.00  0.00    -0.248 NA
HETATM   12  C9  UNL     1       2.326   1.321   0.799  1.00  0.00     0.119 A 
HETATM   13  C16 UNL     1       1.013   1.511   0.336  1.00  0.00     0.076 A 
HETATM   14  C17 UNL     1       0.826   0.083   0.440  1.00  0.00    -0.003 C 
HETATM   15  C18 UNL     1      -0.309  -0.653  -0.173  1.00  0.00     0.296 A 
HETATM   16  N5  UNL     1      -1.014  -1.436   0.794  1.00  0.00     0.106 N 
HETATM   17  C19 UNL     1      -2.437  -1.682   0.316  1.00  0.00     0.259 A 
HETATM   18  O1  UNL     1      -1.321  -1.293   0.349  1.00  0.00     0.000 OA
HETATM   19  C20 UNL     1      -3.597  -2.404   0.762  1.00  0.00     0.018 C 
HETATM   20  C21 UNL     1      -4.407  -1.963  -0.263  1.00  0.00    -0.008 C 
HETATM   21  C22 UNL     1      -3.794  -1.058  -1.254  1.00  0.00     0.148 C 
HETATM   22  H16 UNL     1      -0.347  -1.698   1.684  1.00  0.00     0.317 HD
ENDROOT
BRANCH  12  23
HETATM   23  N4  UNL     1       3.104   0.392   1.511  1.00  0.00    -0.343 N 
HETATM   24  H8  UNL     1       3.015   0.685   2.498  1.00  0.00     0.167 HD
BRANCH  23  25
HETATM   25  C10 UNL     1       3.784  -0.639   0.856  1.00  0.00     0.034 A 
HETATM   26  C11 UNL     1       3.845  -0.900  -0.462  1.00  0.00     0.029 A 
HETATM   27  C12 UNL     1       4.616  -1.989  -0.798  1.00  0.00     0.004 A 
HETATM   28  C13 UNL     1       5.288  -2.783   0.070  1.00  0.00     0.019 A 
HETATM   29  C14 UNL     1       5.221  -2.510   1.442  1.00  0.00     0.013 A 
HETATM   30 BR1  UNL     1       6.128  -3.588   2.701  1.00  0.00    -0.051 Br
HETATM   31  C15 UNL     1       4.443  -1.410   1.770  1.00  0.00     0.048 A 
ENDBRANCH  23  25
ENDBRANCH  12  23
TORSDOF 2
