REMARK  7 active torsions:
REMARK  status: ('A' for Active; 'I' for Inactive)
REMARK    1  A    between atoms: N1_2  and  C3_4 
REMARK    2  A    between atoms: C3_4  and  C4_5 
REMARK    3  A    between atoms: C4_5  and  C5_6 
REMARK    4  A    between atoms: C5_6  and  C6_7 
REMARK       I    between atoms: C6_7  and  N2_9 
REMARK    5  A    between atoms: N2_9  and  C7_10 
REMARK    6  A    between atoms: C14_19  and  N5_20 
REMARK    7  A    between atoms: N5_20  and  C15_21 
ROOT
HETATM    1  C7  UNL     1      -0.203  -1.811   1.306  1.00  0.00     0.035 A 
HETATM    2  C8  UNL     1      -0.698  -2.818   2.105  1.00  0.00     0.030 A 
HETATM    3  C9  UNL     1      -1.851  -3.503   1.817  1.00  0.00     0.016 A 
HETATM    4  C10 UNL     1      -2.598  -3.223   0.694  1.00  0.00     0.000 A 
HETATM    5  C11 UNL     1      -3.757  -3.910   0.403  1.00  0.00     0.073 A 
HETATM    6  C12 UNL     1      -4.208  -4.949   1.284  1.00  0.00     0.102 C 
HETATM    7  N3  UNL     1      -4.589  -5.783   2.006  1.00  0.00    -0.191 NA
HETATM    8  C13 UNL     1      -4.432  -3.554  -0.746  1.00  0.00     0.142 A 
HETATM    9  N4  UNL     1      -4.002  -2.578  -1.571  1.00  0.00    -0.241 NA
HETATM   10  C14 UNL     1      -2.866  -1.917  -1.269  1.00  0.00     0.139 A 
HETATM   11  C21 UNL     1      -2.140  -2.221  -0.137  1.00  0.00     0.024 A 
HETATM   12  C22 UNL     1      -0.976  -1.571   0.208  1.00  0.00     0.045 A 
ENDROOT
BRANCH  10  13
HETATM   13  N5  UNL     1      -2.361  -0.863  -2.115  1.00  0.00    -0.340 N 
HETATM   14  H17 UNL     1      -1.714  -0.973  -2.905  1.00  0.00     0.167 HD
BRANCH  13  15
HETATM   15  C15 UNL     1      -2.812   0.475  -1.820  1.00  0.00     0.035 A 
HETATM   16  C16 UNL     1      -2.385   1.565  -2.546  1.00  0.00     0.029 A 
HETATM   17  C17 UNL     1      -2.756   2.861  -2.340  1.00  0.00     0.004 A 
HETATM   18  C18 UNL     1      -3.651   3.096  -1.295  1.00  0.00     0.019 A 
HETATM   19  C19 UNL     1      -4.121   2.033  -0.521  1.00  0.00     0.013 A 
HETATM   20 BR1  UNL     1      -5.340   2.227   0.925  1.00  0.00    -0.051 Br
HETATM   21  C20 UNL     1      -3.700   0.736  -0.788  1.00  0.00     0.048 A 
ENDBRANCH  13  15
ENDBRANCH  10  13
BRANCH   1  22
HETATM   22  N2  UNL     1       0.990  -1.147   1.665  1.00  0.00    -0.327 N 
HETATM   23  C6  UNL     1       1.694  -0.115   1.001  1.00  0.00     0.222 C 
HETATM   24  O1  UNL     1       1.214   0.298  -0.074  1.00  0.00    -0.273 OA
HETATM   25  H13 UNL     1       1.435  -1.469   2.576  1.00  0.00     0.169 HD
BRANCH  23  26
HETATM   26  C5  UNL     1       2.938   0.395   1.624  1.00  0.00     0.105 C 
BRANCH  26  27
HETATM   27  C4  UNL     1       3.665   1.421   0.843  1.00  0.00     0.039 C 
BRANCH  27  28
HETATM   28  C3  UNL     1       4.103   0.870  -0.483  1.00  0.00     0.271 C 
BRANCH  28  29
HETATM   29  N1  UNL     1       4.812   1.941  -1.181  1.00  0.00     0.080 N 
HETATM   30  C1  UNL     1       3.868   2.959  -1.521  1.00  0.00     0.309 C 
HETATM   31  C2  UNL     1       5.866   2.399  -0.304  1.00  0.00     0.309 C 
ENDBRANCH  28  29
ENDBRANCH  27  28
ENDBRANCH  26  27
ENDBRANCH  23  26
ENDBRANCH   1  22
TORSDOF 7
