REMARK  5 active torsions:
REMARK  status: ('A' for Active; 'I' for Inactive)
REMARK    1  A    between atoms: N1_2  and  C3_4 
REMARK    2  A    between atoms: C3_4  and  C4_5 
REMARK    3  A    between atoms: C5_6  and  C6_7 
REMARK       I    between atoms: C6_7  and  N2_9 
REMARK    4  A    between atoms: C9_12  and  N3_13 
REMARK    5  A    between atoms: N3_13  and  C10_14 
ROOT
HETATM    1  C6  UNL     1       2.142  -1.459  -0.363  1.00  0.00     0.247 C 
HETATM    2  O1  UNL     1       3.188  -2.073  -0.656  1.00  0.00    -0.268 OA
HETATM    3  N2  UNL     1       0.840  -1.936  -0.614  1.00  0.00    -0.320 N 
HETATM    4  C7  UNL     1      -0.335  -1.238  -0.281  1.00  0.00     0.110 A 
HETATM    5  C8  UNL     1      -1.576  -1.630  -0.489  1.00  0.00     0.037 A 
HETATM    6  C9  UNL     1      -2.674  -0.884  -0.131  1.00  0.00     0.140 A 
HETATM    7  N4  UNL     1      -3.828  -1.458  -0.427  1.00  0.00    -0.241 NA
HETATM    8  C16 UNL     1      -4.003  -2.644  -1.016  1.00  0.00     0.142 A 
HETATM    9  C17 UNL     1      -2.915  -3.401  -1.380  1.00  0.00     0.073 A 
HETATM   10  C18 UNL     1      -3.103  -4.677  -2.014  1.00  0.00     0.102 C 
HETATM   11  N5  UNL     1      -3.255  -5.721  -2.516  1.00  0.00    -0.191 NA
HETATM   12  C19 UNL     1      -1.701  -2.859  -1.099  1.00  0.00    -0.001 A 
HETATM   13  C20 UNL     1      -0.663  -3.600  -1.455  1.00  0.00     0.007 A 
HETATM   14  C21 UNL     1       0.747  -3.232  -1.257  1.00  0.00     0.160 A 
ENDROOT
BRANCH   6  15
HETATM   15  N3  UNL     1      -2.533   0.378   0.486  1.00  0.00    -0.340 N 
HETATM   16  H12 UNL     1      -1.600   0.796   0.664  1.00  0.00     0.167 HD
BRANCH  15  17
HETATM   17  C10 UNL     1      -3.533   1.248   0.945  1.00  0.00     0.035 A 
HETATM   18  C11 UNL     1      -4.851   0.870   0.995  1.00  0.00     0.029 A 
HETATM   19  C12 UNL     1      -5.856   1.702   1.432  1.00  0.00     0.004 A 
HETATM   20  C13 UNL     1      -5.600   2.985   1.852  1.00  0.00     0.019 A 
HETATM   21  C14 UNL     1      -4.297   3.394   1.815  1.00  0.00     0.013 A 
HETATM   22 BR1  UNL     1      -3.828   5.154   2.375  1.00  0.00    -0.051 Br
HETATM   23  C15 UNL     1      -3.333   2.522   1.370  1.00  0.00     0.048 A 
ENDBRANCH  15  17
ENDBRANCH   6  15
BRANCH   1  24
HETATM   24  C5  UNL     1       2.555  -0.223   0.256  1.00  0.00     0.072 C 
HETATM   25  C4  UNL     1       3.862  -0.095   0.335  1.00  0.00     0.008 C 
BRANCH  25  26
HETATM   26  C3  UNL     1       4.543   1.080   0.927  1.00  0.00     0.299 C 
BRANCH  26  27
HETATM   27  N1  UNL     1       5.370   1.676  -0.094  1.00  0.00     0.083 N 
HETATM   28  C1  UNL     1       4.637   2.286  -1.163  1.00  0.00     0.309 C 
HETATM   29  C2  UNL     1       6.447   2.453   0.433  1.00  0.00     0.309 C 
ENDBRANCH  26  27
ENDBRANCH  25  26
ENDBRANCH   1  24
TORSDOF 5
