REMARK  6 active torsions:
REMARK  status: ('A' for Active; 'I' for Inactive)
REMARK    1  A    between atoms: C2_2  and  N1_3 
REMARK    2  A    between atoms: N1_3  and  C4_5 
REMARK    3  A    between atoms: C4_5  and  C5_6 
REMARK       I    between atoms: C5_6  and  N2_8 
REMARK    4  A    between atoms: N2_8  and  C6_9 
REMARK    5  A    between atoms: C13_18  and  N5_19 
REMARK    6  A    between atoms: N5_19  and  C14_20 
ROOT
HETATM    1  C6  UNL     1       0.858  -1.501   0.433  1.00  0.00     0.035 A 
HETATM    2  C7  UNL     1       1.288  -2.179   1.550  1.00  0.00     0.030 A 
HETATM    3  C8  UNL     1       0.451  -2.216   2.641  1.00  0.00     0.016 A 
HETATM    4  C9  UNL     1      -0.792  -1.585   2.612  1.00  0.00     0.000 A 
HETATM    5  C10 UNL     1      -1.538  -1.685   3.747  1.00  0.00     0.073 A 
HETATM    6  C11 UNL     1      -1.126  -2.383   4.934  1.00  0.00     0.102 C 
HETATM    7  N3  UNL     1      -0.783  -2.958   5.881  1.00  0.00    -0.191 NA
HETATM    8  C12 UNL     1      -2.753  -1.075   3.733  1.00  0.00     0.142 A 
HETATM    9  N4  UNL     1      -3.163  -0.419   2.645  1.00  0.00    -0.241 NA
HETATM   10  C13 UNL     1      -2.474  -0.289   1.506  1.00  0.00     0.139 A 
HETATM   11  C20 UNL     1      -1.252  -0.899   1.510  1.00  0.00     0.024 A 
HETATM   12  C21 UNL     1      -0.378  -0.893   0.450  1.00  0.00     0.045 A 
ENDROOT
BRANCH  10  13
HETATM   13  N5  UNL     1      -2.913   0.402   0.371  1.00  0.00    -0.340 N 
HETATM   14  H15 UNL     1      -2.344   0.450  -0.486  1.00  0.00     0.167 HD
BRANCH  13  15
HETATM   15  C14 UNL     1      -4.108   1.117   0.157  1.00  0.00     0.035 A 
HETATM   16  C15 UNL     1      -4.520   1.680  -1.043  1.00  0.00     0.029 A 
HETATM   17  C16 UNL     1      -5.671   2.372  -1.241  1.00  0.00     0.004 A 
HETATM   18  C17 UNL     1      -6.538   2.563  -0.204  1.00  0.00     0.019 A 
HETATM   19  C18 UNL     1      -6.191   2.029   1.023  1.00  0.00     0.013 A 
HETATM   20 BR1  UNL     1      -7.439   2.326   2.435  1.00  0.00    -0.051 Br
HETATM   21  C19 UNL     1      -5.007   1.335   1.162  1.00  0.00     0.048 A 
ENDBRANCH  13  15
ENDBRANCH  10  13
BRANCH   1  22
HETATM   22  N2  UNL     1       1.745  -1.480  -0.678  1.00  0.00    -0.326 N 
HETATM   23  C5  UNL     1       2.688  -0.414  -0.764  1.00  0.00     0.250 C 
HETATM   24  O1  UNL     1       2.744   0.489   0.110  1.00  0.00    -0.271 OA
HETATM   25  H11 UNL     1       1.659  -2.249  -1.374  1.00  0.00     0.169 HD
BRANCH  23  26
HETATM   26  C4  UNL     1       3.567  -0.505  -1.980  1.00  0.00     0.374 C 
BRANCH  26  27
HETATM   27  N1  UNL     1       4.459   0.634  -1.924  1.00  0.00     0.092 N 
HETATM   28  C3  UNL     1       3.736   1.882  -1.791  1.00  0.00     0.310 C 
BRANCH  27  29
HETATM   29  C2  UNL     1       5.370   0.660  -3.052  1.00  0.00     0.268 C 
HETATM   30  C1  UNL     1       6.068  -0.687  -3.092  1.00  0.00     0.037 C 
ENDBRANCH  27  29
ENDBRANCH  26  27
ENDBRANCH  23  26
ENDBRANCH   1  22
TORSDOF 6
