REMARK  5 active torsions:
REMARK  status: ('A' for Active; 'I' for Inactive)
REMARK    1  A    between atoms: C6_9  and  C7_10 
REMARK    2  A    between atoms: C7_10  and  C8_11 
REMARK    3  A    between atoms: C12_16  and  C13_17 
REMARK    4  A    between atoms: C13_17  and  C14_18 
REMARK    5  A    between atoms: C16_22  and  N5_23 
ROOT
HETATM    1  C8  UNL     1       0.548   0.364   0.924  1.00  0.00     0.045 A 
HETATM    2  C9  UNL     1       1.588   0.690   0.282  1.00  0.00    -0.029 A 
HETATM    3  C10 UNL     1       2.151  -0.181   1.324  1.00  0.00     0.146 A 
HETATM    4  N3  UNL     1       3.453  -0.825   0.999  1.00  0.00    -0.374 N 
HETATM    5  C11 UNL     1       4.480  -0.527   0.073  1.00  0.00     0.097 C 
HETATM    6  C12 UNL     1       5.434  -1.265   0.441  1.00  0.00     0.022 C 
HETATM    7  N4  UNL     1       4.312   0.223  -1.102  1.00  0.00    -0.351 N 
HETATM    8  C15 UNL     1       3.347   1.203  -1.443  1.00  0.00     0.119 C 
HETATM    9  C16 UNL     1       2.197   1.391  -0.840  1.00  0.00     0.045 C 
HETATM   10  H15 UNL     1       3.415  -1.571   1.722  1.00  0.00     0.161 HD
HETATM   11  H21 UNL     1       5.037  -0.045  -1.789  1.00  0.00     0.166 HD
ENDROOT
BRANCH   1  12
HETATM   12  C7  UNL     1      -0.191   1.300  -0.110  1.00  0.00     0.091 C 
BRANCH  12  13
HETATM   13  C6  UNL     1      -1.596   1.125   0.121  1.00  0.00     0.024 C 
HETATM   14  N2  UNL     1      -1.963   0.098   1.318  1.00  0.00    -0.356 N 
HETATM   15  C5  UNL     1      -2.668  -1.005   1.237  1.00  0.00     0.217 C 
HETATM   16  H10 UNL     1      -1.541   0.453   2.236  1.00  0.00     0.162 HD
HETATM   17  C4  UNL     1      -3.495  -2.302   1.169  1.00  0.00     0.104 C 
HETATM   18  O1  UNL     1      -2.704  -0.862   0.039  1.00  0.00    -0.274 OA
HETATM   19  C3  UNL     1      -4.300  -1.817  -0.231  1.00  0.00     0.028 C 
HETATM   20  C2  UNL     1      -4.776  -0.426   0.089  1.00  0.00     0.117 C 
HETATM   21  N1  UNL     1      -5.127   0.648  -0.628  1.00  0.00    -0.417 N 
HETATM   22  C1  UNL     1      -6.215   0.905  -1.418  1.00  0.00     0.143 C 
HETATM   23  C18 UNL     1      -4.140   1.766  -0.850  1.00  0.00     0.118 C 
HETATM   24  C17 UNL     1      -2.964   1.417  -0.344  1.00  0.00     0.045 C 
ENDBRANCH  12  13
ENDBRANCH   1  12
BRANCH   9  25
HETATM   25  N5  UNL     1       1.359   2.424  -1.212  1.00  0.00    -0.398 N 
HETATM   26  H23 UNL     1       0.590   2.480  -1.972  1.00  0.00     0.156 HD
HETATM   27  H24 UNL     1       1.563   3.280  -0.586  1.00  0.00     0.156 HD
ENDBRANCH   9  25
BRANCH   6  28
HETATM   28  C13 UNL     1       6.753  -1.210  -0.285  1.00  0.00     0.041 C 
BRANCH  28  29
HETATM   29  C14 UNL     1       7.686  -0.890   0.930  1.00  0.00     0.089 C 
HETATM   30 BR1  UNL     1       7.481  -2.401   2.146  1.00  0.00    -0.096 Br
ENDBRANCH  28  29
ENDBRANCH   6  28
TORSDOF 5
