REMARK  2 active torsions:
REMARK  status: ('A' for Active; 'I' for Inactive)
REMARK    1  A    between atoms: N1_2  and  C3_4 
REMARK    2  A    between atoms: C3_4  and  C4_5 
ROOT
HETATM    1  C4  UNL     1      -1.716   0.111   0.508  1.00  0.00     0.026 C 
HETATM    2  C5  UNL     1      -1.644   1.099  -0.598  1.00  0.00     0.033 C 
HETATM    3  C6  UNL     1      -1.863   2.519  -0.331  1.00  0.00    -0.030 C 
HETATM    4  C7  UNL     1      -0.976   3.434  -0.509  1.00  0.00    -0.023 C 
HETATM    5  C8  UNL     1       0.369   3.724  -0.935  1.00  0.00     0.092 C 
HETATM    6  C9  UNL     1       1.458   3.208  -1.381  1.00  0.00     0.072 C 
HETATM    7  N2  UNL     1       2.761   3.599  -1.786  1.00  0.00    -0.368 N 
HETATM    8  C10 UNL     1       3.517   2.661  -0.991  1.00  0.00     0.171 A 
HETATM    9 BR1  UNL     1       3.671   3.584   0.676  1.00  0.00     0.038 Br
HETATM   10  N3  UNL     1       4.157   1.798  -0.435  1.00  0.00    -0.273 N 
HETATM   11  C11 UNL     1       4.762   0.604  -0.584  1.00  0.00     0.162 C 
HETATM   12  C12 UNL     1       4.837  -0.658  -0.496  1.00  0.00     0.077 C 
HETATM   13  C13 UNL     1       3.443  -0.457   0.086  1.00  0.00    -0.005 C 
HETATM   14  N4  UNL     1       2.350  -0.292   0.560  1.00  0.00    -0.101 N 
HETATM   15  C14 UNL     1       4.750  -2.066  -0.345  1.00  0.00    -0.006 C 
HETATM   16  C15 UNL     1       4.111  -3.159  -0.059  1.00  0.00    -0.018 C 
HETATM   17  C16 UNL     1       2.969  -3.961   0.333  1.00  0.00     0.059 C 
HETATM   18  C17 UNL     1       1.598  -3.850   0.637  1.00  0.00     0.073 C 
HETATM   19  N5  UNL     1       0.419  -2.971   0.780  1.00  0.00    -0.340 N 
HETATM   20  C18 UNL     1      -0.744  -2.122   0.952  1.00  0.00     0.221 C 
HETATM   21  O1  UNL     1      -0.677  -2.841   2.017  1.00  0.00    -0.273 OA
HETATM   22  C19 UNL     1      -1.075  -1.174  -0.108  1.00  0.00     0.109 C 
HETATM   23  H16 UNL     1       3.375   4.227  -2.320  1.00  0.00     0.161 HD
HETATM   24  H22 UNL     1       0.870  -2.766  -0.177  1.00  0.00     0.167 HD
ENDROOT
BRANCH   1  25
HETATM   25  C3  UNL     1      -2.953  -0.183   1.232  1.00  0.00     0.276 C 
BRANCH  25  26
HETATM   26  N1  UNL     1      -4.050  -0.757   0.537  1.00  0.00     0.080 N 
HETATM   27  C1  UNL     1      -4.688   0.141  -0.360  1.00  0.00     0.309 C 
HETATM   28  C2  UNL     1      -4.994  -1.236   1.555  1.00  0.00     0.309 C 
ENDBRANCH  25  26
ENDBRANCH   1  25
TORSDOF 2
