REMARK  6 active torsions:
REMARK  status: ('A' for Active; 'I' for Inactive)
REMARK    1  A    between atoms: N1_2  and  C3_4 
REMARK    2  A    between atoms: C3_4  and  C4_5 
REMARK    3  A    between atoms: C4_5  and  C5_6 
REMARK    4  A    between atoms: C5_6  and  C6_7 
REMARK       I    between atoms: C6_7  and  N2_9 
REMARK    5  A    between atoms: N2_9  and  C7_10 
REMARK    6  A    between atoms: C14_19  and  N5_20 
ROOT
HETATM    1  C7  UNL     1      -0.314   0.945  -0.300  1.00  0.00     0.035 A 
HETATM    2  C8  UNL     1      -0.123   2.258   0.065  1.00  0.00     0.030 A 
HETATM    3  C9  UNL     1      -1.064   3.062   0.668  1.00  0.00     0.016 A 
HETATM    4  C10 UNL     1      -2.309   2.545   0.942  1.00  0.00     0.000 A 
HETATM    5  C11 UNL     1      -3.304   3.261   1.528  1.00  0.00     0.073 A 
HETATM    6  C12 UNL     1      -3.056   4.608   1.884  1.00  0.00     0.102 C 
HETATM    7  N3  UNL     1      -2.854   5.714   2.179  1.00  0.00    -0.191 NA
HETATM    8  C13 UNL     1      -4.516   2.644   1.751  1.00  0.00     0.142 A 
HETATM    9  N4  UNL     1      -4.721   1.345   1.396  1.00  0.00    -0.241 NA
HETATM   10  C14 UNL     1      -3.742   0.625   0.815  1.00  0.00     0.140 A 
HETATM   11  C20 UNL     1      -2.527   1.234   0.587  1.00  0.00     0.024 A 
HETATM   12  C21 UNL     1      -1.568   0.456  -0.014  1.00  0.00     0.045 A 
ENDROOT
BRANCH  10  13
HETATM   13  N5  UNL     1      -4.134  -0.707   0.546  1.00  0.00    -0.336 N 
HETATM   14  C15 UNL     1      -5.108  -0.667  -0.521  1.00  0.00     0.112 A 
HETATM   15  C16 UNL     1      -5.708  -1.735  -1.072  1.00  0.00     0.026 A 
HETATM   16 BR1  UNL     1      -7.001  -1.740  -2.484  1.00  0.00    -0.050 Br
HETATM   17  C17 UNL     1      -5.370  -3.081  -0.563  1.00  0.00     0.018 A 
HETATM   18  C18 UNL     1      -4.483  -3.100   0.416  1.00  0.00    -0.005 A 
HETATM   19  C19 UNL     1      -3.773  -1.980   1.084  1.00  0.00     0.157 A 
ENDBRANCH  10  13
BRANCH   1  20
HETATM   20  N2  UNL     1       0.629   0.094  -0.918  1.00  0.00    -0.327 N 
HETATM   21  C6  UNL     1       1.962   0.353  -1.308  1.00  0.00     0.222 C 
HETATM   22  O1  UNL     1       2.414   1.501  -1.090  1.00  0.00    -0.273 OA
HETATM   23  H13 UNL     1       0.341  -0.887  -1.140  1.00  0.00     0.169 HD
BRANCH  21  24
HETATM   24  C5  UNL     1       2.803  -0.684  -1.952  1.00  0.00     0.105 C 
BRANCH  24  25
HETATM   25  C4  UNL     1       4.191  -0.228  -2.237  1.00  0.00     0.039 C 
BRANCH  25  26
HETATM   26  C3  UNL     1       4.990   0.173  -1.033  1.00  0.00     0.271 C 
BRANCH  26  27
HETATM   27  N1  UNL     1       5.123  -0.939  -0.098  1.00  0.00     0.080 N 
HETATM   28  C1  UNL     1       5.897  -0.548   1.066  1.00  0.00     0.309 C 
HETATM   29  C2  UNL     1       5.844  -2.048  -0.727  1.00  0.00     0.309 C 
ENDBRANCH  26  27
ENDBRANCH  25  26
ENDBRANCH  24  25
ENDBRANCH  21  24
ENDBRANCH   1  20
TORSDOF 6
