REMARK  8 active torsions:
REMARK  status: ('A' for Active; 'I' for Inactive)
REMARK    1  A    between atoms: N1_2  and  C3_4 
REMARK    2  A    between atoms: C3_4  and  C4_5 
REMARK    3  A    between atoms: C4_5  and  C5_6 
REMARK    4  A    between atoms: C5_6  and  C6_7 
REMARK       I    between atoms: C6_7  and  N2_9 
REMARK    5  A    between atoms: N2_9  and  C7_10 
REMARK    6  A    between atoms: C10_13  and  C11_14 
REMARK    7  A    between atoms: C18_25  and  C19_26 
REMARK    8  A    between atoms: C19_26  and  N6_27 
ROOT
HETATM    1  C7  UNL     1      -0.640   0.263  -0.433  1.00  0.00     0.031 C 
HETATM    2  C8  UNL     1      -1.123  -0.681   0.317  1.00  0.00     0.004 C 
HETATM    3  C9  UNL     1      -1.434  -1.876   1.201  1.00  0.00     0.041 C 
HETATM    4  C10 UNL     1      -2.533  -2.571   0.456  1.00  0.00     0.036 C 
HETATM    5  C13 UNL     1      -3.787  -1.737   0.649  1.00  0.00    -0.001 C 
HETATM    6  C14 UNL     1      -4.629  -0.800   0.196  1.00  0.00     0.080 C 
HETATM    7  N3  UNL     1      -4.431  -0.111  -1.051  1.00  0.00    -0.393 N 
HETATM    8  C15 UNL     1      -4.201   1.174  -0.488  1.00  0.00     0.178 C 
HETATM    9  C16 UNL     1      -3.554   2.109  -1.383  1.00  0.00     0.060 A 
HETATM   10  N4  UNL     1      -4.223   3.012  -1.977  1.00  0.00    -0.270 NA
HETATM   11  C17 UNL     1      -3.726   3.990  -2.869  1.00  0.00     0.298 A 
HETATM   12  N5  UNL     1      -2.323   4.073  -3.053  1.00  0.00    -0.270 NA
HETATM   13  C18 UNL     1      -1.557   3.193  -2.486  1.00  0.00     0.070 A 
HETATM   14  C20 UNL     1      -2.098   2.122  -1.599  1.00  0.00     0.018 A 
HETATM   15  C21 UNL     1      -1.098   1.382  -1.194  1.00  0.00     0.044 C 
HETATM   16  H22 UNL     1      -4.567  -0.937  -1.636  1.00  0.00     0.159 HD
ENDROOT
BRANCH   1  17
HETATM   17  N2  UNL     1       0.611  -0.337  -0.276  1.00  0.00    -0.327 N 
HETATM   18  C6  UNL     1       1.783   0.091   0.376  1.00  0.00     0.222 C 
HETATM   19  O1  UNL     1       2.000   1.178   1.000  1.00  0.00    -0.273 OA
HETATM   20  H13 UNL     1       0.986  -1.274  -0.649  1.00  0.00     0.169 HD
BRANCH  18  21
HETATM   21  C5  UNL     1       3.134  -0.528   0.579  1.00  0.00     0.105 C 
BRANCH  21  22
HETATM   22  C4  UNL     1       3.990   0.486   1.281  1.00  0.00     0.028 C 
BRANCH  22  23
HETATM   23  C3  UNL     1       5.371   0.029   1.555  1.00  0.00     0.116 C 
BRANCH  23  24
HETATM   24  N1  UNL     1       5.577  -1.097   2.376  1.00  0.00    -0.421 N 
HETATM   25  C1  UNL     1       5.216  -2.382   1.902  1.00  0.00     0.142 C 
HETATM   26  C2  UNL     1       5.516  -0.886   3.786  1.00  0.00     0.142 C 
ENDBRANCH  23  24
ENDBRANCH  22  23
ENDBRANCH  21  22
ENDBRANCH  18  21
ENDBRANCH   1  17
BRANCH   4  27
HETATM   27  C11 UNL     1      -2.776  -3.959   0.779  1.00  0.00    -0.010 C 
HETATM   28  C12 UNL     1      -2.636  -4.955  -0.066  1.00  0.00     0.161 C 
HETATM   29 BR1  UNL     1      -2.689  -6.795  -0.555  1.00  0.00    -0.172 Br
ENDBRANCH   4  27
BRANCH  13  30
HETATM   30  C19 UNL     1      -0.152   3.441  -2.799  1.00  0.00     0.326 C 
BRANCH  30  31
HETATM   31  N6  UNL     1       0.102   4.425  -3.816  1.00  0.00     0.083 N 
HETATM   32  H29 UNL     1       0.842   5.095  -3.559  1.00  0.00     0.313 HD
HETATM   33  H30 UNL     1      -0.775   4.837  -4.198  1.00  0.00     0.313 HD
ENDBRANCH  30  31
ENDBRANCH  13  30
TORSDOF 8
