REMARK  0 active torsions:
REMARK  status: ('A' for Active; 'I' for Inactive)
ROOT
HETATM    1  C1  UNL     1      -5.403   1.777   0.516  1.00  0.00    -0.006 C 
HETATM    2  C2  UNL     1      -4.354   1.112   0.541  1.00  0.00     0.064 C 
HETATM    3  C3  UNL     1      -3.048   0.548   0.557  1.00  0.00     0.028 C 
HETATM    4  C4  UNL     1      -3.248  -0.775   0.644  1.00  0.00     0.033 C 
HETATM    5 BR1  UNL     1      -4.878  -1.387   1.360  1.00  0.00    -0.049 Br
HETATM    6  C5  UNL     1      -2.359  -1.908   0.241  1.00  0.00     0.018 C 
HETATM    7  C6  UNL     1      -1.004  -1.971   0.191  1.00  0.00    -0.010 C 
HETATM    8  C7  UNL     1       0.081  -0.976   0.529  1.00  0.00     0.014 C 
HETATM    9  C8  UNL     1      -0.617  -0.422   1.872  1.00  0.00    -0.015 C 
HETATM   10  C9  UNL     1      -0.274   0.668   2.532  1.00  0.00    -0.027 C 
HETATM   11  C10 UNL     1       0.277   1.712   1.582  1.00  0.00     0.053 C 
HETATM   12  C11 UNL     1      -0.452   1.421   0.306  1.00  0.00     0.104 C 
HETATM   13  N1  UNL     1      -1.848   1.303   0.488  1.00  0.00    -0.385 N 
HETATM   14  C12 UNL     1       0.159   0.118  -0.396  1.00  0.00     0.054 C 
HETATM   15  C13 UNL     1      -0.988  -0.038  -1.411  1.00  0.00     0.107 C 
HETATM   16  N2  UNL     1      -1.132   0.671  -2.506  1.00  0.00    -0.274 NA
HETATM   17  C14 UNL     1      -0.202   1.663  -2.907  1.00  0.00     0.138 C 
HETATM   18  C15 UNL     1       0.905   1.825  -2.123  1.00  0.00     0.066 C 
HETATM   19  C16 UNL     1       1.993   2.795  -2.307  1.00  0.00     0.101 C 
HETATM   20  N3  UNL     1       2.832   3.560  -2.466  1.00  0.00    -0.191 NA
HETATM   21  C17 UNL     1       1.224   0.677  -1.144  1.00  0.00    -0.035 C 
HETATM   22  C18 UNL     1       2.415   0.129  -1.070  1.00  0.00     0.058 C 
HETATM   23  C19 UNL     1       3.853   0.122  -1.482  1.00  0.00     0.006 C 
HETATM   24  C20 UNL     1       4.851  -0.750  -1.144  1.00  0.00     0.108 C 
HETATM   25  N4  UNL     1       3.825  -1.429  -0.349  1.00  0.00    -0.354 N 
HETATM   26  C21 UNL     1       2.762  -2.384  -0.450  1.00  0.00     0.218 C 
HETATM   27  O1  UNL     1       3.105  -2.339  -1.634  1.00  0.00    -0.274 OA
HETATM   28  C22 UNL     1       2.005  -2.759   0.779  1.00  0.00     0.104 C 
HETATM   29  C23 UNL     1       1.139  -1.675   1.195  1.00  0.00     0.028 C 
HETATM   30  H11 UNL     1      -2.169   2.305   0.667  1.00  0.00     0.160 HD
HETATM   31  H17 UNL     1       3.865  -1.110   0.687  1.00  0.00     0.162 HD
ENDROOT
TORSDOF 0
