REMARK  4 active torsions:
REMARK  status: ('A' for Active; 'I' for Inactive)
REMARK    1  A    between atoms: C2_2  and  C3_4 
REMARK    2  A    between atoms: C4_5  and  B1_6 
REMARK    3  A    between atoms: B1_6  and  N1_7 
REMARK    4  A    between atoms: N1_7  and  C5_8 
ROOT
HETATM    1  C5  UNL     1      -0.556   1.181  -1.270  1.00  0.00     0.135 C 
HETATM    2  N2  UNL     1      -1.260   2.195  -1.029  1.00  0.00    -0.241 NA
HETATM    3  C6  UNL     1      -2.609   2.325  -0.695  1.00  0.00     0.138 C 
HETATM    4  C7  UNL     1      -3.342   1.212  -0.626  1.00  0.00     0.051 C 
HETATM    5  C8  UNL     1      -4.708   1.334  -0.271  1.00  0.00     0.097 C 
HETATM    6  N3  UNL     1      -5.842   1.442   0.043  1.00  0.00    -0.192 NA
HETATM    7  C9  UNL     1      -2.740   0.034  -1.069  1.00  0.00     0.098 C 
HETATM    8  C10 UNL     1      -1.247  -0.117  -0.945  1.00  0.00    -0.003 C 
HETATM    9  C11 UNL     1      -0.247  -1.063  -0.604  1.00  0.00    -0.005 C 
HETATM   10  C12 UNL     1      -0.740  -2.408   0.317  1.00  0.00     0.050 C 
HETATM   11  C13 UNL     1      -1.384  -2.973  -0.827  1.00  0.00     0.016 C 
HETATM   12  C14 UNL     1      -2.348  -2.235  -0.708  1.00  0.00     0.015 A 
HETATM   13  O1  UNL     1      -2.722  -1.505   0.193  1.00  0.00     0.000 OA
HETATM   14  C15 UNL     1      -1.781  -1.550   1.123  1.00  0.00    -0.019 C 
HETATM   15  C16 UNL     1      -2.442  -0.858   1.931  1.00  0.00     0.143 C 
HETATM   16  O2  UNL     1      -3.511  -0.647   1.008  1.00  0.00    -0.355 OA
HETATM   17  C17 UNL     1      -3.443  -1.232  -0.254  1.00  0.00     0.152 A 
ENDROOT
BRANCH   1  18
HETATM   18  N1  UNL     1       0.803   1.000  -1.634  1.00  0.00    -0.341 NA
BRANCH  18  19
HETATM   19  B1  UNL     1       1.886   1.128   0.067  1.00  0.00     0.336 B 
BRANCH  19  20
HETATM   20  C4  UNL     1       3.555   1.022   0.462  1.00  0.00    -0.057 C 
HETATM   21  C3  UNL     1       4.731   1.192  -0.154  1.00  0.00     0.004 C 
BRANCH  21  22
HETATM   22  C2  UNL     1       5.858   0.939   0.717  1.00  0.00     0.000 C 
HETATM   23  C1  UNL     1       7.043   1.122   0.137  1.00  0.00     0.031 C 
HETATM   24 BR1  UNL     1       5.844   0.343   2.535  1.00  0.00    -0.052 Br
ENDBRANCH  21  22
ENDBRANCH  19  20
ENDBRANCH  18  19
ENDBRANCH   1  18
TORSDOF 4
