REMARK  3 active torsions:
REMARK  status: ('A' for Active; 'I' for Inactive)
REMARK    1  A    between atoms: N1_1  and  C1_2 
REMARK    2  A    between atoms: C6_7  and  C7_8 
REMARK    3  A    between atoms: C7_8  and  C8_9 
ROOT
HETATM    1  C8  UNL     1      -0.197  -0.238  -0.692  1.00  0.00    -0.022 A 
HETATM    2  C9  UNL     1       0.089  -1.694  -0.609  1.00  0.00     0.018 C 
HETATM    3  C10 UNL     1      -1.180  -2.521  -0.359  1.00  0.00     0.081 C 
HETATM    4  C11 UNL     1      -1.942  -2.044   0.813  1.00  0.00     0.160 C 
HETATM    5  O1  UNL     1      -2.456  -2.881   1.538  1.00  0.00    -0.296 OA
HETATM    6  C12 UNL     1      -2.052  -0.580   1.060  1.00  0.00     0.295 C 
HETATM    7  N2  UNL     1      -3.372  -0.190   0.532  1.00  0.00     0.099 N 
HETATM    8  C13 UNL     1      -3.644   1.221   0.650  1.00  0.00     0.297 C 
HETATM    9  C14 UNL     1      -3.076   1.975  -0.533  1.00  0.00    -0.001 C 
HETATM   10  C15 UNL     1      -2.103   1.484  -1.343  1.00  0.00    -0.023 C 
HETATM   11  C16 UNL     1      -1.507   0.157  -1.139  1.00  0.00     0.024 A 
HETATM   12  C17 UNL     1      -1.061   0.218   0.351  1.00  0.00     0.044 A 
HETATM   13  H14 UNL     1      -4.124  -0.747   0.992  1.00  0.00     0.317 HD
ENDROOT
BRANCH   1  14
HETATM   14  C7  UNL     1       0.933   0.654  -1.099  1.00  0.00     0.051 C 
BRANCH  14  15
HETATM   15  C6  UNL     1       2.118   0.658  -0.262  1.00  0.00    -0.031 A 
HETATM   16  C1  UNL     1       3.161  -0.232  -0.206  1.00  0.00     0.032 A 
HETATM   17  C2  UNL     1       4.263  -0.203   0.614  1.00  0.00     0.029 A 
HETATM   18  C3  UNL     1       4.306   0.883   1.496  1.00  0.00     0.002 A 
HETATM   19  C4  UNL     1       3.297   1.821   1.500  1.00  0.00     0.001 A 
HETATM   20  C5  UNL     1       2.218   1.721   0.643  1.00  0.00     0.009 A 
BRANCH  16  21
HETATM   21  N1  UNL     1       3.108  -1.315  -1.123  1.00  0.00    -0.399 N 
HETATM   22  H1  UNL     1       3.038  -1.124  -2.168  1.00  0.00     0.156 HD
HETATM   23  H2  UNL     1       3.113  -2.359  -1.141  1.00  0.00     0.156 HD
ENDBRANCH  16  21
ENDBRANCH  14  15
ENDBRANCH   1  14
TORSDOF 3
