REMARK  2 active torsions:
REMARK  status: ('A' for Active; 'I' for Inactive)
REMARK    1  A    between atoms: N1_2  and  C2_3 
REMARK    2  A    between atoms: C4_6  and  C5_7 
ROOT
HETATM    1  C2  UNL     1      -1.014  -1.320  -0.518  1.00  0.00     0.126 C 
HETATM    2  C3  UNL     1       0.272  -1.296  -0.440  1.00  0.00     0.166 C 
HETATM    3  N2  UNL     1       1.657  -1.437  -0.418  1.00  0.00    -0.257 NA
HETATM    4  C4  UNL     1       2.511  -0.616  -0.025  1.00  0.00     0.066 C 
HETATM    5  C11 UNL     1       2.278   0.717   0.448  1.00  0.00     0.030 C 
HETATM    6  C12 UNL     1       1.433   1.672   0.689  1.00  0.00     0.006 C 
HETATM    7  C13 UNL     1       0.577   2.791   0.991  1.00  0.00     0.302 C 
HETATM    8  N3  UNL     1      -0.092   3.382  -0.179  1.00  0.00     0.089 N 
HETATM    9  C14 UNL     1      -0.912   3.336  -1.323  1.00  0.00     0.351 A 
HETATM   10  O1  UNL     1      -0.823   2.202  -0.807  1.00  0.00    -0.150 OA
HETATM   11  C15 UNL     1      -1.770   2.679  -2.313  1.00  0.00     0.086 C 
HETATM   12  C16 UNL     1      -1.800   1.195  -2.083  1.00  0.00     0.062 C 
HETATM   13  C17 UNL     1      -2.389   0.802  -0.795  1.00  0.00     0.020 A 
HETATM   14  C18 UNL     1      -3.345   1.399  -0.046  1.00  0.00     0.039 A 
HETATM   15  C19 UNL     1      -3.627   0.699   1.102  1.00  0.00    -0.007 A 
HETATM   16  C20 UNL     1      -4.459   0.788   2.194  1.00  0.00     0.014 A 
HETATM   17  C21 UNL     1      -4.460  -0.167   3.187  1.00  0.00     0.001 A 
HETATM   18  C22 UNL     1      -3.611  -1.241   3.096  1.00  0.00     0.002 A 
HETATM   19  C23 UNL     1      -2.759  -1.343   1.991  1.00  0.00     0.031 A 
HETATM   20  C24 UNL     1      -2.742  -0.383   0.969  1.00  0.00     0.051 A 
HETATM   21  N4  UNL     1      -1.983  -0.341  -0.170  1.00  0.00    -0.300 N 
HETATM   22  H14 UNL     1       0.027   4.428  -0.404  1.00  0.00     0.322 HD
ENDROOT
BRANCH   4  23
HETATM   23  C5  UNL     1       3.909  -0.928  -0.067  1.00  0.00    -0.006 A 
HETATM   24  C6  UNL     1       4.203  -2.164  -0.568  1.00  0.00     0.014 A 
HETATM   25  C7  UNL     1       5.525  -2.594  -0.662  1.00  0.00     0.002 A 
HETATM   26  C8  UNL     1       6.593  -1.817  -0.266  1.00  0.00     0.019 A 
HETATM   27  C9  UNL     1       6.233  -0.595   0.224  1.00  0.00     0.011 A 
HETATM   28 BR1  UNL     1       7.618   0.577   0.808  1.00  0.00    -0.051 Br
HETATM   29  C10 UNL     1       4.959  -0.145   0.330  1.00  0.00     0.032 A 
ENDBRANCH   4  23
BRANCH   1  30
HETATM   30  N1  UNL     1      -1.817  -2.435  -0.971  1.00  0.00    -0.379 N 
HETATM   31  C1  UNL     1      -1.884  -2.619  -2.392  1.00  0.00     0.147 C 
HETATM   32  H4  UNL     1      -2.304  -3.050  -0.294  1.00  0.00     0.160 HD
ENDBRANCH   1  30
TORSDOF 2
