REMARK  4 active torsions:
REMARK  status: ('A' for Active; 'I' for Inactive)
REMARK    1  A    between atoms: C7_8  and  N1_9 
REMARK    2  A    between atoms: N1_9  and  C8_10 
REMARK    3  A    between atoms: C11_14  and  C12_15 
REMARK    4  A    between atoms: C17_20  and  N2_21 
ROOT
HETATM    1  C8  UNL     1       0.715   0.197  -1.406  1.00  0.00     0.194 A 
HETATM    2  C9  UNL     1      -0.475  -0.473  -1.943  1.00  0.00     0.185 A 
HETATM    3  O1  UNL     1      -0.670  -1.215  -2.974  1.00  0.00    -0.290 OA
HETATM    4  C10 UNL     1      -0.612   0.336  -0.685  1.00  0.00     0.021 A 
HETATM    5  C11 UNL     1      -1.719   0.506   0.006  1.00  0.00     0.027 C 
ENDROOT
BRANCH   1   6
HETATM    6  N1  UNL     1       1.694  -0.632  -0.689  1.00  0.00    -0.374 N 
HETATM    7  H7  UNL     1       1.498  -1.659  -0.573  1.00  0.00     0.161 HD
BRANCH   6   8
HETATM    8  C7  UNL     1       2.915  -0.114  -0.137  1.00  0.00     0.036 A 
HETATM    9  C2  UNL     1       3.783  -0.898   0.567  1.00  0.00    -0.035 A 
HETATM   10  C1  UNL     1       3.457  -2.351   0.803  1.00  0.00     0.050 C 
HETATM   11  C3  UNL     1       4.967  -0.364   1.081  1.00  0.00     0.010 A 
HETATM   12  C4  UNL     1       5.280   0.978   0.883  1.00  0.00     0.020 A 
HETATM   13  C5  UNL     1       4.410   1.805   0.166  1.00  0.00     0.013 A 
HETATM   14 BR1  UNL     1       4.806   3.650  -0.130  1.00  0.00    -0.051 Br
HETATM   15  C6  UNL     1       3.261   1.206  -0.310  1.00  0.00     0.048 A 
ENDBRANCH   6   8
ENDBRANCH   1   6
BRANCH   5  16
HETATM   16  C12 UNL     1      -3.126   0.164  -0.048  1.00  0.00    -0.009 A 
HETATM   17  C13 UNL     1      -3.602  -0.863  -0.835  1.00  0.00     0.013 A 
HETATM   18  C14 UNL     1      -4.951  -1.169  -0.844  1.00  0.00     0.001 A 
HETATM   19  C15 UNL     1      -5.819  -0.440  -0.061  1.00  0.00     0.002 A 
HETATM   20  C16 UNL     1      -5.294   0.568   0.702  1.00  0.00     0.030 A 
HETATM   21  C17 UNL     1      -3.968   0.886   0.726  1.00  0.00     0.036 A 
BRANCH  21  22
HETATM   22  N2  UNL     1      -3.446   1.949   1.551  1.00  0.00    -0.398 N 
HETATM   23  H14 UNL     1      -2.761   1.571   2.259  1.00  0.00     0.156 HD
HETATM   24  H15 UNL     1      -3.585   2.998   1.610  1.00  0.00     0.156 HD
ENDBRANCH  21  22
ENDBRANCH   5  16
TORSDOF 4
