REMARK  5 active torsions:
REMARK  status: ('A' for Active; 'I' for Inactive)
REMARK    1  A    between atoms: C4_6  and  N3_7 
REMARK    2  A    between atoms: N3_7  and  C5_8 
REMARK    3  A    between atoms: C12_16  and  C13_17 
REMARK    4  A    between atoms: C13_17  and  N4_18 
REMARK       I    between atoms: N4_18  and  C14_19 
REMARK    5  A    between atoms: C14_19  and  C15_21 
ROOT
HETATM    1  N1  UNL     1       0.416  -3.946  -4.125  1.00  0.00    -0.192 NA
HETATM    2  C1  UNL     1       0.676  -3.116  -3.339  1.00  0.00     0.097 C 
HETATM    3  C2  UNL     1       1.002  -2.105  -2.349  1.00  0.00     0.044 A 
HETATM    4  C3  UNL     1       2.252  -2.095  -1.924  1.00  0.00     0.137 A 
HETATM    5  N2  UNL     1       2.637  -1.132  -0.955  1.00  0.00    -0.242 NA
HETATM    6  C4  UNL     1       1.770  -0.289  -0.509  1.00  0.00     0.134 A 
HETATM    7  C11 UNL     1       0.382  -0.265  -0.949  1.00  0.00    -0.009 A 
HETATM    8  C12 UNL     1      -0.509   0.608  -0.484  1.00  0.00     0.004 C 
HETATM    9  C19 UNL     1      -0.120  -1.231  -1.959  1.00  0.00     0.093 A 
ENDROOT
BRANCH   6  10
HETATM   10  N3  UNL     1       2.221   0.651   0.462  1.00  0.00    -0.341 N 
HETATM   11  H2  UNL     1       1.514   1.233   0.960  1.00  0.00     0.167 HD
BRANCH  10  12
HETATM   12  C5  UNL     1       3.597   0.846   0.796  1.00  0.00     0.035 A 
HETATM   13  C6  UNL     1       4.080   0.058   1.821  1.00  0.00     0.029 A 
HETATM   14  C7  UNL     1       5.390   0.139   2.251  1.00  0.00     0.004 A 
HETATM   15  C8  UNL     1       6.255   1.040   1.636  1.00  0.00     0.019 A 
HETATM   16  C9  UNL     1       5.775   1.837   0.603  1.00  0.00     0.013 A 
HETATM   17 BR1  UNL     1       6.897   3.093  -0.287  1.00  0.00    -0.051 Br
HETATM   18  C10 UNL     1       4.448   1.753   0.170  1.00  0.00     0.048 A 
ENDBRANCH  10  12
ENDBRANCH   6  10
BRANCH   8  19
HETATM   19  C13 UNL     1      -1.920   0.657  -0.911  1.00  0.00     0.150 C 
BRANCH  19  20
HETATM   20  N4  UNL     1      -2.856   0.448   0.201  1.00  0.00    -0.353 N 
HETATM   21  C14 UNL     1      -4.219   0.500  -0.239  1.00  0.00     0.253 C 
HETATM   22  O1  UNL     1      -4.290   0.711  -1.468  1.00  0.00    -0.268 OA
HETATM   23  H10 UNL     1      -2.577   0.282   1.196  1.00  0.00     0.163 HD
BRANCH  21  24
HETATM   24  C15 UNL     1      -5.292   0.315   0.728  1.00  0.00     0.056 A 
HETATM   25  C16 UNL     1      -5.418   0.076   2.101  1.00  0.00     0.043 A 
HETATM   26  C17 UNL     1      -6.779   0.005   2.374  1.00  0.00     0.142 A 
HETATM   27  O2  UNL     1      -7.428   0.186   1.259  1.00  0.00    -0.334 OA
HETATM   28  C18 UNL     1      -6.610   0.373   0.260  1.00  0.00     0.158 A 
ENDBRANCH  21  24
ENDBRANCH  19  20
ENDBRANCH   8  19
TORSDOF 5
