REMARK  5 active torsions:
REMARK  status: ('A' for Active; 'I' for Inactive)
REMARK    1  A    between atoms: C2_2  and  N1_3 
REMARK    2  A    between atoms: N1_3  and  C3_4 
REMARK    3  A    between atoms: C7_8  and  C8_9 
REMARK    4  A    between atoms: C8_9  and  N2_10 
REMARK    5  A    between atoms: N2_10  and  C9_11 
ROOT
HETATM    1  C3  UNL     1      -1.802   0.163   0.066  1.00  0.00     0.029 A 
HETATM    2  C4  UNL     1      -2.164  -0.184   1.350  1.00  0.00     0.029 A 
HETATM    3  C5  UNL     1      -1.345  -0.269   2.430  1.00  0.00     0.003 A 
HETATM    4  C6  UNL     1      -0.013   0.023   2.217  1.00  0.00     0.009 A 
HETATM    5  C7  UNL     1       0.452   0.381   0.971  1.00  0.00    -0.038 A 
HETATM    6  C15 UNL     1      -0.457   0.438  -0.058  1.00  0.00     0.038 A 
ENDROOT
BRANCH   5   7
HETATM    7  C8  UNL     1       1.886   0.697   0.735  1.00  0.00     0.158 C 
BRANCH   7   8
HETATM    8  N2  UNL     1       2.632  -0.485   0.369  1.00  0.00    -0.386 N 
HETATM    9  H10 UNL     1       2.182  -1.442   0.288  1.00  0.00     0.160 HD
BRANCH   8  10
HETATM   10  C9  UNL     1       4.018  -0.362   0.108  1.00  0.00     0.029 A 
HETATM   11  C10 UNL     1       4.602   0.888   0.214  1.00  0.00     0.029 A 
HETATM   12  C11 UNL     1       5.964   1.018  -0.041  1.00  0.00     0.004 A 
HETATM   13  C12 UNL     1       6.735  -0.073  -0.395  1.00  0.00     0.019 A 
HETATM   14  C13 UNL     1       6.155  -1.325  -0.503  1.00  0.00     0.013 A 
HETATM   15 BR1  UNL     1       7.209  -2.846  -0.993  1.00  0.00    -0.051 Br
HETATM   16  C14 UNL     1       4.792  -1.455  -0.248  1.00  0.00     0.048 A 
ENDBRANCH   8  10
ENDBRANCH   7   8
ENDBRANCH   5   7
BRANCH   1  17
HETATM   17  N1  UNL     1      -2.665   0.246  -1.033  1.00  0.00    -0.369 N 
HETATM   18  H4  UNL     1      -2.202   0.522  -1.946  1.00  0.00     0.161 HD
BRANCH  17  19
HETATM   19  C2  UNL     1      -4.059   0.027  -1.153  1.00  0.00     0.136 A 
HETATM   20  C1  UNL     1      -4.555   0.199  -2.581  1.00  0.00     0.054 C 
HETATM   21  C16 UNL     1      -4.902   0.972  -0.330  1.00  0.00     0.038 A 
HETATM   22  C17 UNL     1      -5.744   0.336   0.502  1.00  0.00     0.144 A 
HETATM   23  O1  UNL     1      -5.558  -1.050   0.331  1.00  0.00    -0.289 OA
HETATM   24  C18 UNL     1      -4.561  -1.264  -0.642  1.00  0.00     0.295 A 
HETATM   25  O2  UNL     1      -4.117  -2.344  -1.062  1.00  0.00    -0.262 OA
ENDBRANCH  17  19
ENDBRANCH   1  17
TORSDOF 5
