REMARK  4 active torsions:
REMARK  status: ('A' for Active; 'I' for Inactive)
REMARK    1  A    between atoms: C4_6  and  N3_7 
REMARK    2  A    between atoms: N3_7  and  C5_8 
REMARK    3  A    between atoms: C12_17  and  N4_18 
REMARK       I    between atoms: N4_18  and  C13_19 
REMARK    4  A    between atoms: C13_19  and  C14_21 
ROOT
HETATM    1  N1  UNL     1       0.243  -5.919   1.488  1.00  0.00    -0.191 NA
HETATM    2  C1  UNL     1       0.434  -4.812   1.228  1.00  0.00     0.102 C 
HETATM    3  C2  UNL     1       0.697  -3.428   0.894  1.00  0.00     0.073 A 
HETATM    4  C3  UNL     1       2.015  -3.037   0.828  1.00  0.00     0.142 A 
HETATM    5  N2  UNL     1       2.229  -1.751   0.518  1.00  0.00    -0.241 NA
HETATM    6  C4  UNL     1       1.272  -0.864   0.278  1.00  0.00     0.139 A 
HETATM    7  C10 UNL     1      -0.065  -1.199   0.329  1.00  0.00     0.024 A 
HETATM    8  C11 UNL     1      -1.057  -0.296   0.085  1.00  0.00     0.045 A 
HETATM    9  C12 UNL     1      -2.379  -0.689   0.151  1.00  0.00     0.035 A 
HETATM   10  C18 UNL     1      -2.644  -2.022   0.472  1.00  0.00     0.030 A 
HETATM   11  C19 UNL     1      -1.638  -2.951   0.723  1.00  0.00     0.016 A 
HETATM   12  C20 UNL     1      -0.332  -2.516   0.646  1.00  0.00     0.000 A 
ENDROOT
BRANCH   6  13
HETATM   13  N3  UNL     1       1.685   0.442  -0.033  1.00  0.00    -0.340 N 
HETATM   14  H2  UNL     1       1.150   1.308  -0.257  1.00  0.00     0.167 HD
BRANCH  13  15
HETATM   15  C5  UNL     1       3.064   0.787  -0.087  1.00  0.00     0.036 A 
HETATM   16  C6  UNL     1       4.002   0.327  -0.874  1.00  0.00     0.004 A 
HETATM   17  C7  UNL     1       5.412   0.403  -1.228  1.00  0.00     0.040 A 
HETATM   18  C8  UNL     1       6.243   1.367  -0.447  1.00  0.00     0.083 A 
HETATM   19  S1  UNL     1       5.182   2.184   0.765  1.00  0.00    -0.123 SA
HETATM   20 BR1  UNL     1       6.003   3.768   2.167  1.00  0.00    -0.018 Br
HETATM   21  C9  UNL     1       3.623   1.783   0.815  1.00  0.00     0.075 A 
ENDBRANCH  13  15
ENDBRANCH   6  13
BRANCH   9  22
HETATM   22  N4  UNL     1      -3.431   0.231  -0.099  1.00  0.00    -0.323 N 
HETATM   23  C13 UNL     1      -4.167   0.660  -1.235  1.00  0.00     0.258 C 
HETATM   24  O1  UNL     1      -3.852   0.118  -2.345  1.00  0.00    -0.267 OA
HETATM   25  H10 UNL     1      -3.613   0.616   0.864  1.00  0.00     0.169 HD
BRANCH  23  26
HETATM   26  C14 UNL     1      -5.196   1.667  -1.002  1.00  0.00     0.056 A 
HETATM   27  C15 UNL     1      -5.593   2.292   0.137  1.00  0.00     0.043 A 
HETATM   28  C16 UNL     1      -6.593   3.139  -0.223  1.00  0.00     0.142 A 
HETATM   29  O2  UNL     1      -6.789   3.030  -1.518  1.00  0.00    -0.334 OA
HETATM   30  C17 UNL     1      -5.962   2.145  -2.043  1.00  0.00     0.158 A 
ENDBRANCH  23  26
ENDBRANCH   9  22
TORSDOF 4
