REMARK  4 active torsions:
REMARK  status: ('A' for Active; 'I' for Inactive)
REMARK    1  A    between atoms: C7_7  and  C8_8 
REMARK    2  A    between atoms: C8_8  and  O1_9 
REMARK    3  A    between atoms: O1_9  and  N1_10 
REMARK    4  A    between atoms: N1_10  and  C9_11 
ROOT
HETATM    1  C9  UNL     1      -0.318   0.295   0.938  1.00  0.00     0.162 A 
HETATM    2  N2  UNL     1       0.642   0.346   1.858  1.00  0.00    -0.222 NA
HETATM    3  C10 UNL     1       0.412   0.712   3.118  1.00  0.00     0.236 A 
HETATM    4  N3  UNL     1      -0.855   1.031   3.412  1.00  0.00    -0.234 NA
HETATM    5  C11 UNL     1      -1.814   0.980   2.491  1.00  0.00     0.114 A 
HETATM    6  S1  UNL     1      -3.543   1.357   2.666  1.00  0.00    -0.073 SA
HETATM    7  C12 UNL     1      -3.960   0.987   0.907  1.00  0.00    -0.008 A 
HETATM    8  C13 UNL     1      -2.710   0.602   0.343  1.00  0.00    -0.028 A 
HETATM    9  C14 UNL     1      -1.629   0.606   1.170  1.00  0.00     0.055 A 
HETATM   10  C15 UNL     1      -2.764   0.248  -1.072  1.00  0.00     0.041 C 
HETATM   11  C16 UNL     1      -4.088   0.354  -1.692  1.00  0.00     0.005 C 
HETATM   12  C17 UNL     1      -5.290   0.086  -0.860  1.00  0.00     0.005 C 
HETATM   13  C18 UNL     1      -5.258   1.075   0.288  1.00  0.00     0.047 C 
ENDROOT
BRANCH   1  14
HETATM   14  N1  UNL     1       0.160  -0.120  -0.331  1.00  0.00    -0.248 N 
HETATM   15  H8  UNL     1      -0.023  -0.339  -1.329  1.00  0.00     0.196 HD
BRANCH  14  16
HETATM   16  O1  UNL     1       1.435  -0.435  -0.601  1.00  0.00    -0.278 OA
BRANCH  16  17
HETATM   17  C8  UNL     1       1.728  -1.773  -0.608  1.00  0.00     0.215 C 
BRANCH  17  18
HETATM   18  C7  UNL     1       3.170  -2.060  -0.917  1.00  0.00     0.079 A 
HETATM   19  C4  UNL     1       4.177  -1.483   0.021  1.00  0.00    -0.040 A 
HETATM   20  C3  UNL     1       5.104  -0.947   0.873  1.00  0.00     0.008 A 
HETATM   21  C5  UNL     1       4.099  -0.985  -1.241  1.00  0.00    -0.040 A 
HETATM   22  C2  UNL     1       5.971   0.072   0.537  1.00  0.00     0.001 A 
HETATM   23  C1  UNL     1       5.882   0.570  -0.749  1.00  0.00     0.001 A 
HETATM   24  C6  UNL     1       4.945   0.039  -1.634  1.00  0.00     0.008 A 
ENDBRANCH  17  18
ENDBRANCH  16  17
ENDBRANCH  14  16
ENDBRANCH   1  14
TORSDOF 4
