REMARK  3 active torsions:
REMARK  status: ('A' for Active; 'I' for Inactive)
REMARK    1  A    between atoms: C8_8  and  O1_9 
REMARK    2  A    between atoms: O1_9  and  N1_10 
REMARK    3  A    between atoms: C13_17  and  S1_18 
ROOT
HETATM    1  N1  UNL     1      -0.358  -1.237  -0.167  1.00  0.00    -0.216 N 
HETATM    2  C9  UNL     1      -0.232  -2.652  -0.297  1.00  0.00     0.238 A 
HETATM    3  N2  UNL     1      -1.328  -3.368  -0.311  1.00  0.00    -0.235 NA
HETATM    4  C10 UNL     1      -2.574  -2.698  -0.197  1.00  0.00     0.231 A 
HETATM    5  N3  UNL     1      -2.747  -1.429  -0.077  1.00  0.00    -0.244 NA
HETATM    6  C11 UNL     1      -1.633  -0.528  -0.047  1.00  0.00     0.173 A 
HETATM    7  C12 UNL     1      -1.753   0.530  -1.083  1.00  0.00     0.044 C 
HETATM    8  C13 UNL     1      -2.788   1.326  -0.855  1.00  0.00    -0.024 C 
HETATM    9  C14 UNL     1      -3.719   1.166   0.313  1.00  0.00     0.045 C 
HETATM   10  C15 UNL     1      -2.993   0.790   1.572  1.00  0.00     0.010 C 
HETATM   11  C16 UNL     1      -1.642   0.169   1.292  1.00  0.00     0.063 C 
ENDROOT
BRANCH   1  12
HETATM   12  O1  UNL     1       0.673  -0.403  -0.139  1.00  0.00    -0.264 OA
BRANCH  12  13
HETATM   13  C8  UNL     1       1.806  -0.823   0.493  1.00  0.00     0.188 C 
HETATM   14  C2  UNL     1       3.014  -0.811  -0.366  1.00  0.00    -0.036 C 
HETATM   15  C1  UNL     1       3.659  -1.955  -0.539  1.00  0.00     0.021 C 
HETATM   16  C3  UNL     1       3.579   0.349  -1.056  1.00  0.00     0.009 C 
HETATM   17  C4  UNL     1       3.462   1.622  -0.697  1.00  0.00     0.000 C 
HETATM   18  C5  UNL     1       2.756   2.209   0.454  1.00  0.00    -0.004 C 
HETATM   19  C6  UNL     1       2.178   1.481   1.406  1.00  0.00    -0.024 C 
HETATM   20  C7  UNL     1       1.991   0.059   1.725  1.00  0.00     0.066 C 
ENDBRANCH  12  13
ENDBRANCH   1  12
BRANCH   8  21
HETATM   21  S1  UNL     1      -3.014   2.644  -2.062  1.00  0.00    -0.148 SA
HETATM   22  H13 UNL     1      -3.189   3.851  -1.351  1.00  0.00     0.107 HD
ENDBRANCH   8  21
TORSDOF 3
