REMARK  0 active torsions:
REMARK  status: ('A' for Active; 'I' for Inactive)
ROOT
HETATM    1  C1  UNL     1      -3.729  -1.233   1.011  1.00  0.00    -0.019 C 
HETATM    2  C2  UNL     1      -4.645  -0.367   1.326  1.00  0.00     0.012 C 
HETATM    3  C3  UNL     1      -4.487   1.067   1.068  1.00  0.00    -0.001 C 
HETATM    4  C4  UNL     1      -3.275   1.582   0.826  1.00  0.00     0.003 C 
HETATM    5  C5  UNL     1      -2.239   0.516   0.869  1.00  0.00     0.138 C 
HETATM    6  N1  UNL     1      -1.042   1.064   0.317  1.00  0.00    -0.363 N 
HETATM    7  C6  UNL     1       0.156   0.829  -0.459  1.00  0.00     0.133 C 
HETATM    8  N2  UNL     1      -0.025   1.057  -1.758  1.00  0.00    -0.225 NA
HETATM    9  C7  UNL     1      -0.114   0.035  -2.802  1.00  0.00     0.233 C 
HETATM   10  N3  UNL     1      -0.247  -1.280  -2.818  1.00  0.00    -0.241 NA
HETATM   11  C8  UNL     1      -0.026  -2.225  -1.702  1.00  0.00     0.314 C 
HETATM   12  O1  UNL     1      -0.738  -1.702  -0.632  1.00  0.00    -0.351 OA
HETATM   13  C9  UNL     1      -2.032  -1.362  -0.860  1.00  0.00     0.209 C 
HETATM   14  C10 UNL     1      -2.701  -0.756   0.325  1.00  0.00    -0.019 C 
HETATM   15  S1  UNL     1       1.751  -2.240  -1.271  1.00  0.00    -0.079 SA
HETATM   16  C11 UNL     1       2.095  -0.831  -0.173  1.00  0.00    -0.008 C 
HETATM   17  C12 UNL     1       1.485   0.361   0.043  1.00  0.00     0.001 C 
HETATM   18  C13 UNL     1       2.177   1.343   0.866  1.00  0.00     0.043 C 
HETATM   19  C14 UNL     1       3.657   1.340   0.504  1.00  0.00     0.005 C 
HETATM   20  C15 UNL     1       4.279  -0.009   0.730  1.00  0.00     0.005 C 
HETATM   21  C16 UNL     1       3.317  -1.148   0.605  1.00  0.00     0.046 C 
HETATM   22  H5  UNL     1      -0.838   2.073   0.488  1.00  0.00     0.162 HD
ENDROOT
TORSDOF 0
