REMARK  1 active torsions:
REMARK  status: ('A' for Active; 'I' for Inactive)
REMARK    1  A    between atoms: S1_2  and  C2_3 
ROOT
HETATM    1  C2  UNL     1      -2.265   0.120  -0.880  1.00  0.00    -0.025 C 
HETATM    2  C3  UNL     1      -1.574   1.266  -0.791  1.00  0.00     0.070 C 
HETATM    3  C4  UNL     1      -1.622   2.499  -0.016  1.00  0.00     0.011 A 
HETATM    4  C5  UNL     1      -2.626   3.484  -0.008  1.00  0.00     0.129 A 
HETATM    5  N1  UNL     1      -2.560   4.579   0.771  1.00  0.00    -0.253 NA
HETATM    6  C6  UNL     1      -1.548   4.822   1.594  1.00  0.00     0.234 A 
HETATM    7  N2  UNL     1      -0.559   3.915   1.627  1.00  0.00    -0.224 NA
HETATM    8  C7  UNL     1      -0.587   2.809   0.865  1.00  0.00     0.137 A 
HETATM    9  N3  UNL     1       0.445   1.938   0.912  1.00  0.00    -0.350 N 
HETATM   10  C8  UNL     1       1.491   1.064   0.956  1.00  0.00     0.090 C 
HETATM   11  C9  UNL     1       2.589   0.466   1.095  1.00  0.00     0.023 C 
HETATM   12  C10 UNL     1       2.995  -0.882   0.816  1.00  0.00    -0.065 C 
HETATM   13  C11 UNL     1       4.404  -0.818   1.266  1.00  0.00     0.048 C 
HETATM   14  C12 UNL     1       2.294  -1.849   0.317  1.00  0.00    -0.020 C 
HETATM   15  C13 UNL     1       1.315  -2.774  -0.254  1.00  0.00     0.027 C 
HETATM   16  C14 UNL     1      -0.038  -2.130  -0.597  1.00  0.00    -0.006 C 
HETATM   17  C15 UNL     1       0.043  -1.126  -1.700  1.00  0.00    -0.052 C 
HETATM   18  B1  UNL     1      -1.339  -0.440  -2.022  1.00  0.00     0.173 B 
HETATM   19  H7  UNL     1       1.204   2.538   0.427  1.00  0.00     0.166 HD
HETATM   20  H20 UNL     1      -1.783  -0.441  -3.108  1.00  0.00    -0.025 HD
ENDROOT
BRANCH   1  21
HETATM   21  S1  UNL     1      -3.509  -1.174  -0.584  1.00  0.00    -0.178 SA
HETATM   22  C1  UNL     1      -3.323  -2.462  -1.796  1.00  0.00     0.089 C 
ENDBRANCH   1  21
TORSDOF 1
