REMARK  0 active torsions:
REMARK  status: ('A' for Active; 'I' for Inactive)
ROOT
HETATM    1  C1  UNL     1      -2.323  -0.438   1.584  1.00  0.00    -0.002 C 
HETATM    2  C2  UNL     1      -2.831  -1.507   0.945  1.00  0.00    -0.024 C 
HETATM    3  C3  UNL     1      -2.664  -2.189  -0.354  1.00  0.00     0.054 C 
HETATM    4  C4  UNL     1      -1.304  -2.007  -0.964  1.00  0.00     0.111 C 
HETATM    5  C5  UNL     1      -1.226  -0.825  -1.898  1.00  0.00     0.200 C 
HETATM    6  O1  UNL     1      -0.837   0.375  -1.269  1.00  0.00    -0.353 OA
HETATM    7  C6  UNL     1      -1.058   1.037  -0.069  1.00  0.00     0.046 C 
HETATM    8  C7  UNL     1      -1.464   0.675   1.162  1.00  0.00     0.032 C 
HETATM    9  C8  UNL     1      -0.814   2.496  -0.050  1.00  0.00     0.064 C 
HETATM   10  C9  UNL     1       0.162   2.997  -1.028  1.00  0.00     0.006 C 
HETATM   11  C10 UNL     1       1.595   2.734  -0.909  1.00  0.00     0.001 C 
HETATM   12  C11 UNL     1       2.124   1.349  -0.812  1.00  0.00     0.012 C 
HETATM   13  C12 UNL     1       1.834   0.666   0.472  1.00  0.00     0.059 A 
HETATM   14  C13 UNL     1       2.942  -0.326   0.827  1.00  0.00     0.122 A 
HETATM   15  N1  UNL     1       3.693  -1.414   1.086  1.00  0.00    -0.263 NA
HETATM   16  C14 UNL     1       3.236  -2.678   1.014  1.00  0.00     0.230 A 
HETATM   17  N2  UNL     1       1.939  -2.927   0.663  1.00  0.00    -0.225 NA
HETATM   18  C15 UNL     1       1.098  -1.918   0.383  1.00  0.00     0.130 A 
HETATM   19  C16 UNL     1       1.668  -0.697   0.487  1.00  0.00     0.006 A 
HETATM   20  N3  UNL     1      -0.256  -1.994   0.022  1.00  0.00    -0.367 N 
HETATM   21  H19 UNL     1      -0.578  -2.081   1.033  1.00  0.00     0.161 HD
ENDROOT
TORSDOF 0
