REMARK  4 active torsions:
REMARK  status: ('A' for Active; 'I' for Inactive)
REMARK    1  A    between atoms: C4_5  and  C5_6 
REMARK    2  A    between atoms: C5_6  and  O1_7 
REMARK    3  A    between atoms: C6_8  and  S1_9 
REMARK    4  A    between atoms: S1_9  and  C7_10 
ROOT
HETATM    1  C7  UNL     1      -0.133   1.669   0.143  1.00  0.00     0.114 A 
HETATM    2  N2  UNL     1       0.331   2.887  -0.091  1.00  0.00    -0.234 NA
HETATM    3  C8  UNL     1      -0.365   3.785  -0.794  1.00  0.00     0.235 A 
HETATM    4  N3  UNL     1      -1.559   3.410  -1.259  1.00  0.00    -0.234 NA
HETATM    5  C9  UNL     1      -2.068   2.193  -1.046  1.00  0.00     0.113 A 
HETATM    6  S2  UNL     1      -3.599   1.310  -1.456  1.00  0.00    -0.073 SA
HETATM    7  C10 UNL     1      -3.208  -0.213  -0.651  1.00  0.00    -0.008 A 
HETATM    8  C11 UNL     1      -1.926   0.004  -0.101  1.00  0.00    -0.029 A 
HETATM    9  C12 UNL     1      -1.347   1.213  -0.298  1.00  0.00     0.043 A 
HETATM   10  C13 UNL     1      -1.569  -1.240   0.614  1.00  0.00     0.040 C 
HETATM   11  C14 UNL     1      -2.650  -1.614   1.606  1.00  0.00     0.005 C 
HETATM   12  C15 UNL     1      -3.964  -1.905   0.923  1.00  0.00     0.005 C 
HETATM   13  C16 UNL     1      -3.956  -1.450  -0.521  1.00  0.00     0.047 C 
ENDROOT
BRANCH   1  14
HETATM   14  S1  UNL     1       1.026   0.724   1.114  1.00  0.00    -0.051 SA
BRANCH  14  15
HETATM   15  C6  UNL     1       2.287  -0.013   0.092  1.00  0.00     0.086 A 
HETATM   16  N1  UNL     1       2.507  -1.128  -0.618  1.00  0.00    -0.355 N 
HETATM   17  C1  UNL     1       1.449  -2.102  -0.683  1.00  0.00     0.156 C 
HETATM   18  C2  UNL     1       3.703  -1.198  -1.201  1.00  0.00     0.092 A 
HETATM   19  C3  UNL     1       4.305  -0.018  -0.832  1.00  0.00     0.029 A 
HETATM   20  C4  UNL     1       3.450   0.744  -0.026  1.00  0.00     0.001 A 
BRANCH  20  21
HETATM   21  C5  UNL     1       3.835   2.079   0.521  1.00  0.00     0.205 C 
BRANCH  21  22
HETATM   22  O1  UNL     1       4.104   1.864   1.894  1.00  0.00    -0.396 OA
HETATM   23  H8  UNL     1       3.478   2.399   2.460  1.00  0.00     0.209 HD
ENDBRANCH  21  22
ENDBRANCH  20  21
ENDBRANCH  14  15
ENDBRANCH   1  14
TORSDOF 4
