REMARK  0 active torsions:
REMARK  status: ('A' for Active; 'I' for Inactive)
ROOT
HETATM    1  C1  UNL     1      -3.305  -0.742   0.899  1.00  0.00     0.046 C 
HETATM    2  C2  UNL     1      -1.815  -0.532   0.804  1.00  0.00    -0.053 C 
HETATM    3  C3  UNL     1      -1.709   0.449  -0.153  1.00  0.00    -0.054 C 
HETATM    4  C4  UNL     1      -1.223  -0.148  -1.423  1.00  0.00     0.007 C 
HETATM    5  C5  UNL     1      -0.221  -0.949  -1.842  1.00  0.00     0.005 C 
HETATM    6  C6  UNL     1       0.447  -2.069  -1.114  1.00  0.00     0.057 C 
HETATM    7  C7  UNL     1       0.743  -2.461   0.159  1.00  0.00     0.157 C 
HETATM    8  N1  UNL     1       2.124  -2.938   0.325  1.00  0.00    -0.277 N 
HETATM    9  N2  UNL     1       2.912  -1.772   0.150  1.00  0.00    -0.280 N 
HETATM   10  C8  UNL     1       3.835  -1.517  -0.956  1.00  0.00     0.228 C 
HETATM   11  N3  UNL     1       3.524  -0.450  -1.693  1.00  0.00    -0.235 NA
HETATM   12  C9  UNL     1       2.609   0.522  -0.889  1.00  0.00     0.108 A 
HETATM   13  S1  UNL     1       1.862   1.847  -1.819  1.00  0.00    -0.073 SA
HETATM   14  C10 UNL     1       0.720   2.612  -0.777  1.00  0.00    -0.001 A 
HETATM   15  P1  UNL     1       0.996   1.560   0.705  1.00  0.00    -0.008 P 
HETATM   16  C11 UNL     1       2.185   0.415   0.285  1.00  0.00     0.012 A 
HETATM   17  C12 UNL     1       2.719  -0.704   1.173  1.00  0.00     0.193 C 
HETATM   18  C13 UNL     1      -0.318   3.496  -0.292  1.00  0.00     0.048 C 
HETATM   19  C14 UNL     1      -1.721   2.999  -0.347  1.00  0.00     0.010 C 
HETATM   20  C15 UNL     1      -2.128   1.769   0.341  1.00  0.00     0.039 C 
HETATM   21  O1  UNL     1      -0.240  -2.378   1.130  1.00  0.00    -0.331 OA
HETATM   22  C16 UNL     1      -1.015  -1.393   1.709  1.00  0.00     0.211 C 
HETATM   23  H7  UNL     1       2.603  -3.868   0.527  1.00  0.00     0.189 HD
ENDROOT
TORSDOF 0
