REMARK  2 active torsions:
REMARK  status: ('A' for Active; 'I' for Inactive)
REMARK    1  A    between atoms: O1_2  and  C2_3 
REMARK    2  A    between atoms: C8_9  and  N1_10 
ROOT
HETATM    1  C2  UNL     1      -1.759   2.310  -0.197  1.00  0.00     0.069 A 
HETATM    2  C3  UNL     1      -2.888   1.925   0.491  1.00  0.00     0.037 A 
HETATM    3  C4  UNL     1      -2.966   0.587   0.818  1.00  0.00     0.012 A 
HETATM    4  C5  UNL     1      -1.982  -0.306   0.480  1.00  0.00    -0.025 A 
HETATM    5  C6  UNL     1      -0.845   0.181  -0.231  1.00  0.00     0.021 A 
HETATM    6  C7  UNL     1      -0.719   1.488  -0.579  1.00  0.00     0.052 A 
HETATM    7  C8  UNL     1       0.331  -0.644  -0.624  1.00  0.00     0.142 C 
HETATM    8  N2  UNL     1      -0.134  -1.685  -1.120  1.00  0.00    -0.223 NA
HETATM    9  C15 UNL     1       0.218  -2.879  -1.686  1.00  0.00     0.236 C 
HETATM   10  N3  UNL     1      -0.276  -3.944  -1.104  1.00  0.00    -0.233 NA
HETATM   11  C16 UNL     1      -1.110  -4.064   0.009  1.00  0.00     0.255 C 
HETATM   12  N4  UNL     1      -1.933  -3.975   1.040  1.00  0.00    -0.172 NA
HETATM   13  N5  UNL     1      -2.526  -2.690   1.390  1.00  0.00    -0.309 N 
HETATM   14  C17 UNL     1      -1.930  -1.676   0.687  1.00  0.00     0.181 C 
HETATM   15  H16 UNL     1      -3.244  -2.974   2.094  1.00  0.00     0.182 HD
ENDROOT
BRANCH   7  16
HETATM   16  N1  UNL     1       1.690  -0.188  -0.393  1.00  0.00    -0.331 N 
HETATM   17  C9  UNL     1       2.366  -1.442  -0.113  1.00  0.00     0.117 A 
HETATM   18  C10 UNL     1       3.667  -1.605   0.090  1.00  0.00     0.049 A 
HETATM   19 CL1  UNL     1       4.517  -3.112   0.427  1.00  0.00    -0.083 Cl
HETATM   20  C11 UNL     1       4.569  -0.459   0.083  1.00  0.00     0.023 A 
HETATM   21  C12 UNL     1       3.882   0.647  -0.137  1.00  0.00    -0.000 A 
HETATM   22  C13 UNL     1       2.457   1.033  -0.374  1.00  0.00     0.109 A 
HETATM   23  C14 UNL     1       2.122   1.897   0.861  1.00  0.00     0.037 C 
ENDBRANCH   7  16
BRANCH   1  24
HETATM   24  O1  UNL     1      -1.687   3.656  -0.522  1.00  0.00    -0.356 OA
HETATM   25  C1  UNL     1      -2.716   4.546  -0.160  1.00  0.00     0.210 C 
ENDBRANCH   1  24
TORSDOF 2
