REMARK  0 active torsions:
REMARK  status: ('A' for Active; 'I' for Inactive)
ROOT
HETATM    1  C1  UNL     1       2.795   2.151   0.373  1.00  0.00    -0.027 C 
HETATM    2  C2  UNL     1       3.884   1.798  -0.292  1.00  0.00     0.014 C 
HETATM    3  C3  UNL     1       4.216   0.619  -1.093  1.00  0.00     0.025 C 
HETATM    4  C4  UNL     1       3.452  -0.301  -1.658  1.00  0.00     0.135 C 
HETATM    5  O1  UNL     1       2.120  -0.650  -1.813  1.00  0.00    -0.360 OA
HETATM    6  C5  UNL     1       0.928  -0.218  -1.170  1.00  0.00     0.210 C 
HETATM    7  C6  UNL     1       1.143  -0.000   0.305  1.00  0.00     0.082 C 
HETATM    8  C7  UNL     1       1.832   1.300   0.563  1.00  0.00     0.019 C 
HETATM    9  N1  UNL     1       2.012  -1.126   0.716  1.00  0.00    -0.369 N 
HETATM   10  C8  UNL     1       1.302  -2.355   0.628  1.00  0.00     0.205 C 
HETATM   11  N2  UNL     1       0.018  -2.460   0.621  1.00  0.00    -0.229 NA
HETATM   12  C9  UNL     1      -0.860  -1.322   0.705  1.00  0.00     0.129 C 
HETATM   13  N3  UNL     1      -1.813  -1.986   0.343  1.00  0.00    -0.264 NA
HETATM   14  C10 UNL     1      -3.112  -2.128   0.033  1.00  0.00     0.224 C 
HETATM   15  S1  UNL     1      -4.262  -0.779   0.432  1.00  0.00    -0.147 SA
HETATM   16  C11 UNL     1      -3.916   0.676  -0.599  1.00  0.00     0.075 C 
HETATM   17  C12 UNL     1      -2.427   1.004  -0.453  1.00  0.00     0.010 C 
HETATM   18  C13 UNL     1      -2.215   1.078   1.031  1.00  0.00     0.002 C 
HETATM   19  C14 UNL     1      -0.785   1.105   1.465  1.00  0.00     0.015 C 
HETATM   20  C15 UNL     1      -0.074  -0.156   1.163  1.00  0.00     0.091 C 
HETATM   21  H7  UNL     1       2.983  -0.927   1.010  1.00  0.00     0.161 HD
ENDROOT
TORSDOF 0
