REMARK  5 active torsions:
REMARK  status: ('A' for Active; 'I' for Inactive)
REMARK    1  A    between atoms: C3_5  and  N2_6 
REMARK    2  A    between atoms: N2_6  and  C4_7 
REMARK    3  A    between atoms: C4_7  and  C5_8 
REMARK    4  A    between atoms: C5_8  and  C6_9 
REMARK    5  A    between atoms: C6_9  and  C7_10 
ROOT
HETATM    1  C1  UNL     1      -1.317   2.698  -2.449  1.00  0.00     0.243 A 
HETATM    2  N1  UNL     1      -2.588   2.875  -2.169  1.00  0.00    -0.211 NA
HETATM    3  S1  UNL     1      -3.288   1.774  -0.993  1.00  0.00    -0.030 SA
HETATM    4  C2  UNL     1      -2.246   0.670  -0.403  1.00  0.00     0.069 A 
HETATM    5  C3  UNL     1      -0.907   0.822  -0.986  1.00  0.00     0.143 A 
HETATM    6  N3  UNL     1      -0.561   1.683  -1.838  1.00  0.00    -0.223 NA
HETATM    7  C13 UNL     1      -3.187  -0.001   0.481  1.00  0.00    -0.022 A 
HETATM    8  C14 UNL     1      -4.203   0.771   0.164  1.00  0.00     0.002 A 
HETATM    9  C15 UNL     1      -5.510   0.571   0.768  1.00  0.00     0.048 C 
HETATM   10  C16 UNL     1      -5.894  -0.890   0.870  1.00  0.00     0.005 C 
HETATM   11  C17 UNL     1      -4.698  -1.814   0.930  1.00  0.00     0.005 C 
HETATM   12  C18 UNL     1      -3.520  -1.047   1.481  1.00  0.00     0.041 C 
ENDROOT
BRANCH   5  13
HETATM   13  N2  UNL     1       0.111  -0.085  -0.557  1.00  0.00    -0.374 N 
HETATM   14  H2  UNL     1      -0.148  -0.844   0.132  1.00  0.00     0.161 HD
BRANCH  13  15
HETATM   15  C4  UNL     1       1.491  -0.005  -1.032  1.00  0.00     0.121 C 
BRANCH  15  16
HETATM   16  C5  UNL     1       2.148   1.269  -0.485  1.00  0.00     0.024 C 
BRANCH  16  17
HETATM   17  C6  UNL     1       3.589   1.332  -0.989  1.00  0.00     0.040 C 
BRANCH  17  18
HETATM   18  C7  UNL     1       4.348   0.136  -0.519  1.00  0.00    -0.058 A 
HETATM   19  C8  UNL     1       4.992   0.244   0.695  1.00  0.00     0.007 A 
HETATM   20  C9  UNL     1       5.735  -0.756   1.280  1.00  0.00     0.001 A 
HETATM   21  C10 UNL     1       5.837  -1.948   0.596  1.00  0.00     0.000 A 
HETATM   22  C11 UNL     1       5.201  -2.102  -0.637  1.00  0.00     0.001 A 
HETATM   23  C12 UNL     1       4.472  -1.069  -1.175  1.00  0.00     0.007 A 
ENDBRANCH  17  18
ENDBRANCH  16  17
ENDBRANCH  15  16
ENDBRANCH  13  15
ENDBRANCH   5  13
TORSDOF 5
