REMARK  4 active torsions:
REMARK  status: ('A' for Active; 'I' for Inactive)
REMARK    1  A    between atoms: C2_2  and  C3_3 
REMARK    2  A    between atoms: C3_3  and  C4_4 
REMARK    3  A    between atoms: C16_19  and  C17_20 
REMARK    4  A    between atoms: C17_20  and  O1_21 
ROOT
HETATM    1  C4  UNL     1       1.357  -0.094   0.090  1.00  0.00    -0.081 C 
HETATM    2  C5  UNL     1       0.917  -1.323  -0.307  1.00  0.00    -0.018 C 
HETATM    3  C6  UNL     1      -0.025  -2.411  -0.704  1.00  0.00     0.021 C 
HETATM    4  C7  UNL     1      -1.317  -2.722  -0.932  1.00  0.00     0.003 C 
HETATM    5  C8  UNL     1      -2.847  -2.564  -1.067  1.00  0.00     0.047 C 
HETATM    6  C9  UNL     1      -3.145  -1.125  -0.856  1.00  0.00    -0.017 C 
HETATM    7  C10 UNL     1      -3.261  -0.186  -1.808  1.00  0.00    -0.016 C 
HETATM    8  C11 UNL     1      -2.102   0.570  -1.589  1.00  0.00     0.030 C 
HETATM    9  C12 UNL     1      -2.477   0.548  -0.191  1.00  0.00     0.040 A 
HETATM   10  C13 UNL     1      -2.015   1.680   0.496  1.00  0.00     0.138 A 
HETATM   11  N1  UNL     1      -2.296   1.754   1.801  1.00  0.00    -0.224 NA
HETATM   12  C14 UNL     1      -2.999   0.761   2.425  1.00  0.00     0.236 A 
HETATM   13  N2  UNL     1      -3.412  -0.313   1.731  1.00  0.00    -0.241 NA
HETATM   14  C15 UNL     1      -3.179  -0.481   0.434  1.00  0.00     0.079 A 
HETATM   15  N3  UNL     1      -1.134   2.782   0.232  1.00  0.00    -0.367 N 
HETATM   16  C16 UNL     1       0.093   2.093  -0.275  1.00  0.00     0.110 C 
HETATM   17  C18 UNL     1       0.341   0.870   0.488  1.00  0.00     0.061 C 
HETATM   18  H15 UNL     1      -1.462   3.744   0.416  1.00  0.00     0.161 HD
ENDROOT
BRANCH   1  19
HETATM   19  C3  UNL     1       2.792   0.033   0.229  1.00  0.00     0.033 C 
BRANCH  19  20
HETATM   20  C2  UNL     1       3.635  -1.173   0.010  1.00  0.00    -0.000 C 
HETATM   21  C1  UNL     1       3.405  -2.296   0.978  1.00  0.00     0.005 C 
ENDBRANCH  19  20
ENDBRANCH   1  19
BRANCH  16  22
HETATM   22  C17 UNL     1       1.154   3.167  -0.162  1.00  0.00     0.189 C 
BRANCH  22  23
HETATM   23  O1  UNL     1       0.690   4.227  -0.974  1.00  0.00    -0.399 OA
HETATM   24  H19 UNL     1       0.571   3.814  -1.865  1.00  0.00     0.209 HD
ENDBRANCH  22  23
ENDBRANCH  16  22
TORSDOF 4
