REMARK  6 active torsions:
REMARK  status: ('A' for Active; 'I' for Inactive)
REMARK    1  A    between atoms: C2_2  and  N1_3 
REMARK    2  A    between atoms: C2_2  and  C13_18 
REMARK    3  A    between atoms: N1_3  and  B1_4 
REMARK    4  A    between atoms: B1_4  and  C3_5 
REMARK    5  A    between atoms: C5_9  and  S1_10 
REMARK    6  A    between atoms: C6_11  and  C7_12 
ROOT
HETATM    1  C3  UNL     1       0.669  -1.579   1.598  1.00  0.00     0.021 A 
HETATM    2  N2  UNL     1       0.239  -2.786   1.989  1.00  0.00    -0.256 NA
HETATM    3  C4  UNL     1       0.827  -3.915   1.598  1.00  0.00     0.233 A 
HETATM    4  N3  UNL     1       1.881  -3.763   0.784  1.00  0.00    -0.234 NA
HETATM    5  C5  UNL     1       2.339  -2.569   0.373  1.00  0.00     0.103 A 
HETATM    6  C6  UNL     1       1.739  -1.370   0.769  1.00  0.00     0.020 A 
ENDROOT
BRANCH   1   7
HETATM    7  B1  UNL     1      -0.113  -0.366   2.099  1.00  0.00     0.299 B 
HETATM    8  H6  UNL     1       0.047   0.042   3.222  1.00  0.00    -0.000 HD
BRANCH   7   9
HETATM    9  N1  UNL     1      -1.102   0.327   1.180  1.00  0.00    -0.360 NA
HETATM   10  H5  UNL     1      -1.323   1.291   1.478  1.00  0.00     0.104 HD
BRANCH   9  11
HETATM   11  C2  UNL     1      -2.319  -0.391   0.972  1.00  0.00     0.071 C 
HETATM   12  C1  UNL     1      -2.171  -1.733   0.323  1.00  0.00     0.030 C 
BRANCH  11  13
HETATM   13  C13 UNL     1      -3.230   0.426   0.108  1.00  0.00    -0.042 A 
HETATM   14  C14 UNL     1      -2.661   1.028  -1.012  1.00  0.00     0.009 A 
HETATM   15  C15 UNL     1      -3.432   1.801  -1.865  1.00  0.00     0.001 A 
HETATM   16  C16 UNL     1      -4.764   1.997  -1.637  1.00  0.00     0.000 A 
HETATM   17  C17 UNL     1      -5.320   1.393  -0.520  1.00  0.00     0.001 A 
HETATM   18  C18 UNL     1      -4.569   0.633   0.321  1.00  0.00     0.009 A 
ENDBRANCH  11  13
ENDBRANCH   9  11
ENDBRANCH   7   9
ENDBRANCH   1   7
BRANCH   6  19
HETATM   19  C7  UNL     1       2.372  -0.176   0.313  1.00  0.00    -0.048 C 
HETATM   20  C8  UNL     1       2.167   1.039   0.768  1.00  0.00    -0.019 C 
HETATM   21  C9  UNL     1       2.681   2.398   0.474  1.00  0.00     0.028 C 
HETATM   22  C10 UNL     1       3.823   2.277  -0.559  1.00  0.00     0.004 C 
HETATM   23  C11 UNL     1       3.345   1.204  -1.495  1.00  0.00     0.005 C 
HETATM   24  C12 UNL     1       3.334  -0.170  -0.815  1.00  0.00     0.039 C 
ENDBRANCH   6  19
BRANCH   5  25
HETATM   25  S1  UNL     1       3.778  -2.841  -0.664  1.00  0.00    -0.122 SA
HETATM   26  H8  UNL     1       3.383  -3.678  -1.728  1.00  0.00     0.108 HD
ENDBRANCH   5  25
TORSDOF 6
