REMARK  2 active torsions:
REMARK  status: ('A' for Active; 'I' for Inactive)
REMARK    1  A    between atoms: C10_13  and  N3_14 
REMARK    2  A    between atoms: N3_14  and  C11_15 
ROOT
HETATM    1  O1  UNL     1       6.069   2.437  -0.402  1.00  0.00    -0.405 OA
HETATM    2  C1  UNL     1       5.037   1.715  -0.206  1.00  0.00     0.389 C 
HETATM    3  C2  UNL     1       3.709   1.065   0.051  1.00  0.00    -0.016 C 
HETATM    4  C3  UNL     1       3.998  -0.217  -0.034  1.00  0.00    -0.010 C 
HETATM    5  C4  UNL     1       3.125  -1.414   0.137  1.00  0.00     0.056 C 
HETATM    6  C5  UNL     1       2.976  -2.343  -0.927  1.00  0.00    -0.011 C 
HETATM    7  C6  UNL     1       2.354  -3.380  -0.362  1.00  0.00    -0.027 C 
HETATM    8  C7  UNL     1       1.356  -2.936   0.415  1.00  0.00     0.046 C 
HETATM    9  C8  UNL     1       0.413  -1.928  -0.088  1.00  0.00     0.089 A 
HETATM   10  N1  UNL     1      -0.162  -2.741  -0.983  1.00  0.00    -0.240 NA
HETATM   11  C9  UNL     1      -1.183  -2.503  -1.811  1.00  0.00     0.236 A 
HETATM   12  N2  UNL     1      -1.759  -1.285  -1.783  1.00  0.00    -0.222 NA
HETATM   13  C10 UNL     1      -1.203  -0.407  -0.877  1.00  0.00     0.158 A 
HETATM   14  C17 UNL     1      -0.148  -0.638  -0.024  1.00  0.00     0.104 A 
HETATM   15  N4  UNL     1       0.135   0.622   0.681  1.00  0.00    -0.382 N 
HETATM   16  C18 UNL     1       1.060   1.144  -0.269  1.00  0.00     0.147 C 
HETATM   17  C19 UNL     1       1.698   2.429  -0.032  1.00  0.00    -0.007 C 
HETATM   18  C20 UNL     1       3.038   2.327   0.108  1.00  0.00     0.011 C 
HETATM   19  H12 UNL     1      -0.510   0.377   1.449  1.00  0.00     0.160 HD
ENDROOT
BRANCH  13  20
HETATM   20  N3  UNL     1      -1.913   0.849  -0.838  1.00  0.00    -0.339 N 
HETATM   21  H8  UNL     1      -1.768   1.834  -1.147  1.00  0.00     0.167 HD
BRANCH  20  22
HETATM   22  C11 UNL     1      -3.194   0.788  -0.212  1.00  0.00     0.035 A 
HETATM   23  C12 UNL     1      -4.033   1.862   0.062  1.00  0.00     0.032 A 
HETATM   24  C13 UNL     1      -5.273   1.818   0.640  1.00  0.00     0.046 A 
HETATM   25  C14 UNL     1      -5.776   0.588   1.003  1.00  0.00     0.138 A 
HETATM   26  F1  UNL     1      -6.992   0.581   1.562  1.00  0.00    -0.204 F 
HETATM   27  C15 UNL     1      -5.009  -0.526   0.767  1.00  0.00     0.074 A 
HETATM   28 CL1  UNL     1      -5.728  -2.052   1.252  1.00  0.00    -0.081 Cl
HETATM   29  C16 UNL     1      -3.785  -0.411   0.189  1.00  0.00     0.056 A 
ENDBRANCH  20  22
ENDBRANCH  13  20
TORSDOF 2
