REMARK  2 active torsions:
REMARK  status: ('A' for Active; 'I' for Inactive)
REMARK    1  A    between atoms: N1_1  and  C1_2 
REMARK    2  A    between atoms: P1_17  and  C12_18 
ROOT
HETATM    1  C1  UNL     1       0.012   0.773  -0.949  1.00  0.00     0.287 C 
HETATM    2  C2  UNL     1       0.989   1.089   0.119  1.00  0.00     0.022 A 
HETATM    3  C3  UNL     1       0.875   2.416   0.693  1.00  0.00     0.108 A 
HETATM    4  S1  UNL     1       2.186   2.469   1.866  1.00  0.00    -0.074 SA
HETATM    5  C4  UNL     1       2.832   0.801   1.587  1.00  0.00    -0.008 A 
HETATM    6  C5  UNL     1       2.016   0.349   0.644  1.00  0.00    -0.033 A 
HETATM    7  C6  UNL     1       2.458  -1.033   0.325  1.00  0.00     0.040 C 
HETATM    8  C7  UNL     1       2.624  -1.779   1.619  1.00  0.00     0.005 C 
HETATM    9  C8  UNL     1       3.767  -1.288   2.431  1.00  0.00     0.005 C 
HETATM   10  C9  UNL     1       3.967   0.181   2.252  1.00  0.00     0.046 C 
HETATM   11  N2  UNL     1      -0.134   3.137   0.136  1.00  0.00    -0.234 NA
HETATM   12  C10 UNL     1      -0.277   4.371  -0.120  1.00  0.00     0.231 C 
HETATM   13  N3  UNL     1      -1.538   3.896  -0.600  1.00  0.00    -0.260 N 
HETATM   14  O1  UNL     1      -2.738   3.324  -0.744  1.00  0.00    -0.275 OA
HETATM   15  C11 UNL     1      -2.668   2.071  -1.274  1.00  0.00     0.242 C 
HETATM   16  P1  UNL     1      -1.701   0.842  -0.271  1.00  0.00    -0.017 P 
HETATM   17  H13 UNL     1      -1.694   4.198  -1.593  1.00  0.00     0.195 HD
ENDROOT
BRANCH  16  18
HETATM   18  C12 UNL     1      -2.438  -0.817  -0.541  1.00  0.00    -0.027 A 
HETATM   19  C13 UNL     1      -3.594  -1.102  -1.192  1.00  0.00     0.012 A 
HETATM   20  C14 UNL     1      -4.149  -2.350  -1.393  1.00  0.00     0.001 A 
HETATM   21  C15 UNL     1      -3.434  -3.426  -0.863  1.00  0.00     0.000 A 
HETATM   22  C16 UNL     1      -2.234  -3.188  -0.181  1.00  0.00     0.001 A 
HETATM   23  C17 UNL     1      -1.735  -1.898  -0.018  1.00  0.00     0.012 A 
ENDBRANCH  16  18
BRANCH   1  24
HETATM   24  N1  UNL     1       0.303  -0.428  -1.689  1.00  0.00     0.092 N 
HETATM   25  H1  UNL     1      -0.453  -0.571  -2.389  1.00  0.00     0.314 HD
HETATM   26  H2  UNL     1       1.229  -0.255  -2.158  1.00  0.00     0.314 HD
ENDBRANCH   1  24
TORSDOF 2
