REMARK  3 active torsions:
REMARK  status: ('A' for Active; 'I' for Inactive)
REMARK    1  A    between atoms: C2_2  and  C3_3 
REMARK    2  A    between atoms: C4_5  and  C5_6 
REMARK    3  A    between atoms: C5_6  and  O2_7 
ROOT
HETATM    1  C3  UNL     1       1.182   1.397   0.204  1.00  0.00     0.212 C 
HETATM    2  O1  UNL     1       2.166   0.522   0.478  1.00  0.00    -0.345 OA
HETATM    3  C4  UNL     1       2.189  -0.400  -0.579  1.00  0.00     0.247 C 
HETATM    4  N1  UNL     1       1.557  -1.633  -0.036  1.00  0.00    -0.346 N 
HETATM    5  C6  UNL     1       0.265  -1.811   0.608  1.00  0.00     0.139 A 
HETATM    6  N2  UNL     1       0.467  -2.856   1.410  1.00  0.00    -0.224 NA
HETATM    7  C7  UNL     1      -0.371  -3.458   2.252  1.00  0.00     0.234 A 
HETATM    8  N3  UNL     1      -1.601  -2.946   2.310  1.00  0.00    -0.253 NA
HETATM    9  C8  UNL     1      -1.842  -1.870   1.497  1.00  0.00     0.134 A 
HETATM   10  C9  UNL     1      -0.964  -1.230   0.608  1.00  0.00     0.035 A 
HETATM   11  C10 UNL     1      -1.839  -0.126   0.086  1.00  0.00    -0.030 C 
HETATM   12  C11 UNL     1      -1.738   1.212   0.318  1.00  0.00    -0.012 C 
HETATM   13  C12 UNL     1      -2.833   1.888  -0.404  1.00  0.00     0.046 C 
HETATM   14  C13 UNL     1      -3.171   0.943  -1.549  1.00  0.00     0.010 C 
HETATM   15  C14 UNL     1      -3.010  -0.377  -0.846  1.00  0.00     0.041 C 
HETATM   16  S1  UNL     1      -0.239   1.138   1.350  1.00  0.00    -0.098 SA
HETATM   17  H9  UNL     1       2.238  -2.404  -0.224  1.00  0.00     0.163 HD
ENDROOT
BRANCH   3  18
HETATM   18  C5  UNL     1       3.553  -0.646  -1.110  1.00  0.00     0.217 C 
BRANCH  18  19
HETATM   19  O2  UNL     1       3.519  -1.586  -2.153  1.00  0.00    -0.397 OA
HETATM   20  H8  UNL     1       2.825  -1.225  -2.778  1.00  0.00     0.209 HD
ENDBRANCH  18  19
ENDBRANCH   3  18
BRANCH   1  21
HETATM   21  C2  UNL     1       1.506   2.789   0.034  1.00  0.00     0.006 C 
HETATM   22  C1  UNL     1       2.054   3.149   1.193  1.00  0.00     0.010 C 
ENDBRANCH   1  21
TORSDOF 3
