REMARK  5 active torsions:
REMARK  status: ('A' for Active; 'I' for Inactive)
REMARK    1  A    between atoms: O1_1  and  C1_2 
REMARK    2  A    between atoms: C1_2  and  C2_3 
REMARK    3  A    between atoms: C2_3  and  N1_4 
REMARK    4  A    between atoms: C2_3  and  C11_16 
REMARK    5  A    between atoms: N1_4  and  C3_5 
ROOT
HETATM    1  N1  UNL     1      -0.557  -0.523  -0.008  1.00  0.00    -0.363 N 
HETATM    2  H5  UNL     1      -0.284   0.491  -0.112  1.00  0.00     0.162 HD
ENDROOT
BRANCH   1   3
HETATM    3  C2  UNL     1      -1.960  -0.757   0.142  1.00  0.00     0.140 C 
BRANCH   3   4
HETATM    4  C1  UNL     1      -2.439  -1.599  -1.019  1.00  0.00     0.194 C 
BRANCH   4   5
HETATM    5  O1  UNL     1      -3.803  -1.864  -0.938  1.00  0.00    -0.399 OA
HETATM    6  H1  UNL     1      -4.016  -2.014   0.033  1.00  0.00     0.209 HD
ENDBRANCH   4   5
ENDBRANCH   3   4
BRANCH   3   7
HETATM    7  C11 UNL     1      -2.747   0.464   0.324  1.00  0.00    -0.034 A 
HETATM    8  C12 UNL     1      -2.405   1.493  -0.552  1.00  0.00     0.009 A 
HETATM    9  C13 UNL     1      -3.064   2.723  -0.505  1.00  0.00     0.001 A 
HETATM   10  C14 UNL     1      -4.075   2.944   0.415  1.00  0.00     0.000 A 
HETATM   11  C15 UNL     1      -4.402   1.915   1.276  1.00  0.00     0.001 A 
HETATM   12  C16 UNL     1      -3.755   0.699   1.235  1.00  0.00     0.009 A 
ENDBRANCH   3   7
ENDBRANCH   1   3
BRANCH   1  13
HETATM   13  C3  UNL     1       0.493  -1.469  -0.035  1.00  0.00     0.139 A 
HETATM   14  N2  UNL     1       0.194  -2.753   0.096  1.00  0.00    -0.224 NA
HETATM   15  C4  UNL     1       1.066  -3.749   0.093  1.00  0.00     0.236 A 
HETATM   16  N3  UNL     1       2.382  -3.425  -0.057  1.00  0.00    -0.234 NA
HETATM   17  C5  UNL     1       2.727  -2.134  -0.193  1.00  0.00     0.104 A 
HETATM   18  C6  UNL     1       1.832  -1.084  -0.192  1.00  0.00     0.057 A 
HETATM   19  S1  UNL     1       4.075  -1.072  -0.405  1.00  0.00    -0.135 SA
HETATM   20  C7  UNL     1       2.755   0.095  -0.374  1.00  0.00    -0.009 A 
HETATM   21  C10 UNL     1       3.395   1.393  -0.538  1.00  0.00     0.047 C 
HETATM   22  C9  UNL     1       4.690   1.319   0.207  1.00  0.00     0.015 C 
HETATM   23  C8  UNL     1       5.494   0.215  -0.380  1.00  0.00     0.075 C 
ENDBRANCH   1  13
TORSDOF 5
