REMARK  8 active torsions:
REMARK  status: ('A' for Active; 'I' for Inactive)
REMARK    1  A    between atoms: C2_2  and  C3_3 
REMARK    2  A    between atoms: C3_3  and  C4_4 
REMARK    3  A    between atoms: C4_4  and  C5_5 
REMARK    4  A    between atoms: C5_5  and  C6_6 
REMARK    5  A    between atoms: C6_6  and  C7_7 
REMARK    6  A    between atoms: C7_7  and  N1_8 
REMARK    7  A    between atoms: C7_7  and  O1_20 
REMARK    8  A    between atoms: N1_8  and  C8_9 
ROOT
HETATM    1  C8  UNL     1       1.761  -1.041  -0.595  1.00  0.00     0.140 A 
HETATM    2  N2  UNL     1       1.957  -2.200  -1.213  1.00  0.00    -0.224 NA
HETATM    3  C9  UNL     1       3.057  -2.504  -1.859  1.00  0.00     0.236 A 
HETATM    4  N3  UNL     1       4.046  -1.635  -1.919  1.00  0.00    -0.234 NA
HETATM    5  C10 UNL     1       3.819  -0.413  -1.258  1.00  0.00     0.114 A 
HETATM    6  S1  UNL     1       4.986   1.051  -1.130  1.00  0.00    -0.073 SA
HETATM    7  C11 UNL     1       3.801   2.010  -0.148  1.00  0.00    -0.008 A 
HETATM    8  C12 UNL     1       2.733   1.211  -0.019  1.00  0.00    -0.028 A 
HETATM    9  C13 UNL     1       2.681  -0.021  -0.556  1.00  0.00     0.053 A 
HETATM   10  C14 UNL     1       2.097   2.306   0.773  1.00  0.00     0.046 A 
HETATM   11  C15 UNL     1       3.290   3.173   0.617  1.00  0.00     0.051 A 
ENDROOT
BRANCH   1  12
HETATM   12  N1  UNL     1       0.494  -0.909   0.050  1.00  0.00    -0.347 N 
HETATM   13  H9  UNL     1       0.356   0.011   0.533  1.00  0.00     0.163 HD
BRANCH  12  14
HETATM   14  C7  UNL     1      -0.624  -1.805   0.158  1.00  0.00     0.224 C 
BRANCH  14  15
HETATM   15  C6  UNL     1      -1.737  -1.150   0.977  1.00  0.00     0.081 C 
BRANCH  15  16
HETATM   16  C5  UNL     1      -2.159   0.094   0.292  1.00  0.00    -0.022 C 
BRANCH  16  17
HETATM   17  C4  UNL     1      -3.346   0.432  -0.185  1.00  0.00     0.004 C 
BRANCH  17  18
HETATM   18  C3  UNL     1      -3.962   1.549  -0.865  1.00  0.00     0.050 C 
BRANCH  18  19
HETATM   19  C2  UNL     1      -4.378   2.590  -0.167  1.00  0.00    -0.155 C 
HETATM   20  C1  UNL     1      -4.706   3.496   0.739  1.00  0.00     0.096 C 
ENDBRANCH  18  19
ENDBRANCH  17  18
ENDBRANCH  16  17
ENDBRANCH  15  16
ENDBRANCH  14  15
BRANCH  14  21
HETATM   21  O1  UNL     1      -0.321  -3.053   0.637  1.00  0.00    -0.371 OA
HETATM   22  C16 UNL     1      -0.631  -4.106  -0.192  1.00  0.00     0.204 C 
ENDBRANCH  14  21
ENDBRANCH  12  14
ENDBRANCH   1  12
TORSDOF 8
