REMARK  2 active torsions:
REMARK  status: ('A' for Active; 'I' for Inactive)
REMARK    1  A    between atoms: O1_3  and  S2_4 
REMARK    2  A    between atoms: C2_5  and  N1_6 
ROOT
HETATM    1  C1  UNL     1      -4.151   2.735  -2.024  1.00  0.00     0.038 C 
HETATM    2  S1  UNL     1      -3.931   1.839  -1.124  1.00  0.00     0.073 SA
HETATM    3  O1  UNL     1      -3.699   0.810  -0.117  1.00  0.00    -0.237 OA
ENDROOT
BRANCH   3   4
HETATM    4  S2  UNL     1      -2.696  -0.529  -0.536  1.00  0.00     0.005 SA
HETATM    5  C2  UNL     1      -1.155  -0.661   0.071  1.00  0.00     0.113 A 
HETATM    6  C11 UNL     1      -0.701  -1.745  -0.764  1.00  0.00     0.040 A 
HETATM    7  C12 UNL     1      -1.001  -2.558  -1.703  1.00  0.00     0.003 A 
HETATM    8  C13 UNL     1      -2.307  -2.606  -2.382  1.00  0.00     0.009 A 
HETATM    9  C14 UNL     1      -3.097  -1.684  -1.859  1.00  0.00     0.070 A 
BRANCH   5  10
HETATM   10  N1  UNL     1      -0.589   0.272   0.939  1.00  0.00    -0.244 N 
HETATM   11  N2  UNL     1      -1.572   0.982   1.618  1.00  0.00    -0.286 N 
HETATM   12  C3  UNL     1      -1.466   2.042   2.534  1.00  0.00     0.225 A 
HETATM   13  H2  UNL     1      -2.623   0.821   1.605  1.00  0.00     0.188 HD
HETATM   14  N3  UNL     1      -0.233   2.378   2.750  1.00  0.00    -0.233 NA
HETATM   15  C4  UNL     1       0.815   1.684   2.078  1.00  0.00     0.128 A 
HETATM   16  S3  UNL     1       2.612   2.047   2.207  1.00  0.00    -0.072 SA
HETATM   17  C7  UNL     1       0.762   0.630   1.161  1.00  0.00     0.100 A 
HETATM   18  C5  UNL     1       3.100   0.809   1.063  1.00  0.00    -0.007 A 
HETATM   19  C6  UNL     1       1.949   0.187   0.640  1.00  0.00    -0.013 A 
HETATM   20  C10 UNL     1       4.354   0.352   0.508  1.00  0.00     0.047 C 
HETATM   21  C8  UNL     1       2.471  -0.788  -0.339  1.00  0.00     0.042 C 
HETATM   22  C9  UNL     1       3.852  -0.315  -0.756  1.00  0.00     0.010 C 
ENDBRANCH   5  10
ENDBRANCH   3   4
TORSDOF 2
