REMARK  0 active torsions:
REMARK  status: ('A' for Active; 'I' for Inactive)
ROOT
HETATM    1  C1  UNL     1      -1.424  -2.637   0.748  1.00  0.00     0.000 C 
HETATM    2  C2  UNL     1      -2.382  -1.691   1.002  1.00  0.00     0.002 C 
HETATM    3  C3  UNL     1      -2.534  -0.346   0.364  1.00  0.00     0.025 C 
HETATM    4  C4  UNL     1      -2.069   0.146  -0.818  1.00  0.00     0.011 C 
HETATM    5  C5  UNL     1      -1.827  -0.582  -2.102  1.00  0.00     0.061 C 
HETATM    6  C6  UNL     1      -0.435  -1.002  -2.174  1.00  0.00     0.040 C 
HETATM    7  C7  UNL     1       0.207  -1.688  -1.033  1.00  0.00    -0.076 C 
HETATM    8  C8  UNL     1      -0.168  -2.554  -0.059  1.00  0.00     0.003 C 
HETATM    9  C9  UNL     1       1.682  -1.504  -0.705  1.00  0.00     0.069 C 
HETATM   10  C10 UNL     1       1.820  -0.793   0.631  1.00  0.00    -0.063 C 
HETATM   11  C11 UNL     1       1.895   0.560   0.768  1.00  0.00    -0.017 C 
HETATM   12  C12 UNL     1       2.027   1.005   2.208  1.00  0.00     0.046 C 
HETATM   13  C13 UNL     1       1.411  -0.237   2.870  1.00  0.00     0.009 C 
HETATM   14  C14 UNL     1       1.908  -1.377   2.005  1.00  0.00     0.036 C 
HETATM   15  S1  UNL     1       1.851   1.688  -0.615  1.00  0.00    -0.099 SA
HETATM   16  C15 UNL     1       0.517   2.917  -0.529  1.00  0.00     0.244 A 
HETATM   17  N1  UNL     1       0.763   3.797  -1.659  1.00  0.00    -0.259 NA
HETATM   18  C16 UNL     1      -0.236   3.784  -2.468  1.00  0.00     0.230 A 
HETATM   19  N2  UNL     1      -1.254   2.891  -1.960  1.00  0.00    -0.226 NA
HETATM   20  C17 UNL     1      -0.822   2.404  -0.864  1.00  0.00     0.141 A 
HETATM   21  N3  UNL     1      -1.909   1.541  -0.443  1.00  0.00    -0.345 N 
HETATM   22  H19 UNL     1      -2.669   1.892   0.180  1.00  0.00     0.167 HD
ENDROOT
TORSDOF 0
