REMARK  2 active torsions:
REMARK  status: ('A' for Active; 'I' for Inactive)
REMARK    1  A    between atoms: C4_4  and  N1_5 
REMARK    2  A    between atoms: N1_5  and  C5_6 
ROOT
HETATM    1  C5  UNL     1      -0.595   1.114   0.339  1.00  0.00     0.139 A 
HETATM    2  N2  UNL     1       0.170   2.113   0.760  1.00  0.00    -0.224 NA
HETATM    3  C6  UNL     1      -0.319   3.294   1.099  1.00  0.00     0.236 A 
HETATM    4  N3  UNL     1      -1.647   3.461   1.003  1.00  0.00    -0.234 NA
HETATM    5  C7  UNL     1      -2.428   2.470   0.583  1.00  0.00     0.114 A 
HETATM    6  S1  UNL     1      -4.201   2.361   0.345  1.00  0.00    -0.073 SA
HETATM    7  C8  UNL     1      -4.213   0.669  -0.222  1.00  0.00    -0.008 A 
HETATM    8  C9  UNL     1      -2.921   0.296  -0.200  1.00  0.00    -0.028 A 
HETATM    9  C10 UNL     1      -1.961   1.188   0.208  1.00  0.00     0.053 A 
HETATM   10  C11 UNL     1      -2.926  -1.123  -0.675  1.00  0.00     0.041 A 
HETATM   11  C12 UNL     1      -4.329  -1.501  -0.974  1.00  0.00     0.010 A 
HETATM   12  C13 UNL     1      -5.182  -0.323  -0.664  1.00  0.00     0.047 A 
ENDROOT
BRANCH   1  13
HETATM   13  N1  UNL     1       0.148  -0.057   0.032  1.00  0.00    -0.367 N 
HETATM   14  H6  UNL     1      -0.392  -0.880  -0.302  1.00  0.00     0.161 HD
BRANCH  13  15
HETATM   15  C4  UNL     1       1.599  -0.152   0.161  1.00  0.00     0.111 C 
HETATM   16  C3  UNL     1       2.295   0.805  -0.712  1.00  0.00     0.054 C 
HETATM   17  C2  UNL     1       3.629   0.487  -1.202  1.00  0.00    -0.024 C 
HETATM   18  C1  UNL     1       4.759  -0.212  -0.978  1.00  0.00    -0.002 C 
HETATM   19  C16 UNL     1       5.146  -1.136   0.117  1.00  0.00     0.024 C 
HETATM   20  C15 UNL     1       4.347  -1.859   0.931  1.00  0.00     0.134 C 
HETATM   21  O1  UNL     1       2.952  -1.992   1.032  1.00  0.00    -0.361 OA
HETATM   22  C14 UNL     1       1.960  -1.592   0.066  1.00  0.00     0.199 C 
ENDBRANCH  13  15
ENDBRANCH   1  13
TORSDOF 2
