REMARK  5 active torsions:
REMARK  status: ('A' for Active; 'I' for Inactive)
REMARK    1  A    between atoms: N1_1  and  C1_2 
REMARK    2  A    between atoms: N2_5  and  C4_6 
REMARK    3  A    between atoms: C4_6  and  C5_7 
REMARK    4  A    between atoms: C4_6  and  C6_9 
REMARK    5  A    between atoms: C5_7  and  O1_8 
ROOT
HETATM    1  C1  UNL     1      -2.658   2.288   0.805  1.00  0.00     0.065 C 
HETATM    2  C2  UNL     1      -1.878   2.661  -0.225  1.00  0.00     0.029 C 
HETATM    3  C3  UNL     1      -1.199   1.900  -1.313  1.00  0.00     0.153 C 
HETATM    4  N2  UNL     1      -0.456   0.745  -0.809  1.00  0.00    -0.369 N 
HETATM    5  C12 UNL     1      -0.943  -0.430  -0.204  1.00  0.00     0.025 C 
HETATM    6  C13 UNL     1      -1.986  -0.578   0.598  1.00  0.00     0.035 C 
HETATM    7  C14 UNL     1      -2.286  -1.929   1.101  1.00  0.00     0.317 C 
HETATM    8  N3  UNL     1      -1.968  -3.009   0.240  1.00  0.00     0.088 N 
HETATM    9  C15 UNL     1      -1.214  -2.674  -0.925  1.00  0.00     0.276 C 
HETATM   10  C16 UNL     1      -0.150  -1.608  -0.553  1.00  0.00     0.088 C 
HETATM   11  S1  UNL     1      -3.149   0.636   1.207  1.00  0.00    -0.074 SA
HETATM   12  H17 UNL     1      -1.598  -3.863   0.711  1.00  0.00     0.316 HD
ENDROOT
BRANCH   4  13
HETATM   13  C4  UNL     1       0.978   0.833  -0.966  1.00  0.00     0.141 C 
BRANCH  13  14
HETATM   14  C5  UNL     1       1.460   0.882  -2.374  1.00  0.00     0.194 C 
BRANCH  14  15
HETATM   15  O1  UNL     1       2.842   0.975  -2.524  1.00  0.00    -0.398 OA
HETATM   16  H9  UNL     1       3.065   0.607  -3.404  1.00  0.00     0.209 HD
ENDBRANCH  14  15
ENDBRANCH  13  14
BRANCH  13  17
HETATM   17  C6  UNL     1       1.798   0.148   0.018  1.00  0.00    -0.033 A 
HETATM   18  C7  UNL     1       1.446   0.367   1.359  1.00  0.00     0.009 A 
HETATM   19  C8  UNL     1       2.150  -0.231   2.387  1.00  0.00     0.001 A 
HETATM   20  C9  UNL     1       3.223  -1.065   2.151  1.00  0.00     0.000 A 
HETATM   21  C10 UNL     1       3.592  -1.299   0.843  1.00  0.00     0.001 A 
HETATM   22  C11 UNL     1       2.863  -0.683  -0.153  1.00  0.00     0.009 A 
ENDBRANCH  13  17
ENDBRANCH   4  13
BRANCH   1  23
HETATM   23  N1  UNL     1      -3.183   3.269   1.716  1.00  0.00    -0.394 N 
HETATM   24  H1  UNL     1      -3.599   4.190   1.545  1.00  0.00     0.156 HD
HETATM   25  H2  UNL     1      -3.136   2.999   2.727  1.00  0.00     0.156 HD
ENDBRANCH   1  23
TORSDOF 5
