REMARK  1 active torsions:
REMARK  status: ('A' for Active; 'I' for Inactive)
REMARK    1  A    between atoms: C4_4  and  C5_5 
ROOT
HETATM    1  C5  UNL     1      -0.151  -1.462  -0.674  1.00  0.00     0.056 A 
HETATM    2  N1  UNL     1       0.076  -2.610  -1.324  1.00  0.00    -0.245 NA
HETATM    3  C6  UNL     1      -0.768  -3.450  -1.874  1.00  0.00     0.234 A 
HETATM    4  N2  UNL     1      -2.052  -3.081  -1.755  1.00  0.00    -0.234 NA
HETATM    5  C7  UNL     1      -2.323  -1.927  -1.105  1.00  0.00     0.112 A 
HETATM    6  S1  UNL     1      -3.954  -1.300  -0.883  1.00  0.00    -0.073 SA
HETATM    7  C8  UNL     1      -3.412   0.190   0.013  1.00  0.00    -0.008 A 
HETATM    8  C9  UNL     1      -2.015   0.080   0.066  1.00  0.00    -0.030 A 
HETATM    9  C10 UNL     1      -1.477  -1.039  -0.528  1.00  0.00     0.032 A 
HETATM   10  C11 UNL     1      -1.619   1.299   0.765  1.00  0.00     0.041 C 
HETATM   11  C12 UNL     1      -2.799   1.600   1.705  1.00  0.00     0.010 C 
HETATM   12  C13 UNL     1      -3.916   1.425   0.689  1.00  0.00     0.047 C 
ENDROOT
BRANCH   1  13
HETATM   13  C4  UNL     1       1.016  -0.710  -0.107  1.00  0.00     0.066 C 
HETATM   14  C3  UNL     1       1.265   0.608  -0.753  1.00  0.00     0.040 C 
HETATM   15  C2  UNL     1       2.680   0.763  -1.265  1.00  0.00    -0.026 C 
HETATM   16  C1  UNL     1       3.838   0.847  -0.583  1.00  0.00    -0.002 C 
HETATM   17  C16 UNL     1       4.104   0.818   0.872  1.00  0.00     0.024 C 
HETATM   18  C15 UNL     1       3.336   0.519   1.928  1.00  0.00     0.134 C 
HETATM   19  O1  UNL     1       2.003   0.134   1.936  1.00  0.00    -0.362 OA
HETATM   20  C14 UNL     1       1.153  -0.809   1.365  1.00  0.00     0.185 C 
ENDBRANCH   1  13
TORSDOF 1
