REMARK  3 active torsions:
REMARK  status: ('A' for Active; 'I' for Inactive)
REMARK    1  A    between atoms: N1_1  and  C1_2 
REMARK    2  A    between atoms: C6_7  and  N2_8 
REMARK    3  A    between atoms: N2_8  and  C7_9 
ROOT
HETATM    1  C7  UNL     1      -0.735  -1.176  -0.760  1.00  0.00     0.155 A 
HETATM    2  C8  UNL     1      -0.255  -2.569  -0.575  1.00  0.00     0.120 A 
HETATM    3  N3  UNL     1      -1.055  -3.268   0.157  1.00  0.00    -0.255 NA
HETATM    4  C9  UNL     1      -2.182  -2.462   0.570  1.00  0.00     0.106 A 
HETATM    5  S1  UNL     1      -3.715  -2.338   1.466  1.00  0.00    -0.072 SA
HETATM    6  C10 UNL     1      -4.041  -0.599   1.065  1.00  0.00     0.019 A 
HETATM    7  C11 UNL     1      -2.975  -0.248   0.291  1.00  0.00    -0.030 A 
HETATM    8  C12 UNL     1      -2.014  -1.189   0.027  1.00  0.00     0.012 A 
HETATM    9  C13 UNL     1      -3.208   1.177  -0.057  1.00  0.00     0.070 C 
HETATM   10  C14 UNL     1      -3.711   1.863   1.199  1.00  0.00     0.274 C 
HETATM   11  N4  UNL     1      -5.077   1.491   1.377  1.00  0.00     0.088 N 
HETATM   12  C15 UNL     1      -5.219   0.092   1.545  1.00  0.00     0.316 C 
HETATM   13  H18 UNL     1      -5.457   2.006   2.199  1.00  0.00     0.316 HD
ENDROOT
BRANCH   1  14
HETATM   14  N2  UNL     1       0.129  -0.252  -0.131  1.00  0.00    -0.402 N 
HETATM   15  H11 UNL     1      -0.290   0.532   0.378  1.00  0.00     0.154 HD
BRANCH  14  16
HETATM   16  C6  UNL     1       1.458  -0.118  -0.590  1.00  0.00     0.105 C 
HETATM   17  C5  UNL     1       1.611   0.294  -2.037  1.00  0.00     0.053 C 
HETATM   18  C4  UNL     1       2.928   1.025  -2.160  1.00  0.00    -0.028 C 
HETATM   19  C3  UNL     1       3.917   1.359  -1.314  1.00  0.00    -0.026 C 
HETATM   20  C2  UNL     1       4.315   1.241   0.129  1.00  0.00     0.090 C 
HETATM   21  C1  UNL     1       4.052  -0.132   0.672  1.00  0.00     0.356 C 
HETATM   22  O1  UNL     1       3.679  -0.991  -0.312  1.00  0.00    -0.355 OA
HETATM   23  C16 UNL     1       2.332  -1.329  -0.359  1.00  0.00     0.195 C 
BRANCH  21  24
HETATM   24  N1  UNL     1       3.149  -0.093   1.804  1.00  0.00     0.107 N 
HETATM   25  H1  UNL     1       3.238  -1.014   2.290  1.00  0.00     0.316 HD
HETATM   26  H2  UNL     1       3.437   0.626   2.504  1.00  0.00     0.316 HD
ENDBRANCH  21  24
ENDBRANCH  14  16
ENDBRANCH   1  14
TORSDOF 3
