REMARK  4 active torsions:
REMARK  status: ('A' for Active; 'I' for Inactive)
REMARK    1  A    between atoms: C2_2  and  N1_3 
REMARK    2  A    between atoms: C2_2  and  P1_14 
REMARK    3  A    between atoms: N1_3  and  C3_4 
REMARK    4  A    between atoms: P1_14  and  C12_15 
ROOT
HETATM    1  N1  UNL     1      -0.518   0.658  -0.192  1.00  0.00    -0.392 N 
HETATM    2  H5  UNL     1      -0.632   1.157  -1.074  1.00  0.00     0.156 HD
ENDROOT
BRANCH   1   3
HETATM    3  C2  UNL     1       0.700   0.808   0.511  1.00  0.00     0.105 C 
HETATM    4  C1  UNL     1       1.157  -0.441   1.192  1.00  0.00     0.037 C 
BRANCH   3   5
HETATM    5  P1  UNL     1       2.001   1.321  -0.714  1.00  0.00    -0.072 P 
HETATM    6  H16 UNL     1       2.267   2.738  -0.695  1.00  0.00     0.064 HD
BRANCH   5   7
HETATM    7  C12 UNL     1       3.558   0.426  -0.538  1.00  0.00    -0.032 A 
HETATM    8  C13 UNL     1       3.619  -0.959  -0.705  1.00  0.00     0.012 A 
HETATM    9  C14 UNL     1       4.794  -1.669  -0.577  1.00  0.00     0.001 A 
HETATM   10  C15 UNL     1       5.955  -0.990  -0.271  1.00  0.00     0.000 A 
HETATM   11  C16 UNL     1       5.937   0.375  -0.098  1.00  0.00     0.001 A 
HETATM   12  C17 UNL     1       4.746   1.061  -0.233  1.00  0.00     0.012 A 
ENDBRANCH   5   7
ENDBRANCH   3   5
ENDBRANCH   1   3
BRANCH   1  13
HETATM   13  C3  UNL     1      -1.648   0.280   0.528  1.00  0.00     0.082 A 
HETATM   14  C4  UNL     1      -2.152   1.092   1.627  1.00  0.00     0.006 A 
HETATM   15  C5  UNL     1      -3.004   0.199   1.306  1.00  0.00     0.035 A 
HETATM   16  C6  UNL     1      -2.658  -0.899   2.248  1.00  0.00     0.107 C 
HETATM   17  C7  UNL     1      -3.730  -0.448   0.253  1.00  0.00    -0.002 A 
HETATM   18  C8  UNL     1      -2.930   0.431  -0.326  1.00  0.00     0.024 A 
HETATM   19  N2  UNL     1      -1.499  -1.074   1.163  1.00  0.00    -0.297 NA
HETATM   20  H9  UNL     1      -2.016  -1.689   0.500  1.00  0.00     0.124 HD
HETATM   21  C11 UNL     1      -4.330  -0.922  -1.028  1.00  0.00     0.012 C 
HETATM   22  C10 UNL     1      -4.612   0.317  -1.848  1.00  0.00     0.002 C 
HETATM   23  C9  UNL     1      -3.401   1.178  -1.573  1.00  0.00     0.016 C 
ENDBRANCH   1  13
TORSDOF 4
