REMARK  7 active torsions:
REMARK  status: ('A' for Active; 'I' for Inactive)
REMARK    1  A    between atoms: C2_2  and  C3_3 
REMARK    2  A    between atoms: C3_3  and  C4_4 
REMARK    3  A    between atoms: C7_11  and  N4_12 
REMARK    4  A    between atoms: N4_12  and  C8_13 
REMARK    5  A    between atoms: C8_13  and  C9_14 
REMARK    6  A    between atoms: C8_13  and  C11_17 
REMARK    7  A    between atoms: C9_14  and  O1_15 
ROOT
HETATM    1  C4  UNL     1       2.796  -0.056   0.035  1.00  0.00     0.031 A 
HETATM    2  N1  UNL     1       4.206  -0.081   0.107  1.00  0.00    -0.229 NA
HETATM    3  S1  UNL     1       4.699  -1.540  -0.837  1.00  0.00    -0.089 SA
HETATM    4  C5  UNL     1       3.012  -2.005  -1.251  1.00  0.00     0.113 A 
HETATM    5  N2  UNL     1       2.423  -2.991  -1.946  1.00  0.00    -0.234 NA
HETATM    6  C6  UNL     1       1.114  -3.106  -2.104  1.00  0.00     0.236 A 
HETATM    7  N3  UNL     1       0.278  -2.219  -1.565  1.00  0.00    -0.224 NA
HETATM    8  C7  UNL     1       0.764  -1.198  -0.854  1.00  0.00     0.140 A 
HETATM    9  C17 UNL     1       2.127  -1.100  -0.703  1.00  0.00     0.067 A 
HETATM   10  H7  UNL     1       5.187  -0.290   0.028  1.00  0.00     0.229 HD
ENDROOT
BRANCH   8  11
HETATM   11  N4  UNL     1      -0.187  -0.264  -0.308  1.00  0.00    -0.363 N 
HETATM   12  H9  UNL     1      -0.276   0.592   0.245  1.00  0.00     0.162 HD
BRANCH  11  13
HETATM   13  C8  UNL     1      -1.601  -0.519  -0.553  1.00  0.00     0.140 C 
BRANCH  13  14
HETATM   14  C9  UNL     1      -2.033  -1.703   0.225  1.00  0.00     0.197 C 
BRANCH  14  15
HETATM   15  O1  UNL     1      -3.379  -2.058   0.074  1.00  0.00    -0.394 OA
HETATM   16  C10 UNL     1      -3.530  -3.190   0.900  1.00  0.00     0.201 C 
ENDBRANCH  14  15
ENDBRANCH  13  14
BRANCH  13  17
HETATM   17  C11 UNL     1      -2.417   0.678  -0.467  1.00  0.00    -0.034 A 
HETATM   18  C12 UNL     1      -3.603   0.923   0.149  1.00  0.00     0.009 A 
HETATM   19  C13 UNL     1      -4.239   2.147   0.119  1.00  0.00     0.001 A 
HETATM   20  C14 UNL     1      -3.664   3.197  -0.566  1.00  0.00     0.000 A 
HETATM   21  C15 UNL     1      -2.464   2.990  -1.203  1.00  0.00     0.001 A 
HETATM   22  C16 UNL     1      -1.829   1.742  -1.164  1.00  0.00     0.009 A 
ENDBRANCH  13  17
ENDBRANCH  11  13
ENDBRANCH   8  11
BRANCH   1  23
HETATM   23  C3  UNL     1       2.544   1.017   0.736  1.00  0.00    -0.002 C 
BRANCH  23  24
HETATM   24  C2  UNL     1       3.261   2.029   1.457  1.00  0.00     0.024 C 
HETATM   25  C1  UNL     1       4.765   1.897   1.427  1.00  0.00     0.009 C 
ENDBRANCH  23  24
ENDBRANCH   1  23
TORSDOF 7
