REMARK  2 active torsions:
REMARK  status: ('A' for Active; 'I' for Inactive)
REMARK    1  A    between atoms: S1_7  and  N1_8 
REMARK    2  A    between atoms: N1_8  and  C7_9 
ROOT
HETATM    1  C7  UNL     1       0.868   0.057   0.798  1.00  0.00     0.171 A 
HETATM    2  N2  UNL     1       0.718  -0.661   1.871  1.00  0.00    -0.220 NA
HETATM    3  C8  UNL     1       2.135  -0.773   1.886  1.00  0.00     0.115 A 
HETATM    4  S2  UNL     1       3.892  -1.215   2.351  1.00  0.00    -0.072 SA
HETATM    5  C9  UNL     1       4.657  -0.339   0.981  1.00  0.00     0.020 A 
HETATM    6  C10 UNL     1       3.524   0.243   0.244  1.00  0.00    -0.025 A 
HETATM    7  C11 UNL     1       2.320  -0.059   0.815  1.00  0.00     0.056 A 
HETATM    8  C12 UNL     1       4.103   0.980  -0.904  1.00  0.00     0.070 C 
HETATM    9  C13 UNL     1       5.103   0.117  -1.616  1.00  0.00     0.274 C 
HETATM   10  N3  UNL     1       6.216  -0.265  -0.816  1.00  0.00     0.088 N 
HETATM   11  C14 UNL     1       6.045  -0.172   0.596  1.00  0.00     0.316 C 
HETATM   12  H13 UNL     1       6.550  -1.221  -1.063  1.00  0.00     0.316 HD
ENDROOT
BRANCH   1  13
HETATM   13  N1  UNL     1      -0.118   0.681  -0.015  1.00  0.00    -0.201 NA
BRANCH  13  14
HETATM   14  S1  UNL     1      -1.624   0.157  -0.074  1.00  0.00    -0.052 SA
HETATM   15  C6  UNL     1      -1.892  -1.290   0.999  1.00  0.00     0.059 C 
HETATM   16  C5  UNL     1      -2.927  -1.697   1.759  1.00  0.00     0.007 C 
HETATM   17  C4  UNL     1      -4.279  -1.168   2.058  1.00  0.00    -0.001 C 
HETATM   18  C3  UNL     1      -5.008  -0.297   1.339  1.00  0.00     0.004 C 
HETATM   19  C2  UNL     1      -4.788   0.446   0.045  1.00  0.00     0.141 C 
HETATM   20  C1  UNL     1      -6.100   0.837  -0.548  1.00  0.00     0.044 C 
HETATM   21  O1  UNL     1      -3.919   1.510   0.185  1.00  0.00    -0.371 OA
HETATM   22  C15 UNL     1      -2.815   1.430  -0.697  1.00  0.00     0.259 C 
ENDBRANCH  13  14
ENDBRANCH   1  13
TORSDOF 2
