REMARK  7 active torsions:
REMARK  status: ('A' for Active; 'I' for Inactive)
REMARK    1  A    between atoms: O1_1  and  C1_2 
REMARK    2  A    between atoms: C1_2  and  C2_3 
REMARK    3  A    between atoms: C2_3  and  N1_4 
REMARK    4  A    between atoms: C2_3  and  C11_17 
REMARK    5  A    between atoms: N1_4  and  C3_5 
REMARK    6  A    between atoms: N2_6  and  C4_7 
REMARK    7  A    between atoms: N3_8  and  C5_9 
ROOT
HETATM    1  C3  UNL     1      -0.924   0.484  -1.532  1.00  0.00     0.204 C 
HETATM    2  N2  UNL     1      -0.189   1.321  -1.015  1.00  0.00    -0.238 NA
ENDROOT
BRANCH   1   3
HETATM    3  N1  UNL     1      -1.483  -0.718  -1.072  1.00  0.00    -0.374 N 
HETATM    4  H5  UNL     1      -1.146  -1.556  -1.651  1.00  0.00     0.161 HD
BRANCH   3   5
HETATM    5  C2  UNL     1      -2.370  -0.717   0.007  1.00  0.00     0.139 C 
BRANCH   5   6
HETATM    6  C1  UNL     1      -2.066  -0.269   1.364  1.00  0.00     0.194 C 
BRANCH   6   7
HETATM    7  O1  UNL     1      -1.021  -0.951   2.013  1.00  0.00    -0.399 OA
HETATM    8  H1  UNL     1      -1.132  -0.980   2.981  1.00  0.00     0.209 HD
ENDBRANCH   6   7
ENDBRANCH   5   6
BRANCH   5   9
HETATM    9  C11 UNL     1      -3.764  -0.260  -0.386  1.00  0.00    -0.034 A 
HETATM   10  C12 UNL     1      -4.909  -0.917   0.033  1.00  0.00     0.009 A 
HETATM   11  C13 UNL     1      -6.177  -0.510  -0.317  1.00  0.00     0.001 A 
HETATM   12  C14 UNL     1      -6.337   0.581  -1.108  1.00  0.00     0.000 A 
HETATM   13  C15 UNL     1      -5.242   1.271  -1.555  1.00  0.00     0.001 A 
HETATM   14  C16 UNL     1      -3.977   0.856  -1.198  1.00  0.00     0.009 A 
ENDBRANCH   5   9
ENDBRANCH   3   5
ENDBRANCH   1   3
BRANCH   2  15
HETATM   15  C4  UNL     1       0.349   1.331   0.261  1.00  0.00     0.229 C 
HETATM   16  N3  UNL     1       1.365   0.590  -0.004  1.00  0.00    -0.262 NA
BRANCH  16  17
HETATM   17  C5  UNL     1       2.316   0.273   1.076  1.00  0.00     0.205 A 
HETATM   18  S1  UNL     1       2.969   1.714   1.869  1.00  0.00    -0.100 SA
HETATM   19  C6  UNL     1       4.285   0.878   1.101  1.00  0.00     0.014 A 
HETATM   20  C7  UNL     1       3.617  -0.085   0.612  1.00  0.00    -0.029 A 
HETATM   21  C10 UNL     1       5.756   1.009   0.917  1.00  0.00     0.315 C 
HETATM   22  C8  UNL     1       4.244  -1.188  -0.204  1.00  0.00     0.068 C 
HETATM   23  C9  UNL     1       5.690  -0.833  -0.507  1.00  0.00     0.274 C 
HETATM   24  N4  UNL     1       6.278  -0.345   0.715  1.00  0.00     0.088 N 
HETATM   25  H13 UNL     1       5.948  -0.933   1.531  1.00  0.00     0.316 HD
ENDBRANCH  16  17
ENDBRANCH   2  15
TORSDOF 7
