REMARK  0 active torsions:
REMARK  status: ('A' for Active; 'I' for Inactive)
ROOT
HETATM    1  C1  UNL     1       3.581   1.783   0.705  1.00  0.00    -0.002 C 
HETATM    2  C2  UNL     1       3.901   0.591   1.241  1.00  0.00     0.004 C 
HETATM    3  C3  UNL     1       3.838  -0.808   0.701  1.00  0.00     0.177 C 
HETATM    4  C4  UNL     1       3.212  -0.798  -0.698  1.00  0.00     0.201 C 
HETATM    5  O1  UNL     1       1.857  -0.864  -0.706  1.00  0.00    -0.379 OA
HETATM    6  C5  UNL     1       1.133   0.246  -0.999  1.00  0.00     0.148 C 
HETATM    7  C6  UNL     1       1.964   1.464  -1.315  1.00  0.00     0.005 C 
HETATM    8  C7  UNL     1       2.804   2.134  -0.505  1.00  0.00    -0.002 C 
HETATM    9  C8  UNL     1       0.106   0.612   0.046  1.00  0.00     0.078 C 
HETATM   10  C9  UNL     1      -0.984  -0.381   0.192  1.00  0.00    -0.012 A 
HETATM   11  C10 UNL     1      -0.683  -1.533   0.885  1.00  0.00     0.107 A 
HETATM   12  S1  UNL     1      -2.339  -2.457   0.813  1.00  0.00    -0.072 SA
HETATM   13  C11 UNL     1      -3.172  -1.320  -0.049  1.00  0.00     0.019 A 
HETATM   14  C12 UNL     1      -2.244  -0.245  -0.296  1.00  0.00    -0.032 A 
HETATM   15  C13 UNL     1      -2.946   0.828  -1.081  1.00  0.00     0.070 C 
HETATM   16  C14 UNL     1      -4.191   1.268  -0.316  1.00  0.00     0.274 C 
HETATM   17  N1  UNL     1      -5.025   0.133   0.017  1.00  0.00     0.088 N 
HETATM   18  C15 UNL     1      -4.559  -1.077  -0.633  1.00  0.00     0.316 C 
HETATM   19  N2  UNL     1       0.549  -1.738   1.394  1.00  0.00    -0.218 N 
HETATM   20  C16 UNL     1       0.973  -2.445   2.359  1.00  0.00     0.258 A 
HETATM   21  N3  UNL     1       1.851  -1.678   1.587  1.00  0.00    -0.163 N 
HETATM   22  N4  UNL     1       3.121  -1.699   1.595  1.00  0.00    -0.182 NA
HETATM   23  H15 UNL     1      -6.043   0.299  -0.127  1.00  0.00     0.316 HD
ENDROOT
TORSDOF 0
