REMARK  8 active torsions:
REMARK  status: ('A' for Active; 'I' for Inactive)
REMARK    1  A    between atoms: C2_2  and  C3_3 
REMARK    2  A    between atoms: C4_4  and  P1_5 
REMARK    3  A    between atoms: C7_10  and  N3_11 
REMARK    4  A    between atoms: N3_11  and  C8_12 
REMARK    5  A    between atoms: C8_12  and  C9_13 
REMARK    6  A    between atoms: C8_12  and  C10_15 
REMARK    7  A    between atoms: C9_13  and  O1_14 
REMARK    8  A    between atoms: C10_15  and  C11_16 
ROOT
HETATM    1  N3  UNL     1      -0.344  -1.073   0.106  1.00  0.00    -0.367 N 
HETATM    2  H11 UNL     1      -0.069  -1.027   1.131  1.00  0.00     0.161 HD
ENDROOT
BRANCH   1   3
HETATM    3  C7  UNL     1       0.394  -0.254  -0.786  1.00  0.00     0.133 A 
HETATM    4  P1  UNL     1       1.382   1.196  -0.275  1.00  0.00    -0.001 P 
HETATM    5  C5  UNL     1       2.124   1.884  -1.819  1.00  0.00     0.196 A 
HETATM    6  N1  UNL     1       1.720   1.102  -2.947  1.00  0.00    -0.278 NA
HETATM    7  C6  UNL     1       0.989   0.088  -3.047  1.00  0.00     0.229 A 
HETATM    8  N2  UNL     1       0.298  -0.643  -2.038  1.00  0.00    -0.224 NA
BRANCH   4   9
HETATM    9  C4  UNL     1       2.726   0.757   0.887  1.00  0.00     0.012 C 
HETATM   10  C3  UNL     1       4.008   0.339   0.849  1.00  0.00    -0.026 C 
BRANCH  10  11
HETATM   11  C2  UNL     1       5.091  -0.014   1.823  1.00  0.00     0.022 C 
HETATM   12  C1  UNL     1       6.296   0.910   1.607  1.00  0.00     0.009 C 
ENDBRANCH  10  11
ENDBRANCH   4   9
ENDBRANCH   1   3
BRANCH   1  13
HETATM   13  C8  UNL     1      -1.432  -1.973  -0.187  1.00  0.00     0.108 C 
BRANCH  13  14
HETATM   14  C9  UNL     1      -1.987  -2.696   1.005  1.00  0.00     0.189 C 
BRANCH  14  15
HETATM   15  O1  UNL     1      -3.031  -3.505   0.527  1.00  0.00    -0.399 OA
HETATM   16  H15 UNL     1      -2.656  -3.981  -0.265  1.00  0.00     0.209 HD
ENDBRANCH  14  15
ENDBRANCH  13  14
BRANCH  13  17
HETATM   17  C10 UNL     1      -2.474  -1.444  -1.103  1.00  0.00     0.050 C 
BRANCH  17  18
HETATM   18  C11 UNL     1      -3.187  -0.234  -0.705  1.00  0.00     0.035 A 
HETATM   19  S1  UNL     1      -3.054   1.055  -1.739  1.00  0.00    -0.129 SA
HETATM   20  C12 UNL     1      -3.833   2.448  -1.418  1.00  0.00     0.045 A 
HETATM   21  C13 UNL     1      -4.615   2.444  -0.190  1.00  0.00     0.003 A 
HETATM   22  C14 UNL     1      -4.628   1.348   0.547  1.00  0.00    -0.025 A 
HETATM   23  C15 UNL     1      -4.029  -0.010   0.498  1.00  0.00     0.049 A 
ENDBRANCH  17  18
ENDBRANCH  13  17
ENDBRANCH   1  13
TORSDOF 8
