REMARK  4 active torsions:
REMARK  status: ('A' for Active; 'I' for Inactive)
REMARK    1  A    between atoms: C2_2  and  C3_3 
REMARK       I    between atoms: C3_3  and  N1_5 
REMARK    2  A    between atoms: C10_16  and  N4_17 
REMARK    3  A    between atoms: N4_17  and  C11_18 
REMARK    4  A    between atoms: C11_18  and  C13_20 
ROOT
HETATM    1  C3  UNL     1       5.450  -0.289  -0.718  1.00  0.00     0.239 C 
HETATM    2  O1  UNL     1       6.269   0.483  -1.281  1.00  0.00    -0.269 OA
HETATM    3  N1  UNL     1       4.039  -0.237  -0.751  1.00  0.00    -0.342 N 
HETATM    4  C4  UNL     1       3.291  -1.230  -0.028  1.00  0.00     0.153 C 
HETATM    5  C5  UNL     1       2.123  -1.761  -0.826  1.00  0.00     0.195 C 
HETATM    6  O2  UNL     1       1.046  -0.855  -0.717  1.00  0.00    -0.347 OA
HETATM    7  C6  UNL     1       1.040   0.507  -0.519  1.00  0.00     0.100 A 
HETATM    8  C7  UNL     1       2.231   1.273  -0.937  1.00  0.00     0.037 A 
HETATM    9  S1  UNL     1       1.832   2.973  -0.517  1.00  0.00    -0.069 SA
HETATM   10  C8  UNL     1       0.167   2.644   0.174  1.00  0.00     0.116 A 
HETATM   11  N2  UNL     1      -0.703   3.451   0.675  1.00  0.00    -0.234 NA
HETATM   12  C9  UNL     1      -1.877   2.984   1.129  1.00  0.00     0.236 A 
HETATM   13  N3  UNL     1      -2.030   1.681   1.010  1.00  0.00    -0.224 NA
HETATM   14  C10 UNL     1      -1.180   0.785   0.505  1.00  0.00     0.141 A 
HETATM   15  C19 UNL     1       0.028   1.229   0.033  1.00  0.00     0.080 A 
HETATM   16  C20 UNL     1       3.482   0.864  -1.549  1.00  0.00     0.175 C 
ENDROOT
BRANCH  14  17
HETATM   17  N4  UNL     1      -1.561  -0.570   0.480  1.00  0.00    -0.366 N 
HETATM   18  H9  UNL     1      -1.015  -1.369   0.124  1.00  0.00     0.161 HD
BRANCH  17  19
HETATM   19  C11 UNL     1      -2.850  -0.981   0.992  1.00  0.00     0.112 C 
HETATM   20  C12 UNL     1      -3.111  -2.455   0.897  1.00  0.00     0.037 C 
BRANCH  19  21
HETATM   21  C13 UNL     1      -3.958  -0.179   0.466  1.00  0.00    -0.036 A 
HETATM   22  C14 UNL     1      -4.990   0.320   1.270  1.00  0.00     0.009 A 
HETATM   23  C15 UNL     1      -6.023   1.075   0.739  1.00  0.00     0.001 A 
HETATM   24  C16 UNL     1      -6.037   1.345  -0.624  1.00  0.00     0.000 A 
HETATM   25  C17 UNL     1      -5.002   0.843  -1.422  1.00  0.00     0.001 A 
HETATM   26  C18 UNL     1      -3.978   0.093  -0.892  1.00  0.00     0.009 A 
ENDBRANCH  19  21
ENDBRANCH  17  19
ENDBRANCH  14  17
BRANCH   1  27
HETATM   27  C2  UNL     1       6.119  -1.337   0.041  1.00  0.00     0.048 C 
HETATM   28  C1  UNL     1       7.438  -1.129  -0.114  1.00  0.00     0.037 C 
ENDBRANCH   1  27
TORSDOF 4
