REMARK  2 active torsions:
REMARK  status: ('A' for Active; 'I' for Inactive)
REMARK    1  A    between atoms: C2_2  and  C3_3 
REMARK       I    between atoms: C3_3  and  N1_5 
REMARK    2  A    between atoms: C14_18  and  S1_19 
ROOT
HETATM    1  C3  UNL     1       3.480   0.278  -0.179  1.00  0.00     0.244 C 
HETATM    2  O1  UNL     1       4.346  -0.633  -0.198  1.00  0.00    -0.268 OA
HETATM    3  N1  UNL     1       2.138  -0.177  -0.048  1.00  0.00    -0.315 N 
HETATM    4  C4  UNL     1       2.101  -1.655   0.037  1.00  0.00     0.156 C 
HETATM    5  C5  UNL     1       0.786  -2.238  -0.337  1.00  0.00     0.000 C 
HETATM    6  C6  UNL     1      -0.405  -1.654  -0.053  1.00  0.00    -0.020 C 
HETATM    7  C7  UNL     1      -1.550  -2.320  -0.757  1.00  0.00     0.044 C 
HETATM    8  C8  UNL     1      -2.613  -2.750   0.251  1.00  0.00     0.051 C 
HETATM    9  C9  UNL     1      -2.508  -1.947   1.524  1.00  0.00     0.087 C 
HETATM   10  N2  UNL     1      -1.754  -0.931   1.819  1.00  0.00    -0.259 NA
HETATM   11  C10 UNL     1      -0.886  -0.495   0.795  1.00  0.00     0.287 C 
HETATM   12  N3  UNL     1       0.313   0.119   1.262  1.00  0.00     0.143 N 
HETATM   13  C11 UNL     1       0.944   0.544   0.008  1.00  0.00     0.328 C 
HETATM   14  C12 UNL     1       0.707   1.956  -0.000  1.00  0.00     0.059 C 
HETATM   15  C13 UNL     1      -0.836   1.975   0.121  1.00  0.00     0.024 C 
HETATM   16  C14 UNL     1      -1.479   0.625  -0.071  1.00  0.00     0.113 C 
HETATM   17  H12 UNL     1       0.898  -0.437   1.879  1.00  0.00     0.322 HD
ENDROOT
BRANCH   1  18
HETATM   18  C2  UNL     1       3.944   1.639  -0.291  1.00  0.00     0.064 C 
HETATM   19  C1  UNL     1       5.265   1.760  -0.403  1.00  0.00     0.017 C 
ENDBRANCH   1  18
BRANCH  16  20
HETATM   20  S1  UNL     1      -3.195   0.854   0.549  1.00  0.00    -0.164 SA
HETATM   21  C15 UNL     1      -4.015   2.179  -0.417  1.00  0.00     0.090 C 
ENDBRANCH  16  20
TORSDOF 2
