REMARK  8 active torsions:
REMARK  status: ('A' for Active; 'I' for Inactive)
REMARK    1  A    between atoms: C7_7  and  C8_8 
REMARK    2  A    between atoms: C8_8  and  C9_9 
REMARK    3  A    between atoms: C8_8  and  N1_11 
REMARK    4  A    between atoms: C9_9  and  O1_10 
REMARK    5  A    between atoms: N1_11  and  C10_12 
REMARK    6  A    between atoms: C16_21  and  C17_22 
REMARK    7  A    between atoms: C17_22  and  N4_23 
REMARK    8  A    between atoms: N4_23  and  C18_24 
ROOT
HETATM    1  C10 UNL     1       0.110  -1.188  -0.643  1.00  0.00     0.133 C 
HETATM    2  C11 UNL     1       1.031  -0.961   0.324  1.00  0.00     0.008 C 
HETATM    3  C12 UNL     1       1.280  -1.931   1.512  1.00  0.00     0.109 C 
HETATM    4  C13 UNL     1       2.342  -2.618   0.606  1.00  0.00     0.071 C 
HETATM    5  N2  UNL     1       2.072  -3.718  -0.017  1.00  0.00    -0.240 NA
HETATM    6  C14 UNL     1       0.838  -3.539  -0.946  1.00  0.00     0.236 C 
HETATM    7  N3  UNL     1      -0.182  -2.617  -0.938  1.00  0.00    -0.224 NA
HETATM    8  S1  UNL     1       3.577  -1.002   0.926  1.00  0.00    -0.143 SA
HETATM    9  C15 UNL     1       5.126  -0.966   0.071  1.00  0.00     0.090 C 
HETATM   10  C16 UNL     1       2.156   0.130   0.394  1.00  0.00     0.002 C 
ENDROOT
BRANCH   1  11
HETATM   11  N1  UNL     1      -0.233   0.114  -1.090  1.00  0.00    -0.364 N 
HETATM   12  H12 UNL     1       0.349   0.064  -1.944  1.00  0.00     0.162 HD
BRANCH  11  13
HETATM   13  C8  UNL     1      -1.154   0.823  -0.226  1.00  0.00     0.140 C 
BRANCH  13  14
HETATM   14  C7  UNL     1      -2.460   0.076  -0.134  1.00  0.00    -0.028 A 
HETATM   15  C2  UNL     1      -3.285  -0.119   0.933  1.00  0.00    -0.054 A 
HETATM   16  C1  UNL     1      -2.779   0.480   2.184  1.00  0.00     0.049 C 
HETATM   17  C3  UNL     1      -4.449  -0.834   0.753  1.00  0.00     0.007 A 
HETATM   18  C4  UNL     1      -4.806  -1.358  -0.471  1.00  0.00     0.001 A 
HETATM   19  C5  UNL     1      -3.981  -1.169  -1.562  1.00  0.00     0.001 A 
HETATM   20  C6  UNL     1      -2.817  -0.454  -1.379  1.00  0.00     0.010 A 
ENDBRANCH  13  14
BRANCH  13  21
HETATM   21  C9  UNL     1      -1.422   2.177  -0.842  1.00  0.00     0.194 C 
BRANCH  21  22
HETATM   22  O1  UNL     1      -2.292   2.968  -0.119  1.00  0.00    -0.399 OA
HETATM   23  H11 UNL     1      -1.733   3.623   0.402  1.00  0.00     0.209 HD
ENDBRANCH  21  22
ENDBRANCH  13  21
ENDBRANCH  11  13
ENDBRANCH   1  11
BRANCH  10  24
HETATM   24  C17 UNL     1       1.955   1.460   0.046  1.00  0.00     0.168 C 
BRANCH  24  25
HETATM   25  N4  UNL     1       3.262   2.145   0.186  1.00  0.00    -0.363 N 
HETATM   26  H21 UNL     1       4.125   1.688   0.488  1.00  0.00     0.162 HD
BRANCH  25  27
HETATM   27  C18 UNL     1       3.203   3.528  -0.145  1.00  0.00     0.348 C 
HETATM   28  O2  UNL     1       2.106   4.042  -0.512  1.00  0.00    -0.284 OA
ENDBRANCH  25  27
ENDBRANCH  24  25
ENDBRANCH  10  24
TORSDOF 8
