REMARK  12 active torsions:
REMARK  status: ('A' for Active; 'I' for Inactive)
REMARK    1  A    between atoms: N1_2  and  C2_3 
REMARK    2  A    between atoms: C2_3  and  C3_4 
REMARK    3  A    between atoms: C3_4  and  N2_5 
REMARK    4  A    between atoms: N2_5  and  C4_6 
REMARK    5  A    between atoms: C4_6  and  N4_20 
REMARK    6  A    between atoms: C5_7  and  N3_8 
REMARK    7  A    between atoms: N3_8  and  C6_9 
REMARK    8  A    between atoms: C6_9  and  C7_10 
REMARK    9  A    between atoms: C9_12  and  C10_13 
REMARK   10  A    between atoms: C10_13  and  O2_15 
REMARK   11  A    between atoms: C13_18  and  O3_19 
REMARK   12  A    between atoms: N4_20  and  C14_21 
ROOT
HETATM    1  C4  UNL     1      -1.651   0.818   0.092  1.00  0.00     0.152 C 
HETATM    2  C5  UNL     1      -0.727   0.257   0.828  1.00  0.00     0.135 C 
ENDROOT
BRANCH   1   3
HETATM    3  N2  UNL     1      -1.219   1.665  -0.965  1.00  0.00    -0.185 NA
BRANCH   3   4
HETATM    4  C3  UNL     1      -1.938   2.701  -1.189  1.00  0.00     0.002 C 
BRANCH   4   5
HETATM    5  C2  UNL     1      -2.793   3.705  -1.291  1.00  0.00     0.154 C 
BRANCH   5   6
HETATM    6  N1  UNL     1      -2.528   4.785  -0.406  1.00  0.00    -0.399 NA
HETATM    7  C1  UNL     1      -2.564   4.712   0.870  1.00  0.00     0.314 C 
ENDBRANCH   5   6
ENDBRANCH   4   5
ENDBRANCH   3   4
ENDBRANCH   1   3
BRANCH   1   8
HETATM    8  N4  UNL     1      -2.978   0.480   0.480  1.00  0.00    -0.339 N 
HETATM    9  H13 UNL     1      -3.468   1.286   0.947  1.00  0.00     0.167 HD
BRANCH   8  10
HETATM   10  C14 UNL     1      -3.547  -0.803   0.249  1.00  0.00     0.035 A 
HETATM   11  C15 UNL     1      -3.416  -1.792   1.202  1.00  0.00     0.032 A 
HETATM   12  C16 UNL     1      -3.954  -3.034   1.002  1.00  0.00     0.046 A 
HETATM   13  C17 UNL     1      -4.632  -3.244  -0.194  1.00  0.00     0.138 A 
HETATM   14  F1  UNL     1      -5.197  -4.464  -0.458  1.00  0.00    -0.204 F 
HETATM   15  C18 UNL     1      -4.781  -2.276  -1.165  1.00  0.00     0.074 A 
HETATM   16 CL1  UNL     1      -5.643  -2.601  -2.648  1.00  0.00    -0.081 Cl
HETATM   17  C19 UNL     1      -4.221  -1.021  -0.935  1.00  0.00     0.056 A 
ENDBRANCH   8  10
ENDBRANCH   1   8
BRANCH   2  18
HETATM   18  N3  UNL     1       0.684   0.238   0.896  1.00  0.00    -0.391 N 
HETATM   19  H5  UNL     1       1.309   0.805   1.536  1.00  0.00     0.159 HD
BRANCH  18  20
HETATM   20  C6  UNL     1       1.395  -0.657  -0.008  1.00  0.00     0.160 C 
BRANCH  20  21
HETATM   21  C7  UNL     1       2.854  -0.611   0.137  1.00  0.00    -0.006 A 
HETATM   22  C8  UNL     1       3.764   0.003  -0.689  1.00  0.00     0.029 A 
HETATM   23  C9  UNL     1       5.093  -0.049  -0.409  1.00  0.00     0.038 A 
HETATM   24  C11 UNL     1       5.593  -0.715   0.708  1.00  0.00     0.021 A 
HETATM   25  C12 UNL     1       4.682  -1.334   1.543  1.00  0.00     0.038 A 
HETATM   26  C13 UNL     1       3.329  -1.281   1.259  1.00  0.00     0.073 A 
BRANCH  23  27
HETATM   27  C10 UNL     1       6.055   0.604  -1.290  1.00  0.00     0.176 C 
HETATM   28  O1  UNL     1       7.294   0.578  -1.066  1.00  0.00    -0.646 OA
BRANCH  27  29
HETATM   29  O2  UNL     1       5.662   1.291  -2.422  1.00  0.00    -0.773 OA
HETATM   30  H9  UNL     1       6.294   1.560  -3.183  1.00  0.00     0.167 HD
ENDBRANCH  27  29
ENDBRANCH  23  27
BRANCH  26  31
HETATM   31  O3  UNL     1       2.533  -1.956   2.198  1.00  0.00    -0.360 OA
HETATM   32  H12 UNL     1       1.944  -2.691   1.827  1.00  0.00     0.217 HD
ENDBRANCH  26  31
ENDBRANCH  20  21
ENDBRANCH  18  20
ENDBRANCH   2  18
TORSDOF 12
