REMARK  7 active torsions:
REMARK  status: ('A' for Active; 'I' for Inactive)
REMARK    1  A    between atoms: C2_2  and  C3_3 
REMARK    2  A    between atoms: C3_3  and  O2_5 
REMARK    3  A    between atoms: O2_5  and  C4_6 
REMARK    4  A    between atoms: C4_6  and  C5_7 
REMARK    5  A    between atoms: C5_7  and  N1_8 
REMARK    6  A    between atoms: C5_7  and  C14_21 
REMARK    7  A    between atoms: N1_8  and  C6_9 
ROOT
HETATM    1  N1  UNL     1       0.335  -0.354   0.480  1.00  0.00    -0.363 N 
HETATM    2  H7  UNL     1      -0.061   0.361  -0.131  1.00  0.00     0.162 HD
ENDROOT
BRANCH   1   3
HETATM    3  C5  UNL     1       1.396  -1.142  -0.150  1.00  0.00     0.140 C 
BRANCH   3   4
HETATM    4  C4  UNL     1       1.916  -0.323  -1.326  1.00  0.00     0.209 C 
BRANCH   4   5
HETATM    5  O2  UNL     1       2.387   0.941  -0.896  1.00  0.00    -0.316 OA
BRANCH   5   6
HETATM    6  C3  UNL     1       2.896   1.804  -1.865  1.00  0.00     0.279 C 
HETATM    7  O1  UNL     1       2.709   1.024  -2.834  1.00  0.00    -0.261 OA
BRANCH   6   8
HETATM    8  C2  UNL     1       3.353   3.086  -1.290  1.00  0.00     0.056 C 
HETATM    9  C1  UNL     1       3.381   3.583  -0.048  1.00  0.00     0.037 C 
ENDBRANCH   6   8
ENDBRANCH   5   6
ENDBRANCH   4   5
ENDBRANCH   3   4
BRANCH   3  10
HETATM   10  C14 UNL     1       0.773  -2.353  -0.802  1.00  0.00    -0.034 A 
HETATM   11  C15 UNL     1      -0.114  -3.202  -0.204  1.00  0.00     0.009 A 
HETATM   12  C16 UNL     1      -0.702  -4.305  -0.777  1.00  0.00     0.001 A 
HETATM   13  C17 UNL     1      -0.390  -4.617  -2.084  1.00  0.00     0.000 A 
HETATM   14  C18 UNL     1       0.497  -3.806  -2.754  1.00  0.00     0.001 A 
HETATM   15  C19 UNL     1       1.045  -2.719  -2.114  1.00  0.00     0.009 A 
ENDBRANCH   3  10
ENDBRANCH   1   3
BRANCH   1  16
HETATM   16  C6  UNL     1      -0.326  -0.314   1.743  1.00  0.00     0.139 A 
HETATM   17  N2  UNL     1       0.146  -1.195   2.625  1.00  0.00    -0.224 NA
HETATM   18  C7  UNL     1      -0.268  -1.361   3.881  1.00  0.00     0.236 A 
HETATM   19  N3  UNL     1      -1.261  -0.545   4.268  1.00  0.00    -0.234 NA
HETATM   20  C8  UNL     1      -1.756   0.353   3.399  1.00  0.00     0.114 A 
HETATM   21  S1  UNL     1      -3.018   1.508   3.630  1.00  0.00    -0.072 SA
HETATM   22  C11 UNL     1      -1.360   0.550   2.116  1.00  0.00     0.054 A 
HETATM   23  C9  UNL     1      -2.976   2.228   1.982  1.00  0.00     0.022 A 
HETATM   24  C10 UNL     1      -1.975   1.517   1.357  1.00  0.00     0.002 A 
HETATM   25  C13 UNL     1      -3.607   3.245   1.142  1.00  0.00     0.316 C 
HETATM   26  C12 UNL     1      -1.926   2.107  -0.003  1.00  0.00     0.310 C 
HETATM   27  N4  UNL     1      -2.812   3.208  -0.026  1.00  0.00     0.092 N 
HETATM   28  H11 UNL     1      -3.334   3.359  -0.916  1.00  0.00     0.316 HD
ENDBRANCH   1  16
TORSDOF 7
