REMARK  5 active torsions:
REMARK  status: ('A' for Active; 'I' for Inactive)
REMARK    1  A    between atoms: O1_1  and  C1_2 
REMARK    2  A    between atoms: C1_2  and  C2_3 
REMARK    3  A    between atoms: C2_3  and  N1_4 
REMARK    4  A    between atoms: C2_3  and  C11_17 
REMARK    5  A    between atoms: N1_4  and  C3_5 
ROOT
HETATM    1  C3  UNL     1      -0.957  -0.641   1.226  1.00  0.00     0.139 A 
HETATM    2  N2  UNL     1      -0.710  -1.297   2.362  1.00  0.00    -0.224 NA
HETATM    3  C4  UNL     1      -1.575  -1.795   3.214  1.00  0.00     0.236 A 
HETATM    4  N3  UNL     1      -2.848  -1.604   2.869  1.00  0.00    -0.234 NA
HETATM    5  C5  UNL     1      -3.128  -0.948   1.733  1.00  0.00     0.115 A 
HETATM    6  S1  UNL     1      -4.786  -0.570   1.052  1.00  0.00    -0.051 SA
HETATM    7  C6  UNL     1      -4.102   0.284  -0.417  1.00  0.00     0.079 A 
HETATM    8  C7  UNL     1      -2.734   0.217  -0.278  1.00  0.00    -0.006 A 
HETATM    9  C8  UNL     1      -2.255  -0.420   0.832  1.00  0.00     0.055 A 
HETATM   10  C9  UNL     1      -2.339   0.946  -1.505  1.00  0.00     0.062 C 
HETATM   11  C10 UNL     1      -3.547   1.851  -1.784  1.00  0.00     0.125 C 
HETATM   12  N4  UNL     1      -4.627   0.921  -1.548  1.00  0.00    -0.384 N 
HETATM   13  H11 UNL     1      -5.534   0.731  -2.026  1.00  0.00     0.160 HD
ENDROOT
BRANCH   1  14
HETATM   14  N1  UNL     1       0.208  -0.269   0.546  1.00  0.00    -0.363 N 
HETATM   15  H5  UNL     1       0.093   0.219  -0.363  1.00  0.00     0.162 HD
BRANCH  14  16
HETATM   16  C2  UNL     1       1.578  -0.507   0.986  1.00  0.00     0.140 C 
BRANCH  16  17
HETATM   17  C1  UNL     1       1.917   0.155   2.276  1.00  0.00     0.194 C 
BRANCH  17  18
HETATM   18  O1  UNL     1       3.243  -0.152   2.610  1.00  0.00    -0.399 OA
HETATM   19  H1  UNL     1       3.520  -0.992   2.212  1.00  0.00     0.209 HD
ENDBRANCH  17  18
ENDBRANCH  16  17
BRANCH  16  20
HETATM   20  C11 UNL     1       2.496  -0.165  -0.128  1.00  0.00    -0.034 A 
HETATM   21  C12 UNL     1       2.027  -0.754  -1.293  1.00  0.00     0.009 A 
HETATM   22  C13 UNL     1       2.692  -0.602  -2.517  1.00  0.00     0.001 A 
HETATM   23  C14 UNL     1       3.845   0.151  -2.583  1.00  0.00     0.000 A 
HETATM   24  C15 UNL     1       4.293   0.727  -1.416  1.00  0.00     0.001 A 
HETATM   25  C16 UNL     1       3.649   0.585  -0.207  1.00  0.00     0.009 A 
ENDBRANCH  16  20
ENDBRANCH  14  16
ENDBRANCH   1  14
TORSDOF 5
