REMARK  1 active torsions:
REMARK  status: ('A' for Active; 'I' for Inactive)
REMARK    1  A    between atoms: C3_3  and  C4_4 
REMARK       I    between atoms: C4_4  and  N1_6 
ROOT
HETATM    1  C1  UNL     1       6.380   0.082   1.586  1.00  0.00     0.112 C 
HETATM    2  C2  UNL     1       5.142  -0.615   1.174  1.00  0.00    -0.101 C 
HETATM    3  C3  UNL     1       4.141  -1.166   0.823  1.00  0.00    -0.006 C 
ENDROOT
BRANCH   3   4
HETATM    4  C4  UNL     1       2.932  -1.805   0.395  1.00  0.00     0.298 C 
HETATM    5  O1  UNL     1       2.861  -3.059   0.534  1.00  0.00    -0.258 OA
HETATM    6  N1  UNL     1       1.808  -1.141  -0.173  1.00  0.00    -0.336 N 
HETATM    7  C5  UNL     1       0.843  -2.180  -0.445  1.00  0.00     0.132 C 
HETATM    8  C9  UNL     1       2.002   0.323  -0.278  1.00  0.00     0.174 C 
HETATM    9  C6  UNL     1      -0.419  -1.672  -1.170  1.00  0.00     0.060 C 
HETATM   10  C7  UNL     1      -0.350  -0.219  -0.910  1.00  0.00    -0.034 C 
HETATM   11  C8  UNL     1       0.596   0.775  -0.581  1.00  0.00     0.015 C 
HETATM   12  C16 UNL     1      -1.537   0.700  -0.866  1.00  0.00    -0.031 C 
HETATM   13  S1  UNL     1      -0.360   2.456  -0.502  1.00  0.00    -0.064 SA
HETATM   14  N2  UNL     1      -1.467   2.949   0.646  1.00  0.00    -0.223 NA
HETATM   15  C17 UNL     1      -1.466   1.858  -1.898  1.00  0.00     0.132 C 
HETATM   16  C10 UNL     1      -2.602   2.003   0.858  1.00  0.00     0.071 C 
HETATM   17  C11 UNL     1      -3.700   2.096   1.670  1.00  0.00     0.032 C 
HETATM   18  C15 UNL     1      -2.608   0.721  -0.009  1.00  0.00    -0.018 C 
HETATM   19  C12 UNL     1      -4.644   0.994   1.673  1.00  0.00    -0.001 C 
HETATM   20  C13 UNL     1      -4.610  -0.132   0.998  1.00  0.00    -0.022 C 
HETATM   21  C14 UNL     1      -3.473  -0.467   0.039  1.00  0.00     0.068 C 
ENDBRANCH   3   4
TORSDOF 1
