REMARK  4 active torsions:
REMARK  status: ('A' for Active; 'I' for Inactive)
REMARK    1  A    between atoms: C3_3  and  C4_4 
REMARK       I    between atoms: C4_4  and  N1_6 
REMARK    2  A    between atoms: C11_16  and  N4_17 
REMARK    3  A    between atoms: N4_17  and  C12_18 
REMARK    4  A    between atoms: C16_22  and  O2_23 
ROOT
HETATM    1  C1  UNL     1       7.539   0.745  -1.910  1.00  0.00     0.112 C 
HETATM    2  C2  UNL     1       6.237   1.151  -1.341  1.00  0.00    -0.101 C 
HETATM    3  C3  UNL     1       5.181   1.473  -0.858  1.00  0.00    -0.006 C 
ENDROOT
BRANCH   3   4
HETATM    4  C4  UNL     1       3.922   1.876  -0.300  1.00  0.00     0.298 C 
HETATM    5  O1  UNL     1       3.371   2.992  -0.488  1.00  0.00    -0.258 OA
HETATM    6  N1  UNL     1       3.132   1.049   0.544  1.00  0.00    -0.336 N 
HETATM    7  C5  UNL     1       1.887   1.562   1.042  1.00  0.00     0.132 C 
HETATM    8  C18 UNL     1       3.257  -0.290   1.085  1.00  0.00     0.173 C 
HETATM    9  C6  UNL     1       0.658   0.889   0.612  1.00  0.00     0.060 C 
HETATM   10  C7  UNL     1       0.763  -0.583   0.469  1.00  0.00    -0.025 A 
HETATM   11  C8  UNL     1       2.033  -0.994   0.722  1.00  0.00     0.010 A 
HETATM   12  C17 UNL     1      -0.201  -1.490   0.139  1.00  0.00     0.053 A 
HETATM   13  S1  UNL     1       1.913  -2.871   0.481  1.00  0.00    -0.072 SA
HETATM   14  C9  UNL     1       0.233  -2.814   0.092  1.00  0.00     0.114 A 
HETATM   15  N2  UNL     1      -0.607  -3.847  -0.223  1.00  0.00    -0.234 NA
HETATM   16  C10 UNL     1      -1.883  -3.670  -0.504  1.00  0.00     0.236 A 
HETATM   17  N3  UNL     1      -2.287  -2.394  -0.455  1.00  0.00    -0.224 NA
HETATM   18  C11 UNL     1      -1.532  -1.334  -0.157  1.00  0.00     0.139 A 
BRANCH  18  19
HETATM   19  N4  UNL     1      -2.222  -0.094  -0.180  1.00  0.00    -0.364 N 
HETATM   20  H9  UNL     1      -1.977   0.883  -0.015  1.00  0.00     0.162 HD
BRANCH  19  21
HETATM   21  C12 UNL     1      -3.634  -0.102  -0.511  1.00  0.00     0.135 C 
HETATM   22  C13 UNL     1      -4.277  -0.984   0.533  1.00  0.00    -0.003 C 
HETATM   23  C14 UNL     1      -5.469  -0.441   0.832  1.00  0.00    -0.026 C 
HETATM   24  C15 UNL     1      -5.738   0.806   0.055  1.00  0.00     0.061 C 
HETATM   25  C16 UNL     1      -4.336   1.195  -0.369  1.00  0.00     0.148 C 
BRANCH  25  26
HETATM   26  O2  UNL     1      -3.768   1.981   0.630  1.00  0.00    -0.393 OA
HETATM   27  H16 UNL     1      -3.569   1.443   1.432  1.00  0.00     0.210 HD
ENDBRANCH  25  26
ENDBRANCH  19  21
ENDBRANCH  18  19
ENDBRANCH   3   4
TORSDOF 4
