REMARK  6 active torsions:
REMARK  status: ('A' for Active; 'I' for Inactive)
REMARK    1  A    between atoms: C7_7  and  C8_8 
REMARK    2  A    between atoms: C8_8  and  C9_9 
REMARK    3  A    between atoms: C8_8  and  N1_11 
REMARK    4  A    between atoms: C9_9  and  O1_10 
REMARK    5  A    between atoms: N1_11  and  C10_12 
REMARK    6  A    between atoms: N4_23  and  C18_24 
ROOT
HETATM    1  C10 UNL     1       0.231  -1.382   0.102  1.00  0.00     0.139 A 
HETATM    2  N2  UNL     1      -0.504  -2.426   0.400  1.00  0.00    -0.224 NA
HETATM    3  C11 UNL     1      -0.169  -3.701   0.279  1.00  0.00     0.236 A 
HETATM    4  N3  UNL     1       1.068  -3.878  -0.207  1.00  0.00    -0.234 NA
HETATM    5  C12 UNL     1       1.855  -2.854  -0.525  1.00  0.00     0.114 A 
HETATM    6  S1  UNL     1       3.567  -2.734  -1.201  1.00  0.00    -0.072 SA
HETATM    7  C13 UNL     1       3.644  -0.933  -1.247  1.00  0.00     0.010 A 
HETATM    8  C14 UNL     1       2.354  -0.504  -0.743  1.00  0.00    -0.025 A 
HETATM    9  C15 UNL     1       1.496  -1.495  -0.395  1.00  0.00     0.053 A 
HETATM   10  C16 UNL     1       2.512   0.946  -0.819  1.00  0.00     0.060 C 
HETATM   11  C17 UNL     1       3.781   1.364  -0.050  1.00  0.00     0.130 C 
HETATM   12  N4  UNL     1       4.962   0.999  -0.771  1.00  0.00    -0.354 N 
HETATM   13  C19 UNL     1       4.741  -0.105  -1.688  1.00  0.00     0.171 C 
ENDROOT
BRANCH   1  14
HETATM   14  N1  UNL     1      -0.464  -0.206   0.395  1.00  0.00    -0.363 N 
HETATM   15  H12 UNL     1       0.088   0.625   0.195  1.00  0.00     0.162 HD
BRANCH  14  16
HETATM   16  C8  UNL     1      -1.735   0.261   0.888  1.00  0.00     0.140 C 
BRANCH  16  17
HETATM   17  C7  UNL     1      -2.856   0.183  -0.056  1.00  0.00    -0.028 A 
HETATM   18  C2  UNL     1      -3.841   1.148   0.116  1.00  0.00    -0.054 A 
HETATM   19  C1  UNL     1      -3.779   2.193   1.157  1.00  0.00     0.049 C 
HETATM   20  C3  UNL     1      -4.953   1.150  -0.743  1.00  0.00     0.007 A 
HETATM   21  C4  UNL     1      -5.142   0.248  -1.765  1.00  0.00     0.001 A 
HETATM   22  C5  UNL     1      -4.163  -0.697  -1.923  1.00  0.00     0.001 A 
HETATM   23  C6  UNL     1      -3.084  -0.692  -1.083  1.00  0.00     0.010 A 
ENDBRANCH  16  17
BRANCH  16  24
HETATM   24  C9  UNL     1      -2.060  -0.599   2.138  1.00  0.00     0.194 C 
BRANCH  24  25
HETATM   25  O1  UNL     1      -1.031  -0.406   3.053  1.00  0.00    -0.399 OA
HETATM   26  H11 UNL     1      -1.083   0.551   3.336  1.00  0.00     0.209 HD
ENDBRANCH  24  25
ENDBRANCH  16  24
ENDBRANCH  14  16
ENDBRANCH   1  14
BRANCH  12  27
HETATM   27  C18 UNL     1       6.202   1.658  -0.593  1.00  0.00     0.351 C 
HETATM   28  O2  UNL     1       7.248   1.357  -1.213  1.00  0.00    -0.284 OA
ENDBRANCH  12  27
TORSDOF 6
