REMARK  5 active torsions:
REMARK  status: ('A' for Active; 'I' for Inactive)
REMARK    1  A    between atoms: C2_2  and  C3_3 
REMARK       I    between atoms: C3_3  and  N1_5 
REMARK    2  A    between atoms: C10_15  and  N4_16 
REMARK    3  A    between atoms: N4_16  and  C11_17 
REMARK    4  A    between atoms: C11_17  and  O2_19 
REMARK    5  A    between atoms: O2_19  and  C13_20 
ROOT
HETATM    1  C3  UNL     1       4.911   1.595  -0.976  1.00  0.00     0.242 C 
HETATM    2  O1  UNL     1       4.761   2.776  -1.362  1.00  0.00    -0.268 OA
HETATM    3  N1  UNL     1       3.993   0.527  -1.130  1.00  0.00    -0.344 N 
HETATM    4  C4  UNL     1       2.704   0.424  -1.719  1.00  0.00     0.131 C 
HETATM    5  C5  UNL     1       1.583   0.282  -0.708  1.00  0.00     0.060 C 
HETATM    6  C6  UNL     1       1.823  -0.824   0.241  1.00  0.00    -0.025 A 
HETATM    7  C7  UNL     1       3.203  -1.325   0.203  1.00  0.00     0.010 A 
HETATM    8  S1  UNL     1       3.203  -2.645   1.373  1.00  0.00    -0.072 SA
HETATM    9  C8  UNL     1       1.501  -2.515   1.856  1.00  0.00     0.114 A 
HETATM   10  N2  UNL     1       0.871  -3.251   2.734  1.00  0.00    -0.234 NA
HETATM   11  C9  UNL     1      -0.424  -3.013   2.986  1.00  0.00     0.236 A 
HETATM   12  N3  UNL     1      -0.942  -2.011   2.284  1.00  0.00    -0.224 NA
HETATM   13  C10 UNL     1      -0.316  -1.251   1.385  1.00  0.00     0.140 A 
HETATM   14  C19 UNL     1       1.006  -1.468   1.102  1.00  0.00     0.053 A 
HETATM   15  C20 UNL     1       4.302  -0.793  -0.630  1.00  0.00     0.172 C 
ENDROOT
BRANCH  13  16
HETATM   16  N4  UNL     1      -1.111  -0.221   0.812  1.00  0.00    -0.348 N 
HETATM   17  H9  UNL     1      -0.901   0.537   0.137  1.00  0.00     0.163 HD
BRANCH  16  18
HETATM   18  C11 UNL     1      -2.507  -0.061   1.157  1.00  0.00     0.224 C 
HETATM   19  C12 UNL     1      -2.653   0.242   2.639  1.00  0.00     0.063 C 
BRANCH  18  20
HETATM   20  O2  UNL     1      -3.233   0.804   0.354  1.00  0.00    -0.326 OA
BRANCH  20  21
HETATM   21  C13 UNL     1      -4.302   0.526  -0.456  1.00  0.00     0.071 A 
HETATM   22  C14 UNL     1      -4.747   1.683  -1.099  1.00  0.00     0.037 A 
HETATM   23  C15 UNL     1      -5.824   1.668  -1.979  1.00  0.00     0.003 A 
HETATM   24  C16 UNL     1      -6.466   0.467  -2.219  1.00  0.00     0.000 A 
HETATM   25  C17 UNL     1      -6.036  -0.697  -1.587  1.00  0.00     0.003 A 
HETATM   26  C18 UNL     1      -4.968  -0.648  -0.722  1.00  0.00     0.037 A 
ENDBRANCH  20  21
ENDBRANCH  18  20
ENDBRANCH  16  18
ENDBRANCH  13  16
BRANCH   1  27
HETATM   27  C2  UNL     1       6.175   1.359  -0.308  1.00  0.00     0.064 C 
HETATM   28  C1  UNL     1       6.872   2.487  -0.276  1.00  0.00     0.017 C 
ENDBRANCH   1  27
TORSDOF 5
