REMARK  6 active torsions:
REMARK  status: ('A' for Active; 'I' for Inactive)
REMARK    1  A    between atoms: C2_2  and  C3_4 
REMARK    2  A    between atoms: C4_6  and  C5_7 
REMARK    3  A    between atoms: C5_7  and  N1_8 
REMARK    4  A    between atoms: N1_8  and  C6_9 
REMARK    5  A    between atoms: C13_19  and  C14_20 
REMARK    6  A    between atoms: C14_20  and  O2_22 
ROOT
HETATM    1  C6  UNL     1       1.255  -0.503  -1.373  1.00  0.00     0.156 A 
HETATM    2  N2  UNL     1       1.625  -0.522  -2.654  1.00  0.00    -0.222 NA
HETATM    3  C7  UNL     1       0.777  -0.528  -3.693  1.00  0.00     0.238 A 
HETATM    4  N3  UNL     1      -0.570  -0.514  -3.468  1.00  0.00    -0.215 NA
HETATM    5  C8  UNL     1      -1.038  -0.495  -2.186  1.00  0.00     0.202 A 
HETATM    6  C9  UNL     1      -0.101  -0.490  -1.144  1.00  0.00     0.128 A 
HETATM    7  N4  UNL     1      -0.392  -0.482   0.248  1.00  0.00    -0.379 N 
HETATM    8  C10 UNL     1      -1.508   0.109   0.955  1.00  0.00     0.161 C 
HETATM    9  C11 UNL     1      -2.790   0.018   0.256  1.00  0.00    -0.006 A 
HETATM   10  C12 UNL     1      -3.790   0.255   1.206  1.00  0.00     0.029 A 
HETATM   11  C13 UNL     1      -5.125   0.246   0.894  1.00  0.00     0.038 A 
HETATM   12  C15 UNL     1      -5.535   0.000  -0.383  1.00  0.00     0.021 A 
HETATM   13  C16 UNL     1      -4.592  -0.240  -1.361  1.00  0.00     0.039 A 
HETATM   14  C17 UNL     1      -3.261  -0.225  -1.019  1.00  0.00     0.086 A 
HETATM   15  O3  UNL     1      -2.436  -0.483  -2.107  1.00  0.00    -0.289 OA
HETATM   16  H8  UNL     1       0.355  -1.002   0.774  1.00  0.00     0.160 HD
ENDROOT
BRANCH   1  17
HETATM   17  N1  UNL     1       2.239  -0.484  -0.349  1.00  0.00    -0.369 N 
HETATM   18  H6  UNL     1       2.189  -0.450   0.684  1.00  0.00     0.161 HD
BRANCH  17  19
HETATM   19  C5  UNL     1       3.618  -0.507  -0.760  1.00  0.00     0.150 C 
BRANCH  19  20
HETATM   20  C4  UNL     1       4.594  -0.487   0.349  1.00  0.00     0.019 C 
HETATM   21  C3  UNL     1       5.542   0.382   0.636  1.00  0.00     0.069 C 
HETATM   22 CL1  UNL     1       5.630   1.720  -0.509  1.00  0.00    -0.081 Cl
BRANCH  21  23
HETATM   23  C2  UNL     1       6.461   0.288   1.785  1.00  0.00     0.128 C 
HETATM   24  C1  UNL     1       7.355   1.249   1.923  1.00  0.00     0.058 C 
HETATM   25  F1  UNL     1       6.259  -0.808   2.573  1.00  0.00    -0.205 F 
ENDBRANCH  21  23
ENDBRANCH  19  20
ENDBRANCH  17  19
ENDBRANCH   1  17
BRANCH  11  26
HETATM   26  C14 UNL     1      -6.128   0.501   1.930  1.00  0.00     0.176 C 
HETATM   27  O1  UNL     1      -5.817   0.734   3.126  1.00  0.00    -0.646 OA
BRANCH  26  28
HETATM   28  O2  UNL     1      -7.478   0.495   1.630  1.00  0.00    -0.773 OA
HETATM   29  H12 UNL     1      -8.134   1.070   2.159  1.00  0.00     0.167 HD
ENDBRANCH  26  28
ENDBRANCH  11  26
TORSDOF 6
