REMARK  9 active torsions:
REMARK  status: ('A' for Active; 'I' for Inactive)
REMARK    1  A    between atoms: N1_1  and  C1_2 
REMARK    2  A    between atoms: C1_2  and  C2_3 
REMARK    3  A    between atoms: C2_3  and  O1_4 
REMARK    4  A    between atoms: C3_5  and  C4_6 
REMARK    5  A    between atoms: C7_11  and  N4_12 
REMARK    6  A    between atoms: N4_12  and  C8_13 
REMARK    7  A    between atoms: C8_13  and  C9_14 
REMARK    8  A    between atoms: C8_13  and  C10_16 
REMARK    9  A    between atoms: C9_14  and  O2_15 
ROOT
HETATM    1  C4  UNL     1      -2.034   0.926  -0.841  1.00  0.00     0.029 A 
HETATM    2  C5  UNL     1      -2.918   1.885  -1.325  1.00  0.00     0.133 A 
HETATM    3  N2  UNL     1      -2.585   3.124  -1.736  1.00  0.00    -0.253 NA
HETATM    4  C6  UNL     1      -1.257   3.440  -1.661  1.00  0.00     0.234 A 
HETATM    5  N3  UNL     1      -0.348   2.530  -1.191  1.00  0.00    -0.224 NA
HETATM    6  C7  UNL     1      -0.710   1.298  -0.787  1.00  0.00     0.137 A 
ENDROOT
BRANCH   6   7
HETATM    7  N4  UNL     1       0.257   0.375  -0.306  1.00  0.00    -0.363 N 
HETATM    8  H9  UNL     1      -0.016  -0.581   0.010  1.00  0.00     0.162 HD
BRANCH   7   9
HETATM    9  C8  UNL     1       1.667   0.738  -0.238  1.00  0.00     0.140 C 
BRANCH   9  10
HETATM   10  C9  UNL     1       1.961   1.879   0.675  1.00  0.00     0.194 C 
BRANCH  10  11
HETATM   11  O2  UNL     1       3.348   2.145   0.678  1.00  0.00    -0.399 OA
HETATM   12  H13 UNL     1       3.599   2.668  -0.122  1.00  0.00     0.209 HD
ENDBRANCH  10  11
ENDBRANCH   9  10
BRANCH   9  13
HETATM   13  C10 UNL     1       2.540  -0.401   0.090  1.00  0.00    -0.034 A 
HETATM   14  C11 UNL     1       3.719  -0.603  -0.642  1.00  0.00     0.009 A 
HETATM   15  C12 UNL     1       4.579  -1.659  -0.382  1.00  0.00     0.001 A 
HETATM   16  C13 UNL     1       4.315  -2.560   0.610  1.00  0.00     0.000 A 
HETATM   17  C14 UNL     1       3.155  -2.378   1.346  1.00  0.00     0.001 A 
HETATM   18  C15 UNL     1       2.301  -1.326   1.085  1.00  0.00     0.009 A 
ENDBRANCH   9  13
ENDBRANCH   7   9
ENDBRANCH   6   7
BRANCH   1  19
HETATM   19  C3  UNL     1      -2.527  -0.377  -0.416  1.00  0.00     0.050 C 
HETATM   20  C2  UNL     1      -3.659  -0.381   0.264  1.00  0.00     0.072 C 
BRANCH  20  21
HETATM   21  C1  UNL     1      -4.286  -1.646   0.767  1.00  0.00     0.330 C 
BRANCH  21  22
HETATM   22  N1  UNL     1      -3.546  -2.823   0.421  1.00  0.00     0.084 N 
HETATM   23  H1  UNL     1      -2.622  -2.835   0.864  1.00  0.00     0.313 HD
HETATM   24  H2  UNL     1      -3.472  -2.971  -0.587  1.00  0.00     0.313 HD
ENDBRANCH  21  22
ENDBRANCH  20  21
BRANCH  20  25
HETATM   25  O1  UNL     1      -4.507   0.633   0.676  1.00  0.00    -0.363 OA
HETATM   26  H5  UNL     1      -4.340   1.233   1.472  1.00  0.00     0.217 HD
ENDBRANCH  20  25
ENDBRANCH   1  19
TORSDOF 9
