REMARK  7 active torsions:
REMARK  status: ('A' for Active; 'I' for Inactive)
REMARK    1  A    between atoms: C3_3  and  C4_4 
REMARK       I    between atoms: C4_4  and  N1_6 
REMARK    2  A    between atoms: C11_15  and  N4_16 
REMARK    3  A    between atoms: N4_16  and  C12_17 
REMARK    4  A    between atoms: C12_17  and  C13_18 
REMARK    5  A    between atoms: C12_17  and  C14_20 
REMARK    6  A    between atoms: C13_18  and  O2_19 
REMARK    7  A    between atoms: C20_26  and  S1_27 
ROOT
HETATM    1  C1  UNL     1       7.232   2.559   1.712  1.00  0.00     0.112 C 
HETATM    2  C2  UNL     1       6.442   1.546   0.974  1.00  0.00    -0.101 C 
HETATM    3  C3  UNL     1       5.821   0.722   0.370  1.00  0.00    -0.006 C 
ENDROOT
BRANCH   3   4
HETATM    4  C4  UNL     1       5.073  -0.265  -0.330  1.00  0.00     0.298 C 
HETATM    5  O1  UNL     1       5.461  -1.458  -0.546  1.00  0.00    -0.258 OA
HETATM    6  N1  UNL     1       3.804  -0.122  -0.900  1.00  0.00    -0.336 N 
HETATM    7  C5  UNL     1       3.259  -1.300  -1.566  1.00  0.00     0.132 C 
HETATM    8  C21 UNL     1       2.904   1.013  -0.952  1.00  0.00     0.172 C 
HETATM    9  C6  UNL     1       2.055  -1.699  -0.715  1.00  0.00     0.060 C 
HETATM   10  C7  UNL     1       1.016  -0.629  -0.953  1.00  0.00    -0.027 C 
HETATM   11  C8  UNL     1      -0.333  -1.147  -0.975  1.00  0.00     0.035 A 
HETATM   12  C20 UNL     1       1.485   0.601  -1.054  1.00  0.00     0.001 C 
HETATM   13  C9  UNL     1      -0.489  -2.092  -1.999  1.00  0.00     0.134 A 
HETATM   14  C11 UNL     1      -1.440  -0.917  -0.200  1.00  0.00     0.137 A 
HETATM   15  N2  UNL     1      -1.668  -2.746  -2.221  1.00  0.00    -0.253 NA
HETATM   16  C10 UNL     1      -2.713  -2.470  -1.425  1.00  0.00     0.234 A 
HETATM   17  N3  UNL     1      -2.582  -1.570  -0.439  1.00  0.00    -0.224 NA
BRANCH  14  18
HETATM   18  N4  UNL     1      -1.245   0.003   0.855  1.00  0.00    -0.363 N 
HETATM   19  H10 UNL     1      -0.376   0.497   1.102  1.00  0.00     0.162 HD
BRANCH  18  20
HETATM   20  C12 UNL     1      -2.405   0.261   1.697  1.00  0.00     0.140 C 
BRANCH  20  21
HETATM   21  C13 UNL     1      -2.882  -0.929   2.464  1.00  0.00     0.194 C 
BRANCH  21  22
HETATM   22  O2  UNL     1      -3.980  -0.509   3.251  1.00  0.00    -0.399 OA
HETATM   23  H14 UNL     1      -3.723  -0.331   4.188  1.00  0.00     0.209 HD
ENDBRANCH  21  22
ENDBRANCH  20  21
BRANCH  20  24
HETATM   24  C14 UNL     1      -3.532   0.812   0.886  1.00  0.00    -0.034 A 
HETATM   25  C15 UNL     1      -3.182   1.958   0.161  1.00  0.00     0.009 A 
HETATM   26  C16 UNL     1      -4.041   2.644  -0.672  1.00  0.00     0.001 A 
HETATM   27  C17 UNL     1      -5.337   2.194  -0.818  1.00  0.00     0.000 A 
HETATM   28  C18 UNL     1      -5.694   1.067  -0.110  1.00  0.00     0.001 A 
HETATM   29  C19 UNL     1      -4.831   0.390   0.718  1.00  0.00     0.009 A 
ENDBRANCH  20  24
ENDBRANCH  18  20
ENDBRANCH  14  18
BRANCH  12  30
HETATM   30  S1  UNL     1       0.278   1.881  -1.342  1.00  0.00    -0.145 SA
HETATM   31  H20 UNL     1       0.863   2.890  -2.122  1.00  0.00     0.107 HD
ENDBRANCH  12  30
ENDBRANCH   3   4
TORSDOF 7
