REMARK  6 active torsions:
REMARK  status: ('A' for Active; 'I' for Inactive)
REMARK    1  A    between atoms: C3_3  and  C4_4 
REMARK       I    between atoms: C4_4  and  N1_6 
REMARK    2  A    between atoms: C9_11  and  N2_12 
REMARK    3  A    between atoms: N2_12  and  C10_13 
REMARK    4  A    between atoms: C10_13  and  C11_14 
REMARK    5  A    between atoms: C10_13  and  C12_16 
REMARK    6  A    between atoms: C11_14  and  O2_15 
ROOT
HETATM    1  C1  UNL     1       7.763  -2.588   0.731  1.00  0.00     0.112 C 
HETATM    2  C2  UNL     1       6.980  -1.425   0.314  1.00  0.00    -0.101 C 
HETATM    3  C3  UNL     1       6.324  -0.470  -0.021  1.00  0.00    -0.006 C 
ENDROOT
BRANCH   3   4
HETATM    4  C4  UNL     1       5.551   0.674  -0.427  1.00  0.00     0.298 C 
HETATM    5  O1  UNL     1       6.013   1.618  -1.134  1.00  0.00    -0.258 OA
HETATM    6  N1  UNL     1       4.197   0.819  -0.054  1.00  0.00    -0.336 N 
HETATM    7  C5  UNL     1       3.556   2.026  -0.541  1.00  0.00     0.132 C 
HETATM    8  C21 UNL     1       3.454  -0.135   0.755  1.00  0.00     0.173 C 
HETATM    9  C6  UNL     1       2.120   2.141  -0.151  1.00  0.00     0.059 C 
HETATM   10  C7  UNL     1       1.445   0.883   0.175  1.00  0.00    -0.038 C 
HETATM   11  C8  UNL     1       0.147   1.152   0.555  1.00  0.00     0.058 C 
HETATM   12  C20 UNL     1       2.156  -0.305   0.063  1.00  0.00     0.008 C 
HETATM   13  C9  UNL     1      -0.928   0.784  -0.228  1.00  0.00     0.126 C 
HETATM   14  N3  UNL     1      -0.699   0.627  -1.544  1.00  0.00    -0.225 NA
HETATM   15  C18 UNL     1      -0.278  -0.547  -2.069  1.00  0.00     0.235 C 
HETATM   16  N4  UNL     1      -0.043  -1.886  -2.184  1.00  0.00    -0.247 NA
HETATM   17  C19 UNL     1       0.349  -2.471  -1.014  1.00  0.00     0.167 C 
HETATM   18  S1  UNL     1       1.881  -1.835  -0.655  1.00  0.00    -0.085 SA
BRANCH  13  19
HETATM   19  N2  UNL     1      -2.229   0.577   0.309  1.00  0.00    -0.364 N 
HETATM   20  H9  UNL     1      -2.340   0.719   1.358  1.00  0.00     0.162 HD
BRANCH  19  21
HETATM   21  C10 UNL     1      -3.364   0.187  -0.533  1.00  0.00     0.140 C 
BRANCH  21  22
HETATM   22  C11 UNL     1      -3.677   1.171  -1.606  1.00  0.00     0.194 C 
BRANCH  22  23
HETATM   23  O2  UNL     1      -4.747   0.698  -2.363  1.00  0.00    -0.399 OA
HETATM   24  H13 UNL     1      -4.446   0.171  -3.169  1.00  0.00     0.209 HD
ENDBRANCH  22  23
ENDBRANCH  21  22
BRANCH  21  25
HETATM   25  C12 UNL     1      -4.523  -0.009   0.334  1.00  0.00    -0.034 A 
HETATM   26  C13 UNL     1      -5.829   0.419   0.322  1.00  0.00     0.009 A 
HETATM   27  C14 UNL     1      -6.736   0.060   1.293  1.00  0.00     0.001 A 
HETATM   28  C15 UNL     1      -6.386  -0.757   2.345  1.00  0.00     0.000 A 
HETATM   29  C16 UNL     1      -5.091  -1.210   2.399  1.00  0.00     0.001 A 
HETATM   30  C17 UNL     1      -4.181  -0.838   1.408  1.00  0.00     0.009 A 
ENDBRANCH  21  25
ENDBRANCH  19  21
ENDBRANCH  13  19
ENDBRANCH   3   4
TORSDOF 6
