REMARK  6 active torsions:
REMARK  status: ('A' for Active; 'I' for Inactive)
REMARK    1  A    between atoms: N1_1  and  C1_2 
REMARK    2  A    between atoms: C5_7  and  C6_8 
REMARK    3  A    between atoms: C6_8  and  O1_9 
REMARK       I    between atoms: N3_19  and  C16_20 
REMARK    4  A    between atoms: C16_20  and  C17_22 
REMARK    5  A    between atoms: C17_22  and  C18_23 
REMARK    6  A    between atoms: C18_23  and  S1_24 
ROOT
HETATM    1  C1  UNL     1      -3.028  -2.387   0.863  1.00  0.00     0.369 A 
HETATM    2  N2  UNL     1      -2.267  -3.408   1.504  1.00  0.00    -0.262 NA
HETATM    3  C2  UNL     1      -1.033  -3.148   1.389  1.00  0.00     0.120 A 
HETATM    4  C3  UNL     1      -0.775  -1.923   0.657  1.00  0.00    -0.032 A 
HETATM    5  C4  UNL     1      -1.983  -1.465   0.338  1.00  0.00    -0.008 A 
HETATM    6  C5  UNL     1      -2.351  -0.251  -0.436  1.00  0.00     0.076 C 
HETATM    7  C7  UNL     1      -1.925   1.046   0.123  1.00  0.00    -0.041 A 
HETATM    8  C8  UNL     1      -2.799   1.337   1.182  1.00  0.00     0.008 A 
HETATM    9  C9  UNL     1      -2.707   2.521   1.927  1.00  0.00     0.001 A 
HETATM   10  C10 UNL     1      -1.733   3.452   1.634  1.00  0.00     0.001 A 
HETATM   11  C11 UNL     1      -0.875   3.163   0.593  1.00  0.00     0.007 A 
HETATM   12  C12 UNL     1      -0.950   2.019  -0.140  1.00  0.00    -0.051 A 
HETATM   13  C13 UNL     1      -0.104   1.554  -1.239  1.00  0.00     0.041 C 
HETATM   14  C14 UNL     1       1.399   1.793  -0.935  1.00  0.00     0.025 C 
HETATM   15  C15 UNL     1       2.187   0.777  -1.756  1.00  0.00     0.126 C 
HETATM   16  N3  UNL     1       2.180  -0.527  -1.081  1.00  0.00    -0.352 N 
HETATM   17  C16 UNL     1       3.393  -0.845  -0.341  1.00  0.00     0.220 C 
HETATM   18  O2  UNL     1       3.549  -1.933   0.301  1.00  0.00    -0.273 OA
HETATM   19  C19 UNL     1       1.145  -1.583  -0.967  1.00  0.00     0.130 C 
HETATM   20  C20 UNL     1       0.490  -1.291   0.354  1.00  0.00     0.060 C 
ENDROOT
BRANCH  17  21
HETATM   21  C17 UNL     1       4.549   0.091  -0.283  1.00  0.00     0.113 C 
BRANCH  21  22
HETATM   22  C18 UNL     1       5.659  -0.432   0.565  1.00  0.00     0.080 C 
BRANCH  22  23
HETATM   23  S1  UNL     1       7.070   0.690   0.647  1.00  0.00    -0.182 SA
HETATM   24  H23 UNL     1       6.741   1.951   1.148  1.00  0.00     0.101 HD
ENDBRANCH  22  23
ENDBRANCH  21  22
ENDBRANCH  17  21
BRANCH   1  25
HETATM   25  N1  UNL     1      -3.916  -2.895  -0.158  1.00  0.00     0.107 N 
HETATM   26  H1  UNL     1      -4.885  -2.818   0.194  1.00  0.00     0.316 HD
HETATM   27  H2  UNL     1      -3.619  -3.877  -0.357  1.00  0.00     0.316 HD
ENDBRANCH   1  25
BRANCH   6  28
HETATM   28  C6  UNL     1      -3.843  -0.191  -0.775  1.00  0.00     0.178 C 
BRANCH  28  29
HETATM   29  O1  UNL     1      -4.046   0.997  -1.492  1.00  0.00    -0.400 OA
HETATM   30  H8  UNL     1      -4.850   0.867  -2.065  1.00  0.00     0.209 HD
ENDBRANCH  28  29
ENDBRANCH   6  28
TORSDOF 6
