REMARK  3 active torsions:
REMARK  status: ('A' for Active; 'I' for Inactive)
REMARK    1  A    between atoms: C2_2  and  S1_3 
REMARK    2  A    between atoms: S1_3  and  N1_6 
REMARK    3  A    between atoms: C11_19  and  C12_20 
ROOT
HETATM    1  N1  UNL     1      -3.713   0.885   0.752  1.00  0.00    -0.202 NA
HETATM    2  C3  UNL     1      -3.281   0.386   2.044  1.00  0.00     0.112 C 
HETATM    3  C4  UNL     1      -1.943   0.898   2.468  1.00  0.00     0.055 C 
HETATM    4  C5  UNL     1      -1.016   1.007   1.347  1.00  0.00    -0.036 C 
HETATM    5  C6  UNL     1      -1.416   1.004   0.027  1.00  0.00     0.037 C 
HETATM    6  C7  UNL     1      -2.764   0.496  -0.295  1.00  0.00     0.157 C 
HETATM    7  S2  UNL     1      -0.417   1.586  -1.432  1.00  0.00     0.067 SA
HETATM    8  N2  UNL     1       0.376   3.055  -1.400  1.00  0.00    -0.190 NA
HETATM    9  C8  UNL     1       1.279   3.486  -0.318  1.00  0.00     0.245 C 
HETATM   10  N3  UNL     1       1.597   3.025   0.900  1.00  0.00    -0.224 NA
HETATM   11  C9  UNL     1       1.404   1.614   1.284  1.00  0.00     0.126 C 
HETATM   12  C10 UNL     1       0.348   1.118   1.988  1.00  0.00     0.058 C 
HETATM   13  N4  UNL     1       2.527   0.886   0.729  1.00  0.00    -0.364 N 
HETATM   14  C11 UNL     1       2.295  -0.392   0.113  1.00  0.00     0.141 C 
HETATM   15  C18 UNL     1       1.062  -0.465  -0.711  1.00  0.00     0.216 C 
HETATM   16  O3  UNL     1       0.889   0.408  -1.732  1.00  0.00    -0.305 OA
HETATM   17  H12 UNL     1       3.503   1.244   0.762  1.00  0.00     0.162 HD
ENDROOT
BRANCH  14  18
HETATM   18  C12 UNL     1       3.449  -0.768  -0.731  1.00  0.00    -0.033 A 
HETATM   19  C13 UNL     1       4.093   0.069  -1.603  1.00  0.00     0.009 A 
HETATM   20  C14 UNL     1       5.168  -0.302  -2.381  1.00  0.00     0.001 A 
HETATM   21  C15 UNL     1       5.627  -1.588  -2.279  1.00  0.00     0.000 A 
HETATM   22  C16 UNL     1       5.046  -2.502  -1.431  1.00  0.00     0.001 A 
HETATM   23  C17 UNL     1       3.973  -2.057  -0.683  1.00  0.00     0.009 A 
ENDBRANCH  14  18
BRANCH   1  24
HETATM   24  S1  UNL     1      -5.185   0.014   0.388  1.00  0.00     0.233 S 
HETATM   25  O1  UNL     1      -6.135   0.314   1.529  1.00  0.00    -0.207 OA
HETATM   26  O2  UNL     1      -5.764   0.558  -0.886  1.00  0.00    -0.207 OA
BRANCH  24  27
HETATM   27  C2  UNL     1      -4.892  -1.711   0.277  1.00  0.00     0.115 C 
HETATM   28  C1  UNL     1      -4.933  -2.443  -0.830  1.00  0.00     0.024 C 
ENDBRANCH  24  27
ENDBRANCH   1  24
TORSDOF 3
