REMARK  5 active torsions:
REMARK  status: ('A' for Active; 'I' for Inactive)
REMARK    1  A    between atoms: C2_2  and  S1_3 
REMARK    2  A    between atoms: S1_3  and  N1_6 
REMARK    3  A    between atoms: N4_16  and  C10_17 
REMARK    4  A    between atoms: C10_17  and  O3_18 
REMARK    5  A    between atoms: C10_17  and  C11_19 
ROOT
HETATM    1  N1  UNL     1       2.897   0.253   0.834  1.00  0.00    -0.208 NA
HETATM    2  C3  UNL     1       2.437  -1.041   0.360  1.00  0.00     0.116 C 
HETATM    3  C4  UNL     1       0.916  -0.914   0.282  1.00  0.00     0.028 C 
HETATM    4  C5  UNL     1       0.559  -0.319   1.648  1.00  0.00     0.016 C 
HETATM    5  C6  UNL     1       0.583   0.043  -0.803  1.00  0.00    -0.028 C 
HETATM    6  C7  UNL     1      -0.526   0.387  -1.373  1.00  0.00     0.095 A 
HETATM    7  C8  UNL     1      -0.444   1.398  -2.414  1.00  0.00     0.124 A 
HETATM    8  N2  UNL     1      -1.461   1.777  -3.109  1.00  0.00    -0.231 NA
HETATM    9  C9  UNL     1      -2.768   1.221  -2.897  1.00  0.00     0.256 A 
HETATM   10  N3  UNL     1      -2.879   0.326  -1.981  1.00  0.00    -0.162 NA
HETATM   11  N4  UNL     1      -1.834  -0.135  -1.194  1.00  0.00    -0.232 N 
HETATM   12  S2  UNL     1       1.255   1.949  -2.383  1.00  0.00    -0.097 SA
HETATM   13  C17 UNL     1       1.847   0.597  -1.341  1.00  0.00     0.100 C 
HETATM   14  C18 UNL     1       2.751   1.152  -0.298  1.00  0.00     0.127 C 
ENDROOT
BRANCH  11  15
HETATM   15  C10 UNL     1      -2.297  -1.131  -0.303  1.00  0.00     0.277 C 
BRANCH  15  16
HETATM   16  O3  UNL     1      -2.851  -2.188  -1.065  1.00  0.00    -0.371 OA
HETATM   17  H12 UNL     1      -2.541  -3.065  -0.795  1.00  0.00     0.212 HD
ENDBRANCH  15  16
BRANCH  15  18
HETATM   18  C11 UNL     1      -3.518  -0.574   0.407  1.00  0.00    -0.008 A 
HETATM   19  C12 UNL     1      -4.690  -1.276   0.605  1.00  0.00     0.011 A 
HETATM   20  C13 UNL     1      -5.737  -0.666   1.266  1.00  0.00     0.001 A 
HETATM   21  C14 UNL     1      -5.616   0.625   1.723  1.00  0.00     0.000 A 
HETATM   22  C15 UNL     1      -4.432   1.294   1.507  1.00  0.00     0.001 A 
HETATM   23  C16 UNL     1      -3.362   0.737   0.858  1.00  0.00     0.011 A 
ENDBRANCH  15  18
ENDBRANCH  11  15
BRANCH   1  24
HETATM   24  S1  UNL     1       4.520   0.183   1.400  1.00  0.00     0.217 S 
HETATM   25  O1  UNL     1       4.883   1.517   1.988  1.00  0.00    -0.211 OA
HETATM   26  O2  UNL     1       4.591  -0.804   2.531  1.00  0.00    -0.211 OA
BRANCH  24  27
HETATM   27  C2  UNL     1       5.625  -0.284   0.131  1.00  0.00     0.144 C 
HETATM   28  C1  UNL     1       6.281   0.709  -0.458  1.00  0.00     0.024 C 
ENDBRANCH  24  27
ENDBRANCH   1  24
TORSDOF 5
