REMARK  9 active torsions:
REMARK  status: ('A' for Active; 'I' for Inactive)
REMARK    1  A    between atoms: C2_2  and  C3_3 
REMARK    2  A    between atoms: C3_3  and  C4_4 
REMARK    3  A    between atoms: C3_3  and  N1_6 
REMARK    4  A    between atoms: C4_4  and  O1_5 
REMARK    5  A    between atoms: N1_6  and  C5_7 
REMARK    6  A    between atoms: N4_18  and  B1_19 
REMARK    7  A    between atoms: B1_19  and  O2_20 
REMARK    8  A    between atoms: B1_19  and  C13_21 
REMARK    9  A    between atoms: C13_21  and  C14_22 
ROOT
HETATM    1  C5  UNL     1      -1.509  -0.925   0.667  1.00  0.00     0.139 A 
HETATM    2  N2  UNL     1      -2.513  -1.607   1.173  1.00  0.00    -0.224 NA
HETATM    3  C6  UNL     1      -2.494  -2.806   1.740  1.00  0.00     0.236 A 
HETATM    4  N3  UNL     1      -1.285  -3.379   1.794  1.00  0.00    -0.234 NA
HETATM    5  C7  UNL     1      -0.247  -2.681   1.273  1.00  0.00     0.114 A 
HETATM    6  S1  UNL     1       1.546  -3.214   1.220  1.00  0.00    -0.072 SA
HETATM    7  C8  UNL     1       2.097  -1.788   0.442  1.00  0.00     0.004 A 
HETATM    8  C9  UNL     1       0.990  -0.946   0.228  1.00  0.00    -0.026 A 
HETATM    9  C10 UNL     1      -0.225  -1.385   0.651  1.00  0.00     0.053 A 
HETATM   10  C11 UNL     1       1.202   0.338  -0.486  1.00  0.00     0.054 C 
HETATM   11  C12 UNL     1       2.574   0.315  -1.108  1.00  0.00     0.081 C 
HETATM   12  N4  UNL     1       3.641  -0.092  -0.249  1.00  0.00    -0.325 NA
HETATM   13  C15 UNL     1       3.504  -1.511   0.097  1.00  0.00     0.123 C 
ENDROOT
BRANCH   1  14
HETATM   14  N1  UNL     1      -1.817   0.372   0.187  1.00  0.00    -0.367 N 
HETATM   15  H10 UNL     1      -1.197   1.115  -0.185  1.00  0.00     0.161 HD
BRANCH  14  16
HETATM   16  C3  UNL     1      -3.164   0.892   0.170  1.00  0.00     0.106 C 
BRANCH  16  17
HETATM   17  C2  UNL     1      -3.236   2.325  -0.278  1.00  0.00     0.023 C 
HETATM   18  C1  UNL     1      -4.537   3.003  -0.088  1.00  0.00     0.007 C 
ENDBRANCH  16  17
BRANCH  16  19
HETATM   19  C4  UNL     1      -4.141   0.060  -0.587  1.00  0.00     0.189 C 
BRANCH  19  20
HETATM   20  O1  UNL     1      -5.395   0.655  -0.521  1.00  0.00    -0.399 OA
HETATM   21  H9  UNL     1      -5.837   0.315   0.297  1.00  0.00     0.209 HD
ENDBRANCH  19  20
ENDBRANCH  16  19
ENDBRANCH  14  16
ENDBRANCH   1  14
BRANCH  12  22
HETATM   22  B1  UNL     1       4.997   0.058  -0.904  1.00  0.00     0.451 B 
BRANCH  22  23
HETATM   23  O2  UNL     1       5.441  -1.001  -1.823  1.00  0.00    -0.445 OA
HETATM   24  H16 UNL     1       5.919  -1.734  -1.349  1.00  0.00     0.184 HD
ENDBRANCH  22  23
BRANCH  22  25
HETATM   25  C13 UNL     1       6.126   0.792  -0.103  1.00  0.00     0.034 C 
BRANCH  25  26
HETATM   26  C14 UNL     1       6.295   0.809   1.208  1.00  0.00     0.210 C 
HETATM   27  O3  UNL     1       6.447   0.415   2.384  1.00  0.00    -0.285 OA
ENDBRANCH  25  26
ENDBRANCH  22  25
ENDBRANCH  12  22
TORSDOF 9
