REMARK  8 active torsions:
REMARK  status: ('A' for Active; 'I' for Inactive)
REMARK    1  A    between atoms: C1_3  and  N1_5 
REMARK    2  A    between atoms: C4_9  and  S2_10 
REMARK    3  A    between atoms: S2_10  and  C5_11 
REMARK    4  A    between atoms: C7_15  and  N5_16 
REMARK    5  A    between atoms: N5_16  and  C8_17 
REMARK    6  A    between atoms: C8_17  and  C9_18 
REMARK    7  A    between atoms: C8_17  and  C10_20 
REMARK    8  A    between atoms: C9_18  and  O3_19 
ROOT
HETATM    1  C5  UNL     1      -0.990  -1.319  -0.845  1.00  0.00     0.030 C 
HETATM    2  N3  UNL     1      -0.823  -2.386  -1.612  1.00  0.00    -0.252 NA
HETATM    3  C6  UNL     1       0.265  -3.106  -1.805  1.00  0.00     0.233 C 
HETATM    4  N4  UNL     1       1.551  -3.069  -1.347  1.00  0.00    -0.242 NA
HETATM    5  C7  UNL     1       1.877  -2.095  -0.487  1.00  0.00     0.052 C 
HETATM    6  B1  UNL     1       0.953  -0.558  -0.692  1.00  0.00     0.307 B 
ENDROOT
BRANCH   1   7
HETATM    7  S2  UNL     1      -1.215   0.110   0.184  1.00  0.00    -0.098 SA
BRANCH   7   8
HETATM    8  C4  UNL     1      -2.953   0.321   0.653  1.00  0.00     0.191 C 
HETATM    9  N2  UNL     1      -3.047   1.461   1.471  1.00  0.00    -0.286 NA
HETATM   10  C3  UNL     1      -3.691   2.526   1.199  1.00  0.00     0.104 C 
HETATM   11  C2  UNL     1      -4.453   2.668  -0.099  1.00  0.00     0.170 C 
HETATM   12  N1  UNL     1      -4.946   1.338  -0.389  1.00  0.00    -0.363 N 
HETATM   13  C16 UNL     1      -3.845   0.460  -0.558  1.00  0.00     0.162 C 
BRANCH  12  14
HETATM   14  C1  UNL     1      -6.265   0.894  -0.504  1.00  0.00     0.149 A 
HETATM   15  S1  UNL     1      -6.552  -0.681  -0.843  1.00  0.00     0.168 S 
HETATM   16  O1  UNL     1      -5.919  -1.086  -2.222  1.00  0.00    -0.237 OA
HETATM   17  O2  UNL     1      -7.644   0.778  -0.551  1.00  0.00     0.000 OA
HETATM   18  H1  UNL     1      -8.184   1.651  -0.539  1.00  0.00     0.000 HD
ENDBRANCH  12  14
ENDBRANCH   7   8
ENDBRANCH   1   7
BRANCH   5  19
HETATM   19  N5  UNL     1       2.851  -2.229   0.503  1.00  0.00    -0.377 N 
HETATM   20  H7  UNL     1       3.338  -3.130   0.578  1.00  0.00     0.160 HD
BRANCH  19  21
HETATM   21  C8  UNL     1       3.178  -1.152   1.403  1.00  0.00     0.138 C 
BRANCH  21  22
HETATM   22  C9  UNL     1       4.278  -1.535   2.369  1.00  0.00     0.194 C 
BRANCH  22  23
HETATM   23  O3  UNL     1       3.878  -2.617   3.130  1.00  0.00    -0.399 OA
HETATM   24  H11 UNL     1       4.365  -2.634   4.012  1.00  0.00     0.209 HD
ENDBRANCH  22  23
ENDBRANCH  21  22
BRANCH  21  25
HETATM   25  C10 UNL     1       3.548   0.070   0.647  1.00  0.00    -0.034 A 
HETATM   26  C11 UNL     1       3.163   1.387   0.850  1.00  0.00     0.009 A 
HETATM   27  C12 UNL     1       3.655   2.354  -0.012  1.00  0.00     0.001 A 
HETATM   28  C13 UNL     1       4.509   2.041  -1.055  1.00  0.00     0.000 A 
HETATM   29  C14 UNL     1       4.898   0.718  -1.261  1.00  0.00     0.001 A 
HETATM   30  C15 UNL     1       4.400  -0.247  -0.392  1.00  0.00     0.009 A 
ENDBRANCH  21  25
ENDBRANCH  19  21
ENDBRANCH   5  19
TORSDOF 8
