REMARK  4 active torsions:
REMARK  status: ('A' for Active; 'I' for Inactive)
REMARK    1  A    between atoms: C2_2  and  S1_3 
REMARK    2  A    between atoms: S1_3  and  N1_6 
REMARK    3  A    between atoms: C10_16  and  C11_17 
REMARK    4  A    between atoms: C17_23  and  O3_24 
ROOT
HETATM    1  N1  UNL     1      -3.700  -1.871  -1.150  1.00  0.00    -0.202 NA
HETATM    2  C3  UNL     1      -2.829  -0.748  -1.276  1.00  0.00     0.112 C 
HETATM    3  C4  UNL     1      -1.392  -1.032  -1.029  1.00  0.00     0.056 C 
HETATM    4  C5  UNL     1      -1.055  -1.422   0.352  1.00  0.00    -0.028 A 
HETATM    5  C6  UNL     1      -2.138  -2.285   0.616  1.00  0.00     0.006 A 
HETATM    6  S2  UNL     1      -1.844  -2.881   2.298  1.00  0.00    -0.073 SA
HETATM    7  C7  UNL     1      -0.328  -1.964   2.582  1.00  0.00     0.107 A 
HETATM    8  C8  UNL     1      -0.180  -1.307   1.390  1.00  0.00     0.022 A 
HETATM    9  C9  UNL     1       0.862  -0.596   1.042  1.00  0.00     0.098 C 
HETATM   10  N2  UNL     1       2.080   0.056   1.142  1.00  0.00    -0.385 N 
HETATM   11  C10 UNL     1       2.423   1.417   1.646  1.00  0.00     0.161 C 
HETATM   12  C17 UNL     1       2.778   1.104   3.110  1.00  0.00     0.233 C 
HETATM   13  N3  UNL     1       1.617   0.306   3.535  1.00  0.00    -0.395 NA
HETATM   14  C18 UNL     1       1.586  -0.938   3.207  1.00  0.00     0.440 C 
HETATM   15  N4  UNL     1       0.534  -1.883   3.511  1.00  0.00    -0.250 NA
HETATM   16  C19 UNL     1      -3.338  -2.772  -0.086  1.00  0.00     0.154 C 
HETATM   17  H9  UNL     1       3.004  -0.424   0.871  1.00  0.00     0.159 HD
ENDROOT
BRANCH  11  18
HETATM   18  C11 UNL     1       3.507   1.965   0.854  1.00  0.00    -0.031 A 
HETATM   19  C12 UNL     1       3.611   1.603  -0.474  1.00  0.00     0.009 A 
HETATM   20  C13 UNL     1       4.542   2.027  -1.373  1.00  0.00     0.001 A 
HETATM   21  C14 UNL     1       5.508   2.932  -0.905  1.00  0.00     0.000 A 
HETATM   22  C15 UNL     1       5.423   3.318   0.448  1.00  0.00     0.001 A 
HETATM   23  C16 UNL     1       4.436   2.847   1.340  1.00  0.00     0.009 A 
ENDBRANCH  11  18
BRANCH  12  24
HETATM   24  O3  UNL     1       3.002   2.177   3.844  1.00  0.00    -0.376 OA
HETATM   25  H17 UNL     1       2.404   2.929   3.764  1.00  0.00     0.212 HD
ENDBRANCH  12  24
BRANCH   1  26
HETATM   26  S1  UNL     1      -5.336  -1.418  -1.174  1.00  0.00     0.233 S 
HETATM   27  O1  UNL     1      -6.231  -2.580  -0.941  1.00  0.00    -0.207 OA
HETATM   28  O2  UNL     1      -5.570  -0.430  -0.035  1.00  0.00    -0.207 OA
BRANCH  26  29
HETATM   29  C2  UNL     1      -5.774  -0.654  -2.698  1.00  0.00     0.115 C 
HETATM   30  C1  UNL     1      -5.931  -1.269  -3.857  1.00  0.00     0.024 C 
ENDBRANCH  26  29
ENDBRANCH   1  26
TORSDOF 4
