REMARK  4 active torsions:
REMARK  status: ('A' for Active; 'I' for Inactive)
REMARK    1  A    between atoms: N3_16  and  C12_17 
REMARK    2  A    between atoms: C12_17  and  C13_18 
REMARK    3  A    between atoms: C12_17  and  C14_20 
REMARK    4  A    between atoms: C14_20  and  O3_21 
ROOT
HETATM    1  N1  UNL     1      -0.543   1.425  -0.374  1.00  0.00    -0.307 NA
HETATM    2  C1  UNL     1      -1.390   0.430  -0.651  1.00  0.00     0.023 C 
HETATM    3  C2  UNL     1      -2.442   1.406  -0.227  1.00  0.00     0.069 C 
HETATM    4  C3  UNL     1      -3.685   1.473  -0.084  1.00  0.00    -0.017 C 
HETATM    5  C4  UNL     1      -5.058   0.918  -0.161  1.00  0.00     0.004 C 
HETATM    6  C5  UNL     1      -5.742  -0.137  -0.486  1.00  0.00     0.179 C 
HETATM    7  O1  UNL     1      -4.562  -0.873  -0.851  1.00  0.00    -0.361 OA
HETATM    8  C6  UNL     1      -4.008  -1.751   0.123  1.00  0.00     0.287 C 
HETATM    9  N2  UNL     1      -2.848  -2.437  -0.188  1.00  0.00    -0.387 N 
HETATM   10  C7  UNL     1      -1.568  -2.000  -0.252  1.00  0.00     0.159 C 
HETATM   11  S1  UNL     1      -0.964  -1.246   1.343  1.00  0.00    -0.106 SA
HETATM   12  C8  UNL     1       0.687  -0.938   0.602  1.00  0.00     0.001 C 
HETATM   13  C9  UNL     1       0.500  -0.918  -0.751  1.00  0.00    -0.051 C 
HETATM   14  C10 UNL     1       1.590  -0.708  -1.806  1.00  0.00     0.055 C 
HETATM   15  C11 UNL     1       2.740   0.063  -1.214  1.00  0.00     0.122 C 
HETATM   16  N3  UNL     1       2.531   0.418   0.130  1.00  0.00    -0.399 N 
HETATM   17  C15 UNL     1       2.128  -0.646   0.987  1.00  0.00     0.163 C 
HETATM   18  C16 UNL     1      -0.995  -0.973  -1.123  1.00  0.00     0.096 C 
HETATM   19  H1  UNL     1      -1.078   2.298  -0.043  1.00  0.00     0.186 HD
HETATM   20  H8  UNL     1      -2.955  -3.517  -0.103  1.00  0.00     0.156 HD
ENDROOT
BRANCH  16  21
HETATM   21  C12 UNL     1       3.392   1.337   0.733  1.00  0.00     0.136 C 
BRANCH  21  22
HETATM   22  C13 UNL     1       2.816   1.669   2.093  1.00  0.00     0.418 C 
HETATM   23  O2  UNL     1       3.284   2.279   3.014  1.00  0.00    -0.428 OA
ENDBRANCH  21  22
BRANCH  21  24
HETATM   24  C14 UNL     1       4.825   0.911   0.958  1.00  0.00     0.191 C 
BRANCH  24  25
HETATM   25  O3  UNL     1       5.445   2.023   1.556  1.00  0.00    -0.399 OA
HETATM   26  H18 UNL     1       6.301   2.272   1.081  1.00  0.00     0.209 HD
ENDBRANCH  24  25
ENDBRANCH  21  24
ENDBRANCH  16  21
TORSDOF 4
