REMARK  1 active torsions:
REMARK  status: ('A' for Active; 'I' for Inactive)
REMARK    1  A    between atoms: C2_2  and  C3_3 
REMARK       I    between atoms: C3_3  and  N1_5 
ROOT
HETATM    1  C3  UNL     1       4.513   0.086   1.185  1.00  0.00     0.242 C 
HETATM    2  O1  UNL     1       5.461  -0.708   1.001  1.00  0.00    -0.268 OA
HETATM    3  N1  UNL     1       3.242  -0.351   0.728  1.00  0.00    -0.344 N 
HETATM    4  C4  UNL     1       3.103  -1.627   0.102  1.00  0.00     0.131 C 
HETATM    5  C5  UNL     1       1.750  -2.242   0.171  1.00  0.00     0.059 C 
HETATM    6  C6  UNL     1       0.620  -1.329  -0.062  1.00  0.00    -0.038 C 
HETATM    7  C7  UNL     1      -0.603  -2.012  -0.127  1.00  0.00     0.058 C 
HETATM    8  C8  UNL     1      -1.488  -1.824  -1.203  1.00  0.00     0.125 C 
HETATM    9  N2  UNL     1      -1.181  -2.257  -2.494  1.00  0.00    -0.225 NA
HETATM   10  C9  UNL     1      -0.752  -1.316  -3.443  1.00  0.00     0.236 C 
HETATM   11  N3  UNL     1      -0.708   0.091  -3.470  1.00  0.00    -0.236 NA
HETATM   12  C10 UNL     1      -0.981   0.767  -2.277  1.00  0.00     0.109 C 
HETATM   13  S1  UNL     1       0.432   1.130  -1.342  1.00  0.00    -0.074 SA
HETATM   14  C11 UNL     1       1.020   0.012  -0.164  1.00  0.00     0.009 C 
HETATM   15  C12 UNL     1       2.016   0.418   0.844  1.00  0.00     0.172 C 
HETATM   16  C13 UNL     1      -2.315   1.095  -1.823  1.00  0.00     0.220 C 
HETATM   17  O2  UNL     1      -2.018   2.482  -1.067  1.00  0.00    -0.300 OA
HETATM   18  C14 UNL     1      -2.806   2.458   0.049  1.00  0.00    -0.013 C 
HETATM   19  C15 UNL     1      -3.430   2.418   0.915  1.00  0.00     0.068 A 
HETATM   20  C16 UNL     1      -4.209   2.345   1.977  1.00  0.00     0.022 A 
HETATM   21  C17 UNL     1      -4.598   1.220   1.083  1.00  0.00     0.018 A 
HETATM   22  C18 UNL     1      -4.221   0.620  -0.270  1.00  0.00     0.035 C 
HETATM   23  C19 UNL     1      -2.847   0.301  -0.647  1.00  0.00     0.120 C 
HETATM   24  N4  UNL     1      -2.708  -1.128  -0.826  1.00  0.00    -0.367 N 
HETATM   25  H18 UNL     1      -3.494  -1.813  -0.697  1.00  0.00     0.161 HD
ENDROOT
BRANCH   1  26
HETATM   26  C2  UNL     1       4.771   1.352   1.830  1.00  0.00     0.064 C 
HETATM   27  C1  UNL     1       6.028   1.586   2.190  1.00  0.00     0.017 C 
ENDBRANCH   1  26
TORSDOF 1
