REMARK  6 active torsions:
REMARK  status: ('A' for Active; 'I' for Inactive)
REMARK    1  A    between atoms: C3_3  and  C4_4 
REMARK    2  A    between atoms: C3_3  and  C7_8 
REMARK    3  A    between atoms: C7_8  and  C8_9 
REMARK    4  A    between atoms: C7_8  and  N2_11 
REMARK    5  A    between atoms: C8_9  and  O1_10 
REMARK    6  A    between atoms: N2_11  and  C9_12 
ROOT
HETATM    1  C4  UNL     1      -1.832   0.447   1.255  1.00  0.00     0.020 C 
HETATM    2  C5  UNL     1      -1.358   1.012   2.350  1.00  0.00     0.094 C 
HETATM    3  C6  UNL     1      -1.937   2.026   3.181  1.00  0.00     0.087 C 
HETATM    4  N1  UNL     1      -2.414   2.835   3.829  1.00  0.00    -0.192 NA
ENDROOT
BRANCH   1   5
HETATM    5  C3  UNL     1      -1.642  -0.522   0.174  1.00  0.00    -0.037 C 
HETATM    6  C2  UNL     1      -2.693  -0.551  -0.690  1.00  0.00    -0.022 C 
HETATM    7  C1  UNL     1      -3.998   0.065  -0.937  1.00  0.00     0.036 C 
BRANCH   5   8
HETATM    8  C7  UNL     1      -0.514  -1.429  -0.115  1.00  0.00     0.139 C 
BRANCH   8   9
HETATM    9  C8  UNL     1      -0.154  -2.328   1.047  1.00  0.00     0.194 C 
BRANCH   9  10
HETATM   10  O1  UNL     1       0.566  -1.692   2.034  1.00  0.00    -0.399 OA
HETATM   11  H10 UNL     1       0.124  -1.849   2.895  1.00  0.00     0.209 HD
ENDBRANCH   9  10
ENDBRANCH   8   9
BRANCH   8  12
HETATM   12  N2  UNL     1       0.613  -0.866  -0.765  1.00  0.00    -0.363 N 
HETATM   13  H11 UNL     1       0.854  -1.280  -1.721  1.00  0.00     0.162 HD
BRANCH  12  14
HETATM   14  C9  UNL     1       1.584   0.139  -0.528  1.00  0.00     0.138 A 
HETATM   15  N3  UNL     1       1.402   0.734   0.646  1.00  0.00    -0.224 NA
HETATM   16  C10 UNL     1       2.117   1.707   1.192  1.00  0.00     0.236 A 
HETATM   17  N4  UNL     1       3.140   2.107   0.426  1.00  0.00    -0.234 NA
HETATM   18  C11 UNL     1       3.405   1.562  -0.783  1.00  0.00     0.112 A 
HETATM   19  S1  UNL     1       4.646   1.897  -1.948  1.00  0.00    -0.081 SA
HETATM   20  C14 UNL     1       2.635   0.550  -1.315  1.00  0.00     0.046 A 
HETATM   21  C12 UNL     1       4.068   0.592  -3.195  1.00  0.00     0.053 A 
HETATM   22  C13 UNL     1       2.932   0.024  -2.537  1.00  0.00     0.025 A 
ENDBRANCH  12  14
ENDBRANCH   8  12
ENDBRANCH   5   8
ENDBRANCH   1   5
TORSDOF 6
