REMARK  4 active torsions:
REMARK  status: ('A' for Active; 'I' for Inactive)
REMARK    1  A    between atoms: C3_3  and  C4_4 
REMARK    2  A    between atoms: C4_4  and  C5_5 
REMARK    3  A    between atoms: C7_8  and  C8_9 
REMARK    4  A    between atoms: C20_25  and  S1_26 
ROOT
HETATM    1  C8  UNL     1      -0.218  -0.541  -0.465  1.00  0.00     0.180 C 
HETATM    2  N1  UNL     1      -0.912  -1.228  -1.510  1.00  0.00    -0.269 NA
HETATM    3  C9  UNL     1      -2.179  -1.358  -1.502  1.00  0.00     0.223 C 
HETATM    4  N2  UNL     1      -2.922  -0.829  -0.477  1.00  0.00    -0.265 NA
HETATM    5  C10 UNL     1      -4.133  -0.837  -0.123  1.00  0.00     0.110 C 
HETATM    6  C11 UNL     1      -5.506  -0.716   0.471  1.00  0.00     0.045 C 
HETATM    7  C12 UNL     1      -5.699   0.801   0.328  1.00  0.00     0.039 C 
HETATM    8  C13 UNL     1      -4.285   1.319   0.586  1.00  0.00    -0.057 C 
HETATM    9  C14 UNL     1      -3.658   0.146   0.935  1.00  0.00    -0.040 C 
HETATM   10  C15 UNL     1      -2.680  -0.178   2.059  1.00  0.00     0.065 C 
HETATM   11  C16 UNL     1      -1.334   0.255   1.495  1.00  0.00    -0.007 C 
HETATM   12  C17 UNL     1      -1.076   0.470   0.164  1.00  0.00     0.035 C 
HETATM   13  C18 UNL     1      -1.592   1.565  -0.644  1.00  0.00     0.250 C 
HETATM   14  O2  UNL     1      -1.037   1.371  -1.782  1.00  0.00    -0.268 OA
HETATM   15  N3  UNL     1      -2.493   2.686  -0.442  1.00  0.00    -0.353 N 
HETATM   16  C19 UNL     1      -3.635   2.688   0.508  1.00  0.00     0.157 C 
HETATM   17  H18 UNL     1      -2.158   3.416  -1.100  1.00  0.00     0.163 HD
ENDROOT
BRANCH   1  18
HETATM   18  C7  UNL     1       1.161  -0.108  -0.786  1.00  0.00    -0.007 A 
HETATM   19  C6  UNL     1       1.728   0.951  -1.639  1.00  0.00     0.214 A 
HETATM   20  O1  UNL     1       3.124   0.894  -1.566  1.00  0.00    -0.345 OA
HETATM   21  C5  UNL     1       3.497  -0.112  -0.737  1.00  0.00     0.086 A 
HETATM   22  C20 UNL     1       2.263  -0.706  -0.276  1.00  0.00     0.038 A 
BRANCH  21  23
HETATM   23  C4  UNL     1       4.776  -0.342  -0.524  1.00  0.00     0.038 C 
BRANCH  23  24
HETATM   24  C3  UNL     1       5.399  -1.354   0.315  1.00  0.00    -0.002 C 
HETATM   25  C2  UNL     1       6.697  -1.533   0.486  1.00  0.00    -0.031 C 
HETATM   26  C1  UNL     1       7.885  -0.832  -0.063  1.00  0.00     0.036 C 
ENDBRANCH  23  24
ENDBRANCH  21  23
BRANCH  22  27
HETATM   27  S1  UNL     1       2.296  -2.110   0.870  1.00  0.00    -0.140 SA
HETATM   28  H21 UNL     1       2.370  -3.326   0.187  1.00  0.00     0.107 HD
ENDBRANCH  22  27
ENDBRANCH   1  18
TORSDOF 4
