REMARK  8 active torsions:
REMARK  status: ('A' for Active; 'I' for Inactive)
REMARK    1  A    between atoms: C1_2  and  C2_3 
REMARK    2  A    between atoms: C2_3  and  N1_4 
REMARK    3  A    between atoms: C10_14  and  N3_15 
REMARK    4  A    between atoms: N3_15  and  C11_16 
REMARK    5  A    between atoms: C11_16  and  C12_17 
REMARK    6  A    between atoms: C11_16  and  C13_19 
REMARK    7  A    between atoms: C12_17  and  O2_18 
REMARK    8  A    between atoms: C13_19  and  C14_20 
ROOT
HETATM    1  N1  UNL     1       3.259   0.991   0.314  1.00  0.00     0.099 N 
HETATM    2  C3  UNL     1       2.155   0.819   1.205  1.00  0.00     0.277 C 
HETATM    3  C4  UNL     1       0.888   1.165   0.412  1.00  0.00     0.068 C 
HETATM    4  C5  UNL     1       0.668  -0.070  -0.427  1.00  0.00    -0.029 C 
HETATM    5  C6  UNL     1       1.781  -0.384  -1.083  1.00  0.00     0.017 C 
HETATM    6  C7  UNL     1       3.032   0.408  -0.964  1.00  0.00     0.319 C 
HETATM    7  S1  UNL     1       2.042  -1.769  -2.217  1.00  0.00    -0.086 SA
HETATM    8  C8  UNL     1       0.544  -2.727  -2.391  1.00  0.00     0.160 C 
HETATM    9  N2  UNL     1      -0.635  -2.318  -2.204  1.00  0.00    -0.292 NA
HETATM   10  C9  UNL     1      -1.093  -1.014  -1.813  1.00  0.00     0.189 C 
HETATM   11  C10 UNL     1      -0.681  -0.706  -0.393  1.00  0.00     0.270 C 
ENDROOT
BRANCH  11  12
HETATM   12  N3  UNL     1      -1.595   0.201   0.225  1.00  0.00     0.100 N 
HETATM   13  H14 UNL     1      -1.640   1.091  -0.343  1.00  0.00     0.317 HD
BRANCH  12  14
HETATM   14  C11 UNL     1      -2.937  -0.255   0.375  1.00  0.00     0.245 C 
BRANCH  14  15
HETATM   15  C12 UNL     1      -2.992  -1.540   1.214  1.00  0.00     0.199 C 
BRANCH  15  16
HETATM   16  O2  UNL     1      -4.328  -1.923   1.319  1.00  0.00    -0.399 OA
HETATM   17  H18 UNL     1      -4.387  -2.502   2.142  1.00  0.00     0.209 HD
ENDBRANCH  15  16
ENDBRANCH  14  15
BRANCH  14  18
HETATM   18  C13 UNL     1      -3.715   0.797   1.150  1.00  0.00     0.053 C 
BRANCH  18  19
HETATM   19  C14 UNL     1      -3.751   2.133   0.473  1.00  0.00     0.117 C 
HETATM   20 CL1  UNL     1      -4.501   2.060  -1.133  1.00  0.00    -0.130 Cl
ENDBRANCH  18  19
ENDBRANCH  14  18
ENDBRANCH  12  14
ENDBRANCH  11  12
BRANCH   1  21
HETATM   21  C2  UNL     1       4.524   0.587   0.889  1.00  0.00     0.341 C 
BRANCH  21  22
HETATM   22  C1  UNL     1       5.564   0.821  -0.138  1.00  0.00     0.261 C 
HETATM   23  O1  UNL     1       5.697   1.231  -1.276  1.00  0.00    -0.305 OA
ENDBRANCH  21  22
ENDBRANCH   1  21
TORSDOF 8
