REMARK  4 active torsions:
REMARK  status: ('A' for Active; 'I' for Inactive)
REMARK    1  A    between atoms: O1_2  and  C2_3 
REMARK    2  A    between atoms: C5_6  and  C6_7 
REMARK    3  A    between atoms: N1_9  and  C8_10 
REMARK    4  A    between atoms: C10_12  and  C11_13 
ROOT
HETATM    1  C6  UNL     1      -0.569   0.027  -0.051  1.00  0.00     0.075 C 
HETATM    2  C7  UNL     1      -1.466  -0.268   0.869  1.00  0.00     0.121 C 
HETATM    3  N1  UNL     1      -2.884  -0.118   0.652  1.00  0.00    -0.343 N 
HETATM    4  C12 UNL     1      -3.287   0.695  -0.503  1.00  0.00     0.255 C 
HETATM    5  N2  UNL     1      -3.402  -0.460  -1.065  1.00  0.00    -0.251 NA
HETATM    6  C13 UNL     1      -3.836  -0.399  -2.441  1.00  0.00     0.253 C 
HETATM    7  N3  UNL     1      -2.738  -0.223  -3.077  1.00  0.00    -0.153 NA
HETATM    8  N4  UNL     1      -1.492  -0.132  -2.448  1.00  0.00    -0.218 N 
HETATM    9  N5  UNL     1      -0.971   0.516  -1.325  1.00  0.00    -0.283 N 
HETATM   10  H10 UNL     1      -0.565  -0.553  -2.669  1.00  0.00     0.210 HD
HETATM   11  H11 UNL     1      -0.800   1.529  -1.291  1.00  0.00     0.188 HD
ENDROOT
BRANCH   1  12
HETATM   12  C5  UNL     1       0.862  -0.125   0.171  1.00  0.00    -0.006 A 
HETATM   13  C4  UNL     1       1.799   0.180  -0.801  1.00  0.00     0.016 A 
HETATM   14  C3  UNL     1       3.151   0.046  -0.616  1.00  0.00     0.037 A 
HETATM   15  C2  UNL     1       3.652  -0.410   0.577  1.00  0.00     0.068 A 
HETATM   16  C15 UNL     1       2.765  -0.728   1.579  1.00  0.00     0.037 A 
HETATM   17  C14 UNL     1       1.425  -0.576   1.343  1.00  0.00     0.016 A 
BRANCH  15  18
HETATM   18  O1  UNL     1       5.019  -0.547   0.768  1.00  0.00    -0.356 OA
HETATM   19  C1  UNL     1       5.886  -0.212  -0.285  1.00  0.00     0.210 C 
ENDBRANCH  15  18
ENDBRANCH   1  12
BRANCH   3  20
HETATM   20  C8  UNL     1      -3.796  -0.775   1.568  1.00  0.00     0.095 A 
HETATM   21  C9  UNL     1      -4.606   0.478   2.919  1.00  0.00     0.087 A 
HETATM   22  C10 UNL     1      -4.314   0.006   2.426  1.00  0.00    -0.029 A 
HETATM   23  C11 UNL     1      -4.105  -0.317   2.078  1.00  0.00    -0.029 A 
ENDBRANCH   3  20
TORSDOF 4
