REMARK  4 active torsions:
REMARK  status: ('A' for Active; 'I' for Inactive)
REMARK    1  A    between atoms: C2_2  and  C3_3 
REMARK       I    between atoms: C3_3  and  N1_5 
REMARK    2  A    between atoms: N1_5  and  C4_6 
REMARK    3  A    between atoms: C4_6  and  C5_7 
REMARK    4  A    between atoms: C9_14  and  N4_15 
ROOT
HETATM    1  C5  UNL     1       0.418  -0.532  -2.001  1.00  0.00     0.071 A 
HETATM    2  C6  UNL     1       1.597  -1.185  -2.563  1.00  0.00    -0.007 A 
HETATM    3  C7  UNL     1       2.188  -2.307  -2.075  1.00  0.00     0.059 A 
HETATM    4  S1  UNL     1       1.133  -2.671  -0.650  1.00  0.00    -0.042 SA
HETATM    5  N2  UNL     1       0.879  -3.655   0.564  1.00  0.00    -0.212 NA
HETATM    6  C8  UNL     1      -0.265  -3.321   1.404  1.00  0.00     0.243 A 
HETATM    7  N3  UNL     1      -1.029  -2.317   1.206  1.00  0.00    -0.223 NA
HETATM    8  C9  UNL     1      -0.971  -1.336   0.194  1.00  0.00     0.146 A 
HETATM    9  C15 UNL     1      -0.040  -1.302  -0.786  1.00  0.00     0.049 A 
ENDROOT
BRANCH   1  10
HETATM   10  C4  UNL     1       0.675   0.896  -1.684  1.00  0.00     0.136 C 
BRANCH  10  11
HETATM   11  N1  UNL     1       1.705   1.185  -0.741  1.00  0.00    -0.357 N 
HETATM   12  C3  UNL     1       3.097   1.010  -0.640  1.00  0.00     0.240 C 
HETATM   13  O1  UNL     1       3.649   0.461  -1.621  1.00  0.00    -0.269 OA
HETATM   14  H4  UNL     1       1.332   1.665   0.138  1.00  0.00     0.162 HD
BRANCH  12  15
HETATM   15  C2  UNL     1       3.883   1.426   0.512  1.00  0.00     0.064 C 
HETATM   16  C1  UNL     1       3.511   2.010   1.626  1.00  0.00     0.017 C 
ENDBRANCH  12  15
ENDBRANCH  10  11
ENDBRANCH   1  10
BRANCH   8  17
HETATM   17  N4  UNL     1      -1.925  -0.250   0.110  1.00  0.00    -0.337 N 
HETATM   18  C10 UNL     1      -2.848   0.196  -0.875  1.00  0.00     0.089 C 
HETATM   19  C11 UNL     1      -3.382   1.320  -0.498  1.00  0.00    -0.007 C 
HETATM   20  C12 UNL     1      -2.878   1.788   0.820  1.00  0.00     0.054 C 
HETATM   21  C13 UNL     1      -2.026   0.641   1.261  1.00  0.00     0.090 C 
HETATM   22  C14 UNL     1      -2.724  -0.058   2.409  1.00  0.00     0.033 C 
ENDBRANCH   8  17
TORSDOF 4
