REMARK  1 active torsions:
REMARK  status: ('A' for Active; 'I' for Inactive)
REMARK    1  A    between atoms: C9_12  and  C10_13 
ROOT
HETATM    1  C1  UNL     1      -1.876  -1.743  -2.072  1.00  0.00     0.037 C 
HETATM    2  C2  UNL     1      -1.668  -1.758  -0.555  1.00  0.00     0.113 C 
HETATM    3  N1  UNL     1      -0.292  -1.917  -0.200  1.00  0.00    -0.366 N 
HETATM    4  C3  UNL     1       1.068  -1.525  -0.367  1.00  0.00     0.134 A 
HETATM    5  N2  UNL     1       1.635  -2.247  -1.345  1.00  0.00    -0.224 NA
HETATM    6  C4  UNL     1       2.913  -2.104  -1.732  1.00  0.00     0.236 A 
HETATM    7  N3  UNL     1       3.695  -1.187  -1.118  1.00  0.00    -0.240 NA
HETATM    8  C5  UNL     1       3.155  -0.454  -0.142  1.00  0.00     0.082 A 
HETATM    9  C6  UNL     1       1.862  -0.599   0.250  1.00  0.00     0.027 A 
HETATM   10  C7  UNL     1       1.571   0.367   1.348  1.00  0.00     0.076 A 
HETATM   11  C8  UNL     1       2.822   1.080   1.549  1.00  0.00     0.001 A 
HETATM   12  C9  UNL     1       3.719   0.599   0.690  1.00  0.00     0.028 A 
HETATM   13  C11 UNL     1       0.387   1.196   0.943  1.00  0.00     0.285 C 
HETATM   14  N4  UNL     1       0.035   0.998  -0.441  1.00  0.00     0.089 N 
HETATM   15  C12 UNL     1       1.014   1.574  -1.303  1.00  0.00     0.310 C 
HETATM   16  C13 UNL     1      -1.293   1.418  -0.751  1.00  0.00     0.311 C 
HETATM   17  C14 UNL     1      -2.291   0.682   0.113  1.00  0.00    -0.022 A 
HETATM   18  C15 UNL     1      -3.116   1.464   0.893  1.00  0.00     0.009 A 
HETATM   19  C16 UNL     1      -4.077   0.994   1.760  1.00  0.00     0.001 A 
HETATM   20  C17 UNL     1      -4.211  -0.376   1.842  1.00  0.00     0.001 A 
HETATM   21  C18 UNL     1      -3.372  -1.138   1.049  1.00  0.00     0.010 A 
HETATM   22  C19 UNL     1      -2.381  -0.690   0.153  1.00  0.00    -0.028 A 
HETATM   23  H5  UNL     1      -0.057  -2.645   0.551  1.00  0.00     0.161 HD
ENDROOT
BRANCH  12  24
HETATM   24  C10 UNL     1       5.101   1.094   0.618  1.00  0.00     0.272 C 
HETATM   25  O1  UNL     1       5.513   1.998   1.364  1.00  0.00    -0.301 OA
ENDBRANCH  12  24
TORSDOF 1
