REMARK  7 active torsions:
REMARK  status: ('A' for Active; 'I' for Inactive)
REMARK    1  A    between atoms: C2_2  and  N1_3 
REMARK    2  A    between atoms: C2_2  and  C15_22 
REMARK    3  A    between atoms: N1_3  and  C3_4 
REMARK    4  A    between atoms: N4_15  and  C11_16 
REMARK    5  A    between atoms: C11_16  and  C12_17 
REMARK    6  A    between atoms: C11_16  and  C13_19 
REMARK    7  A    between atoms: C13_19  and  S2_20 
ROOT
HETATM    1  C3  UNL     1      -0.944  -1.805  -0.944  1.00  0.00     0.139 A 
HETATM    2  N2  UNL     1      -1.607  -2.861  -1.414  1.00  0.00    -0.224 NA
HETATM    3  C4  UNL     1      -1.157  -3.907  -2.063  1.00  0.00     0.236 A 
HETATM    4  N3  UNL     1       0.167  -3.893  -2.275  1.00  0.00    -0.234 NA
HETATM    5  C5  UNL     1       0.863  -2.861  -1.823  1.00  0.00     0.114 A 
HETATM    6  S1  UNL     1       2.659  -2.552  -1.957  1.00  0.00    -0.072 SA
HETATM    7  C6  UNL     1       2.657  -1.004  -1.107  1.00  0.00     0.010 A 
HETATM    8  C7  UNL     1       1.296  -0.783  -0.755  1.00  0.00    -0.025 A 
HETATM    9  C8  UNL     1       0.411  -1.747  -1.136  1.00  0.00     0.053 A 
HETATM   10  C9  UNL     1       1.326   0.506  -0.050  1.00  0.00     0.060 C 
HETATM   11  C10 UNL     1       2.423   0.394   1.038  1.00  0.00     0.128 C 
HETATM   12  N4  UNL     1       3.724   0.532   0.469  1.00  0.00    -0.375 N 
HETATM   13  C14 UNL     1       3.806  -0.107  -0.809  1.00  0.00     0.169 C 
ENDROOT
BRANCH   1  14
HETATM   14  N1  UNL     1      -1.719  -0.810  -0.294  1.00  0.00    -0.366 N 
HETATM   15  H5  UNL     1      -1.556   0.101   0.151  1.00  0.00     0.161 HD
BRANCH  14  16
HETATM   16  C2  UNL     1      -3.154  -0.978  -0.141  1.00  0.00     0.112 C 
HETATM   17  C1  UNL     1      -3.491  -2.187   0.744  1.00  0.00     0.037 C 
BRANCH  16  18
HETATM   18  C15 UNL     1      -3.873   0.236   0.292  1.00  0.00    -0.036 A 
HETATM   19  C16 UNL     1      -4.840   0.424   1.251  1.00  0.00     0.009 A 
HETATM   20  C17 UNL     1      -5.361   1.682   1.465  1.00  0.00     0.001 A 
HETATM   21  C18 UNL     1      -4.959   2.792   0.753  1.00  0.00     0.000 A 
HETATM   22  C19 UNL     1      -3.989   2.611  -0.211  1.00  0.00     0.001 A 
HETATM   23  C20 UNL     1      -3.443   1.344  -0.447  1.00  0.00     0.009 A 
ENDBRANCH  16  18
ENDBRANCH  14  16
ENDBRANCH   1  14
BRANCH  12  24
HETATM   24  C11 UNL     1       4.844   1.186   1.006  1.00  0.00     0.071 C 
BRANCH  24  25
HETATM   25  C12 UNL     1       4.876   1.268   2.308  1.00  0.00     0.246 C 
HETATM   26  O1  UNL     1       5.107   1.236   3.534  1.00  0.00    -0.282 OA
ENDBRANCH  24  25
BRANCH  24  27
HETATM   27  C13 UNL     1       5.912   1.743   0.140  1.00  0.00     0.132 C 
BRANCH  27  28
HETATM   28  S2  UNL     1       5.186   2.976  -0.951  1.00  0.00    -0.176 SA
HETATM   29  H13 UNL     1       5.641   4.285  -0.646  1.00  0.00     0.102 HD
ENDBRANCH  27  28
ENDBRANCH  24  27
ENDBRANCH  12  24
TORSDOF 7
