REMARK  5 active torsions:
REMARK  status: ('A' for Active; 'I' for Inactive)
REMARK    1  A    between atoms: C2_2  and  N1_3 
REMARK    2  A    between atoms: C2_2  and  C14_20 
REMARK    3  A    between atoms: N1_3  and  C3_4 
REMARK    4  A    between atoms: N4_15  and  C11_16 
REMARK    5  A    between atoms: C11_16  and  C12_17 
ROOT
HETATM    1  C3  UNL     1      -0.494  -1.856  -0.615  1.00  0.00     0.139 A 
HETATM    2  N2  UNL     1      -1.210  -2.943  -0.911  1.00  0.00    -0.224 NA
HETATM    3  C4  UNL     1      -0.769  -4.154  -1.214  1.00  0.00     0.236 A 
HETATM    4  N3  UNL     1       0.567  -4.264  -1.215  1.00  0.00    -0.234 NA
HETATM    5  C5  UNL     1       1.301  -3.215  -0.929  1.00  0.00     0.114 A 
HETATM    6  S1  UNL     1       3.076  -3.093  -0.863  1.00  0.00    -0.072 SA
HETATM    7  C6  UNL     1       3.153  -1.375  -0.418  1.00  0.00     0.020 A 
HETATM    8  C7  UNL     1       1.793  -0.977  -0.341  1.00  0.00    -0.025 A 
HETATM    9  C8  UNL     1       0.878  -1.942  -0.608  1.00  0.00     0.053 A 
HETATM   10  C9  UNL     1       1.878   0.443   0.033  1.00  0.00     0.071 C 
HETATM   11  C10 UNL     1       2.740   0.495   1.317  1.00  0.00     0.278 C 
HETATM   12  N4  UNL     1       4.141   0.295   1.025  1.00  0.00     0.099 N 
HETATM   13  C13 UNL     1       4.331  -0.499  -0.173  1.00  0.00     0.319 C 
ENDROOT
BRANCH   1  14
HETATM   14  N1  UNL     1      -1.251  -0.688  -0.330  1.00  0.00    -0.366 N 
HETATM   15  H5  UNL     1      -1.061   0.291  -0.079  1.00  0.00     0.161 HD
BRANCH  14  16
HETATM   16  C2  UNL     1      -2.697  -0.688  -0.364  1.00  0.00     0.112 C 
HETATM   17  C1  UNL     1      -3.176  -0.899  -1.780  1.00  0.00     0.037 C 
BRANCH  16  18
HETATM   18  C14 UNL     1      -3.360   0.463   0.242  1.00  0.00    -0.036 A 
HETATM   19  C15 UNL     1      -2.990   1.771   0.046  1.00  0.00     0.009 A 
HETATM   20  C16 UNL     1      -3.653   2.839   0.647  1.00  0.00     0.001 A 
HETATM   21  C17 UNL     1      -4.731   2.613   1.481  1.00  0.00     0.000 A 
HETATM   22  C18 UNL     1      -5.137   1.339   1.709  1.00  0.00     0.001 A 
HETATM   23  C19 UNL     1      -4.457   0.326   1.098  1.00  0.00     0.009 A 
ENDBRANCH  16  18
ENDBRANCH  14  16
ENDBRANCH   1  14
BRANCH  12  24
HETATM   24  C11 UNL     1       4.881   1.508   0.966  1.00  0.00     0.341 C 
BRANCH  24  25
HETATM   25  C12 UNL     1       4.569   2.395  -0.160  1.00  0.00     0.261 C 
HETATM   26  O1  UNL     1       4.910   3.487  -0.627  1.00  0.00    -0.305 OA
ENDBRANCH  24  25
ENDBRANCH  12  24
TORSDOF 5
