REMARK  0 active torsions:
REMARK  status: ('A' for Active; 'I' for Inactive)
ROOT
HETATM    1  O1  UNL     1      -1.980   3.589  -0.463  1.00  0.00    -0.273 OA
HETATM    2  C1  UNL     1      -2.234   2.335  -0.320  1.00  0.00     0.223 C 
HETATM    3  C2  UNL     1      -2.646   0.918  -0.531  1.00  0.00     0.118 C 
HETATM    4  C3  UNL     1      -3.170   0.586  -1.732  1.00  0.00    -0.014 C 
HETATM    5  C4  UNL     1      -3.374  -0.859  -1.388  1.00  0.00     0.002 C 
HETATM    6  C5  UNL     1      -2.858  -1.184   0.014  1.00  0.00     0.006 C 
HETATM    7  C6  UNL     1      -3.122  -2.640   0.271  1.00  0.00    -0.002 C 
HETATM    8  C7  UNL     1      -2.081  -3.416   0.488  1.00  0.00     0.020 C 
HETATM    9  C8  UNL     1      -1.119  -4.469   0.752  1.00  0.00    -0.025 C 
HETATM   10  C9  UNL     1       0.165  -4.055   0.757  1.00  0.00    -0.029 C 
HETATM   11  C10 UNL     1       1.391  -3.251   0.683  1.00  0.00     0.046 C 
HETATM   12  C11 UNL     1       1.021  -1.808   0.385  1.00  0.00     0.124 C 
HETATM   13  N1  UNL     1       2.253  -0.988   0.364  1.00  0.00    -0.376 N 
HETATM   14  C12 UNL     1       3.225  -1.092  -0.630  1.00  0.00     0.129 C 
HETATM   15  C13 UNL     1       2.684  -0.266  -1.551  1.00  0.00     0.146 A 
HETATM   16  C14 UNL     1       3.452   0.852  -1.379  1.00  0.00     0.072 A 
HETATM   17  N2  UNL     1       4.857   0.745  -1.741  1.00  0.00    -0.347 N 
HETATM   18  C15 UNL     1       5.329  -0.630  -1.651  1.00  0.00     0.209 C 
HETATM   19  N3  UNL     1       4.407  -1.502  -1.266  1.00  0.00    -0.229 NA
HETATM   20  S1  UNL     1       1.844   1.324  -0.849  1.00  0.00    -0.122 SA
HETATM   21  C16 UNL     1       1.762   2.395   0.541  1.00  0.00     0.038 C 
HETATM   22  C17 UNL     1       1.118   3.463   0.971  1.00  0.00    -0.019 C 
HETATM   23  C18 UNL     1       0.063   4.451   0.573  1.00  0.00     0.047 C 
HETATM   24  C19 UNL     1      -1.211   4.137   1.352  1.00  0.00     0.126 C 
HETATM   25  N4  UNL     1      -1.717   2.817   0.913  1.00  0.00    -0.360 N 
HETATM   26  H15 UNL     1       2.734  -0.271   0.933  1.00  0.00     0.160 HD
HETATM   27  H16 UNL     1       4.861   1.797  -1.904  1.00  0.00     0.167 HD
HETATM   28  H24 UNL     1      -1.696   2.064   1.670  1.00  0.00     0.162 HD
ENDROOT
TORSDOF 0
