REMARK  4 active torsions:
REMARK  status: ('A' for Active; 'I' for Inactive)
REMARK    1  A    between atoms: C2_3  and  C3_4 
REMARK    2  A    between atoms: C3_4  and  C4_5 
REMARK    3  A    between atoms: N5_18  and  C13_19 
REMARK    4  A    between atoms: C13_19  and  C14_20 
ROOT
HETATM    1  N1  UNL     1       5.287  -2.490  -2.336  1.00  0.00    -0.197 NA
HETATM    2  C1  UNL     1       4.596  -2.199  -1.465  1.00  0.00     0.059 C 
HETATM    3  C2  UNL     1       3.720  -1.819  -0.349  1.00  0.00     0.126 C 
ENDROOT
BRANCH   3   4
HETATM    4  C3  UNL     1       3.647  -0.329  -0.318  1.00  0.00     0.043 C 
BRANCH   4   5
HETATM    5  C4  UNL     1       2.757   0.191   0.810  1.00  0.00     0.108 A 
HETATM    6  C5  UNL     1       1.381  -0.301   0.675  1.00  0.00     0.011 A 
HETATM    7  C6  UNL     1       0.279   0.405   0.515  1.00  0.00    -0.012 A 
HETATM    8  C7  UNL     1      -0.994  -0.297   0.401  1.00  0.00    -0.012 A 
HETATM    9  C12 UNL     1       0.397   1.837   0.462  1.00  0.00     0.056 A 
HETATM   10  C8  UNL     1      -2.131   0.361   0.239  1.00  0.00     0.081 A 
HETATM   11  C16 UNL     1      -1.303  -1.759   0.434  1.00  0.00     0.062 C 
HETATM   12  S1  UNL     1      -2.278   2.160   0.139  1.00  0.00    -0.051 SA
HETATM   13  N5  UNL     1      -3.224  -0.539   0.156  1.00  0.00    -0.368 N 
HETATM   14  C9  UNL     1      -0.603   2.762   0.303  1.00  0.00     0.115 A 
HETATM   15  N2  UNL     1      -0.413   4.085   0.264  1.00  0.00    -0.234 NA
HETATM   16  C10 UNL     1       0.838   4.555   0.386  1.00  0.00     0.236 A 
HETATM   17  N3  UNL     1       1.896   3.737   0.546  1.00  0.00    -0.224 NA
HETATM   18  C11 UNL     1       1.676   2.391   0.583  1.00  0.00     0.139 A 
HETATM   19  N4  UNL     1       2.858   1.633   0.755  1.00  0.00    -0.366 N 
HETATM   20  H8  UNL     1       3.797   2.031   0.844  1.00  0.00     0.161 HD
HETATM   21  C15 UNL     1      -2.707  -1.884  -0.054  1.00  0.00     0.128 C 
BRANCH  13  22
HETATM   22  C13 UNL     1      -4.660  -0.281   0.248  1.00  0.00     0.192 C 
BRANCH  22  23
HETATM   23  C14 UNL     1      -5.483  -1.489   0.110  1.00  0.00     0.250 C 
HETATM   24  O1  UNL     1      -5.473  -2.677  -0.058  1.00  0.00    -0.305 OA
ENDBRANCH  22  23
ENDBRANCH  13  22
ENDBRANCH   4   5
ENDBRANCH   3   4
TORSDOF 4
