REMARK  6 active torsions:
REMARK  status: ('A' for Active; 'I' for Inactive)
REMARK    1  A    between atoms: C6_7  and  C7_8 
REMARK    2  A    between atoms: C7_8  and  N1_9 
REMARK    3  A    between atoms: N1_9  and  C8_10 
REMARK    4  A    between atoms: C9_11  and  O1_12 
REMARK    5  A    between atoms: C11_16  and  N4_17 
REMARK    6  A    between atoms: N4_17  and  C12_18 
ROOT
HETATM    1  C8  UNL     1      -0.105   0.449  -0.778  1.00  0.00     0.128 A 
HETATM    2  C9  UNL     1      -0.999   0.257  -1.799  1.00  0.00     0.194 A 
HETATM    3  N2  UNL     1      -0.666  -0.454  -2.898  1.00  0.00    -0.216 NA
HETATM    4  C10 UNL     1       0.547  -1.006  -3.050  1.00  0.00     0.238 A 
HETATM    5  N3  UNL     1       1.409  -0.816  -2.058  1.00  0.00    -0.222 NA
HETATM    6  C11 UNL     1       1.135  -0.127  -0.957  1.00  0.00     0.160 A 
ENDROOT
BRANCH   1   7
HETATM    7  N1  UNL     1      -0.531   1.187   0.340  1.00  0.00    -0.379 N 
HETATM    8  H8  UNL     1       0.129   1.394   1.119  1.00  0.00     0.160 HD
BRANCH   7   9
HETATM    9  C7  UNL     1      -1.839   1.705   0.518  1.00  0.00     0.160 C 
BRANCH   9  10
HETATM   10  C6  UNL     1      -2.768   0.559   0.818  1.00  0.00    -0.025 A 
HETATM   11  C2  UNL     1      -4.132   0.969   0.975  1.00  0.00    -0.037 A 
HETATM   12  C1  UNL     1      -4.536   2.224   0.871  1.00  0.00     0.024 C 
HETATM   13  C3  UNL     1      -5.244   0.092   1.263  1.00  0.00     0.018 A 
HETATM   14  C4  UNL     1      -5.156  -1.205   1.420  1.00  0.00     0.050 A 
HETATM   15  S1  UNL     1      -3.552  -2.024   1.281  1.00  0.00    -0.113 SA
HETATM   16  C5  UNL     1      -2.388  -0.719   0.929  1.00  0.00     0.059 A 
ENDBRANCH   9  10
ENDBRANCH   7   9
ENDBRANCH   1   7
BRANCH   2  17
HETATM   17  O1  UNL     1      -2.296   0.713  -1.896  1.00  0.00    -0.343 OA
HETATM   18  H9  UNL     1      -2.639   1.202  -2.689  1.00  0.00     0.219 HD
ENDBRANCH   2  17
BRANCH   6  19
HETATM   19  N4  UNL     1       2.115   0.031   0.054  1.00  0.00    -0.339 N 
HETATM   20  H11 UNL     1       1.879   0.588   0.897  1.00  0.00     0.167 HD
BRANCH  19  21
HETATM   21  C12 UNL     1       3.437  -0.471   0.113  1.00  0.00     0.035 A 
HETATM   22  C13 UNL     1       3.981  -1.362  -0.782  1.00  0.00     0.029 A 
HETATM   23  C14 UNL     1       5.265  -1.849  -0.738  1.00  0.00     0.004 A 
HETATM   24  C15 UNL     1       6.099  -1.430   0.272  1.00  0.00     0.019 A 
HETATM   25  C16 UNL     1       5.619  -0.540   1.201  1.00  0.00     0.013 A 
HETATM   26 BR1  UNL     1       6.743   0.046   2.590  1.00  0.00    -0.051 Br
HETATM   27  C17 UNL     1       4.324  -0.094   1.096  1.00  0.00     0.048 A 
ENDBRANCH  19  21
ENDBRANCH   6  19
TORSDOF 6
