REMARK  4 active torsions:
REMARK  status: ('A' for Active; 'I' for Inactive)
REMARK    1  A    between atoms: C2_2  and  C3_3 
REMARK    2  A    between atoms: C3_3  and  N1_4 
REMARK    3  A    between atoms: C3_3  and  C13_19 
REMARK    4  A    between atoms: N1_4  and  C4_5 
ROOT
HETATM    1  C4  UNL     1       0.586   0.912   0.664  1.00  0.00     0.139 A 
HETATM    2  N2  UNL     1      -0.028   1.736   1.476  1.00  0.00    -0.224 NA
HETATM    3  C5  UNL     1       0.420   2.375   2.514  1.00  0.00     0.236 A 
HETATM    4  N3  UNL     1       1.691   2.144   2.772  1.00  0.00    -0.234 NA
HETATM    5  C6  UNL     1       2.404   1.307   1.988  1.00  0.00     0.114 A 
HETATM    6  S1  UNL     1       4.184   0.749   2.016  1.00  0.00    -0.072 SA
HETATM    7  C7  UNL     1       4.034  -0.356   0.500  1.00  0.00     0.007 A 
HETATM    8  C8  UNL     1       2.679  -0.199   0.129  1.00  0.00    -0.026 A 
HETATM    9  C9  UNL     1       1.903   0.619   0.865  1.00  0.00     0.053 A 
HETATM   10  C10 UNL     1       2.494  -1.101  -1.016  1.00  0.00     0.057 C 
HETATM   11  C11 UNL     1       3.577  -2.147  -1.108  1.00  0.00     0.131 C 
HETATM   12  N4  UNL     1       4.903  -1.673  -1.306  1.00  0.00    -0.149 NA
HETATM   13  F1  UNL     1       4.857  -0.616  -2.160  1.00  0.00    -0.133 F 
HETATM   14  C12 UNL     1       5.227  -1.071   0.017  1.00  0.00     0.172 C 
ENDROOT
BRANCH   1  15
HETATM   15  N1  UNL     1      -0.269   0.509  -0.389  1.00  0.00    -0.365 N 
HETATM   16  H7  UNL     1       0.329  -0.000  -1.027  1.00  0.00     0.162 HD
BRANCH  15  17
HETATM   17  C3  UNL     1      -1.544   0.507  -0.997  1.00  0.00     0.116 C 
BRANCH  17  18
HETATM   18  C2  UNL     1      -2.139   1.824  -1.370  1.00  0.00     0.025 C 
HETATM   19  C1  UNL     1      -2.376   2.780  -0.243  1.00  0.00     0.007 C 
ENDBRANCH  17  18
BRANCH  17  20
HETATM   20  C13 UNL     1      -2.586  -0.315  -0.314  1.00  0.00    -0.036 A 
HETATM   21  C14 UNL     1      -2.843  -0.421   1.034  1.00  0.00     0.009 A 
HETATM   22  C15 UNL     1      -3.817  -1.188   1.598  1.00  0.00     0.001 A 
HETATM   23  C16 UNL     1      -4.637  -1.938   0.789  1.00  0.00     0.000 A 
HETATM   24  C17 UNL     1      -4.478  -1.915  -0.567  1.00  0.00     0.001 A 
HETATM   25  C18 UNL     1      -3.471  -1.114  -1.057  1.00  0.00     0.009 A 
ENDBRANCH  17  20
ENDBRANCH  15  17
ENDBRANCH   1  15
TORSDOF 4
