REMARK  4 active torsions:
REMARK  status: ('A' for Active; 'I' for Inactive)
REMARK    1  A    between atoms: C2_2  and  C3_3 
REMARK    2  A    between atoms: C3_3  and  C4_4 
REMARK    3  A    between atoms: C9_12  and  N3_13 
REMARK    4  A    between atoms: N3_13  and  C10_14 
ROOT
HETATM    1  C4  UNL     1       1.914  -0.613  -0.709  1.00  0.00    -0.006 C 
HETATM    2  C5  UNL     1       2.811   0.405  -0.785  1.00  0.00     0.028 C 
HETATM    3  C6  UNL     1       4.019   0.789  -0.002  1.00  0.00     0.137 C 
HETATM    4  S1  UNL     1       3.678   0.837   1.752  1.00  0.00    -0.116 SA
HETATM    5  C7  UNL     1       2.524   2.104   2.166  1.00  0.00     0.163 C 
HETATM    6  N1  UNL     1       1.467   2.686   1.635  1.00  0.00    -0.248 NA
HETATM    7  C8  UNL     1       1.030   2.243   0.331  1.00  0.00     0.230 C 
HETATM    8  N2  UNL     1       0.947   1.009   0.612  1.00  0.00    -0.246 NA
HETATM    9  C9  UNL     1       0.553   0.027  -0.347  1.00  0.00     0.161 C 
HETATM   10  C18 UNL     1       0.017   0.691  -1.585  1.00  0.00     0.164 C 
HETATM   11  C19 UNL     1       1.145   0.938  -2.569  1.00  0.00     0.226 C 
HETATM   12  O1  UNL     1       1.223   0.904  -3.826  1.00  0.00    -0.273 OA
HETATM   13  N4  UNL     1       2.361   1.282  -1.859  1.00  0.00    -0.330 N 
HETATM   14  H22 UNL     1       2.926   2.137  -2.116  1.00  0.00     0.168 HD
ENDROOT
BRANCH   9  15
HETATM   15  N3  UNL     1      -0.264  -1.029   0.148  1.00  0.00    -0.361 N 
HETATM   16  H10 UNL     1      -0.522  -2.000   0.427  1.00  0.00     0.162 HD
BRANCH  15  17
HETATM   17  C10 UNL     1      -1.601  -0.670   0.554  1.00  0.00     0.011 C 
HETATM   18  C11 UNL     1      -1.513  -0.040   1.740  1.00  0.00     0.025 C 
HETATM   19  C12 UNL     1      -2.622   0.513   2.548  1.00  0.00     0.002 C 
HETATM   20  C13 UNL     1      -3.813   0.941   2.095  1.00  0.00     0.000 C 
HETATM   21  C14 UNL     1      -4.280   0.956   0.692  1.00  0.00     0.003 C 
HETATM   22  C15 UNL     1      -3.817   0.120  -0.224  1.00  0.00    -0.078 C 
HETATM   23  C16 UNL     1      -4.486   0.386  -1.548  1.00  0.00     0.044 C 
HETATM   24  C17 UNL     1      -2.834  -0.966  -0.233  1.00  0.00     0.090 C 
ENDBRANCH  15  17
ENDBRANCH   9  15
BRANCH   1  25
HETATM   25  C3  UNL     1       2.076  -2.062  -0.911  1.00  0.00     0.045 C 
BRANCH  25  26
HETATM   26  C2  UNL     1       1.757  -2.895   0.254  1.00  0.00    -0.006 C 
HETATM   27  C1  UNL     1       2.664  -3.709   0.830  1.00  0.00     0.005 C 
ENDBRANCH  25  26
ENDBRANCH   1  25
TORSDOF 4
