REMARK  4 active torsions:
REMARK  status: ('A' for Active; 'I' for Inactive)
REMARK    1  A    between atoms: C2_2  and  C3_3 
REMARK       I    between atoms: C3_3  and  N1_5 
REMARK    2  A    between atoms: N4_15  and  C10_16 
REMARK    3  A    between atoms: C10_16  and  C11_17 
REMARK    4  A    between atoms: C10_16  and  C13_19 
ROOT
HETATM    1  C3  UNL     1       4.730   0.366   1.430  1.00  0.00     0.243 C 
HETATM    2  O1  UNL     1       5.138   0.860   2.496  1.00  0.00    -0.268 OA
HETATM    3  N1  UNL     1       3.543   0.050   0.736  1.00  0.00    -0.340 N 
HETATM    4  C4  UNL     1       2.175   0.250   1.140  1.00  0.00     0.132 C 
HETATM    5  C5  UNL     1       1.287  -0.925   0.849  1.00  0.00     0.062 C 
HETATM    6  C6  UNL     1       0.969  -1.011  -0.608  1.00  0.00    -0.028 C 
HETATM    7  S1  UNL     1       2.145  -0.409  -1.424  1.00  0.00    -0.133 SA
HETATM    8  C7  UNL     1       2.122  -0.346  -3.130  1.00  0.00     0.158 C 
HETATM    9  N2  UNL     1       1.230   0.591  -3.243  1.00  0.00    -0.248 NA
HETATM   10  C8  UNL     1       0.615   1.211  -2.097  1.00  0.00     0.228 C 
HETATM   11  N3  UNL     1      -0.268   0.364  -2.481  1.00  0.00    -0.264 NA
HETATM   12  C9  UNL     1      -1.520   0.237  -1.768  1.00  0.00     0.270 C 
HETATM   13  N4  UNL     1      -1.396  -0.678  -0.722  1.00  0.00    -0.383 N 
HETATM   14  C19 UNL     1      -0.361  -1.655  -0.793  1.00  0.00     0.160 C 
HETATM   15  C20 UNL     1       3.689  -0.564  -0.591  1.00  0.00     0.199 C 
ENDROOT
BRANCH  13  16
HETATM   16  C10 UNL     1      -2.472  -0.981   0.131  1.00  0.00     0.114 C 
BRANCH  16  17
HETATM   17  C11 UNL     1      -3.631  -1.727  -0.408  1.00  0.00     0.025 C 
HETATM   18  C12 UNL     1      -4.416  -1.146  -1.513  1.00  0.00     0.007 C 
ENDBRANCH  16  17
BRANCH  16  19
HETATM   19  C13 UNL     1      -2.904   0.292   0.819  1.00  0.00    -0.036 A 
HETATM   20  C14 UNL     1      -2.027   1.228   1.319  1.00  0.00     0.009 A 
HETATM   21  C15 UNL     1      -2.458   2.377   1.947  1.00  0.00     0.001 A 
HETATM   22  C16 UNL     1      -3.793   2.644   2.103  1.00  0.00     0.000 A 
HETATM   23  C17 UNL     1      -4.698   1.739   1.620  1.00  0.00     0.001 A 
HETATM   24  C18 UNL     1      -4.234   0.608   1.002  1.00  0.00     0.009 A 
ENDBRANCH  16  19
ENDBRANCH  13  16
BRANCH   1  25
HETATM   25  C2  UNL     1       6.043   0.099   0.873  1.00  0.00     0.064 C 
HETATM   26  C1  UNL     1       7.022   0.470   1.680  1.00  0.00     0.017 C 
ENDBRANCH   1  25
TORSDOF 4
