REMARK  6 active torsions:
REMARK  status: ('A' for Active; 'I' for Inactive)
REMARK    1  A    between atoms: C2_2  and  C3_3 
REMARK       I    between atoms: C3_3  and  N1_5 
REMARK    2  A    between atoms: C6_8  and  C7_9 
REMARK    3  A    between atoms: C12_17  and  N4_18 
REMARK    4  A    between atoms: N4_18  and  C13_19 
REMARK    5  A    between atoms: C13_19  and  C14_20 
REMARK    6  A    between atoms: C13_19  and  C16_22 
ROOT
HETATM    1  C7  UNL     1       2.529  -0.056   0.058  1.00  0.00     0.009 A 
HETATM    2  C8  UNL     1       1.249  -0.395  -0.122  1.00  0.00     0.035 A 
HETATM    3  C9  UNL     1       0.438   0.313  -0.968  1.00  0.00     0.044 A 
HETATM    4  C10 UNL     1       1.031   1.392  -1.617  1.00  0.00     0.108 A 
HETATM    5  S1  UNL     1       2.748   1.405  -1.026  1.00  0.00    -0.072 SA
HETATM    6  N2  UNL     1       0.480   2.184  -2.440  1.00  0.00    -0.262 NA
HETATM    7  C11 UNL     1      -0.907   2.089  -2.850  1.00  0.00     0.273 A 
HETATM    8  N3  UNL     1      -1.465   0.955  -2.145  1.00  0.00    -0.358 N 
HETATM    9  C12 UNL     1      -0.838   0.077  -1.228  1.00  0.00     0.112 A 
HETATM   10  H12 UNL     1      -2.467   0.851  -2.413  1.00  0.00     0.162 HD
ENDROOT
BRANCH   9  11
HETATM   11  N4  UNL     1      -1.562  -0.989  -0.634  1.00  0.00    -0.367 N 
HETATM   12  H13 UNL     1      -0.998  -1.768  -0.199  1.00  0.00     0.161 HD
BRANCH  11  13
HETATM   13  C13 UNL     1      -2.987  -1.032  -0.613  1.00  0.00     0.116 C 
BRANCH  13  14
HETATM   14  C14 UNL     1      -3.492  -2.297   0.091  1.00  0.00     0.025 C 
HETATM   15  C15 UNL     1      -2.984  -2.324   1.538  1.00  0.00     0.007 C 
ENDBRANCH  13  14
BRANCH  13  16
HETATM   16  C16 UNL     1      -3.654   0.123  -0.014  1.00  0.00    -0.036 A 
HETATM   17  C17 UNL     1      -4.759   0.707  -0.643  1.00  0.00     0.009 A 
HETATM   18  C18 UNL     1      -5.425   1.795  -0.124  1.00  0.00     0.001 A 
HETATM   19  C19 UNL     1      -5.009   2.355   1.065  1.00  0.00     0.000 A 
HETATM   20  C20 UNL     1      -3.920   1.817   1.732  1.00  0.00     0.001 A 
HETATM   21  C21 UNL     1      -3.293   0.723   1.158  1.00  0.00     0.009 A 
ENDBRANCH  13  16
ENDBRANCH  11  13
ENDBRANCH   9  11
BRANCH   1  22
HETATM   22  C6  UNL     1       3.668  -0.550   0.849  1.00  0.00     0.129 C 
HETATM   23  N1  UNL     1       4.853  -0.583  -0.008  1.00  0.00    -0.339 N 
HETATM   24  C3  UNL     1       6.087   0.003  -0.329  1.00  0.00     0.240 C 
HETATM   25  C4  UNL     1       4.204  -1.749  -0.627  1.00  0.00     0.129 C 
HETATM   26  O1  UNL     1       6.747  -0.511  -1.262  1.00  0.00    -0.269 OA
HETATM   27  C5  UNL     1       3.775  -2.082   0.810  1.00  0.00     0.050 C 
BRANCH  24  28
HETATM   28  C2  UNL     1       6.583   1.152   0.381  1.00  0.00     0.048 C 
HETATM   29  C1  UNL     1       5.958   1.752   1.369  1.00  0.00     0.037 C 
ENDBRANCH  24  28
ENDBRANCH   1  22
TORSDOF 6
