REMARK  2 active torsions:
REMARK  status: ('A' for Active; 'I' for Inactive)
REMARK    1  A    between atoms: C2_2  and  C3_3 
REMARK       I    between atoms: C3_3  and  N1_5 
REMARK    2  A    between atoms: N2_10  and  C8_11 
ROOT
HETATM    1  C3  UNL     1       3.581  -0.754  -0.179  1.00  0.00     0.240 C 
HETATM    2  O1  UNL     1       4.044  -1.718   0.470  1.00  0.00    -0.269 OA
HETATM    3  N1  UNL     1       2.635   0.129   0.397  1.00  0.00    -0.341 N 
HETATM    4  C4  UNL     1       2.281  -0.198   1.766  1.00  0.00     0.154 C 
HETATM    5  C5  UNL     1       0.828  -0.185   2.045  1.00  0.00    -0.001 C 
HETATM    6  C6  UNL     1      -0.120   0.753   2.169  1.00  0.00    -0.045 C 
HETATM    7  C7  UNL     1      -1.324  -0.032   1.701  1.00  0.00     0.161 C 
HETATM    8  N2  UNL     1      -1.699   0.438   0.349  1.00  0.00    -0.350 N 
HETATM    9  C14 UNL     1      -1.317   1.700  -0.247  1.00  0.00     0.232 C 
HETATM   10  C15 UNL     1       0.094   1.753  -0.723  1.00  0.00     0.037 C 
HETATM   11  C16 UNL     1       1.136   1.981   0.071  1.00  0.00    -0.003 C 
HETATM   12  C17 UNL     1       2.239   1.185  -0.567  1.00  0.00     0.172 C 
HETATM   13  S1  UNL     1       1.190   2.986   1.595  1.00  0.00    -0.118 SA
HETATM   14  C18 UNL     1      -0.153   2.203   2.596  1.00  0.00     0.122 C 
HETATM   15  C19 UNL     1      -1.377   2.812   1.945  1.00  0.00     0.106 C 
HETATM   16  N3  UNL     1      -1.641   2.718   0.703  1.00  0.00    -0.274 NA
ENDROOT
BRANCH   8  17
HETATM   17  C8  UNL     1      -2.512  -0.516  -0.326  1.00  0.00     0.032 A 
HETATM   18  C9  UNL     1      -2.827  -0.505  -1.667  1.00  0.00     0.029 A 
HETATM   19  C10 UNL     1      -3.626  -1.429  -2.304  1.00  0.00     0.002 A 
HETATM   20  C11 UNL     1      -4.166  -2.456  -1.566  1.00  0.00     0.000 A 
HETATM   21  C12 UNL     1      -3.881  -2.510  -0.225  1.00  0.00     0.002 A 
HETATM   22  C13 UNL     1      -3.081  -1.566   0.360  1.00  0.00     0.029 A 
ENDBRANCH   8  17
BRANCH   1  23
HETATM   23  C2  UNL     1       4.049  -0.574  -1.546  1.00  0.00     0.048 C 
HETATM   24  C1  UNL     1       4.912  -1.577  -1.726  1.00  0.00     0.037 C 
ENDBRANCH   1  23
TORSDOF 2
