REMARK  2 active torsions:
REMARK  status: ('A' for Active; 'I' for Inactive)
REMARK    1  A    between atoms: C2_2  and  C3_3 
REMARK    2  A    between atoms: C14_19  and  P1_20 
ROOT
HETATM    1  C3  UNL     1       2.449  -0.968   0.139  1.00  0.00    -0.058 C 
HETATM    2  C4  UNL     1       2.567  -1.808  -0.827  1.00  0.00     0.007 C 
HETATM    3  C5  UNL     1       1.141  -2.187  -1.187  1.00  0.00    -0.002 C 
HETATM    4  C6  UNL     1      -0.112  -1.913  -0.715  1.00  0.00     0.003 C 
HETATM    5  C7  UNL     1      -1.504  -1.674  -0.277  1.00  0.00     0.303 C 
HETATM    6  N1  UNL     1      -1.952  -0.333  -0.098  1.00  0.00     0.125 N 
HETATM    7  C8  UNL     1      -2.916  -0.476   1.037  1.00  0.00     0.415 C 
HETATM    8  N2  UNL     1      -3.362   0.798   1.456  1.00  0.00    -0.285 N 
HETATM    9  N3  UNL     1      -4.102   1.459   0.442  1.00  0.00    -0.172 NA
HETATM   10  C9  UNL     1      -3.701   1.239  -0.769  1.00  0.00     0.132 C 
HETATM   11  S1  UNL     1      -3.999   1.617  -2.535  1.00  0.00    -0.082 SA
HETATM   12  C10 UNL     1      -2.258   2.128  -2.783  1.00  0.00     0.057 C 
HETATM   13  C11 UNL     1      -1.627   1.304  -1.905  1.00  0.00    -0.026 C 
HETATM   14  C12 UNL     1      -0.202   1.149  -1.552  1.00  0.00     0.121 C 
HETATM   15  C13 UNL     1       0.134   1.466  -0.139  1.00  0.00     0.164 C 
HETATM   16  O1  UNL     1      -0.779   2.357  -0.018  1.00  0.00    -0.292 OA
HETATM   17  C14 UNL     1       1.117   1.042   0.891  1.00  0.00     0.012 C 
HETATM   18  C16 UNL     1       2.071   0.084   1.044  1.00  0.00     0.022 C 
HETATM   19  C17 UNL     1      -2.536   0.353  -1.177  1.00  0.00     0.315 C 
HETATM   20  H13 UNL     1      -3.184   1.231   2.394  1.00  0.00     0.184 HD
ENDROOT
BRANCH  17  21
HETATM   21  P1  UNL     1       0.949   2.142   2.313  1.00  0.00    -0.095 P 
HETATM   22  C15 UNL     1      -0.392   1.659   3.467  1.00  0.00     0.046 C 
HETATM   23  H17 UNL     1       0.956   3.527   1.944  1.00  0.00     0.062 HD
ENDBRANCH  17  21
BRANCH   1  24
HETATM   24  C2  UNL     1       3.931  -1.025   0.070  1.00  0.00     0.034 C 
HETATM   25  C1  UNL     1       4.509  -1.936  -0.971  1.00  0.00     0.010 C 
ENDBRANCH   1  24
TORSDOF 2
