REMARK  5 active torsions:
REMARK  status: ('A' for Active; 'I' for Inactive)
REMARK    1  A    between atoms: C2_2  and  C3_3 
REMARK       I    between atoms: C3_3  and  N1_5 
REMARK    2  A    between atoms: C10_13  and  N2_14 
REMARK    3  A    between atoms: N2_14  and  C11_15 
REMARK    4  A    between atoms: C11_15  and  C12_16 
REMARK    5  A    between atoms: C11_15  and  C14_18 
ROOT
HETATM    1  C3  UNL     1       2.818   0.836   1.881  1.00  0.00     0.243 C 
HETATM    2  O1  UNL     1       1.899   1.628   1.518  1.00  0.00    -0.268 OA
HETATM    3  N1  UNL     1       2.741  -0.524   1.505  1.00  0.00    -0.335 N 
HETATM    4  C4  UNL     1       3.799  -1.435   1.920  1.00  0.00     0.206 C 
HETATM    5  S1  UNL     1       3.475  -3.003   0.998  1.00  0.00    -0.102 SA
HETATM    6  C5  UNL     1       2.944  -2.391  -0.633  1.00  0.00     0.049 C 
HETATM    7  C6  UNL     1       2.035  -1.416  -0.642  1.00  0.00    -0.022 C 
HETATM    8  C7  UNL     1       1.629  -1.019   0.735  1.00  0.00     0.164 C 
HETATM    9  C8  UNL     1       1.726  -1.047  -2.009  1.00  0.00     0.131 A 
HETATM   10  C9  UNL     1       0.435  -0.304  -2.197  1.00  0.00     0.065 A 
HETATM   11  C10 UNL     1       0.128   0.852  -1.618  1.00  0.00     0.112 C 
HETATM   12  N3  UNL     1      -0.682  -0.668  -3.032  1.00  0.00    -0.244 NA
HETATM   13  C20 UNL     1      -0.551  -1.749  -3.723  1.00  0.00     0.234 A 
HETATM   14  N4  UNL     1       0.628  -2.558  -3.671  1.00  0.00    -0.238 NA
HETATM   15  C21 UNL     1       1.629  -2.216  -2.896  1.00  0.00     0.091 A 
HETATM   16  S2  UNL     1       3.284  -2.723  -2.384  1.00  0.00    -0.066 SA
ENDROOT
BRANCH  11  17
HETATM   17  N2  UNL     1      -1.046   1.686  -1.687  1.00  0.00    -0.389 N 
HETATM   18  H10 UNL     1      -0.986   2.692  -1.951  1.00  0.00     0.159 HD
BRANCH  17  19
HETATM   19  C11 UNL     1      -2.361   1.167  -1.395  1.00  0.00     0.114 C 
BRANCH  19  20
HETATM   20  C12 UNL     1      -3.436   2.236  -1.528  1.00  0.00     0.025 C 
HETATM   21  C13 UNL     1      -4.792   1.624  -1.209  1.00  0.00     0.007 C 
ENDBRANCH  19  20
BRANCH  19  22
HETATM   22  C14 UNL     1      -2.424   0.510  -0.066  1.00  0.00    -0.036 A 
HETATM   23  C15 UNL     1      -1.843   1.113   1.046  1.00  0.00     0.009 A 
HETATM   24  C16 UNL     1      -1.890   0.515   2.305  1.00  0.00     0.001 A 
HETATM   25  C17 UNL     1      -2.529  -0.708   2.458  1.00  0.00     0.000 A 
HETATM   26  C18 UNL     1      -3.118  -1.335   1.370  1.00  0.00     0.001 A 
HETATM   27  C19 UNL     1      -3.045  -0.704   0.146  1.00  0.00     0.009 A 
ENDBRANCH  19  22
ENDBRANCH  17  19
ENDBRANCH  11  17
BRANCH   1  28
HETATM   28  C2  UNL     1       3.861   1.449   2.661  1.00  0.00     0.064 C 
HETATM   29  C1  UNL     1       4.906   0.812   3.142  1.00  0.00     0.017 C 
ENDBRANCH   1  28
TORSDOF 5
