REMARK  4 active torsions:
REMARK  status: ('A' for Active; 'I' for Inactive)
REMARK    1  A    between atoms: C10_15  and  N4_16 
REMARK    2  A    between atoms: N4_16  and  C11_17 
REMARK    3  A    between atoms: C11_17  and  C13_19 
REMARK    4  A    between atoms: C13_19  and  C14_20 
ROOT
HETATM    1  C1  UNL     1       7.550   0.603  -0.354  1.00  0.00     0.016 C 
HETATM    2  C2  UNL     1       6.655   0.141   0.487  1.00  0.00     0.059 C 
HETATM    3  C3  UNL     1       5.619  -0.410   1.329  1.00  0.00     0.308 A 
HETATM    4  O1  UNL     1       4.767  -0.852   2.114  1.00  0.00    -0.123 OA
HETATM    5  N1  UNL     1       4.576  -1.166   0.670  1.00  0.00     0.113 N 
HETATM    6  C4  UNL     1       3.395  -1.880   1.037  1.00  0.00     0.288 C 
HETATM    7  C5  UNL     1       2.102  -1.161   0.776  1.00  0.00     0.072 C 
HETATM    8  C6  UNL     1       2.134  -0.589  -0.594  1.00  0.00    -0.025 A 
HETATM    9  C7  UNL     1       3.320  -0.729  -1.244  1.00  0.00     0.021 A 
HETATM   10  S1  UNL     1       3.097   0.007  -2.847  1.00  0.00    -0.072 SA
HETATM   11  C8  UNL     1       1.376   0.481  -2.559  1.00  0.00     0.114 A 
HETATM   12  N2  UNL     1       0.495   1.115  -3.361  1.00  0.00    -0.234 NA
HETATM   13  C9  UNL     1      -0.752   1.383  -2.961  1.00  0.00     0.236 A 
HETATM   14  N3  UNL     1      -1.009   0.966  -1.731  1.00  0.00    -0.224 NA
HETATM   15  C10 UNL     1      -0.182   0.340  -0.905  1.00  0.00     0.139 A 
HETATM   16  C20 UNL     1       1.112   0.038  -1.260  1.00  0.00     0.053 A 
HETATM   17  C21 UNL     1       4.580  -1.342  -0.792  1.00  0.00     0.330 C 
ENDROOT
BRANCH  15  18
HETATM   18  N4  UNL     1      -0.766   0.050   0.356  1.00  0.00    -0.369 N 
HETATM   19  H9  UNL     1      -0.296  -0.411   1.157  1.00  0.00     0.161 HD
BRANCH  18  20
HETATM   20  C11 UNL     1      -2.131   0.365   0.719  1.00  0.00     0.083 C 
HETATM   21  C12 UNL     1      -2.295   1.878   0.543  1.00  0.00     0.032 C 
BRANCH  20  22
HETATM   22  C13 UNL     1      -3.102  -0.414  -0.139  1.00  0.00     0.063 C 
BRANCH  22  23
HETATM   23  C14 UNL     1      -4.533  -0.109   0.218  1.00  0.00    -0.056 A 
HETATM   24  C15 UNL     1      -5.324   0.879  -0.330  1.00  0.00     0.007 A 
HETATM   25  C16 UNL     1      -6.622   1.025   0.114  1.00  0.00     0.001 A 
HETATM   26  C17 UNL     1      -7.172   0.214   1.094  1.00  0.00     0.000 A 
HETATM   27  C18 UNL     1      -6.418  -0.788   1.670  1.00  0.00     0.001 A 
HETATM   28  C19 UNL     1      -5.129  -0.904   1.204  1.00  0.00     0.007 A 
ENDBRANCH  22  23
ENDBRANCH  20  22
ENDBRANCH  18  20
ENDBRANCH  15  18
TORSDOF 4
