REMARK  2 active torsions:
REMARK  status: ('A' for Active; 'I' for Inactive)
REMARK    1  A    between atoms: C7_7  and  N1_8 
REMARK    2  A    between atoms: N1_8  and  C8_9 
ROOT
HETATM    1  C8  UNL     1       0.589   0.351  -0.167  1.00  0.00     0.344 C 
HETATM    2  C9  UNL     1       1.386   0.515  -1.392  1.00  0.00     0.089 C 
HETATM    3  C10 UNL     1       2.462  -0.505  -1.601  1.00  0.00     0.274 C 
HETATM    4  N2  UNL     1       3.547  -0.429  -0.678  1.00  0.00     0.088 N 
HETATM    5  C11 UNL     1       4.370   0.748  -0.903  1.00  0.00     0.311 C 
HETATM    6  P1  UNL     1       5.792   0.681   0.334  1.00  0.00    -0.030 P 
HETATM    7  S1  UNL     1       5.126   1.741   2.153  1.00  0.00    -0.092 SA
HETATM    8  C12 UNL     1       3.448   1.130   2.457  1.00  0.00     0.167 C 
HETATM    9  N3  UNL     1       2.290   0.657   2.718  1.00  0.00    -0.247 NA
HETATM   10  C13 UNL     1       1.130   1.121   2.054  1.00  0.00     0.229 C 
HETATM   11  N4  UNL     1       1.419   0.382   1.007  1.00  0.00    -0.247 NA
HETATM   12  H16 UNL     1       4.093  -1.293  -0.603  1.00  0.00     0.316 HD
HETATM   13  H19 UNL     1       6.928   1.424  -0.232  1.00  0.00     0.071 HD
ENDROOT
BRANCH   1  14
HETATM   14  N1  UNL     1      -0.159  -0.869  -0.073  1.00  0.00     0.115 N 
HETATM   15  H10 UNL     1      -0.472  -1.012   0.888  1.00  0.00     0.319 HD
BRANCH  14  16
HETATM   16  C7  UNL     1      -1.123  -1.149  -1.054  1.00  0.00     0.247 C 
HETATM   17  C6  UNL     1      -1.760  -2.502  -0.705  1.00  0.00     0.043 C 
HETATM   18  C5  UNL     1      -2.819  -2.330   0.298  1.00  0.00     0.032 C 
HETATM   19  C4  UNL     1      -3.853  -2.022   1.014  1.00  0.00    -0.034 C 
HETATM   20  C3  UNL     1      -4.428  -0.851   0.846  1.00  0.00     0.026 C 
HETATM   21  C2  UNL     1      -3.967   0.444   0.264  1.00  0.00     0.122 C 
HETATM   22  C1  UNL     1      -4.211   1.481   1.355  1.00  0.00     0.040 C 
HETATM   23  O1  UNL     1      -2.607   0.435   0.040  1.00  0.00    -0.384 OA
HETATM   24  C14 UNL     1      -2.248  -0.162  -1.162  1.00  0.00     0.203 C 
ENDBRANCH  14  16
ENDBRANCH   1  14
TORSDOF 2
