REMARK  4 active torsions:
REMARK  status: ('A' for Active; 'I' for Inactive)
REMARK    1  A    between atoms: N1_2  and  C3_4 
REMARK    2  A    between atoms: C3_4  and  C4_5 
REMARK    3  A    between atoms: C12_13  and  C13_14 
REMARK    4  A    between atoms: C13_14  and  O1_15 
ROOT
HETATM    1  C4  UNL     1       3.383   0.834  -1.013  1.00  0.00     0.016 C 
HETATM    2  C5  UNL     1       2.642  -0.254  -0.979  1.00  0.00     0.011 C 
HETATM    3  C6  UNL     1       2.218  -1.000  -2.271  1.00  0.00     0.071 C 
HETATM    4  C7  UNL     1       0.699  -1.131  -2.119  1.00  0.00    -0.022 C 
HETATM    5  C8  UNL     1      -0.546  -1.522  -2.042  1.00  0.00    -0.004 C 
HETATM    6  C9  UNL     1      -1.869  -1.034  -1.787  1.00  0.00    -0.004 C 
HETATM    7  C10 UNL     1      -2.581  -0.008  -1.496  1.00  0.00    -0.025 C 
HETATM    8  C11 UNL     1      -2.731   1.420  -1.200  1.00  0.00     0.054 C 
HETATM    9  C12 UNL     1      -3.088   1.709   0.253  1.00  0.00     0.110 C 
HETATM   10  N2  UNL     1      -3.737   0.736   1.005  1.00  0.00    -0.367 N 
HETATM   11  C14 UNL     1      -3.886  -0.692   1.165  1.00  0.00     0.139 A 
HETATM   12  N3  UNL     1      -5.218  -0.987   1.084  1.00  0.00    -0.224 NA
HETATM   13  C15 UNL     1      -5.743  -2.211   1.049  1.00  0.00     0.236 A 
HETATM   14  N4  UNL     1      -4.926  -3.290   1.092  1.00  0.00    -0.234 NA
HETATM   15  C16 UNL     1      -3.580  -2.966   1.175  1.00  0.00     0.114 A 
HETATM   16  S1  UNL     1      -2.174  -4.168   1.221  1.00  0.00    -0.072 SA
HETATM   17  C17 UNL     1      -0.783  -2.931   1.295  1.00  0.00     0.010 A 
HETATM   18  C18 UNL     1      -1.751  -1.889   1.273  1.00  0.00    -0.025 A 
HETATM   19  C19 UNL     1      -3.032  -1.709   1.216  1.00  0.00     0.053 A 
HETATM   20  C20 UNL     1      -1.089  -0.627   1.591  1.00  0.00     0.060 C 
HETATM   21  C21 UNL     1       0.322  -0.902   2.268  1.00  0.00     0.131 C 
HETATM   22  N5  UNL     1       1.068  -1.422   1.063  1.00  0.00    -0.343 N 
HETATM   23  C22 UNL     1       0.637  -2.787   1.246  1.00  0.00     0.172 C 
HETATM   24  C23 UNL     1       1.868  -0.719   0.154  1.00  0.00     0.250 C 
HETATM   25  O2  UNL     1       1.943   0.140   1.033  1.00  0.00    -0.268 OA
HETATM   26  H22 UNL     1      -4.311   1.255   1.754  1.00  0.00     0.161 HD
ENDROOT
BRANCH   1  27
HETATM   27  C3  UNL     1       3.984   1.815  -0.079  1.00  0.00     0.299 C 
BRANCH  27  28
HETATM   28  N1  UNL     1       5.402   1.836  -0.156  1.00  0.00     0.083 N 
HETATM   29  C1  UNL     1       5.911   0.585   0.327  1.00  0.00     0.309 C 
HETATM   30  C2  UNL     1       5.959   2.343  -1.353  1.00  0.00     0.309 C 
ENDBRANCH  27  28
ENDBRANCH   1  27
BRANCH   9  31
HETATM   31  C13 UNL     1      -3.766   3.077   0.353  1.00  0.00     0.189 C 
BRANCH  31  32
HETATM   32  O1  UNL     1      -3.089   4.026  -0.370  1.00  0.00    -0.399 OA
HETATM   33  H21 UNL     1      -2.626   4.639   0.237  1.00  0.00     0.209 HD
ENDBRANCH  31  32
ENDBRANCH   9  31
TORSDOF 4
