REMARK  6 active torsions:
REMARK  status: ('A' for Active; 'I' for Inactive)
REMARK    1  A    between atoms: C5_6  and  N1_7 
REMARK    2  A    between atoms: N1_7  and  C6_8 
REMARK    3  A    between atoms: C9_13  and  N4_14 
REMARK    4  A    between atoms: N4_14  and  C10_15 
REMARK    5  A    between atoms: C10_15  and  C11_16 
REMARK    6  A    between atoms: C12_17  and  C13_18 
ROOT
HETATM    1  C6  UNL     1      -1.100  -0.626   0.227  1.00  0.00     0.157 A 
HETATM    2  N2  UNL     1      -2.045  -0.431   1.154  1.00  0.00    -0.222 NA
HETATM    3  C7  UNL     1      -1.820  -0.602   2.460  1.00  0.00     0.235 A 
HETATM    4  N3  UNL     1      -0.588  -0.988   2.885  1.00  0.00    -0.252 NA
HETATM    5  C8  UNL     1       0.380  -1.190   1.956  1.00  0.00     0.151 A 
HETATM    6  C9  UNL     1       0.164  -1.018   0.610  1.00  0.00     0.092 A 
ENDROOT
BRANCH   6   7
HETATM    7  N4  UNL     1       1.260  -1.273  -0.266  1.00  0.00    -0.382 N 
HETATM    8  H7  UNL     1       1.258  -1.205  -1.310  1.00  0.00     0.160 HD
BRANCH   7   9
HETATM    9  C10 UNL     1       2.558  -1.673   0.231  1.00  0.00     0.147 C 
BRANCH   9  10
HETATM   10  C11 UNL     1       3.242  -0.620   1.021  1.00  0.00    -0.005 C 
HETATM   11  C12 UNL     1       2.930   0.609   1.361  1.00  0.00     0.028 C 
BRANCH  11  12
HETATM   12  C13 UNL     1       3.833   1.420   2.166  1.00  0.00     0.044 C 
HETATM   13  C14 UNL     1       3.824   2.626   2.647  1.00  0.00     0.020 C 
HETATM   14  C15 UNL     1       4.914   2.524   3.337  1.00  0.00     0.103 C 
HETATM   15  N5  UNL     1       5.117   1.236   2.768  1.00  0.00    -0.364 N 
HETATM   16  H13 UNL     1       5.776   0.410   2.690  1.00  0.00     0.165 HD
ENDBRANCH  11  12
ENDBRANCH   9  10
ENDBRANCH   7   9
ENDBRANCH   6   7
BRANCH   1  17
HETATM   17  N1  UNL     1      -1.347  -0.445  -1.158  1.00  0.00    -0.339 N 
HETATM   18  H4  UNL     1      -0.578  -0.630  -1.841  1.00  0.00     0.167 HD
BRANCH  17  19
HETATM   19  C5  UNL     1      -2.527  -0.028  -1.826  1.00  0.00     0.035 A 
HETATM   20  C4  UNL     1      -2.683  -0.067  -3.201  1.00  0.00     0.029 A 
HETATM   21  C3  UNL     1      -3.809   0.334  -3.873  1.00  0.00     0.004 A 
HETATM   22  C2  UNL     1      -4.887   0.818  -3.162  1.00  0.00     0.019 A 
HETATM   23  C1  UNL     1      -4.803   0.886  -1.781  1.00  0.00     0.013 A 
HETATM   24 BR1  UNL     1      -6.308   1.560  -0.833  1.00  0.00    -0.051 Br
HETATM   25  C16 UNL     1      -3.637   0.463  -1.187  1.00  0.00     0.048 A 
ENDBRANCH  17  19
ENDBRANCH   1  17
TORSDOF 6
