REMARK  7 active torsions:
REMARK  status: ('A' for Active; 'I' for Inactive)
REMARK    1  A    between atoms: N1_2  and  C3_4 
REMARK    2  A    between atoms: C3_4  and  C4_5 
REMARK    3  A    between atoms: C5_6  and  C6_7 
REMARK       I    between atoms: C6_7  and  N2_9 
REMARK    4  A    between atoms: C13_19  and  C14_20 
REMARK    5  A    between atoms: C14_20  and  C15_21 
REMARK    6  A    between atoms: C14_20  and  C16_23 
REMARK    7  A    between atoms: C15_21  and  O2_22 
ROOT
HETATM    1  C6  UNL     1       2.804  -0.449  -0.188  1.00  0.00     0.243 C 
HETATM    2  O1  UNL     1       2.575  -1.053   0.888  1.00  0.00    -0.268 OA
HETATM    3  N2  UNL     1       1.502  -0.110  -0.631  1.00  0.00    -0.344 N 
HETATM    4  C7  UNL     1       0.423  -0.532   0.216  1.00  0.00     0.131 C 
HETATM    5  C8  UNL     1      -0.891   0.251  -0.081  1.00  0.00     0.060 C 
HETATM    6  C9  UNL     1      -1.417  -0.166  -1.384  1.00  0.00    -0.027 A 
HETATM    7  C10 UNL     1      -0.290   0.051  -2.264  1.00  0.00     0.010 A 
HETATM    8  S1  UNL     1      -0.865  -0.447  -3.863  1.00  0.00    -0.072 SA
HETATM    9  C11 UNL     1      -2.499  -0.902  -3.335  1.00  0.00     0.112 A 
HETATM   10  N3  UNL     1      -3.479  -1.377  -4.098  1.00  0.00    -0.234 NA
HETATM   11  C12 UNL     1      -4.652  -1.664  -3.524  1.00  0.00     0.234 A 
HETATM   12  N4  UNL     1      -4.686  -1.432  -2.238  1.00  0.00    -0.245 NA
HETATM   13  C13 UNL     1      -3.745  -0.955  -1.401  1.00  0.00     0.060 A 
HETATM   14  C22 UNL     1      -2.514  -0.654  -1.999  1.00  0.00     0.033 A 
HETATM   15  C23 UNL     1       1.056   0.597  -1.816  1.00  0.00     0.172 C 
ENDROOT
BRANCH  13  16
HETATM   16  C14 UNL     1      -4.063  -0.778   0.029  1.00  0.00     0.095 C 
BRANCH  16  17
HETATM   17  C15 UNL     1      -3.552  -1.854   0.936  1.00  0.00     0.179 C 
BRANCH  17  18
HETATM   18  O2  UNL     1      -3.818  -1.709   2.268  1.00  0.00    -0.400 OA
HETATM   19  H19 UNL     1      -4.672  -2.156   2.508  1.00  0.00     0.209 HD
ENDBRANCH  17  18
ENDBRANCH  16  17
BRANCH  16  20
HETATM   20  C16 UNL     1      -4.183   0.573   0.545  1.00  0.00    -0.046 A 
HETATM   21  C17 UNL     1      -3.781   1.241   1.709  1.00  0.00     0.008 A 
HETATM   22  C18 UNL     1      -4.023   2.571   1.949  1.00  0.00     0.001 A 
HETATM   23  C19 UNL     1      -4.694   3.327   1.019  1.00  0.00     0.000 A 
HETATM   24  C20 UNL     1      -5.131   2.740  -0.172  1.00  0.00     0.001 A 
HETATM   25  C21 UNL     1      -4.858   1.396  -0.357  1.00  0.00     0.008 A 
ENDBRANCH  16  20
ENDBRANCH  13  16
BRANCH   1  26
HETATM   26  C5  UNL     1       4.030  -0.123  -0.892  1.00  0.00     0.072 C 
HETATM   27  C4  UNL     1       5.218  -0.464  -0.437  1.00  0.00     0.008 C 
BRANCH  27  28
HETATM   28  C3  UNL     1       5.608  -1.185   0.766  1.00  0.00     0.299 C 
BRANCH  28  29
HETATM   29  N1  UNL     1       6.465  -0.437   1.655  1.00  0.00     0.083 N 
HETATM   30  C1  UNL     1       7.775  -0.184   1.141  1.00  0.00     0.309 C 
HETATM   31  C2  UNL     1       5.846   0.713   2.234  1.00  0.00     0.309 C 
ENDBRANCH  28  29
ENDBRANCH  27  28
ENDBRANCH   1  26
TORSDOF 7
