REMARK  8 active torsions:
REMARK  status: ('A' for Active; 'I' for Inactive)
REMARK    1  A    between atoms: C1_2  and  N1_3 
REMARK    2  A    between atoms: N1_3  and  C2_4 
REMARK    3  A    between atoms: C2_4  and  N2_5 
REMARK    4  A    between atoms: C9_15  and  N5_16 
REMARK    5  A    between atoms: N5_16  and  C10_17 
REMARK    6  A    between atoms: C10_17  and  C11_18 
REMARK    7  A    between atoms: C10_17  and  C12_20 
REMARK    8  A    between atoms: C11_18  and  O2_19 
ROOT
HETATM    1  N2  UNL     1       3.799  -0.120   1.366  1.00  0.00     0.110 N 
HETATM    2  C3  UNL     1       2.471   0.426   1.537  1.00  0.00     0.279 C 
HETATM    3  C4  UNL     1       1.501  -0.778   1.475  1.00  0.00     0.071 C 
HETATM    4  C5  UNL     1       1.276  -1.007   0.037  1.00  0.00    -0.025 A 
HETATM    5  C6  UNL     1       2.569  -1.134  -0.462  1.00  0.00     0.020 A 
HETATM    6  S1  UNL     1       2.305  -1.418  -2.255  1.00  0.00    -0.072 SA
HETATM    7  C7  UNL     1       0.566  -1.344  -2.179  1.00  0.00     0.114 A 
HETATM    8  N3  UNL     1      -0.300  -1.481  -3.189  1.00  0.00    -0.234 NA
HETATM    9  C8  UNL     1      -1.616  -1.398  -2.950  1.00  0.00     0.236 A 
HETATM   10  N4  UNL     1      -1.927  -1.178  -1.674  1.00  0.00    -0.224 NA
HETATM   11  C9  UNL     1      -1.085  -1.038  -0.646  1.00  0.00     0.139 A 
HETATM   12  C18 UNL     1       0.274  -1.120  -0.869  1.00  0.00     0.053 A 
HETATM   13  C19 UNL     1       3.857  -1.059   0.268  1.00  0.00     0.321 C 
ENDROOT
BRANCH  11  14
HETATM   14  N5  UNL     1      -1.736  -0.796   0.621  1.00  0.00    -0.363 N 
HETATM   15  H10 UNL     1      -1.397  -0.637   1.578  1.00  0.00     0.162 HD
BRANCH  14  16
HETATM   16  C10 UNL     1      -3.180  -0.741   0.720  1.00  0.00     0.140 C 
BRANCH  16  17
HETATM   17  C11 UNL     1      -3.829  -2.051   0.389  1.00  0.00     0.194 C 
BRANCH  17  18
HETATM   18  O2  UNL     1      -5.212  -2.011   0.505  1.00  0.00    -0.399 OA
HETATM   19  H14 UNL     1      -5.425  -1.911   1.458  1.00  0.00     0.209 HD
ENDBRANCH  17  18
ENDBRANCH  16  17
BRANCH  16  20
HETATM   20  C12 UNL     1      -3.709   0.386  -0.134  1.00  0.00    -0.034 A 
HETATM   21  C13 UNL     1      -2.924   1.512   0.152  1.00  0.00     0.009 A 
HETATM   22  C14 UNL     1      -3.152   2.737  -0.480  1.00  0.00     0.001 A 
HETATM   23  C15 UNL     1      -4.179   2.833  -1.409  1.00  0.00     0.000 A 
HETATM   24  C16 UNL     1      -4.930   1.711  -1.667  1.00  0.00     0.001 A 
HETATM   25  C17 UNL     1      -4.713   0.501  -1.050  1.00  0.00     0.009 A 
ENDBRANCH  16  20
ENDBRANCH  14  16
ENDBRANCH  11  14
BRANCH   1  26
HETATM   26  C2  UNL     1       4.682   1.011   1.163  1.00  0.00     0.397 C 
BRANCH  26  27
HETATM   27  N1  UNL     1       6.071   0.596   0.981  1.00  0.00    -0.343 N 
HETATM   28  H2  UNL     1       6.598  -0.304   0.958  1.00  0.00     0.163 HD
BRANCH  27  29
HETATM   29  C1  UNL     1       6.849   1.768   0.791  1.00  0.00     0.349 C 
HETATM   30  O1  UNL     1       6.294   2.916   0.802  1.00  0.00    -0.284 OA
ENDBRANCH  27  29
ENDBRANCH  26  27
ENDBRANCH   1  26
TORSDOF 8
