REMARK  0 active torsions:
REMARK  status: ('A' for Active; 'I' for Inactive)
ROOT
HETATM    1  C1  UNL     1      -2.842   1.730   0.201  1.00  0.00    -0.001 C 
HETATM    2  C2  UNL     1      -3.579   1.460  -0.870  1.00  0.00    -0.024 C 
HETATM    3  C3  UNL     1      -3.316   0.883  -2.241  1.00  0.00     0.013 C 
HETATM    4  C4  UNL     1      -1.874   0.944  -2.596  1.00  0.00     0.013 C 
HETATM    5  C5  UNL     1      -1.028  -0.205  -2.165  1.00  0.00     0.041 C 
HETATM    6  C6  UNL     1      -1.729  -1.492  -2.197  1.00  0.00    -0.028 A 
HETATM    7  C7  UNL     1      -3.100  -1.584  -2.349  1.00  0.00    -0.007 A 
HETATM    8  S1  UNL     1      -3.365  -3.350  -2.391  1.00  0.00    -0.073 SA
HETATM    9  C8  UNL     1      -1.672  -3.825  -2.204  1.00  0.00     0.114 A 
HETATM   10  N1  UNL     1      -1.032  -4.997  -2.130  1.00  0.00    -0.234 NA
HETATM   11  C9  UNL     1       0.303  -5.070  -1.967  1.00  0.00     0.236 A 
HETATM   12  N2  UNL     1       0.941  -3.885  -1.883  1.00  0.00    -0.222 NA
HETATM   13  C10 UNL     1       0.305  -2.684  -1.958  1.00  0.00     0.162 A 
HETATM   14  C11 UNL     1      -1.057  -2.654  -2.127  1.00  0.00     0.055 A 
HETATM   15  N3  UNL     1       1.257  -1.640  -1.777  1.00  0.00    -0.233 NA
HETATM   16  C12 UNL     1       2.155  -1.606  -0.842  1.00  0.00     0.303 C 
HETATM   17  O1  UNL     1       2.943  -1.885   0.225  1.00  0.00    -0.317 OA
HETATM   18  C13 UNL     1       3.011  -1.239   1.444  1.00  0.00     0.105 A 
HETATM   19  C14 UNL     1       3.564  -2.130   2.330  1.00  0.00     0.040 A 
HETATM   20  C15 UNL     1       3.814  -1.884   3.687  1.00  0.00     0.003 A 
HETATM   21  C16 UNL     1       3.459  -0.611   4.148  1.00  0.00     0.003 A 
HETATM   22  C17 UNL     1       2.907   0.263   3.238  1.00  0.00     0.039 A 
HETATM   23  C18 UNL     1       2.674  -0.007   1.915  1.00  0.00     0.102 A 
HETATM   24  O2  UNL     1       2.106   1.115   1.308  1.00  0.00    -0.346 OA
HETATM   25  C19 UNL     1       2.739   2.358   1.315  1.00  0.00     0.202 C 
HETATM   26  C20 UNL     1       1.969   3.438   0.634  1.00  0.00     0.196 C 
HETATM   27  O3  UNL     1       0.744   3.767   1.111  1.00  0.00    -0.361 OA
HETATM   28  C21 UNL     1      -0.181   2.745   1.066  1.00  0.00     0.437 C 
HETATM   29  N4  UNL     1      -1.482   3.218   1.546  1.00  0.00     0.109 N 
HETATM   30  C22 UNL     1      -2.445   2.170   1.542  1.00  0.00     0.299 C 
HETATM   31  C23 UNL     1      -4.000  -0.423  -2.419  1.00  0.00     0.055 C 
HETATM   32  H20 UNL     1      -1.352   3.587   2.505  1.00  0.00     0.319 HD
ENDROOT
TORSDOF 0
