REMARK  8 active torsions:
REMARK  status: ('A' for Active; 'I' for Inactive)
REMARK    1  A    between atoms: C1_2  and  C2_3 
REMARK       I    between atoms: C1_2  and  N2_12 
REMARK    2  A    between atoms: C3_4  and  C4_5 
REMARK    3  A    between atoms: C4_5  and  N1_6 
REMARK    4  A    between atoms: C14_21  and  N5_22 
REMARK    5  A    between atoms: N5_22  and  C15_23 
REMARK    6  A    between atoms: C15_23  and  C16_24 
REMARK    7  A    between atoms: C15_23  and  C17_26 
REMARK    8  A    between atoms: C16_24  and  O3_25 
ROOT
HETATM    1  O1  UNL     1      -3.852  -0.659   0.727  1.00  0.00    -0.268 OA
HETATM    2  C1  UNL     1      -3.044  -0.200  -0.120  1.00  0.00     0.243 C 
HETATM    3  N2  UNL     1      -1.666  -0.029   0.258  1.00  0.00    -0.344 N 
HETATM    4  C9  UNL     1      -0.539   0.480  -0.534  1.00  0.00     0.131 C 
HETATM    5  C10 UNL     1       0.535  -0.616  -0.627  1.00  0.00     0.062 C 
HETATM    6  C11 UNL     1       1.190  -0.690   0.696  1.00  0.00    -0.009 A 
HETATM    7  C12 UNL     1       0.210  -0.565   1.712  1.00  0.00     0.026 A 
HETATM    8  S1  UNL     1       1.100  -0.668   3.223  1.00  0.00    -0.008 SA
HETATM    9  N3  UNL     1       2.733  -0.872   2.455  1.00  0.00    -0.271 N 
HETATM   10  C13 UNL     1       4.048  -1.033   2.734  1.00  0.00     0.224 A 
HETATM   11  N4  UNL     1       4.644  -1.113   1.561  1.00  0.00    -0.223 NA
HETATM   12  C14 UNL     1       3.715  -1.003   0.596  1.00  0.00     0.154 A 
HETATM   13  C23 UNL     1       2.459  -0.844   1.138  1.00  0.00     0.100 A 
HETATM   14  C24 UNL     1      -1.246  -0.387   1.597  1.00  0.00     0.174 C 
ENDROOT
BRANCH  12  15
HETATM   15  N5  UNL     1       4.165  -1.068  -0.751  1.00  0.00    -0.362 N 
HETATM   16  H18 UNL     1       3.429  -0.986  -1.464  1.00  0.00     0.162 HD
BRANCH  15  17
HETATM   17  C15 UNL     1       5.533  -1.239  -1.192  1.00  0.00     0.140 C 
BRANCH  17  18
HETATM   18  C16 UNL     1       6.132  -2.516  -0.709  1.00  0.00     0.194 C 
BRANCH  18  19
HETATM   19  O3  UNL     1       7.446  -2.733  -1.118  1.00  0.00    -0.399 OA
HETATM   20  H22 UNL     1       7.823  -3.454  -0.554  1.00  0.00     0.209 HD
ENDBRANCH  18  19
ENDBRANCH  17  18
BRANCH  17  21
HETATM   21  C17 UNL     1       6.299  -0.033  -0.780  1.00  0.00    -0.034 A 
HETATM   22  C18 UNL     1       7.514   0.126  -0.164  1.00  0.00     0.009 A 
HETATM   23  C19 UNL     1       8.000   1.386   0.102  1.00  0.00     0.001 A 
HETATM   24  C20 UNL     1       7.311   2.535  -0.226  1.00  0.00     0.000 A 
HETATM   25  C21 UNL     1       6.087   2.396  -0.845  1.00  0.00     0.001 A 
HETATM   26  C22 UNL     1       5.600   1.134  -1.112  1.00  0.00     0.009 A 
ENDBRANCH  17  21
ENDBRANCH  15  17
ENDBRANCH  12  15
BRANCH   2  27
HETATM   27  C2  UNL     1      -3.462   0.159  -1.467  1.00  0.00     0.072 C 
HETATM   28  C3  UNL     1      -4.706   0.033  -1.892  1.00  0.00     0.008 C 
BRANCH  28  29
HETATM   29  C4  UNL     1      -5.984  -0.424  -1.354  1.00  0.00     0.300 C 
BRANCH  29  30
HETATM   30  N1  UNL     1      -7.003   0.607  -1.377  1.00  0.00     0.096 N 
HETATM   31  C5  UNL     1      -8.217   0.069  -0.831  1.00  0.00     0.299 C 
HETATM   32  C6  UNL     1      -8.293   0.234   0.674  1.00  0.00     0.198 C 
HETATM   33  O2  UNL     1      -8.274   1.619   0.900  1.00  0.00    -0.388 OA
HETATM   34  C7  UNL     1      -6.988   2.045   0.616  1.00  0.00     0.198 C 
HETATM   35  C8  UNL     1      -6.597   1.855  -0.829  1.00  0.00     0.299 C 
ENDBRANCH  29  30
ENDBRANCH  28  29
ENDBRANCH   2  27
TORSDOF 8
