REMARK  9 active torsions:
REMARK  status: ('A' for Active; 'I' for Inactive)
REMARK    1  A    between atoms: N1_2  and  C2_3 
REMARK    2  A    between atoms: N1_2  and  C3_5 
REMARK    3  A    between atoms: C3_5  and  C4_6 
REMARK    4  A    between atoms: C5_7  and  N2_8 
REMARK    5  A    between atoms: C10_13  and  N3_14 
REMARK    6  A    between atoms: N3_14  and  C11_15 
REMARK    7  A    between atoms: C11_15  and  C12_16 
REMARK    8  A    between atoms: C11_15  and  C13_18 
REMARK    9  A    between atoms: C12_16  and  O2_17 
ROOT
HETATM    1  N2  UNL     1       2.453  -0.935   1.499  1.00  0.00    -0.372 N 
HETATM    2  C6  UNL     1       2.156  -0.454   2.872  1.00  0.00     0.151 C 
HETATM    3  C7  UNL     1       0.760   0.083   2.706  1.00  0.00     0.003 C 
HETATM    4  C8  UNL     1       0.195  -0.611   1.722  1.00  0.00    -0.015 C 
HETATM    5  C9  UNL     1      -0.540  -1.293   0.663  1.00  0.00     0.045 A 
HETATM    6  C10 UNL     1      -1.708  -1.299  -0.107  1.00  0.00     0.138 A 
HETATM    7  N4  UNL     1      -1.826  -2.186  -1.129  1.00  0.00    -0.224 NA
HETATM    8  C19 UNL     1      -0.743  -3.003  -1.292  1.00  0.00     0.235 A 
HETATM    9  N5  UNL     1       0.418  -3.041  -0.571  1.00  0.00    -0.243 NA
HETATM   10  C20 UNL     1       0.506  -2.148   0.443  1.00  0.00     0.077 A 
HETATM   11  C21 UNL     1       1.248  -1.661   1.580  1.00  0.00     0.171 C 
ENDROOT
BRANCH   6  12
HETATM   12  N3  UNL     1      -2.775  -0.386   0.180  1.00  0.00    -0.363 N 
HETATM   13  H12 UNL     1      -2.643   0.274   0.979  1.00  0.00     0.162 HD
BRANCH  12  14
HETATM   14  C11 UNL     1      -3.996  -0.370  -0.601  1.00  0.00     0.140 C 
BRANCH  14  15
HETATM   15  C12 UNL     1      -3.738  -0.057  -2.069  1.00  0.00     0.194 C 
BRANCH  15  16
HETATM   16  O2  UNL     1      -5.008  -0.082  -2.678  1.00  0.00    -0.399 OA
HETATM   17  H16 UNL     1      -4.972   0.249  -3.600  1.00  0.00     0.209 HD
ENDBRANCH  15  16
ENDBRANCH  14  15
BRANCH  14  18
HETATM   18  C13 UNL     1      -4.845   0.762  -0.107  1.00  0.00    -0.034 A 
HETATM   19  C14 UNL     1      -4.159   1.947   0.046  1.00  0.00     0.009 A 
HETATM   20  C15 UNL     1      -4.933   3.012   0.516  1.00  0.00     0.001 A 
HETATM   21  C16 UNL     1      -6.262   2.918   0.808  1.00  0.00     0.000 A 
HETATM   22  C17 UNL     1      -6.886   1.701   0.630  1.00  0.00     0.001 A 
HETATM   23  C18 UNL     1      -6.169   0.595   0.163  1.00  0.00     0.009 A 
ENDBRANCH  14  18
ENDBRANCH  12  14
ENDBRANCH   6  12
BRANCH   1  24
HETATM   24  C5  UNL     1       3.460  -0.779   0.526  1.00  0.00     0.084 C 
HETATM   25  C4  UNL     1       4.156   0.046  -0.207  1.00  0.00     0.010 C 
BRANCH  25  26
HETATM   26  C3  UNL     1       5.210  -0.248  -1.187  1.00  0.00     0.153 C 
BRANCH  26  27
HETATM   27  N1  UNL     1       6.456   0.403  -0.770  1.00  0.00    -0.360 N 
HETATM   28  C1  UNL     1       7.423  -0.265   0.084  1.00  0.00     0.152 C 
BRANCH  27  29
HETATM   29  C2  UNL     1       6.664   1.720  -1.251  1.00  0.00     0.350 C 
HETATM   30  O1  UNL     1       5.861   2.344  -1.991  1.00  0.00    -0.284 OA
ENDBRANCH  27  29
ENDBRANCH  26  27
ENDBRANCH  25  26
ENDBRANCH   1  24
TORSDOF 9
