REMARK  6 active torsions:
REMARK  status: ('A' for Active; 'I' for Inactive)
REMARK    1  A    between atoms: C5_8  and  C6_9 
REMARK    2  A    between atoms: C6_9  and  O1_10 
REMARK    3  A    between atoms: O1_10  and  C7_11 
REMARK       I    between atoms: N3_19  and  C15_20 
REMARK    4  A    between atoms: C15_20  and  C16_22 
REMARK    5  A    between atoms: C17_23  and  C18_24 
REMARK    6  A    between atoms: C18_24  and  N4_25 
ROOT
HETATM    1  C1  UNL     1      -1.259  -2.413  -2.260  1.00  0.00     0.044 C 
HETATM    2  C2  UNL     1       0.147  -2.278  -1.811  1.00  0.00     0.152 C 
HETATM    3  S1  UNL     1       0.845  -3.846  -1.156  1.00  0.00    -0.084 SA
HETATM    4  C3  UNL     1       2.110  -3.272   0.007  1.00  0.00     0.106 A 
HETATM    5  N1  UNL     1       2.711  -4.284   0.683  1.00  0.00    -0.234 NA
HETATM    6  C4  UNL     1       3.683  -4.004   1.588  1.00  0.00     0.234 A 
HETATM    7  N2  UNL     1       4.056  -2.717   1.819  1.00  0.00    -0.244 NA
HETATM    8  C5  UNL     1       3.453  -1.724   1.144  1.00  0.00     0.070 A 
HETATM    9  C13 UNL     1       2.463  -1.931   0.215  1.00  0.00     0.022 A 
HETATM   10  C14 UNL     1       1.723  -0.966  -0.600  1.00  0.00     0.171 C 
HETATM   11  N3  UNL     1       0.321  -1.290  -0.736  1.00  0.00    -0.331 N 
HETATM   12  C15 UNL     1      -0.567  -0.611   0.181  1.00  0.00     0.244 C 
HETATM   13  O2  UNL     1       0.301   0.080   0.824  1.00  0.00    -0.268 OA
ENDROOT
BRANCH  12  14
HETATM   14  C16 UNL     1      -2.004  -0.592   0.439  1.00  0.00     0.072 C 
HETATM   15  C17 UNL     1      -3.216  -1.070   0.098  1.00  0.00     0.008 C 
BRANCH  15  16
HETATM   16  C18 UNL     1      -4.483  -0.684   0.742  1.00  0.00     0.300 C 
BRANCH  16  17
HETATM   17  N4  UNL     1      -5.362  -0.109  -0.249  1.00  0.00     0.096 N 
HETATM   18  C19 UNL     1      -6.635   0.314   0.274  1.00  0.00     0.299 C 
HETATM   19  C20 UNL     1      -6.432   1.580   1.066  1.00  0.00     0.198 C 
HETATM   20  O3  UNL     1      -5.871   2.594   0.310  1.00  0.00    -0.388 OA
HETATM   21  C21 UNL     1      -4.651   2.258  -0.233  1.00  0.00     0.198 C 
HETATM   22  C22 UNL     1      -4.789   0.962  -1.008  1.00  0.00     0.299 C 
ENDBRANCH  16  17
ENDBRANCH  15  16
ENDBRANCH  12  14
BRANCH   8  23
HETATM   23  C6  UNL     1       3.853  -0.316   1.392  1.00  0.00     0.235 C 
BRANCH  23  24
HETATM   24  O1  UNL     1       4.644   0.153   0.305  1.00  0.00    -0.345 OA
BRANCH  24  25
HETATM   25  C7  UNL     1       5.154   1.455   0.289  1.00  0.00     0.069 A 
HETATM   26  C8  UNL     1       5.902   1.741  -0.851  1.00  0.00     0.037 A 
HETATM   27  C9  UNL     1       6.447   3.019  -0.947  1.00  0.00     0.003 A 
HETATM   28  C10 UNL     1       6.230   3.935   0.070  1.00  0.00     0.000 A 
HETATM   29  C11 UNL     1       5.492   3.647   1.189  1.00  0.00     0.003 A 
HETATM   30  C12 UNL     1       4.943   2.374   1.294  1.00  0.00     0.037 A 
ENDBRANCH  24  25
ENDBRANCH  23  24
ENDBRANCH   8  23
TORSDOF 6
