REMARK  7 active torsions:
REMARK  status: ('A' for Active; 'I' for Inactive)
REMARK    1  A    between atoms: C3_3  and  N1_4 
REMARK    2  A    between atoms: C10_14  and  N4_15 
REMARK    3  A    between atoms: N4_15  and  C11_16 
REMARK    4  A    between atoms: C11_16  and  C12_17 
REMARK    5  A    between atoms: C11_16  and  C13_19 
REMARK    6  A    between atoms: C12_17  and  O1_18 
REMARK    7  A    between atoms: C18_24  and  N5_25 
ROOT
HETATM    1  N4  UNL     1      -0.281  -0.473   1.057  1.00  0.00    -0.363 N 
HETATM    2  H11 UNL     1       0.174  -0.343   0.175  1.00  0.00     0.162 HD
ENDROOT
BRANCH   1   3
HETATM    3  C10 UNL     1       0.600  -0.607   2.144  1.00  0.00     0.139 A 
HETATM    4  N3  UNL     1      -0.008  -0.801   3.312  1.00  0.00    -0.224 NA
HETATM    5  C9  UNL     1       0.517  -0.978   4.503  1.00  0.00     0.236 A 
HETATM    6  N2  UNL     1       1.855  -0.961   4.551  1.00  0.00    -0.234 NA
HETATM    7  C8  UNL     1       2.491  -0.761   3.347  1.00  0.00     0.114 A 
HETATM    8  S1  UNL     1       4.307  -0.683   3.065  1.00  0.00    -0.072 SA
HETATM    9  C23 UNL     1       1.967  -0.575   2.098  1.00  0.00     0.053 A 
HETATM   10  C7  UNL     1       4.167  -0.410   1.300  1.00  0.00     0.010 A 
HETATM   11  C6  UNL     1       2.807  -0.395   1.041  1.00  0.00    -0.025 A 
HETATM   12  C24 UNL     1       5.289  -0.245   0.372  1.00  0.00     0.169 C 
HETATM   13  C5  UNL     1       2.799  -0.168  -0.404  1.00  0.00     0.060 C 
HETATM   14  C4  UNL     1       3.659  -1.229  -1.096  1.00  0.00     0.127 C 
HETATM   15  N1  UNL     1       5.044  -1.074  -0.789  1.00  0.00    -0.385 N 
BRANCH  15  16
HETATM   16  C3  UNL     1       5.948  -1.758  -1.674  1.00  0.00     0.081 C 
HETATM   17  C2  UNL     1       6.729  -1.104  -2.495  1.00  0.00    -0.014 C 
HETATM   18  C1  UNL     1       6.640   0.383  -2.472  1.00  0.00     0.037 C 
ENDBRANCH  15  16
ENDBRANCH   1   3
BRANCH   1  19
HETATM   19  C11 UNL     1      -1.704  -0.459   0.841  1.00  0.00     0.142 C 
BRANCH  19  20
HETATM   20  C12 UNL     1      -2.290  -1.625   1.654  1.00  0.00     0.194 C 
BRANCH  20  21
HETATM   21  O1  UNL     1      -1.739  -2.832   1.228  1.00  0.00    -0.399 OA
HETATM   22  H15 UNL     1      -2.408  -3.537   1.079  1.00  0.00     0.209 HD
ENDBRANCH  20  21
ENDBRANCH  19  20
BRANCH  19  23
HETATM   23  C13 UNL     1      -2.279   0.835   1.148  1.00  0.00    -0.007 A 
HETATM   24  C14 UNL     1      -2.036   1.769   2.118  1.00  0.00     0.011 A 
HETATM   25  C15 UNL     1      -2.671   2.970   2.285  1.00  0.00     0.001 A 
HETATM   26  C16 UNL     1      -3.658   3.336   1.432  1.00  0.00     0.002 A 
HETATM   27  C17 UNL     1      -3.983   2.453   0.407  1.00  0.00     0.030 A 
HETATM   28  C18 UNL     1      -3.303   1.251   0.290  1.00  0.00     0.038 A 
BRANCH  28  29
HETATM   29  N5  UNL     1      -3.828   0.534  -0.853  1.00  0.00    -0.376 N 
HETATM   30  C19 UNL     1      -4.550  -0.679  -1.183  1.00  0.00     0.149 C 
HETATM   31  C20 UNL     1      -5.794  -0.368  -2.010  1.00  0.00     0.187 C 
HETATM   32  O2  UNL     1      -5.362   0.150  -3.229  1.00  0.00    -0.388 OA
HETATM   33  C21 UNL     1      -4.817   1.400  -2.930  1.00  0.00     0.187 C 
HETATM   34  C22 UNL     1      -3.560   1.205  -2.122  1.00  0.00     0.149 C 
ENDBRANCH  28  29
ENDBRANCH  19  23
ENDBRANCH   1  19
TORSDOF 7
