REMARK  8 active torsions:
REMARK  status: ('A' for Active; 'I' for Inactive)
REMARK    1  A    between atoms: N2_5  and  C4_6 
REMARK    2  A    between atoms: C4_6  and  C5_7 
REMARK    3  A    between atoms: C8_11  and  N4_12 
REMARK    4  A    between atoms: N4_12  and  C9_13 
REMARK    5  A    between atoms: C9_13  and  C10_14 
REMARK    6  A    between atoms: C9_13  and  C11_16 
REMARK    7  A    between atoms: C10_14  and  O1_15 
REMARK    8  A    between atoms: C18_23  and  N5_24 
ROOT
HETATM    1  C5  UNL     1       1.232  -2.077  -0.265  1.00  0.00     0.089 A 
HETATM    2  C6  UNL     1      -0.488  -1.795  -0.261  1.00  0.00     0.078 A 
HETATM    3  C7  UNL     1       0.291  -1.919  -0.390  1.00  0.00     0.141 A 
HETATM    4  N3  UNL     1      -0.071  -0.370  -0.293  1.00  0.00    -0.247 NA
HETATM    5  C8  UNL     1      -1.376  -0.232  -0.074  1.00  0.00     0.111 A 
HETATM    6  C17 UNL     1      -1.771  -1.452  -0.044  1.00  0.00     0.081 A 
HETATM    7  C18 UNL     1      -1.904  -2.871  -0.072  1.00  0.00     0.107 A 
HETATM    8  N5  UNL     1      -0.769  -3.295  -0.272  1.00  0.00    -0.263 NA
ENDROOT
BRANCH   5   9
HETATM    9  N4  UNL     1      -2.614   0.550   0.150  1.00  0.00    -0.367 N 
HETATM   10  H11 UNL     1      -3.387   0.688  -0.571  1.00  0.00     0.161 HD
BRANCH   9  11
HETATM   11  C9  UNL     1      -2.770   1.183   1.453  1.00  0.00     0.139 C 
BRANCH  11  12
HETATM   12  C10 UNL     1      -2.707   0.062   2.494  1.00  0.00     0.194 C 
BRANCH  12  13
HETATM   13  O1  UNL     1      -3.723  -0.856   2.275  1.00  0.00    -0.399 OA
HETATM   14  H15 UNL     1      -3.974  -1.359   3.086  1.00  0.00     0.209 HD
ENDBRANCH  12  13
ENDBRANCH  11  12
BRANCH  11  15
HETATM   15  C11 UNL     1      -4.134   1.745   1.520  1.00  0.00    -0.034 A 
HETATM   16  C12 UNL     1      -4.293   3.015   2.030  1.00  0.00     0.009 A 
HETATM   17  C13 UNL     1      -5.525   3.623   2.130  1.00  0.00     0.001 A 
HETATM   18  C14 UNL     1      -6.613   2.891   1.691  1.00  0.00     0.000 A 
HETATM   19  C15 UNL     1      -6.488   1.623   1.178  1.00  0.00     0.001 A 
HETATM   20  C16 UNL     1      -5.227   1.028   1.086  1.00  0.00     0.009 A 
ENDBRANCH  11  15
ENDBRANCH   9  11
ENDBRANCH   5   9
BRANCH   1  21
HETATM   21  C4  UNL     1       2.143  -2.192  -1.529  1.00  0.00     0.283 C 
BRANCH  21  22
HETATM   22  N2  UNL     1       3.108  -1.198  -1.500  1.00  0.00     0.092 N 
HETATM   23  C3  UNL     1       3.879  -1.186  -2.720  1.00  0.00     0.302 C 
HETATM   24  C2  UNL     1       4.590   0.155  -2.887  1.00  0.00     0.302 C 
HETATM   25  N1  UNL     1       4.899   0.713  -1.575  1.00  0.00     0.087 N 
HETATM   26  C1  UNL     1       5.985   1.647  -1.583  1.00  0.00     0.310 C 
HETATM   27  C20 UNL     1       5.217  -0.346  -0.632  1.00  0.00     0.302 C 
HETATM   28  C19 UNL     1       3.914  -1.076  -0.327  1.00  0.00     0.302 C 
ENDBRANCH  21  22
ENDBRANCH   1  21
TORSDOF 8
