REMARK  6 active torsions:
REMARK  status: ('A' for Active; 'I' for Inactive)
REMARK    1  A    between atoms: C2_2  and  N1_3 
REMARK    2  A    between atoms: C2_2  and  C18_25 
REMARK    3  A    between atoms: N1_3  and  C3_4 
REMARK       I    between atoms: N4_15  and  C11_16 
REMARK    4  A    between atoms: C11_16  and  C12_18 
REMARK    5  A    between atoms: C13_19  and  C14_20 
REMARK    6  A    between atoms: C14_20  and  N5_21 
ROOT
HETATM    1  C3  UNL     1      -2.922  -1.652   1.599  1.00  0.00     0.139 A 
HETATM    2  N2  UNL     1      -3.991  -2.327   2.005  1.00  0.00    -0.224 NA
HETATM    3  C4  UNL     1      -4.067  -3.624   2.287  1.00  0.00     0.236 A 
HETATM    4  N3  UNL     1      -2.902  -4.261   2.122  1.00  0.00    -0.234 NA
HETATM    5  C5  UNL     1      -1.794  -3.614   1.712  1.00  0.00     0.114 A 
HETATM    6  S1  UNL     1      -0.109  -4.175   1.407  1.00  0.00    -0.072 SA
HETATM    7  C6  UNL     1       0.537  -2.562   0.917  1.00  0.00     0.010 A 
HETATM    8  C7  UNL     1      -0.546  -1.711   1.011  1.00  0.00    -0.025 A 
HETATM    9  C8  UNL     1      -1.718  -2.277   1.421  1.00  0.00     0.053 A 
HETATM   10  C9  UNL     1       0.028  -0.429   0.589  1.00  0.00     0.060 C 
HETATM   11  C10 UNL     1       0.809  -0.690  -0.723  1.00  0.00     0.131 C 
HETATM   12  N4  UNL     1       2.082  -1.206  -0.272  1.00  0.00    -0.344 N 
HETATM   13  C11 UNL     1       3.405  -0.702  -0.549  1.00  0.00     0.243 C 
HETATM   14  O1  UNL     1       4.395  -1.329  -0.037  1.00  0.00    -0.268 OA
HETATM   15  C17 UNL     1       1.912  -2.364   0.548  1.00  0.00     0.172 C 
ENDROOT
BRANCH   1  16
HETATM   16  N1  UNL     1      -3.263  -0.287   1.491  1.00  0.00    -0.366 N 
HETATM   17  H5  UNL     1      -2.407   0.226   1.295  1.00  0.00     0.161 HD
BRANCH  16  18
HETATM   18  C2  UNL     1      -4.233   0.749   1.543  1.00  0.00     0.112 C 
HETATM   19  C1  UNL     1      -3.647   2.169   1.525  1.00  0.00     0.037 C 
BRANCH  18  20
HETATM   20  C18 UNL     1      -5.281   0.721   0.513  1.00  0.00    -0.036 A 
HETATM   21  C19 UNL     1      -5.547   1.822  -0.286  1.00  0.00     0.009 A 
HETATM   22  C20 UNL     1      -6.510   1.913  -1.265  1.00  0.00     0.001 A 
HETATM   23  C21 UNL     1      -7.314   0.829  -1.512  1.00  0.00     0.000 A 
HETATM   24  C22 UNL     1      -7.123  -0.305  -0.767  1.00  0.00     0.001 A 
HETATM   25  C23 UNL     1      -6.135  -0.304   0.190  1.00  0.00     0.009 A 
ENDBRANCH  18  20
ENDBRANCH  16  18
ENDBRANCH   1  16
BRANCH  13  26
HETATM   26  C12 UNL     1       3.594   0.480  -1.381  1.00  0.00     0.072 C 
HETATM   27  C13 UNL     1       4.786   0.964  -1.652  1.00  0.00     0.008 C 
BRANCH  27  28
HETATM   28  C14 UNL     1       6.174   0.647  -1.338  1.00  0.00     0.299 C 
BRANCH  28  29
HETATM   29  N5  UNL     1       6.855   1.746  -0.634  1.00  0.00     0.083 N 
HETATM   30  C15 UNL     1       6.995   2.858  -1.583  1.00  0.00     0.309 C 
HETATM   31  C16 UNL     1       8.202   1.300  -0.348  1.00  0.00     0.309 C 
ENDBRANCH  28  29
ENDBRANCH  27  28
ENDBRANCH  13  26
TORSDOF 6
