REMARK  5 active torsions:
REMARK  status: ('A' for Active; 'I' for Inactive)
REMARK    1  A    between atoms: N2_8  and  C6_9 
REMARK    2  A    between atoms: C6_9  and  P1_10 
REMARK    3  A    between atoms: P1_10  and  C7_11 
REMARK    4  A    between atoms: C8_12  and  C9_13 
REMARK    5  A    between atoms: C9_13  and  N3_14 
ROOT
HETATM    1  N1  UNL     1      -7.271   2.588  -1.341  1.00  0.00    -0.289 NA
HETATM    2  C1  UNL     1      -6.241   1.911  -1.041  1.00  0.00     0.140 A 
HETATM    3  S1  UNL     1      -4.760   1.694  -2.030  1.00  0.00    -0.069 SA
HETATM    4  C2  UNL     1      -3.915   0.631  -0.829  1.00  0.00     0.023 A 
HETATM    5  C3  UNL     1      -4.700   0.471   0.215  1.00  0.00     0.011 A 
HETATM    6  C4  UNL     1      -4.092  -0.391   1.261  1.00  0.00     0.074 C 
HETATM    7  C5  UNL     1      -3.584  -1.628   0.547  1.00  0.00     0.278 C 
HETATM    8  N2  UNL     1      -2.469  -1.281  -0.308  1.00  0.00     0.097 N 
HETATM    9  C14 UNL     1      -2.597   0.010  -0.908  1.00  0.00     0.319 C 
HETATM   10  C15 UNL     1      -5.989   1.140   0.173  1.00  0.00     0.214 A 
HETATM   11  O2  UNL     1      -6.845   1.082   1.093  1.00  0.00    -0.285 OA
HETATM   12  H1  UNL     1      -8.077   2.652  -0.701  1.00  0.00     0.188 HD
ENDROOT
BRANCH   8  13
HETATM   13  C6  UNL     1      -1.186  -1.402   0.359  1.00  0.00     0.307 C 
BRANCH  13  14
HETATM   14  P1  UNL     1       0.125  -0.932  -0.842  1.00  0.00    -0.077 P 
HETATM   15  H8  UNL     1       0.550   0.432  -0.751  1.00  0.00     0.063 HD
BRANCH  14  16
HETATM   16  C7  UNL     1       1.511  -2.112  -0.908  1.00  0.00     0.003 C 
HETATM   17  C8  UNL     1       2.551  -1.883  -0.112  1.00  0.00    -0.007 C 
BRANCH  17  18
HETATM   18  C9  UNL     1       2.645  -0.711   0.835  1.00  0.00     0.144 C 
BRANCH  18  19
HETATM   19  N3  UNL     1       3.805   0.024   0.424  1.00  0.00    -0.405 N 
HETATM   20  C10 UNL     1       4.113   1.193   1.172  1.00  0.00     0.143 C 
HETATM   21  C11 UNL     1       5.589   1.493   0.898  1.00  0.00     0.187 C 
HETATM   22  O1  UNL     1       5.751   1.688  -0.450  1.00  0.00    -0.388 OA
HETATM   23  C12 UNL     1       5.402   0.605  -1.224  1.00  0.00     0.187 C 
HETATM   24  C13 UNL     1       3.963   0.157  -0.984  1.00  0.00     0.143 C 
ENDBRANCH  18  19
ENDBRANCH  17  18
ENDBRANCH  14  16
ENDBRANCH  13  14
ENDBRANCH   8  13
TORSDOF 5
