REMARK  11 active torsions:
REMARK  status: ('A' for Active; 'I' for Inactive)
REMARK    1  A    between atoms: C2_2  and  C3_3 
REMARK    2  A    between atoms: C2_2  and  N2_12 
REMARK    3  A    between atoms: C3_3  and  C4_4 
REMARK    4  A    between atoms: C4_4  and  N1_5 
REMARK    5  A    between atoms: N2_12  and  C9_13 
REMARK    6  A    between atoms: C9_13  and  C10_14 
REMARK    7  A    between atoms: C10_14  and  C11_15 
REMARK    8  A    between atoms: C15_22  and  C16_23 
REMARK    9  A    between atoms: C16_23  and  O3_24 
REMARK   10  A    between atoms: C16_23  and  C17_25 
REMARK   11  A    between atoms: C17_25  and  C18_26 
ROOT
HETATM    1  C11 UNL     1      -1.183   0.921   1.114  1.00  0.00    -0.035 A 
HETATM    2  C12 UNL     1      -0.631   1.970   1.888  1.00  0.00     0.060 A 
HETATM    3  S1  UNL     1      -1.639   3.424   1.503  1.00  0.00    -0.081 SA
HETATM    4  C13 UNL     1      -2.712   2.525   0.353  1.00  0.00     0.111 A 
HETATM    5  N3  UNL     1      -3.757   3.073  -0.330  1.00  0.00    -0.234 NA
HETATM    6  C14 UNL     1      -4.451   2.258  -1.127  1.00  0.00     0.234 A 
HETATM    7  N4  UNL     1      -4.039   1.017  -1.154  1.00  0.00    -0.243 NA
HETATM    8  C15 UNL     1      -3.018   0.437  -0.499  1.00  0.00     0.078 A 
HETATM    9  C23 UNL     1      -2.260   1.231   0.333  1.00  0.00     0.034 A 
ENDROOT
BRANCH   1  10
HETATM   10  C10 UNL     1      -0.395  -0.354   1.141  1.00  0.00     0.059 C 
BRANCH  10  11
HETATM   11  C9  UNL     1       1.121   0.042   1.282  1.00  0.00     0.118 C 
BRANCH  11  12
HETATM   12  N2  UNL     1       1.394   0.893   0.207  1.00  0.00    -0.417 N 
HETATM   13  H15 UNL     1       0.977   0.613  -0.687  1.00  0.00     0.153 HD
BRANCH  12  14
HETATM   14  C2  UNL     1       2.578   1.653   0.143  1.00  0.00     0.074 C 
HETATM   15  C1  UNL     1       2.345   2.641  -1.054  1.00  0.00     0.032 C 
BRANCH  14  16
HETATM   16  C3  UNL     1       3.872   1.001  -0.202  1.00  0.00     0.044 C 
BRANCH  16  17
HETATM   17  C4  UNL     1       4.431   0.005   0.736  1.00  0.00     0.128 C 
BRANCH  17  18
HETATM   18  N1  UNL     1       5.728  -0.494   0.252  1.00  0.00    -0.348 N 
HETATM   19  C5  UNL     1       5.835  -1.612  -0.671  1.00  0.00     0.152 C 
HETATM   20  C6  UNL     1       7.259  -1.603  -1.190  1.00  0.00     0.188 C 
HETATM   21  O1  UNL     1       8.212  -1.673  -0.170  1.00  0.00    -0.380 OA
HETATM   22  C7  UNL     1       8.300  -0.458   0.520  1.00  0.00     0.270 C 
HETATM   23  C8  UNL     1       6.941   0.144   0.672  1.00  0.00     0.243 C 
HETATM   24  O2  UNL     1       6.929   1.277   1.209  1.00  0.00    -0.271 OA
ENDBRANCH  17  18
ENDBRANCH  16  17
ENDBRANCH  14  16
ENDBRANCH  12  14
ENDBRANCH  11  12
ENDBRANCH  10  11
ENDBRANCH   1  10
BRANCH   8  25
HETATM   25  C16 UNL     1      -2.867  -1.025  -0.660  1.00  0.00     0.174 C 
BRANCH  25  26
HETATM   26  O3  UNL     1      -2.714  -1.775   0.475  1.00  0.00    -0.389 OA
HETATM   27  H23 UNL     1      -2.988  -1.414   1.326  1.00  0.00     0.210 HD
ENDBRANCH  25  26
BRANCH  25  28
HETATM   28  C17 UNL     1      -4.148  -1.564  -1.308  1.00  0.00     0.059 C 
BRANCH  28  29
HETATM   29  C18 UNL     1      -5.379  -1.329  -0.585  1.00  0.00    -0.120 A 
HETATM   30  C19 UNL     1      -5.725  -0.723   0.538  1.00  0.00    -0.010 A 
HETATM   31  C20 UNL     1      -7.022  -0.553   1.166  1.00  0.00    -0.006 A 
HETATM   32  C21 UNL     1      -8.055  -1.079   0.536  1.00  0.00    -0.036 A 
HETATM   33  C22 UNL     1      -8.103  -1.830  -0.733  1.00  0.00    -0.022 A 
HETATM   34  B1  UNL     1      -6.620  -1.964  -1.335  1.00  0.00     0.193 B 
HETATM   35  H31 UNL     1      -6.440  -2.928  -2.036  1.00  0.00    -0.021 HD
ENDBRANCH  28  29
ENDBRANCH  25  28
ENDBRANCH   8  25
TORSDOF 11
