REMARK  7 active torsions:
REMARK  status: ('A' for Active; 'I' for Inactive)
REMARK    1  A    between atoms: C2_2  and  N1_3 
REMARK    2  A    between atoms: N1_3  and  C3_4 
REMARK       I    between atoms: N1_3  and  C11_15 
REMARK    3  A    between atoms: C3_4  and  C4_5 
REMARK    4  A    between atoms: C8_9  and  O1_10 
REMARK    5  A    between atoms: C11_15  and  C12_17 
REMARK    6  A    between atoms: C13_18  and  C14_19 
REMARK    7  A    between atoms: C14_19  and  N4_20 
ROOT
HETATM    1  N1  UNL     1      -0.971  -1.370   1.115  1.00  0.00    -0.345 N 
HETATM    2  C11 UNL     1       0.145  -0.786   0.410  1.00  0.00     0.243 C 
HETATM    3  O2  UNL     1       0.508   0.406   0.679  1.00  0.00    -0.268 OA
ENDROOT
BRANCH   1   4
HETATM    4  C2  UNL     1      -1.491  -2.727   0.898  1.00  0.00     0.122 C 
HETATM    5  C1  UNL     1      -0.830  -3.747   1.777  1.00  0.00     0.026 C 
ENDBRANCH   1   4
BRANCH   1   6
HETATM    6  C3  UNL     1      -1.633  -0.544   2.130  1.00  0.00     0.167 C 
BRANCH   6   7
HETATM    7  C4  UNL     1      -2.740   0.263   1.576  1.00  0.00    -0.012 C 
HETATM    8  C5  UNL     1      -3.956   0.120   2.083  1.00  0.00    -0.020 C 
HETATM    9  C6  UNL     1      -4.929   0.836   1.536  1.00  0.00    -0.009 C 
HETATM   10  C7  UNL     1      -4.781   0.714   0.057  1.00  0.00     0.083 C 
HETATM   11  C8  UNL     1      -4.522   1.960  -0.680  1.00  0.00     0.245 C 
HETATM   12  N2  UNL     1      -3.770   1.936  -1.881  1.00  0.00    -0.251 NA
HETATM   13  C9  UNL     1      -2.659   1.227  -1.921  1.00  0.00     0.229 C 
HETATM   14  N3  UNL     1      -2.728   0.769  -0.645  1.00  0.00    -0.254 NA
HETATM   15  C10 UNL     1      -2.452   1.210   0.474  1.00  0.00     0.127 C 
BRANCH  11  16
HETATM   16  O1  UNL     1      -5.678   2.763  -0.909  1.00  0.00    -0.375 OA
HETATM   17  H12 UNL     1      -5.433   3.661  -1.176  1.00  0.00     0.212 HD
ENDBRANCH  11  16
ENDBRANCH   6   7
ENDBRANCH   1   6
BRANCH   2  18
HETATM   18  C12 UNL     1       0.842  -1.567  -0.602  1.00  0.00     0.072 C 
HETATM   19  C13 UNL     1       1.863  -1.158  -1.311  1.00  0.00     0.008 C 
BRANCH  19  20
HETATM   20  C14 UNL     1       2.689   0.066  -1.443  1.00  0.00     0.300 C 
BRANCH  20  21
HETATM   21  N4  UNL     1       4.075  -0.168  -1.172  1.00  0.00     0.096 N 
HETATM   22  C15 UNL     1       4.362  -0.474   0.195  1.00  0.00     0.299 C 
HETATM   23  C16 UNL     1       5.444   0.470   0.743  1.00  0.00     0.198 C 
HETATM   24  O3  UNL     1       5.080   1.785   0.555  1.00  0.00    -0.388 OA
HETATM   25  C17 UNL     1       4.679   2.107  -0.715  1.00  0.00     0.198 C 
HETATM   26  C18 UNL     1       4.871   0.935  -1.637  1.00  0.00     0.299 C 
ENDBRANCH  20  21
ENDBRANCH  19  20
ENDBRANCH   2  18
TORSDOF 7
