REMARK  8 active torsions:
REMARK  status: ('A' for Active; 'I' for Inactive)
REMARK    1  A    between atoms: C1_2  and  C2_3 
REMARK       I    between atoms: C1_2  and  N2_12 
REMARK    2  A    between atoms: C3_4  and  C4_5 
REMARK    3  A    between atoms: C4_5  and  N1_6 
REMARK    4  A    between atoms: C15_20  and  N3_21 
REMARK    5  A    between atoms: N3_21  and  C16_22 
REMARK    6  A    between atoms: C16_22  and  C17_23 
REMARK    7  A    between atoms: C16_22  and  C18_25 
REMARK    8  A    between atoms: C17_23  and  O3_24 
ROOT
HETATM    1  O1  UNL     1       2.488   0.433  -1.161  1.00  0.00    -0.268 OA
HETATM    2  C1  UNL     1       2.433   0.652   0.066  1.00  0.00     0.243 C 
HETATM    3  N2  UNL     1       1.070   0.458   0.399  1.00  0.00    -0.344 N 
HETATM    4  C9  UNL     1       0.248   0.092  -0.735  1.00  0.00     0.131 C 
HETATM    5  C10 UNL     1      -1.145   0.644  -0.396  1.00  0.00     0.060 C 
HETATM    6  C11 UNL     1      -1.673  -0.229   0.681  1.00  0.00    -0.025 A 
HETATM    7  C12 UNL     1      -0.769  -0.188   1.712  1.00  0.00     0.010 A 
HETATM    8  S1  UNL     1      -1.437  -1.242   2.972  1.00  0.00    -0.072 SA
HETATM    9  C13 UNL     1      -2.929  -1.703   2.049  1.00  0.00     0.115 A 
HETATM   10  C14 UNL     1      -2.780  -1.016   0.875  1.00  0.00     0.053 A 
HETATM   11  C15 UNL     1      -3.925  -1.511   0.447  1.00  0.00     0.139 A 
HETATM   12  N4  UNL     1      -4.100  -2.246   1.679  1.00  0.00    -0.222 NA
HETATM   13  C24 UNL     1       0.481   0.592   1.709  1.00  0.00     0.172 C 
ENDROOT
BRANCH  11  14
HETATM   14  N3  UNL     1      -4.833  -1.520  -0.647  1.00  0.00    -0.363 N 
HETATM   15  H17 UNL     1      -4.819  -2.455  -1.165  1.00  0.00     0.162 HD
BRANCH  14  16
HETATM   16  C16 UNL     1      -5.718  -0.518  -1.138  1.00  0.00     0.140 C 
BRANCH  16  17
HETATM   17  C17 UNL     1      -4.989   0.730  -1.602  1.00  0.00     0.194 C 
BRANCH  17  18
HETATM   18  O3  UNL     1      -4.104   0.437  -2.635  1.00  0.00    -0.399 OA
HETATM   19  H21 UNL     1      -4.528   0.470  -3.518  1.00  0.00     0.209 HD
ENDBRANCH  17  18
ENDBRANCH  16  17
BRANCH  16  20
HETATM   20  C18 UNL     1      -6.719  -0.193  -0.089  1.00  0.00    -0.034 A 
HETATM   21  C19 UNL     1      -8.078  -0.197  -0.426  1.00  0.00     0.009 A 
HETATM   22  C20 UNL     1      -9.106   0.091   0.433  1.00  0.00     0.001 A 
HETATM   23  C21 UNL     1      -8.804   0.409   1.718  1.00  0.00     0.000 A 
HETATM   24  C22 UNL     1      -7.465   0.432   2.123  1.00  0.00     0.001 A 
HETATM   25  C23 UNL     1      -6.466   0.135   1.221  1.00  0.00     0.009 A 
ENDBRANCH  16  20
ENDBRANCH  14  16
ENDBRANCH  11  14
BRANCH   2  26
HETATM   26  C2  UNL     1       3.780   0.979   0.454  1.00  0.00     0.072 C 
HETATM   27  C3  UNL     1       4.523   0.919  -0.615  1.00  0.00     0.008 C 
BRANCH  27  28
HETATM   28  C4  UNL     1       5.976   1.198  -0.594  1.00  0.00     0.300 C 
BRANCH  28  29
HETATM   29  N1  UNL     1       6.736   0.048  -1.039  1.00  0.00     0.096 N 
HETATM   30  C5  UNL     1       6.629  -1.002  -0.077  1.00  0.00     0.299 C 
HETATM   31  C6  UNL     1       7.903  -1.807   0.081  1.00  0.00     0.198 C 
HETATM   32  O2  UNL     1       9.023  -1.043   0.318  1.00  0.00    -0.388 OA
HETATM   33  C7  UNL     1       8.871   0.292  -0.001  1.00  0.00     0.198 C 
HETATM   34  C8  UNL     1       8.113   0.417  -1.293  1.00  0.00     0.299 C 
ENDBRANCH  28  29
ENDBRANCH  27  28
ENDBRANCH   2  26
TORSDOF 8
