REMARK  8 active torsions:
REMARK  status: ('A' for Active; 'I' for Inactive)
REMARK    1  A    between atoms: C2_2  and  C3_3 
REMARK    2  A    between atoms: C4_4  and  C5_5 
REMARK    3  A    between atoms: C5_5  and  N1_6 
REMARK    4  A    between atoms: N1_6  and  C6_7 
REMARK    5  A    between atoms: C9_14  and  N4_15 
REMARK    6  A    between atoms: N4_15  and  C10_16 
REMARK    7  A    between atoms: C10_16  and  C11_17 
REMARK    8  A    between atoms: C10_16  and  C13_19 
ROOT
HETATM    1  C3  UNL     1       2.126   0.570  -0.222  1.00  0.00    -0.027 A 
HETATM    2  C4  UNL     1       3.474   0.851  -0.405  1.00  0.00     0.010 A 
HETATM    3  S1  UNL     1       4.075  -0.312  -1.625  1.00  0.00    -0.072 SA
HETATM    4  C7  UNL     1       2.400  -1.125  -1.805  1.00  0.00     0.114 A 
HETATM    5  N2  UNL     1       2.140  -2.171  -2.637  1.00  0.00    -0.234 NA
HETATM    6  C8  UNL     1       0.891  -2.635  -2.632  1.00  0.00     0.236 A 
HETATM    7  N3  UNL     1       0.083  -1.999  -1.805  1.00  0.00    -0.224 NA
HETATM    8  C9  UNL     1       0.336  -0.979  -0.992  1.00  0.00     0.139 A 
HETATM    9  C19 UNL     1       1.596  -0.433  -0.934  1.00  0.00     0.053 A 
ENDROOT
BRANCH   8  10
HETATM   10  N4  UNL     1      -0.746  -0.576  -0.156  1.00  0.00    -0.365 N 
HETATM   11  H11 UNL     1      -0.884   0.080   0.623  1.00  0.00     0.162 HD
BRANCH  10  12
HETATM   12  C10 UNL     1      -2.052  -1.182  -0.298  1.00  0.00     0.116 C 
BRANCH  12  13
HETATM   13  C11 UNL     1      -2.665  -0.875  -1.664  1.00  0.00     0.025 C 
HETATM   14  C12 UNL     1      -4.026  -1.494  -1.839  1.00  0.00     0.007 C 
ENDBRANCH  12  13
BRANCH  12  15
HETATM   15  C13 UNL     1      -3.017  -0.629   0.681  1.00  0.00    -0.036 A 
HETATM   16  C14 UNL     1      -2.934   0.770   0.703  1.00  0.00     0.009 A 
HETATM   17  C15 UNL     1      -3.727   1.531   1.536  1.00  0.00     0.001 A 
HETATM   18  C16 UNL     1      -4.638   0.885   2.379  1.00  0.00     0.000 A 
HETATM   19  C17 UNL     1      -4.706  -0.480   2.344  1.00  0.00     0.001 A 
HETATM   20  C18 UNL     1      -3.910  -1.243   1.510  1.00  0.00     0.009 A 
ENDBRANCH  12  15
ENDBRANCH  10  12
ENDBRANCH   8  10
BRANCH   1  21
HETATM   21  C2  UNL     1       1.489   1.487   0.750  1.00  0.00     0.036 C 
HETATM   22  C1  UNL     1       1.805   1.012   2.149  1.00  0.00     0.010 C 
ENDBRANCH   1  21
BRANCH   2  23
HETATM   23  C5  UNL     1       4.390   1.854   0.188  1.00  0.00     0.168 C 
BRANCH  23  24
HETATM   24  N1  UNL     1       5.720   1.728  -0.340  1.00  0.00    -0.363 N 
HETATM   25  H8  UNL     1       6.158   2.541  -0.855  1.00  0.00     0.162 HD
BRANCH  24  26
HETATM   26  C6  UNL     1       6.537   0.592  -0.241  1.00  0.00     0.348 C 
HETATM   27  O1  UNL     1       6.109  -0.420   0.352  1.00  0.00    -0.284 OA
ENDBRANCH  24  26
ENDBRANCH  23  24
ENDBRANCH   2  23
TORSDOF 8
