REMARK  5 active torsions:
REMARK  status: ('A' for Active; 'I' for Inactive)
REMARK    1  A    between atoms: C2_2  and  C3_4 
REMARK    2  A    between atoms: C4_5  and  C5_6 
REMARK    3  A    between atoms: C5_6  and  N1_8 
REMARK    4  A    between atoms: N4_19  and  C13_20 
REMARK    5  A    between atoms: C13_20  and  C15_22 
ROOT
HETATM    1  N1  UNL     1      -0.127   0.190   1.277  1.00  0.00    -0.218 NA
HETATM    2  C7  UNL     1      -1.188   0.901   1.845  1.00  0.00     0.135 C 
HETATM    3  C8  UNL     1      -1.062   2.417   1.772  1.00  0.00     0.031 A 
HETATM    4  C9  UNL     1      -0.801   3.597   1.271  1.00  0.00     0.176 A 
HETATM    5  C10 UNL     1      -0.104   3.096  -0.085  1.00  0.00     0.110 A 
HETATM    6  C11 UNL     1       0.085   1.778  -0.455  1.00  0.00     0.143 A 
HETATM    7  N2  UNL     1       0.710   1.907  -1.708  1.00  0.00    -0.213 NA
HETATM    8  P1  UNL     1       1.049   3.390  -2.409  1.00  0.00     0.211 P 
HETATM    9  N3  UNL     1       0.530   4.650  -1.385  1.00  0.00    -0.228 NA
HETATM   10  C12 UNL     1      -0.037   4.408  -0.242  1.00  0.00     0.070 A 
HETATM   11  S1  UNL     1      -0.840   4.378   1.354  1.00  0.00    -0.210 SA
HETATM   12  N4  UNL     1      -0.054   0.423  -0.144  1.00  0.00    -0.286 N 
ENDROOT
BRANCH  12  13
HETATM   13  C13 UNL     1      -0.185  -0.557  -1.167  1.00  0.00     0.133 C 
HETATM   14  C14 UNL     1       0.804  -0.553  -2.277  1.00  0.00     0.039 C 
BRANCH  13  15
HETATM   15  C15 UNL     1      -1.583  -0.751  -1.672  1.00  0.00    -0.034 A 
HETATM   16  C16 UNL     1      -2.019  -2.062  -1.971  1.00  0.00     0.009 A 
HETATM   17  C17 UNL     1      -3.333  -2.206  -2.396  1.00  0.00     0.001 A 
HETATM   18  C18 UNL     1      -4.126  -1.107  -2.503  1.00  0.00     0.000 A 
HETATM   19  C19 UNL     1      -3.800   0.184  -2.242  1.00  0.00     0.001 A 
HETATM   20  C20 UNL     1      -2.458   0.279  -1.814  1.00  0.00     0.009 A 
ENDBRANCH  13  15
ENDBRANCH  12  13
BRANCH   1  21
HETATM   21  C5  UNL     1       1.196   0.345   1.787  1.00  0.00     0.098 C 
HETATM   22  C6  UNL     1       1.311   0.660   3.233  1.00  0.00     0.032 C 
BRANCH  21  23
HETATM   23  C4  UNL     1       1.924  -0.934   1.467  1.00  0.00    -0.002 C 
HETATM   24  C3  UNL     1       2.517  -1.859   2.240  1.00  0.00     0.047 C 
BRANCH  24  25
HETATM   25  C2  UNL     1       3.142  -3.023   1.629  1.00  0.00     0.145 C 
HETATM   26  C1  UNL     1       3.187  -3.245   0.194  1.00  0.00     0.096 C 
HETATM   27  O1  UNL     1       3.647  -3.834   2.462  1.00  0.00    -0.294 OA
ENDBRANCH  24  25
ENDBRANCH  21  23
ENDBRANCH   1  21
TORSDOF 5
