REMARK  3 active torsions:
REMARK  status: ('A' for Active; 'I' for Inactive)
REMARK    1  A    between atoms: N1_1  and  C1_2 
REMARK    2  A    between atoms: C9_11  and  N3_12 
REMARK    3  A    between atoms: N3_12  and  C10_13 
ROOT
HETATM    1  C1  UNL     1      -5.129  -0.066  -0.078  1.00  0.00     0.026 A 
HETATM    2  C2  UNL     1      -5.076   0.622   1.140  1.00  0.00     0.032 A 
HETATM    3  C3  UNL     1      -3.848   0.808   1.744  1.00  0.00     0.040 A 
HETATM    4  C4  UNL     1      -2.731   0.308   1.122  1.00  0.00     0.086 A 
HETATM    5  C5  UNL     1      -2.719  -0.375  -0.072  1.00  0.00    -0.004 A 
HETATM    6  C6  UNL     1      -3.983  -0.545  -0.657  1.00  0.00     0.040 A 
HETATM    7  C7  UNL     1      -1.771  -1.013  -0.974  1.00  0.00     0.161 C 
HETATM    8  N2  UNL     1      -0.387  -0.780  -0.726  1.00  0.00    -0.379 N 
HETATM    9  C8  UNL     1       0.228  -0.432   0.511  1.00  0.00     0.129 A 
HETATM   10  C9  UNL     1       1.434  -0.524   1.035  1.00  0.00     0.162 A 
HETATM   11  N4  UNL     1       0.913   0.091   2.219  1.00  0.00    -0.202 NA
HETATM   12  C16 UNL     1      -0.275   0.192   1.728  1.00  0.00     0.203 A 
HETATM   13  O1  UNL     1      -1.601   0.583   1.861  1.00  0.00    -0.289 OA
HETATM   14  H8  UNL     1       0.280  -0.867  -1.526  1.00  0.00     0.160 HD
ENDROOT
BRANCH  10  15
HETATM   15  N3  UNL     1       2.774  -0.941   0.845  1.00  0.00    -0.339 N 
HETATM   16  H9  UNL     1       3.256  -1.837   1.062  1.00  0.00     0.167 HD
BRANCH  15  17
HETATM   17  C10 UNL     1       3.869  -0.230   0.289  1.00  0.00     0.035 A 
HETATM   18  C11 UNL     1       4.590   0.564   1.173  1.00  0.00     0.029 A 
HETATM   19  C12 UNL     1       5.677   1.311   0.795  1.00  0.00     0.004 A 
HETATM   20  C13 UNL     1       6.031   1.236  -0.539  1.00  0.00     0.019 A 
HETATM   21  C14 UNL     1       5.375   0.483  -1.461  1.00  0.00     0.013 A 
HETATM   22 BR1  UNL     1       5.886   0.391  -3.307  1.00  0.00    -0.051 Br
HETATM   23  C15 UNL     1       4.294  -0.243  -1.022  1.00  0.00     0.048 A 
ENDBRANCH  15  17
ENDBRANCH  10  15
BRANCH   1  24
HETATM   24  N1  UNL     1      -6.413  -0.226  -0.647  1.00  0.00    -0.399 N 
HETATM   25  H1  UNL     1      -6.709  -0.353  -1.640  1.00  0.00     0.156 HD
HETATM   26  H2  UNL     1      -7.283  -0.229  -0.049  1.00  0.00     0.156 HD
ENDBRANCH   1  24
TORSDOF 3
