REMARK  3 active torsions:
REMARK  status: ('A' for Active; 'I' for Inactive)
REMARK       I    between atoms: N2_16  and  C14_17 
REMARK    1  A    between atoms: C14_17  and  C15_19 
REMARK    2  A    between atoms: C16_20  and  C17_21 
REMARK    3  A    between atoms: C17_21  and  N3_22 
ROOT
HETATM    1  C1  UNL     1      -7.557  -1.660  -1.681  1.00  0.00     0.068 C 
HETATM    2  C2  UNL     1      -6.600  -0.969  -0.743  1.00  0.00     0.002 C 
HETATM    3  C3  UNL     1      -7.191   0.022  -0.050  1.00  0.00    -0.001 C 
HETATM    4  C4  UNL     1      -6.354   0.779   0.914  1.00  0.00     0.001 C 
HETATM    5  C5  UNL     1      -5.155   0.982   1.527  1.00  0.00     0.031 C 
HETATM    6  C6  UNL     1      -3.817   0.387   1.508  1.00  0.00     0.065 C 
HETATM    7  C7  UNL     1      -2.771   1.226   0.906  1.00  0.00     0.040 C 
HETATM    8  N1  UNL     1      -2.634   2.451   0.621  1.00  0.00    -0.304 NA
HETATM    9  C8  UNL     1      -1.593   0.426   0.549  1.00  0.00     0.031 A 
HETATM   10  C9  UNL     1      -1.942  -0.730  -0.283  1.00  0.00     0.112 A 
HETATM   11  S1  UNL     1      -0.336  -1.456  -0.574  1.00  0.00    -0.072 SA
HETATM   12  C10 UNL     1       0.680  -0.295   0.347  1.00  0.00     0.010 A 
HETATM   13  C11 UNL     1      -0.292   0.602   0.834  1.00  0.00    -0.027 A 
HETATM   14  C12 UNL     1       0.389   1.652   1.623  1.00  0.00     0.060 C 
HETATM   15  C13 UNL     1       1.508   2.272   0.811  1.00  0.00     0.131 C 
HETATM   16  N2  UNL     1       2.447   1.276   0.358  1.00  0.00    -0.344 N 
HETATM   17  C14 UNL     1       3.578   1.786  -0.314  1.00  0.00     0.243 C 
HETATM   18  O1  UNL     1       2.984   2.880  -0.076  1.00  0.00    -0.268 OA
HETATM   19  C20 UNL     1       2.105  -0.114   0.653  1.00  0.00     0.172 C 
HETATM   20  N4  UNL     1      -3.155  -1.004  -0.597  1.00  0.00    -0.236 NA
HETATM   21  C21 UNL     1      -3.994  -1.160  -1.455  1.00  0.00     0.208 C 
HETATM   22  N5  UNL     1      -5.255  -1.492  -0.826  1.00  0.00    -0.355 N 
HETATM   23  H9  UNL     1      -3.281   3.233   0.752  1.00  0.00     0.186 HD
HETATM   24  H27 UNL     1      -5.333  -2.344  -0.232  1.00  0.00     0.166 HD
ENDROOT
BRANCH  17  25
HETATM   25  C15 UNL     1       4.829   1.732  -1.006  1.00  0.00     0.072 C 
HETATM   26  C16 UNL     1       5.631   0.711  -1.364  1.00  0.00     0.008 C 
BRANCH  26  27
HETATM   27  C17 UNL     1       5.713  -0.753  -1.284  1.00  0.00     0.299 C 
BRANCH  27  28
HETATM   28  N3  UNL     1       6.928  -1.147  -0.556  1.00  0.00     0.083 N 
HETATM   29  C18 UNL     1       6.761  -0.741   0.845  1.00  0.00     0.309 C 
HETATM   30  C19 UNL     1       7.037  -2.592  -0.588  1.00  0.00     0.309 C 
ENDBRANCH  27  28
ENDBRANCH  26  27
ENDBRANCH  17  25
TORSDOF 3
