REMARK  9 active torsions:
REMARK  status: ('A' for Active; 'I' for Inactive)
REMARK    1  A    between atoms: N1_2  and  C3_4 
REMARK    2  A    between atoms: C3_4  and  C4_5 
REMARK    3  A    between atoms: C5_6  and  C6_7 
REMARK       I    between atoms: C6_7  and  N2_9 
REMARK    4  A    between atoms: C10_13  and  S1_14 
REMARK    5  A    between atoms: S1_14  and  C11_15 
REMARK    6  A    between atoms: C14_20  and  N5_21 
REMARK    7  A    between atoms: N5_21  and  C15_22 
REMARK    8  A    between atoms: C20_27  and  C21_28 
REMARK    9  A    between atoms: C21_28  and  O2_29 
ROOT
HETATM    1  C6  UNL     1       1.389  -1.101  -1.461  1.00  0.00     0.245 C 
HETATM    2  O1  UNL     1       0.437  -1.690  -2.092  1.00  0.00    -0.268 OA
HETATM    3  N2  UNL     1       0.785  -0.418  -0.356  1.00  0.00    -0.323 N 
HETATM    4  C7  UNL     1       1.558   0.383   0.574  1.00  0.00     0.132 C 
HETATM    5  C8  UNL     1       0.715   1.120   1.586  1.00  0.00     0.048 C 
HETATM    6  C9  UNL     1      -0.383   1.786   0.794  1.00  0.00    -0.007 C 
HETATM    7  C10 UNL     1      -1.071   1.004  -0.029  1.00  0.00     0.021 C 
HETATM    8  C14 UNL     1      -0.622  -0.440  -0.024  1.00  0.00     0.224 C 
ENDROOT
BRANCH   8   9
HETATM    9  N5  UNL     1      -1.436  -1.317  -0.749  1.00  0.00    -0.382 N 
HETATM   10  H22 UNL     1      -1.744  -0.981  -1.689  1.00  0.00     0.157 HD
BRANCH   9  11
HETATM   11  C15 UNL     1      -2.461  -2.067  -0.177  1.00  0.00     0.068 A 
HETATM   12  C16 UNL     1      -1.991  -3.123   0.812  1.00  0.00     0.048 C 
HETATM   13  C17 UNL     1      -3.091  -2.862  -1.311  1.00  0.00     0.008 A 
HETATM   14  C18 UNL     1      -4.401  -2.734  -1.396  1.00  0.00    -0.001 A 
HETATM   15  C19 UNL     1      -4.717  -1.834  -0.299  1.00  0.00     0.007 A 
HETATM   16  C20 UNL     1      -3.636  -1.442   0.410  1.00  0.00    -0.026 A 
BRANCH  16  17
HETATM   17  C21 UNL     1      -3.883  -0.575   1.562  1.00  0.00     0.201 C 
BRANCH  17  18
HETATM   18  O2  UNL     1      -3.429  -1.171   2.750  1.00  0.00    -0.397 OA
HETATM   19  H31 UNL     1      -3.637  -0.606   3.524  1.00  0.00     0.209 HD
ENDBRANCH  17  18
ENDBRANCH  16  17
ENDBRANCH   9  11
ENDBRANCH   8   9
BRANCH   7  20
HETATM   20  S1  UNL     1      -2.371   1.772  -0.976  1.00  0.00    -0.076 SA
BRANCH  20  21
HETATM   21  C11 UNL     1      -2.534   3.529  -0.672  1.00  0.00     0.178 A 
HETATM   22  C12 UNL     1      -1.365   4.362  -1.147  1.00  0.00     0.079 C 
HETATM   23  N3  UNL     1      -2.967   3.929   0.623  1.00  0.00    -0.243 NA
HETATM   24  C13 UNL     1      -4.085   4.411   0.195  1.00  0.00     0.202 A 
HETATM   25  N4  UNL     1      -3.793   4.072  -1.156  1.00  0.00    -0.348 N 
HETATM   26  H20 UNL     1      -4.636   4.405  -1.695  1.00  0.00     0.163 HD
ENDBRANCH  20  21
ENDBRANCH   7  20
BRANCH   1  27
HETATM   27  C5  UNL     1       2.756  -1.229  -1.940  1.00  0.00     0.072 C 
HETATM   28  C4  UNL     1       4.026  -0.860  -1.680  1.00  0.00     0.008 C 
BRANCH  28  29
HETATM   29  C3  UNL     1       4.942  -0.116  -0.798  1.00  0.00     0.299 C 
BRANCH  29  30
HETATM   30  N1  UNL     1       5.968  -0.968  -0.195  1.00  0.00     0.083 N 
HETATM   31  C1  UNL     1       6.765  -0.095   0.637  1.00  0.00     0.309 C 
HETATM   32  C2  UNL     1       5.351  -1.973   0.661  1.00  0.00     0.309 C 
ENDBRANCH  29  30
ENDBRANCH  28  29
ENDBRANCH   1  27
TORSDOF 9
