REMARK  4 active torsions:
REMARK  status: ('A' for Active; 'I' for Inactive)
REMARK    1  A    between atoms: C2_2  and  C3_3 
REMARK       I    between atoms: N4_15  and  C11_16 
REMARK    2  A    between atoms: C11_16  and  C12_18 
REMARK    3  A    between atoms: C13_19  and  C14_20 
REMARK    4  A    between atoms: C14_20  and  N5_21 
ROOT
HETATM    1  C3  UNL     1      -4.371   1.519   1.012  1.00  0.00     0.116 C 
HETATM    2  N1  UNL     1      -4.096   0.213   1.679  1.00  0.00    -0.369 N 
HETATM    3  C4  UNL     1      -3.151  -0.695   1.006  1.00  0.00     0.114 C 
HETATM    4  N2  UNL     1      -3.521  -1.835   1.483  1.00  0.00    -0.228 NA
HETATM    5  C5  UNL     1      -2.970  -3.085   1.190  1.00  0.00     0.229 C 
HETATM    6  N3  UNL     1      -2.131  -4.091   1.144  1.00  0.00    -0.272 NA
HETATM    7  C6  UNL     1      -0.831  -3.936   1.834  1.00  0.00     0.229 C 
HETATM    8  S1  UNL     1      -0.529  -2.141   1.989  1.00  0.00    -0.111 SA
HETATM    9  C7  UNL     1      -0.241  -1.351   0.436  1.00  0.00     0.001 C 
HETATM   10  C8  UNL     1      -0.979  -0.471  -0.259  1.00  0.00    -0.048 C 
HETATM   11  C9  UNL     1      -0.346  -0.039  -1.553  1.00  0.00     0.056 C 
HETATM   12  C10 UNL     1       1.043   0.498  -1.133  1.00  0.00     0.131 C 
HETATM   13  N4  UNL     1       1.802  -0.638  -0.677  1.00  0.00    -0.344 N 
HETATM   14  C11 UNL     1       3.243  -0.659  -0.681  1.00  0.00     0.243 C 
HETATM   15  O1  UNL     1       3.807  -1.716  -0.261  1.00  0.00    -0.268 OA
HETATM   16  C17 UNL     1       1.058  -1.784  -0.195  1.00  0.00     0.172 C 
HETATM   17  C18 UNL     1      -2.259   0.090   0.100  1.00  0.00     0.118 C 
HETATM   18  C19 UNL     1      -3.195   0.415  -1.015  1.00  0.00    -0.034 A 
HETATM   19  C20 UNL     1      -3.288   0.171  -2.362  1.00  0.00     0.009 A 
HETATM   20  C21 UNL     1      -4.318   0.621  -3.143  1.00  0.00     0.001 A 
HETATM   21  C22 UNL     1      -5.345   1.361  -2.606  1.00  0.00     0.001 A 
HETATM   22  C23 UNL     1      -5.304   1.634  -1.257  1.00  0.00     0.010 A 
HETATM   23  C24 UNL     1      -4.250   1.173  -0.457  1.00  0.00    -0.028 A 
HETATM   24  H7  UNL     1      -4.637   0.092   2.580  1.00  0.00     0.161 HD
ENDROOT
BRANCH  14  25
HETATM   25  C12 UNL     1       3.979   0.503  -1.156  1.00  0.00     0.072 C 
HETATM   26  C13 UNL     1       5.299   0.581  -1.200  1.00  0.00     0.008 C 
BRANCH  26  27
HETATM   27  C14 UNL     1       6.451  -0.282  -0.864  1.00  0.00     0.299 C 
BRANCH  27  28
HETATM   28  N5  UNL     1       7.312   0.320   0.135  1.00  0.00     0.083 N 
HETATM   29  C15 UNL     1       8.445  -0.552   0.445  1.00  0.00     0.309 C 
HETATM   30  C16 UNL     1       7.723   1.645  -0.206  1.00  0.00     0.309 C 
ENDBRANCH  27  28
ENDBRANCH  26  27
ENDBRANCH  14  25
BRANCH   1  31
HETATM   31  C2  UNL     1      -5.713   2.024   1.362  1.00  0.00     0.025 C 
HETATM   32  C1  UNL     1      -5.743   2.197   2.885  1.00  0.00     0.007 C 
ENDBRANCH   1  31
TORSDOF 4
