REMARK  3 active torsions:
REMARK  status: ('A' for Active; 'I' for Inactive)
REMARK    1  A    between atoms: N1_1  and  C1_2 
REMARK    2  A    between atoms: C9_11  and  N3_12 
REMARK    3  A    between atoms: N3_12  and  C10_13 
ROOT
HETATM    1  C1  UNL     1      -5.223  -0.760  -0.066  1.00  0.00     0.026 A 
HETATM    2  C2  UNL     1      -5.463   0.618  -0.087  1.00  0.00     0.032 A 
HETATM    3  C3  UNL     1      -4.406   1.491   0.079  1.00  0.00     0.040 A 
HETATM    4  C4  UNL     1      -3.127   1.016   0.264  1.00  0.00     0.086 A 
HETATM    5  C5  UNL     1      -2.844  -0.355   0.292  1.00  0.00    -0.004 A 
HETATM    6  C6  UNL     1      -3.932  -1.198   0.121  1.00  0.00     0.040 A 
HETATM    7  C7  UNL     1      -1.678  -1.246   0.455  1.00  0.00     0.161 C 
HETATM    8  N2  UNL     1      -0.439  -0.586   0.723  1.00  0.00    -0.379 N 
HETATM    9  C8  UNL     1       0.022   0.698   0.311  1.00  0.00     0.129 A 
HETATM   10  C9  UNL     1       1.369   0.752   0.036  1.00  0.00     0.160 A 
HETATM   11  N4  UNL     1       1.836   1.952  -0.335  1.00  0.00    -0.222 NA
HETATM   12  C16 UNL     1       1.113   3.072  -0.456  1.00  0.00     0.238 A 
HETATM   13  N5  UNL     1      -0.218   3.041  -0.190  1.00  0.00    -0.215 NA
HETATM   14  C17 UNL     1      -0.753   1.861   0.189  1.00  0.00     0.202 A 
HETATM   15  O1  UNL     1      -2.132   2.001   0.422  1.00  0.00    -0.289 OA
HETATM   16  H8  UNL     1       0.289  -1.059   1.306  1.00  0.00     0.160 HD
ENDROOT
BRANCH  10  17
HETATM   17  N3  UNL     1       2.167  -0.419   0.115  1.00  0.00    -0.339 N 
HETATM   18  H9  UNL     1       1.817  -1.370   0.275  1.00  0.00     0.167 HD
BRANCH  17  19
HETATM   19  C10 UNL     1       3.582  -0.494  -0.031  1.00  0.00     0.035 A 
HETATM   20  C11 UNL     1       4.298  -1.671  -0.259  1.00  0.00     0.029 A 
HETATM   21  C12 UNL     1       5.657  -1.733  -0.390  1.00  0.00     0.004 A 
HETATM   22  C13 UNL     1       6.411  -0.591  -0.298  1.00  0.00     0.019 A 
HETATM   23  C14 UNL     1       5.775   0.610  -0.073  1.00  0.00     0.013 A 
HETATM   24 BR1  UNL     1       6.857   2.181   0.049  1.00  0.00    -0.051 Br
HETATM   25  C15 UNL     1       4.401   0.613   0.050  1.00  0.00     0.048 A 
ENDBRANCH  17  19
ENDBRANCH  10  17
BRANCH   1  26
HETATM   26  N1  UNL     1      -6.340  -1.616  -0.242  1.00  0.00    -0.399 N 
HETATM   27  H1  UNL     1      -6.462  -2.359  -0.962  1.00  0.00     0.156 HD
HETATM   28  H2  UNL     1      -7.159  -1.515   0.414  1.00  0.00     0.156 HD
ENDBRANCH   1  26
TORSDOF 3
