REMARK  9 active torsions:
REMARK  status: ('A' for Active; 'I' for Inactive)
REMARK    1  A    between atoms: N1_2  and  C3_4 
REMARK    2  A    between atoms: C3_4  and  C4_5 
REMARK    3  A    between atoms: C5_6  and  C6_7 
REMARK       I    between atoms: C6_7  and  N2_9 
REMARK    4  A    between atoms: C13_19  and  N5_20 
REMARK    5  A    between atoms: N5_20  and  C14_21 
REMARK    6  A    between atoms: C14_21  and  C15_22 
REMARK    7  A    between atoms: C14_21  and  C16_24 
REMARK    8  A    between atoms: C15_22  and  O2_23 
REMARK    9  A    between atoms: C16_24  and  C17_25 
ROOT
HETATM    1  C6  UNL     1       4.205  -0.208  -0.256  1.00  0.00     0.243 C 
HETATM    2  O1  UNL     1       3.712   0.616   0.527  1.00  0.00    -0.268 OA
HETATM    3  N2  UNL     1       2.837  -0.563  -0.138  1.00  0.00    -0.344 N 
HETATM    4  C7  UNL     1       1.779   0.010   0.612  1.00  0.00     0.131 C 
HETATM    5  C8  UNL     1       0.577   0.132  -0.359  1.00  0.00     0.060 C 
HETATM    6  C9  UNL     1      -0.093  -1.174  -0.364  1.00  0.00    -0.025 A 
HETATM    7  C10 UNL     1       0.971  -2.064  -0.659  1.00  0.00     0.010 A 
HETATM    8  S1  UNL     1       0.220  -3.678  -0.669  1.00  0.00    -0.072 SA
HETATM    9  C11 UNL     1      -1.423  -3.129  -0.294  1.00  0.00     0.114 A 
HETATM   10  N3  UNL     1      -2.520  -3.853  -0.151  1.00  0.00    -0.234 NA
HETATM   11  C12 UNL     1      -3.680  -3.245   0.133  1.00  0.00     0.236 A 
HETATM   12  N4  UNL     1      -3.589  -1.924   0.242  1.00  0.00    -0.224 NA
HETATM   13  C13 UNL     1      -2.500  -1.163   0.104  1.00  0.00     0.139 A 
HETATM   14  C22 UNL     1      -1.299  -1.771  -0.186  1.00  0.00     0.053 A 
HETATM   15  C23 UNL     1       2.409  -1.712  -0.908  1.00  0.00     0.172 C 
ENDROOT
BRANCH  13  16
HETATM   16  N5  UNL     1      -2.714   0.253   0.270  1.00  0.00    -0.367 N 
HETATM   17  H16 UNL     1      -2.086   1.040   0.205  1.00  0.00     0.161 HD
BRANCH  16  18
HETATM   18  C14 UNL     1      -4.028   0.769   0.574  1.00  0.00     0.107 C 
BRANCH  18  19
HETATM   19  C15 UNL     1      -3.959   2.250   0.811  1.00  0.00     0.189 C 
BRANCH  19  20
HETATM   20  O2  UNL     1      -3.092   2.511   1.886  1.00  0.00    -0.399 OA
HETATM   21  H20 UNL     1      -2.814   1.689   2.325  1.00  0.00     0.209 HD
ENDBRANCH  19  20
ENDBRANCH  18  19
BRANCH  18  22
HETATM   22  C16 UNL     1      -4.939   0.577  -0.632  1.00  0.00     0.039 C 
BRANCH  22  23
HETATM   23  C17 UNL     1      -6.320   1.105  -0.349  1.00  0.00     0.032 A 
HETATM   24  C18 UNL     1      -6.941   0.407   0.814  1.00  0.00    -0.018 A 
HETATM   25  C19 UNL     1      -8.033  -0.253   0.460  1.00  0.00    -0.004 A 
HETATM   26  C20 UNL     1      -8.253  -0.065  -0.968  1.00  0.00    -0.004 A 
HETATM   27  C21 UNL     1      -7.272   0.713  -1.432  1.00  0.00    -0.018 A 
ENDBRANCH  22  23
ENDBRANCH  18  22
ENDBRANCH  16  18
ENDBRANCH  13  16
BRANCH   1  28
HETATM   28  C5  UNL     1       5.146  -0.931  -1.090  1.00  0.00     0.072 C 
HETATM   29  C4  UNL     1       6.421  -0.654  -1.242  1.00  0.00     0.008 C 
BRANCH  29  30
HETATM   30  C3  UNL     1       7.550   0.214  -0.892  1.00  0.00     0.299 C 
BRANCH  30  31
HETATM   31  N1  UNL     1       7.136   1.215   0.052  1.00  0.00     0.083 N 
HETATM   32  C1  UNL     1       6.846   0.687   1.360  1.00  0.00     0.309 C 
HETATM   33  C2  UNL     1       7.946   2.397   0.078  1.00  0.00     0.309 C 
ENDBRANCH  30  31
ENDBRANCH  29  30
ENDBRANCH   1  28
TORSDOF 9
