REMARK  6 active torsions:
REMARK  status: ('A' for Active; 'I' for Inactive)
REMARK    1  A    between atoms: C6_7  and  O1_8 
REMARK    2  A    between atoms: C12_15  and  C13_16 
REMARK    3  A    between atoms: C13_16  and  C14_17 
REMARK    4  A    between atoms: C13_16  and  C15_19 
REMARK    5  A    between atoms: C14_17  and  O2_18 
REMARK    6  A    between atoms: C15_19  and  C16_20 
ROOT
HETATM    1  C1  UNL     1       5.915  -3.480  -0.604  1.00  0.00     0.057 C 
HETATM    2  C2  UNL     1       5.574  -2.063  -0.367  1.00  0.00    -0.014 C 
HETATM    3  C3  UNL     1       5.852  -0.833  -0.106  1.00  0.00    -0.010 C 
HETATM    4  C4  UNL     1       5.814   0.616   0.167  1.00  0.00     0.048 C 
HETATM    5  C5  UNL     1       4.371   1.047   0.138  1.00  0.00     0.125 C 
HETATM    6  N1  UNL     1       4.167   2.455   0.390  1.00  0.00    -0.371 N 
HETATM    7  C6  UNL     1       2.966   3.269   0.437  1.00  0.00     0.133 C 
HETATM    8  C7  UNL     1       1.807   2.772  -0.043  1.00  0.00     0.048 C 
HETATM    9  C8  UNL     1       0.929   1.795  -0.651  1.00  0.00     0.153 C 
HETATM   10  N2  UNL     1      -0.219   1.388   0.153  1.00  0.00    -0.392 N 
HETATM   11  C9  UNL     1      -1.131   2.542   0.184  1.00  0.00     0.148 C 
HETATM   12  C10 UNL     1      -0.903   0.388   0.958  1.00  0.00     0.088 C 
HETATM   13  C11 UNL     1      -1.329  -0.819   0.612  1.00  0.00     0.102 A 
HETATM   14  C12 UNL     1      -1.550  -1.105  -0.666  1.00  0.00     0.077 A 
HETATM   15  N4  UNL     1      -0.161  -0.971  -0.490  1.00  0.00    -0.245 NA
HETATM   16  C21 UNL     1       0.556  -1.992  -0.886  1.00  0.00     0.168 C 
HETATM   17  N5  UNL     1       1.933  -1.869  -0.709  1.00  0.00    -0.290 N 
HETATM   18  C22 UNL     1       2.741  -2.914  -0.715  1.00  0.00     0.165 A 
HETATM   19  S1  UNL     1       3.876  -1.596  -0.446  1.00  0.00    -0.049 SA
HETATM   20  H9  UNL     1       5.080   2.938   0.564  1.00  0.00     0.161 HD
ENDROOT
BRANCH  14  21
HETATM   21  C13 UNL     1      -3.070  -1.251  -0.858  1.00  0.00     0.041 C 
BRANCH  21  22
HETATM   22  C14 UNL     1      -3.401  -2.564  -0.148  1.00  0.00     0.171 C 
BRANCH  22  23
HETATM   23  O2  UNL     1      -4.667  -2.985  -0.145  1.00  0.00    -0.400 OA
HETATM   24  H21 UNL     1      -5.206  -2.784   0.661  1.00  0.00     0.209 HD
ENDBRANCH  22  23
ENDBRANCH  21  22
BRANCH  21  25
HETATM   25  C15 UNL     1      -3.699  -0.074  -0.236  1.00  0.00     0.045 C 
BRANCH  25  26
HETATM   26  C16 UNL     1      -5.137   0.117  -0.311  1.00  0.00    -0.060 C 
HETATM   27  C17 UNL     1      -6.209  -0.430  -0.849  1.00  0.00     0.007 C 
HETATM   28  C18 UNL     1      -7.594   0.035  -0.717  1.00  0.00     0.034 C 
HETATM   29  C19 UNL     1      -7.696   0.718   0.415  1.00  0.00     0.079 C 
HETATM   30  N3  UNL     1      -6.831   1.601   0.650  1.00  0.00    -0.283 NA
HETATM   31  C20 UNL     1      -5.436   1.358   0.502  1.00  0.00     0.183 C 
ENDBRANCH  25  26
ENDBRANCH  21  25
ENDBRANCH  14  21
BRANCH   7  32
HETATM   32  O1  UNL     1       3.184   4.528   1.005  1.00  0.00    -0.346 OA
HETATM   33  H10 UNL     1       3.143   4.721   1.986  1.00  0.00     0.219 HD
ENDBRANCH   7  32
TORSDOF 6
