REMARK  8 active torsions:
REMARK  status: ('A' for Active; 'I' for Inactive)
REMARK    1  A    between atoms: C2_2  and  N1_3 
REMARK    2  A    between atoms: N1_3  and  C3_4 
REMARK    3  A    between atoms: C8_12  and  O1_13 
REMARK    4  A    between atoms: N4_16  and  O2_17 
REMARK    5  A    between atoms: O2_17  and  C11_18 
REMARK    6  A    between atoms: C11_18  and  C12_20 
REMARK    7  A    between atoms: C13_21  and  C14_22 
REMARK    8  A    between atoms: C14_22  and  N5_23 
ROOT
HETATM    1  C3  UNL     1      -4.559   0.310  -0.816  1.00  0.00     0.158 C 
HETATM    2  N2  UNL     1      -4.752  -0.977  -0.579  1.00  0.00    -0.222 NA
HETATM    3  C4  UNL     1      -5.427  -1.510   0.449  1.00  0.00     0.235 C 
HETATM    4  N3  UNL     1      -5.037  -1.867   1.687  1.00  0.00    -0.247 NA
HETATM    5  C5  UNL     1      -3.822  -2.376   1.952  1.00  0.00     0.167 C 
HETATM    6  S1  UNL     1      -3.057  -0.857   1.961  1.00  0.00    -0.085 SA
HETATM    7  C6  UNL     1      -2.062  -0.208   0.752  1.00  0.00     0.013 C 
HETATM    8  C7  UNL     1      -2.108  -0.215  -0.624  1.00  0.00    -0.005 C 
HETATM    9  C8  UNL     1      -3.266   0.117  -1.249  1.00  0.00     0.119 C 
HETATM   10  C9  UNL     1      -0.964  -0.564  -1.505  1.00  0.00     0.064 C 
HETATM   11  C10 UNL     1       0.124  -1.016  -0.524  1.00  0.00     0.155 C 
HETATM   12  N4  UNL     1       0.288  -0.012   0.446  1.00  0.00    -0.280 N 
HETATM   13  C17 UNL     1      -0.829   0.568   1.044  1.00  0.00     0.197 C 
ENDROOT
BRANCH  12  14
HETATM   14  O2  UNL     1       1.487   0.162   1.009  1.00  0.00    -0.198 OA
BRANCH  14  15
HETATM   15  C11 UNL     1       2.621   0.304   0.223  1.00  0.00     0.304 C 
HETATM   16  O3  UNL     1       2.791   0.307  -1.034  1.00  0.00    -0.258 OA
BRANCH  15  17
HETATM   17  C12 UNL     1       3.895   0.491   0.951  1.00  0.00     0.082 C 
HETATM   18  C13 UNL     1       5.058   0.641   0.338  1.00  0.00     0.009 C 
BRANCH  18  19
HETATM   19  C14 UNL     1       6.362   0.831   0.994  1.00  0.00     0.299 C 
BRANCH  19  20
HETATM   20  N5  UNL     1       7.232  -0.255   0.601  1.00  0.00     0.083 N 
HETATM   21  C15 UNL     1       7.592  -0.202  -0.792  1.00  0.00     0.309 C 
HETATM   22  C16 UNL     1       8.415  -0.261   1.458  1.00  0.00     0.309 C 
ENDBRANCH  19  20
ENDBRANCH  18  19
ENDBRANCH  15  17
ENDBRANCH  14  15
ENDBRANCH  12  14
BRANCH   9  23
HETATM   23  O1  UNL     1      -3.458   0.366  -2.595  1.00  0.00    -0.357 OA
HETATM   24  H9  UNL     1      -3.541   1.271  -3.015  1.00  0.00     0.218 HD
ENDBRANCH   9  23
BRANCH   1  25
HETATM   25  N1  UNL     1      -5.266   1.526  -0.724  1.00  0.00    -0.373 N 
HETATM   26  H6  UNL     1      -4.696   2.333  -1.033  1.00  0.00     0.161 HD
BRANCH  25  27
HETATM   27  C2  UNL     1      -6.624   1.679  -0.262  1.00  0.00     0.117 C 
HETATM   28  C1  UNL     1      -7.517   0.864  -1.170  1.00  0.00     0.026 C 
ENDBRANCH  25  27
ENDBRANCH   1  25
TORSDOF 8
