REMARK  8 active torsions:
REMARK  status: ('A' for Active; 'I' for Inactive)
REMARK    1  A    between atoms: C5_8  and  N3_9 
REMARK    2  A    between atoms: N3_9  and  C6_10 
REMARK    3  A    between atoms: C8_13  and  C9_14 
REMARK    4  A    between atoms: C9_14  and  C10_15 
REMARK    5  A    between atoms: C10_15  and  N4_16 
REMARK       I    between atoms: N4_16  and  C11_17 
REMARK    6  A    between atoms: C11_17  and  C12_19 
REMARK    7  A    between atoms: C13_20  and  C14_21 
REMARK    8  A    between atoms: C14_21  and  N5_22 
ROOT
HETATM    1  C1  UNL     1       2.414  -1.635  -3.071  1.00  0.00     0.057 C 
HETATM    2  C2  UNL     1       2.876  -0.553  -2.178  1.00  0.00    -0.012 A 
HETATM    3  S1  UNL     1       3.532   0.802  -3.000  1.00  0.00    -0.074 SA
HETATM    4  C3  UNL     1       3.953   1.749  -1.436  1.00  0.00     0.114 A 
HETATM    5  N1  UNL     1       4.544   3.022  -1.232  1.00  0.00    -0.234 NA
HETATM    6  C4  UNL     1       4.712   3.436   0.016  1.00  0.00     0.236 A 
HETATM    7  N2  UNL     1       4.304   2.605   0.956  1.00  0.00    -0.223 NA
HETATM    8  C5  UNL     1       3.755   1.422   0.782  1.00  0.00     0.144 A 
HETATM    9  C7  UNL     1       3.522   0.873  -0.447  1.00  0.00     0.053 A 
HETATM   10  C8  UNL     1       2.969  -0.307  -0.831  1.00  0.00    -0.027 A 
ENDROOT
BRANCH  10  11
HETATM   11  C9  UNL     1       2.419  -1.309   0.106  1.00  0.00     0.060 C 
BRANCH  11  12
HETATM   12  C10 UNL     1       0.938  -1.134   0.312  1.00  0.00     0.127 C 
BRANCH  12  13
HETATM   13  N4  UNL     1       0.119  -1.260  -0.861  1.00  0.00    -0.357 N 
HETATM   14  C11 UNL     1      -1.240  -1.039  -0.396  1.00  0.00     0.240 C 
HETATM   15  O2  UNL     1      -1.378  -0.799   0.859  1.00  0.00    -0.269 OA
HETATM   16  H11 UNL     1      -0.074  -1.424  -1.887  1.00  0.00     0.162 HD
BRANCH  14  17
HETATM   17  C12 UNL     1      -2.517  -1.038  -1.094  1.00  0.00     0.072 C 
HETATM   18  C13 UNL     1      -3.699  -0.827  -0.602  1.00  0.00     0.008 C 
BRANCH  18  19
HETATM   19  C14 UNL     1      -4.301  -0.523   0.716  1.00  0.00     0.299 C 
BRANCH  19  20
HETATM   20  N5  UNL     1      -4.983   0.755   0.613  1.00  0.00     0.083 N 
HETATM   21  C15 UNL     1      -5.549   1.003   1.930  1.00  0.00     0.309 C 
HETATM   22  C16 UNL     1      -5.992   0.669  -0.401  1.00  0.00     0.309 C 
ENDBRANCH  19  20
ENDBRANCH  18  19
ENDBRANCH  14  17
ENDBRANCH  12  13
ENDBRANCH  11  12
ENDBRANCH  10  11
BRANCH   8  23
HETATM   23  N3  UNL     1       3.457   0.824   2.030  1.00  0.00    -0.318 N 
HETATM   24  H5  UNL     1       2.808   0.594   2.788  1.00  0.00     0.169 HD
BRANCH  23  25
HETATM   25  C6  UNL     1       4.689   0.220   2.498  1.00  0.00     0.354 C 
HETATM   26  O1  UNL     1       5.928  -0.024   2.304  1.00  0.00    -0.283 OA
ENDBRANCH  23  25
ENDBRANCH   8  23
TORSDOF 8
