REMARK  0 active torsions:
REMARK  status: ('A' for Active; 'I' for Inactive)
ROOT
HETATM    1 BR1  UNL     1      -2.257   2.856  -1.063  1.00  0.00    -0.085 Br
HETATM    2  C1  UNL     1      -2.330   2.053   0.702  1.00  0.00     0.108 C 
HETATM    3  C2  UNL     1      -3.549   1.198   0.873  1.00  0.00    -0.011 C 
HETATM    4  C3  UNL     1      -3.456  -0.060   0.395  1.00  0.00     0.006 C 
HETATM    5  C4  UNL     1      -2.132  -0.369  -0.225  1.00  0.00     0.253 C 
HETATM    6  C5  UNL     1      -2.117  -1.811  -0.631  1.00  0.00     0.070 C 
HETATM    7  C6  UNL     1      -1.131  -2.531   0.281  1.00  0.00     0.278 C 
HETATM    8  N1  UNL     1       0.175  -1.955   0.033  1.00  0.00     0.151 N 
HETATM    9  C7  UNL     1       0.146  -0.507   0.079  1.00  0.00     0.475 C 
HETATM   10  N2  UNL     1       0.182  -0.042  -1.298  1.00  0.00    -0.209 NA
HETATM   11  C8  UNL     1       1.223   0.216  -1.991  1.00  0.00     0.234 C 
HETATM   12  N3  UNL     1       2.462   0.441  -2.574  1.00  0.00    -0.231 NA
HETATM   13  C9  UNL     1       3.626   0.549  -2.028  1.00  0.00     0.253 C 
HETATM   14  O1  UNL     1       4.277   0.516  -0.747  1.00  0.00    -0.332 OA
HETATM   15  C10 UNL     1       3.341   0.664   0.208  1.00  0.00     0.176 C 
HETATM   16  C11 UNL     1       3.459   0.424   1.631  1.00  0.00     0.010 C 
HETATM   17  C12 UNL     1       2.128   0.516   1.947  1.00  0.00     0.012 C 
HETATM   18  C13 UNL     1       1.407  -0.108   0.798  1.00  0.00     0.034 C 
HETATM   19  C14 UNL     1       2.395  -0.501  -0.046  1.00  0.00     0.023 C 
HETATM   20  N4  UNL     1      -1.050  -0.047   0.688  1.00  0.00     0.165 N 
HETATM   21  C15 UNL     1      -1.068   1.326   1.050  1.00  0.00     0.299 C 
HETATM   22  H9  UNL     1       0.535  -2.352  -0.850  1.00  0.00     0.322 HD
ENDROOT
TORSDOF 0
