REMARK  7 active torsions:
REMARK  status: ('A' for Active; 'I' for Inactive)
REMARK    1  A    between atoms: C2_2  and  N1_3 
REMARK    2  A    between atoms: N1_3  and  C4_5 
REMARK    3  A    between atoms: C4_5  and  C5_6 
REMARK    4  A    between atoms: C5_6  and  C6_7 
REMARK       I    between atoms: C6_7  and  N2_9 
REMARK    5  A    between atoms: N3_15  and  C11_16 
REMARK    6  A    between atoms: C11_16  and  C12_17 
REMARK    7  A    between atoms: C17_22  and  O2_23 
ROOT
HETATM    1  C6  UNL     1       2.471  -0.198  -0.511  1.00  0.00     0.221 C 
HETATM    2  O1  UNL     1       2.371   1.066  -0.583  1.00  0.00    -0.273 OA
HETATM    3  N2  UNL     1       1.250  -0.936  -0.327  1.00  0.00    -0.347 N 
HETATM    4  C7  UNL     1       1.271  -2.352  -0.231  1.00  0.00     0.136 C 
HETATM    5  C8  UNL     1       0.438  -3.121  -1.170  1.00  0.00     0.093 C 
HETATM    6  S1  UNL     1      -1.059  -2.309  -1.568  1.00  0.00    -0.148 SA
HETATM    7  C9  UNL     1      -1.134  -0.845  -1.005  1.00  0.00    -0.013 C 
HETATM    8  C10 UNL     1      -2.236   0.156  -1.136  1.00  0.00     0.162 C 
HETATM    9  N3  UNL     1      -3.546  -0.266  -0.930  1.00  0.00    -0.379 N 
HETATM   10  C18 UNL     1      -4.307  -0.702  -2.075  1.00  0.00     0.340 C 
HETATM   11  N4  UNL     1      -3.866  -1.773  -2.750  1.00  0.00    -0.422 NA
HETATM   12  C19 UNL     1      -3.484  -2.584  -3.527  1.00  0.00     0.293 C 
HETATM   13  N5  UNL     1      -3.472  -3.365  -2.309  1.00  0.00    -0.237 NA
HETATM   14  C20 UNL     1      -2.484  -3.295  -1.446  1.00  0.00     0.158 C 
HETATM   15  C21 UNL     1       0.003  -0.293  -0.233  1.00  0.00     0.168 C 
ENDROOT
BRANCH   9  16
HETATM   16  C11 UNL     1      -3.985  -0.655   0.337  1.00  0.00     0.161 C 
BRANCH  16  17
HETATM   17  C12 UNL     1      -3.828   0.471   1.328  1.00  0.00    -0.007 A 
HETATM   18  C13 UNL     1      -2.871   0.614   2.304  1.00  0.00     0.011 A 
HETATM   19  C14 UNL     1      -2.892   1.730   3.118  1.00  0.00     0.001 A 
HETATM   20  C15 UNL     1      -3.850   2.702   2.976  1.00  0.00     0.003 A 
HETATM   21  C16 UNL     1      -4.815   2.571   2.003  1.00  0.00     0.037 A 
HETATM   22  C17 UNL     1      -4.804   1.462   1.185  1.00  0.00     0.073 A 
BRANCH  22  23
HETATM   23  O2  UNL     1      -5.835   1.444   0.237  1.00  0.00    -0.360 OA
HETATM   24  H25 UNL     1      -6.669   0.903   0.421  1.00  0.00     0.217 HD
ENDBRANCH  22  23
ENDBRANCH  16  17
ENDBRANCH   9  16
BRANCH   1  25
HETATM   25  C5  UNL     1       3.847  -0.742  -0.629  1.00  0.00     0.133 C 
BRANCH  25  26
HETATM   26  C4  UNL     1       4.878   0.353  -0.742  1.00  0.00     0.281 C 
BRANCH  26  27
HETATM   27  N1  UNL     1       4.872   1.226   0.413  1.00  0.00     0.084 N 
HETATM   28  C3  UNL     1       5.191   0.559   1.635  1.00  0.00     0.309 C 
BRANCH  27  29
HETATM   29  C2  UNL     1       5.891   2.237   0.183  1.00  0.00     0.267 C 
HETATM   30  C1  UNL     1       5.827   3.351   1.178  1.00  0.00     0.037 C 
ENDBRANCH  27  29
ENDBRANCH  26  27
ENDBRANCH  25  26
ENDBRANCH   1  25
TORSDOF 7
