REMARK  4 active torsions:
REMARK  status: ('A' for Active; 'I' for Inactive)
REMARK    1  A    between atoms: N1_2  and  C3_4 
REMARK    2  A    between atoms: C3_4  and  C4_5 
REMARK    3  A    between atoms: C5_6  and  N2_7 
REMARK    4  A    between atoms: C16_23  and  C17_24 
ROOT
HETATM    1  N2  UNL     1      -1.482  -0.263   0.906  1.00  0.00    -0.385 N 
HETATM    2  C6  UNL     1      -0.733   0.711   1.661  1.00  0.00     0.127 C 
HETATM    3  C7  UNL     1       0.172   1.483   0.695  1.00  0.00     0.059 C 
HETATM    4  C8  UNL     1       1.159   0.496   0.165  1.00  0.00    -0.020 C 
HETATM    5  C9  UNL     1       0.589  -0.641  -0.211  1.00  0.00     0.004 C 
HETATM    6  C10 UNL     1      -0.823  -0.997  -0.157  1.00  0.00     0.168 C 
HETATM    7  S1  UNL     1       1.958  -1.668  -0.814  1.00  0.00    -0.097 SA
HETATM    8  C11 UNL     1       3.241  -0.695  -0.025  1.00  0.00     0.169 C 
HETATM    9  N3  UNL     1       4.450  -0.798   0.414  1.00  0.00    -0.157 NA
HETATM   10  C12 UNL     1       5.285  -1.935   0.393  1.00  0.00     0.195 A 
HETATM   11  N4  UNL     1       5.680  -1.031  -0.388  1.00  0.00    -0.277 N 
HETATM   12  C13 UNL     1       6.716  -0.831  -1.276  1.00  0.00     0.122 C 
HETATM   13  P1  UNL     1       6.517   0.376  -2.438  1.00  0.00    -0.040 P 
HETATM   14  C14 UNL     1       4.979   1.467  -2.603  1.00  0.00     0.071 C 
HETATM   15  C15 UNL     1       4.180   0.959  -1.456  1.00  0.00     0.175 C 
HETATM   16  O1  UNL     1       2.963   1.426  -1.134  1.00  0.00    -0.365 OA
HETATM   17  C16 UNL     1       2.622   0.658   0.030  1.00  0.00     0.173 C 
ENDROOT
BRANCH   1  18
HETATM   18  C5  UNL     1      -2.842  -0.443   1.265  1.00  0.00     0.083 C 
HETATM   19  C4  UNL     1      -3.999  -0.858   0.785  1.00  0.00     0.020 C 
BRANCH  19  20
HETATM   20  C3  UNL     1      -5.414  -1.021   1.231  1.00  0.00     0.300 C 
BRANCH  20  21
HETATM   21  N1  UNL     1      -6.315  -0.242   0.426  1.00  0.00     0.083 N 
HETATM   22  C1  UNL     1      -6.362  -0.800  -0.910  1.00  0.00     0.309 C 
HETATM   23  C2  UNL     1      -5.885   1.141   0.336  1.00  0.00     0.309 C 
ENDBRANCH  20  21
ENDBRANCH  19  20
ENDBRANCH   1  18
BRANCH  17  24
HETATM   24  C17 UNL     1       3.112   1.418   1.212  1.00  0.00     0.277 C 
HETATM   25  O2  UNL     1       3.082   1.206   2.431  1.00  0.00    -0.303 OA
ENDBRANCH  17  24
TORSDOF 4
