REMARK  3 active torsions:
REMARK  status: ('A' for Active; 'I' for Inactive)
REMARK    1  A    between atoms: N1_1  and  C1_2 
REMARK    2  A    between atoms: C5_7  and  N3_8 
REMARK    3  A    between atoms: N3_8  and  C6_9 
ROOT
HETATM    1  C1  UNL     1      -4.395   1.087   0.388  1.00  0.00     0.004 C 
HETATM    2  C2  UNL     1      -3.053   1.146   0.314  1.00  0.00     0.029 C 
HETATM    3  C3  UNL     1      -2.376   0.114  -0.519  1.00  0.00     0.164 C 
HETATM    4  N2  UNL     1      -0.965   0.121  -0.290  1.00  0.00    -0.369 N 
HETATM    5  C4  UNL     1      -0.139  -0.998  -0.008  1.00  0.00     0.129 A 
HETATM    6  C5  UNL     1       1.234  -0.947   0.056  1.00  0.00     0.160 A 
HETATM    7  N4  UNL     1       1.853  -2.101   0.337  1.00  0.00    -0.222 NA
HETATM    8  C12 UNL     1       1.237  -3.271   0.553  1.00  0.00     0.238 A 
HETATM    9  N5  UNL     1      -0.111  -3.285   0.482  1.00  0.00    -0.215 NA
HETATM   10  C13 UNL     1      -0.820  -2.176   0.206  1.00  0.00     0.201 A 
HETATM   11  O1  UNL     1      -2.201  -2.279   0.154  1.00  0.00    -0.292 OA
HETATM   12  C14 UNL     1      -3.002  -1.184  -0.123  1.00  0.00     0.078 C 
HETATM   13  C15 UNL     1      -4.319  -1.257  -0.046  1.00  0.00     0.014 C 
HETATM   14  C16 UNL     1      -5.077  -0.004  -0.368  1.00  0.00     0.086 C 
HETATM   15  H5  UNL     1      -0.553   1.066  -0.346  1.00  0.00     0.161 HD
ENDROOT
BRANCH   6  16
HETATM   16  N3  UNL     1       1.906   0.274  -0.186  1.00  0.00    -0.339 N 
HETATM   17  H6  UNL     1       1.384   1.126  -0.467  1.00  0.00     0.167 HD
BRANCH  16  18
HETATM   18  C6  UNL     1       3.298   0.528  -0.099  1.00  0.00     0.035 A 
HETATM   19  C7  UNL     1       4.188  -0.312   0.528  1.00  0.00     0.029 A 
HETATM   20  C8  UNL     1       5.549  -0.088   0.612  1.00  0.00     0.004 A 
HETATM   21  C9  UNL     1       6.088   1.034   0.046  1.00  0.00     0.019 A 
HETATM   22  C10 UNL     1       5.242   1.910  -0.596  1.00  0.00     0.013 A 
HETATM   23 BR1  UNL     1       5.898   3.515  -1.428  1.00  0.00    -0.051 Br
HETATM   24  C11 UNL     1       3.897   1.637  -0.649  1.00  0.00     0.048 A 
ENDBRANCH  16  18
ENDBRANCH   6  16
BRANCH   1  25
HETATM   25  N1  UNL     1      -5.212   1.986   1.135  1.00  0.00    -0.402 N 
HETATM   26  H1  UNL     1      -4.820   2.296   2.058  1.00  0.00     0.156 HD
HETATM   27  H2  UNL     1      -6.138   2.264   0.701  1.00  0.00     0.156 HD
ENDBRANCH   1  25
TORSDOF 3
