REMARK  6 active torsions:
REMARK  status: ('A' for Active; 'I' for Inactive)
REMARK    1  A    between atoms: C2_2  and  C4_4 
REMARK    2  A    between atoms: C5_5  and  C6_6 
REMARK       I    between atoms: C6_6  and  N1_8 
REMARK    3  A    between atoms: C13_18  and  S2_19 
REMARK    4  A    between atoms: S2_19  and  C14_20 
REMARK    5  A    between atoms: C14_20  and  C15_21 
REMARK    6  A    between atoms: C15_21  and  O2_22 
ROOT
HETATM    1  C6  UNL     1       2.236  -0.050  -0.270  1.00  0.00     0.243 C 
HETATM    2  O1  UNL     1       2.442  -0.025  -1.510  1.00  0.00    -0.268 OA
HETATM    3  N1  UNL     1       0.843  -0.279  -0.096  1.00  0.00    -0.344 N 
HETATM    4  C7  UNL     1      -0.069  -0.454  -1.195  1.00  0.00     0.131 C 
HETATM    5  C8  UNL     1      -1.412   0.133  -0.809  1.00  0.00     0.060 C 
HETATM    6  C9  UNL     1      -2.021  -0.753   0.207  1.00  0.00    -0.026 A 
HETATM    7  C10 UNL     1      -1.052  -0.948   1.244  1.00  0.00     0.010 A 
HETATM    8  S1  UNL     1      -1.893  -2.020   2.391  1.00  0.00    -0.072 SA
HETATM    9  C11 UNL     1      -3.412  -2.176   1.528  1.00  0.00     0.113 A 
HETATM   10  N2  UNL     1      -4.535  -2.827   1.755  1.00  0.00    -0.234 NA
HETATM   11  C12 UNL     1      -5.571  -2.789   0.906  1.00  0.00     0.235 A 
HETATM   12  N3  UNL     1      -5.387  -2.040  -0.195  1.00  0.00    -0.234 NA
HETATM   13  C13 UNL     1      -4.271  -1.364  -0.465  1.00  0.00     0.108 A 
HETATM   14  C16 UNL     1      -3.205  -1.403   0.406  1.00  0.00     0.043 A 
HETATM   15  C17 UNL     1       0.262  -0.350   1.229  1.00  0.00     0.172 C 
ENDROOT
BRANCH   1  16
HETATM   16  C5  UNL     1       3.159   0.108   0.832  1.00  0.00     0.070 C 
HETATM   17  C4  UNL     1       4.457   0.318   0.737  1.00  0.00    -0.017 C 
BRANCH  17  18
HETATM   18  C2  UNL     1       5.564   0.490  -0.209  1.00  0.00    -0.000 C 
HETATM   19  C1  UNL     1       6.155   1.869  -0.163  1.00  0.00     0.013 C 
HETATM   20  C3  UNL     1       6.637  -0.573  -0.040  1.00  0.00     0.013 C 
ENDBRANCH  17  18
ENDBRANCH   1  16
BRANCH  13  21
HETATM   21  S2  UNL     1      -4.423  -0.521  -2.021  1.00  0.00    -0.107 SA
BRANCH  21  22
HETATM   22  C14 UNL     1      -5.222   1.067  -1.751  1.00  0.00     0.107 C 
BRANCH  22  23
HETATM   23  C15 UNL     1      -4.423   2.041  -0.932  1.00  0.00     0.174 C 
BRANCH  23  24
HETATM   24  O2  UNL     1      -4.142   1.620   0.348  1.00  0.00    -0.400 OA
HETATM   25  H19 UNL     1      -4.470   2.232   1.041  1.00  0.00     0.209 HD
ENDBRANCH  23  24
ENDBRANCH  22  23
ENDBRANCH  21  22
ENDBRANCH  13  21
TORSDOF 6
