REMARK  7 active torsions:
REMARK  status: ('A' for Active; 'I' for Inactive)
REMARK    1  A    between atoms: O1_2  and  C2_3 
REMARK    2  A    between atoms: C6_9  and  N3_10 
REMARK    3  A    between atoms: N3_10  and  C7_11 
REMARK    4  A    between atoms: C15_21  and  C16_22 
REMARK    5  A    between atoms: C16_22  and  C17_23 
REMARK    6  A    between atoms: C17_23  and  C18_24 
REMARK    7  A    between atoms: C18_24  and  N4_25 
ROOT
HETATM    1  C2  UNL     1      -0.070  -2.174   0.420  1.00  0.00     0.076 A 
HETATM    2  C3  UNL     1       1.102  -2.876   0.312  1.00  0.00     0.070 A 
HETATM    3  C4  UNL     1       2.292  -2.193   0.219  1.00  0.00     0.074 A 
HETATM    4  N1  UNL     1       3.413  -2.958   0.114  1.00  0.00    -0.241 NA
HETATM    5  C5  UNL     1       4.603  -2.341   0.020  1.00  0.00     0.236 A 
HETATM    6  N2  UNL     1       4.672  -1.010   0.030  1.00  0.00    -0.224 NA
HETATM    7  C6  UNL     1       3.633  -0.179   0.128  1.00  0.00     0.142 A 
HETATM    8  C13 UNL     1       2.419  -0.821   0.224  1.00  0.00     0.039 A 
HETATM    9  C14 UNL     1       1.211  -0.173   0.335  1.00  0.00     0.027 A 
HETATM   10  C15 UNL     1      -0.025  -0.792   0.432  1.00  0.00    -0.024 A 
ENDROOT
BRANCH   7  11
HETATM   11  N3  UNL     1       3.683   1.234   0.146  1.00  0.00    -0.340 N 
HETATM   12  H6  UNL     1       2.835   1.813   0.237  1.00  0.00     0.167 HD
BRANCH  11  13
HETATM   13  C7  UNL     1       4.823   2.044   0.049  1.00  0.00     0.035 A 
HETATM   14  C8  UNL     1       6.054   1.570  -0.336  1.00  0.00     0.032 A 
HETATM   15  C9  UNL     1       7.197   2.337  -0.426  1.00  0.00     0.046 A 
HETATM   16  C10 UNL     1       7.152   3.680  -0.121  1.00  0.00     0.138 A 
HETATM   17  F1  UNL     1       8.219   4.509  -0.180  1.00  0.00    -0.204 F 
HETATM   18  C11 UNL     1       5.943   4.212   0.271  1.00  0.00     0.074 A 
HETATM   19 CL1  UNL     1       5.784   5.918   0.684  1.00  0.00    -0.081 Cl
HETATM   20  C12 UNL     1       4.842   3.391   0.341  1.00  0.00     0.056 A 
ENDBRANCH  11  13
ENDBRANCH   7  11
BRANCH  10  21
HETATM   21  C16 UNL     1      -1.285   0.029   0.541  1.00  0.00     0.043 C 
BRANCH  21  22
HETATM   22  C17 UNL     1      -1.920   0.001  -0.822  1.00  0.00     0.024 C 
BRANCH  22  23
HETATM   23  C18 UNL     1      -3.194   0.782  -0.893  1.00  0.00     0.117 C 
BRANCH  23  24
HETATM   24  N4  UNL     1      -4.205   0.311  -0.006  1.00  0.00    -0.408 N 
HETATM   25  C19 UNL     1      -4.737  -0.972  -0.345  1.00  0.00     0.143 C 
HETATM   26  C20 UNL     1      -6.160  -0.909  -0.850  1.00  0.00     0.187 C 
HETATM   27  O2  UNL     1      -6.912  -0.308   0.186  1.00  0.00    -0.388 OA
HETATM   28  C21 UNL     1      -6.551   1.029   0.197  1.00  0.00     0.187 C 
HETATM   29  C22 UNL     1      -5.104   1.274   0.507  1.00  0.00     0.143 C 
ENDBRANCH  23  24
ENDBRANCH  22  23
ENDBRANCH  21  22
ENDBRANCH  10  21
BRANCH   1  30
HETATM   30  O1  UNL     1      -1.282  -2.811   0.516  1.00  0.00    -0.355 OA
HETATM   31  C1  UNL     1      -1.493  -4.192   0.518  1.00  0.00     0.210 C 
ENDBRANCH   1  30
TORSDOF 7
