REMARK  7 active torsions:
REMARK  status: ('A' for Active; 'I' for Inactive)
REMARK    1  A    between atoms: O1_2  and  C2_3 
REMARK    2  A    between atoms: C6_9  and  N3_10 
REMARK    3  A    between atoms: N3_10  and  C7_11 
REMARK    4  A    between atoms: C14_20  and  C15_21 
REMARK    5  A    between atoms: C15_21  and  C16_22 
REMARK    6  A    between atoms: C16_22  and  C17_23 
REMARK    7  A    between atoms: C17_23  and  N4_24 
ROOT
HETATM    1  C2  UNL     1      -0.478   2.630  -1.039  1.00  0.00     0.075 C 
HETATM    2  C3  UNL     1      -1.485   2.959  -1.870  1.00  0.00     0.056 C 
HETATM    3  C4  UNL     1      -2.607   2.141  -2.378  1.00  0.00     0.121 C 
HETATM    4  N1  UNL     1      -2.959   0.878  -2.388  1.00  0.00    -0.241 NA
HETATM    5  C5  UNL     1      -2.334  -0.297  -1.862  1.00  0.00     0.179 A 
HETATM    6  N2  UNL     1      -1.781  -1.422  -1.515  1.00  0.00    -0.226 NA
HETATM    7  C6  UNL     1      -1.855  -0.466  -0.452  1.00  0.00     0.210 A 
HETATM    8  C13 UNL     1      -0.653   0.307  -0.144  1.00  0.00     0.046 C 
HETATM    9  C14 UNL     1      -0.003   1.441  -0.284  1.00  0.00    -0.024 C 
ENDROOT
BRANCH   7  10
HETATM   10  N3  UNL     1      -2.952  -0.468   0.492  1.00  0.00    -0.352 N 
HETATM   11  H6  UNL     1      -2.885   0.328   1.186  1.00  0.00     0.163 HD
BRANCH  10  12
HETATM   12  C7  UNL     1      -4.053  -1.328   0.628  1.00  0.00     0.032 A 
HETATM   13  C8  UNL     1      -4.337  -2.420  -0.161  1.00  0.00     0.032 A 
HETATM   14  C9  UNL     1      -5.424  -3.249  -0.007  1.00  0.00     0.046 A 
HETATM   15  C10 UNL     1      -6.300  -2.982   1.001  1.00  0.00     0.138 A 
HETATM   16  F1  UNL     1      -7.379  -3.755   1.201  1.00  0.00    -0.204 F 
HETATM   17  C11 UNL     1      -6.065  -1.912   1.811  1.00  0.00     0.074 A 
HETATM   18 CL1  UNL     1      -7.193  -1.571   3.107  1.00  0.00    -0.081 Cl
HETATM   19  C12 UNL     1      -4.979  -1.122   1.622  1.00  0.00     0.056 A 
ENDBRANCH  10  12
ENDBRANCH   7  10
BRANCH   9  20
HETATM   20  C15 UNL     1       1.311   1.770   0.211  1.00  0.00     0.043 C 
BRANCH  20  21
HETATM   21  C16 UNL     1       2.140   0.769   0.911  1.00  0.00     0.035 C 
BRANCH  21  22
HETATM   22  C17 UNL     1       2.546  -0.356   0.045  1.00  0.00     0.273 C 
BRANCH  22  23
HETATM   23  N4  UNL     1       3.331  -1.379   0.658  1.00  0.00     0.092 N 
HETATM   24  C18 UNL     1       3.678  -2.435  -0.275  1.00  0.00     0.298 C 
HETATM   25  C19 UNL     1       5.133  -2.288  -0.669  1.00  0.00     0.198 C 
HETATM   26  O2  UNL     1       5.501  -0.945  -0.769  1.00  0.00    -0.388 OA
HETATM   27  C20 UNL     1       5.500  -0.320   0.476  1.00  0.00     0.198 C 
HETATM   28  C21 UNL     1       4.469  -0.974   1.381  1.00  0.00     0.298 C 
ENDBRANCH  22  23
ENDBRANCH  21  22
ENDBRANCH  20  21
ENDBRANCH   9  20
BRANCH   1  29
HETATM   29  O1  UNL     1       0.310   3.786  -0.887  1.00  0.00    -0.355 OA
HETATM   30  C1  UNL     1      -0.132   4.919  -0.183  1.00  0.00     0.210 C 
ENDBRANCH   1  29
TORSDOF 7
