REMARK  8 active torsions:
REMARK  status: ('A' for Active; 'I' for Inactive)
REMARK    1  A    between atoms: O1_2  and  C2_3 
REMARK    2  A    between atoms: C6_9  and  N3_10 
REMARK    3  A    between atoms: N3_10  and  C7_11 
REMARK    4  A    between atoms: C15_21  and  O2_22 
REMARK    5  A    between atoms: O2_22  and  C16_23 
REMARK    6  A    between atoms: C16_23  and  C17_24 
REMARK    7  A    between atoms: C17_24  and  C18_25 
REMARK    8  A    between atoms: C18_25  and  N4_26 
ROOT
HETATM    1  C2  UNL     1       0.096   2.057   1.295  1.00  0.00     0.077 A 
HETATM    2  C3  UNL     1       0.887   3.023   0.868  1.00  0.00     0.067 A 
HETATM    3  C4  UNL     1       2.168   2.485   0.411  1.00  0.00     0.070 A 
HETATM    4  N1  UNL     1       3.085   3.332  -0.057  1.00  0.00    -0.241 NA
HETATM    5  C5  UNL     1       4.272   2.887  -0.490  1.00  0.00     0.235 A 
HETATM    6  N2  UNL     1       4.458   1.569  -0.418  1.00  0.00    -0.224 NA
HETATM    7  C6  UNL     1       3.560   0.696   0.046  1.00  0.00     0.138 A 
HETATM    8  C13 UNL     1       2.328   1.118   0.500  1.00  0.00     0.019 A 
HETATM    9  C14 UNL     1       1.449   0.047   0.982  1.00  0.00     0.084 A 
HETATM   10  C15 UNL     1       0.135   0.595   1.443  1.00  0.00     0.182 A 
ENDROOT
BRANCH   7  11
HETATM   11  N3  UNL     1       3.940  -0.669   0.043  1.00  0.00    -0.340 N 
HETATM   12  H6  UNL     1       3.207  -1.336   0.392  1.00  0.00     0.167 HD
BRANCH  11  13
HETATM   13  C7  UNL     1       5.126  -1.339  -0.339  1.00  0.00     0.035 A 
HETATM   14  C8  UNL     1       5.209  -2.737  -0.348  1.00  0.00     0.032 A 
HETATM   15  C9  UNL     1       6.358  -3.389  -0.716  1.00  0.00     0.046 A 
HETATM   16  C10 UNL     1       7.471  -2.673  -1.089  1.00  0.00     0.138 A 
HETATM   17  F1  UNL     1       8.555  -3.406  -1.434  1.00  0.00    -0.204 F 
HETATM   18  C11 UNL     1       7.461  -1.295  -1.103  1.00  0.00     0.074 A 
HETATM   19 CL1  UNL     1       8.901  -0.425  -1.585  1.00  0.00    -0.081 Cl
HETATM   20  C12 UNL     1       6.281  -0.695  -0.725  1.00  0.00     0.056 A 
ENDBRANCH  11  13
ENDBRANCH   7  11
BRANCH  10  21
HETATM   21  O2  UNL     1      -0.948  -0.019   0.807  1.00  0.00    -0.379 OA
BRANCH  21  22
HETATM   22  C16 UNL     1      -1.775  -0.669   1.718  1.00  0.00     0.170 C 
BRANCH  22  23
HETATM   23  C17 UNL     1      -2.926  -1.312   0.973  1.00  0.00     0.056 C 
BRANCH  23  24
HETATM   24  C18 UNL     1      -3.674  -0.218   0.267  1.00  0.00     0.274 C 
BRANCH  24  25
HETATM   25  N4  UNL     1      -4.802  -0.641  -0.493  1.00  0.00     0.092 N 
HETATM   26  C19 UNL     1      -5.404   0.531  -1.105  1.00  0.00     0.298 C 
HETATM   27  C20 UNL     1      -6.693   0.193  -1.782  1.00  0.00     0.198 C 
HETATM   28  O3  UNL     1      -6.917  -1.167  -1.651  1.00  0.00    -0.388 OA
HETATM   29  C21 UNL     1      -5.885  -1.945  -2.157  1.00  0.00     0.198 C 
HETATM   30  C22 UNL     1      -4.546  -1.645  -1.476  1.00  0.00     0.298 C 
ENDBRANCH  24  25
ENDBRANCH  23  24
ENDBRANCH  22  23
ENDBRANCH  21  22
ENDBRANCH  10  21
BRANCH   1  31
HETATM   31  O1  UNL     1      -1.150   2.478   1.750  1.00  0.00    -0.357 OA
HETATM   32  C1  UNL     1      -1.278   3.499   2.703  1.00  0.00     0.209 C 
ENDBRANCH   1  31
TORSDOF 8
