REMARK  6 active torsions:
REMARK  status: ('A' for Active; 'I' for Inactive)
REMARK    1  A    between atoms: O1_2  and  C2_3 
REMARK    2  A    between atoms: C9_12  and  O2_13 
REMARK    3  A    between atoms: O2_13  and  C10_14 
REMARK    4  A    between atoms: C10_14  and  C11_15 
REMARK    5  A    between atoms: C11_15  and  C12_16 
REMARK    6  A    between atoms: C12_16  and  N3_17 
ROOT
HETATM    1  C2  UNL     1      -2.618  -1.662   0.121  1.00  0.00     0.103 A 
HETATM    2  C3  UNL     1      -3.776  -1.198  -0.517  1.00  0.00     0.072 A 
HETATM    3  C4  UNL     1      -3.997   0.181  -0.609  1.00  0.00     0.072 A 
HETATM    4  N1  UNL     1      -5.068   0.712  -1.197  1.00  0.00    -0.241 NA
HETATM    5  C5  UNL     1      -5.211   2.069  -1.246  1.00  0.00     0.233 A 
HETATM    6  N2  UNL     1      -4.330   2.935  -0.731  1.00  0.00    -0.253 NA
HETATM    7  C6  UNL     1      -3.224   2.428  -0.122  1.00  0.00     0.132 A 
HETATM    8  C7  UNL     1      -3.087   1.063  -0.077  1.00  0.00     0.013 A 
HETATM    9  C8  UNL     1      -1.984   0.519   0.528  1.00  0.00     0.055 A 
HETATM   10  C9  UNL     1      -1.656  -0.801   0.680  1.00  0.00     0.103 A 
ENDROOT
BRANCH  10  11
HETATM   11  O2  UNL     1      -0.699  -1.552   1.196  1.00  0.00    -0.348 OA
BRANCH  11  12
HETATM   12  C10 UNL     1       0.468  -1.416   1.823  1.00  0.00     0.177 C 
BRANCH  12  13
HETATM   13  C11 UNL     1       1.668  -0.808   1.186  1.00  0.00     0.046 C 
BRANCH  13  14
HETATM   14  C12 UNL     1       1.503   0.578   0.734  1.00  0.00     0.119 C 
BRANCH  14  15
HETATM   15  N3  UNL     1       2.686   1.170   0.151  1.00  0.00    -0.408 N 
HETATM   16  C13 UNL     1       3.102   0.641  -1.090  1.00  0.00     0.143 C 
HETATM   17  C14 UNL     1       4.524   0.206  -1.200  1.00  0.00     0.187 C 
HETATM   18  O3  UNL     1       5.456   0.991  -0.589  1.00  0.00    -0.388 OA
HETATM   19  C15 UNL     1       4.925   1.949   0.262  1.00  0.00     0.187 C 
HETATM   20  C16 UNL     1       3.754   1.417   1.061  1.00  0.00     0.143 C 
ENDBRANCH  14  15
ENDBRANCH  13  14
ENDBRANCH  12  13
ENDBRANCH  11  12
ENDBRANCH  10  11
BRANCH   1  21
HETATM   21  O1  UNL     1      -2.563  -3.065   0.120  1.00  0.00    -0.353 OA
HETATM   22  C1  UNL     1      -3.573  -3.835  -0.463  1.00  0.00     0.210 C 
ENDBRANCH   1  21
TORSDOF 6
