REMARK  4 active torsions:
REMARK  status: ('A' for Active; 'I' for Inactive)
REMARK    1  A    between atoms: O1_2  and  C2_3 
REMARK    2  A    between atoms: C2_3  and  C3_4 
REMARK    3  A    between atoms: C7_9  and  O2_10 
REMARK    4  A    between atoms: C8_11  and  N2_12 
ROOT
HETATM    1  C3  UNL     1      -1.341   0.995   0.048  1.00  0.00     0.161 C 
HETATM    2  N1  UNL     1      -0.877   2.112  -0.681  1.00  0.00    -0.400 N 
HETATM    3  C4  UNL     1      -1.785   2.642  -1.668  1.00  0.00     0.144 C 
HETATM    4  C5  UNL     1       0.458   2.139  -1.146  1.00  0.00     0.184 C 
HETATM    5  C6  UNL     1       1.207   0.887  -0.853  1.00  0.00     0.097 C 
HETATM    6  C7  UNL     1       0.320   0.001  -1.357  1.00  0.00     0.128 C 
HETATM    7  C8  UNL     1      -0.675  -0.322  -0.252  1.00  0.00     0.206 C 
HETATM    8  N3  UNL     1       0.125  -0.710   0.853  1.00  0.00    -0.240 N 
HETATM    9  C14 UNL     1      -0.104  -1.177   1.982  1.00  0.00     0.229 A 
HETATM   10  N4  UNL     1       1.234  -0.943   1.618  1.00  0.00    -0.256 N 
HETATM   11  C15 UNL     1       2.274  -1.325   2.254  1.00  0.00     0.118 C 
HETATM   12  C16 UNL     1       3.624  -0.995   1.731  1.00  0.00     0.024 C 
HETATM   13  C17 UNL     1       4.246  -0.365   0.714  1.00  0.00    -0.059 C 
HETATM   14  C18 UNL     1       5.734  -0.254   0.550  1.00  0.00     0.046 C 
HETATM   15  C19 UNL     1       3.637   0.358  -0.477  1.00  0.00     0.209 C 
HETATM   16  O3  UNL     1       2.283   0.259  -0.351  1.00  0.00    -0.347 OA
ENDROOT
BRANCH   7  17
HETATM   17  N2  UNL     1      -1.603  -1.325  -0.701  1.00  0.00    -0.329 N 
HETATM   18  C9  UNL     1      -2.288  -0.956  -1.883  1.00  0.00     0.092 A 
HETATM   19  C10 UNL     1      -3.179  -1.760  -2.438  1.00  0.00     0.033 A 
HETATM   20  C11 UNL     1      -3.577  -3.097  -1.937  1.00  0.00     0.240 A 
HETATM   21  F1  UNL     1      -4.921  -3.015  -1.592  1.00  0.00    -0.239 F 
HETATM   22  C12 UNL     1      -2.806  -3.385  -0.705  1.00  0.00     0.065 A 
HETATM   23 CL1  UNL     1      -3.065  -4.916   0.130  1.00  0.00    -0.084 Cl
HETATM   24  C13 UNL     1      -1.914  -2.593  -0.139  1.00  0.00     0.116 A 
ENDBRANCH   7  17
BRANCH   1  25
HETATM   25  C2  UNL     1      -1.247   1.309   1.540  1.00  0.00     0.196 C 
BRANCH  25  26
HETATM   26  O1  UNL     1      -2.052   2.457   1.730  1.00  0.00    -0.394 OA
HETATM   27  C1  UNL     1      -2.009   2.801   3.085  1.00  0.00     0.201 C 
ENDBRANCH  25  26
ENDBRANCH   1  25
BRANCH   6  28
HETATM   28  O2  UNL     1       0.375  -0.483  -2.669  1.00  0.00    -0.358 OA
HETATM   29  H12 UNL     1       1.275  -0.826  -2.968  1.00  0.00     0.217 HD
ENDBRANCH   6  28
TORSDOF 4
