REMARK  6 active torsions:
REMARK  status: ('A' for Active; 'I' for Inactive)
REMARK    1  A    between atoms: C2_2  and  C3_3 
REMARK       I    between atoms: C3_3  and  N1_5 
REMARK    2  A    between atoms: C11_15  and  N4_16 
REMARK    3  A    between atoms: N4_16  and  C12_17 
REMARK    4  A    between atoms: C12_17  and  C13_18 
REMARK    5  A    between atoms: C12_17  and  C14_20 
REMARK    6  A    between atoms: C13_18  and  O2_19 
ROOT
HETATM    1  C3  UNL     1      -4.997   0.014   0.028  1.00  0.00     0.219 C 
HETATM    2  O1  UNL     1      -5.024  -0.333  -1.187  1.00  0.00    -0.273 OA
HETATM    3  N1  UNL     1      -3.747   0.556   0.375  1.00  0.00    -0.348 N 
HETATM    4  C4  UNL     1      -2.885   0.541  -0.783  1.00  0.00     0.130 C 
HETATM    5  C5  UNL     1      -1.608   1.304  -0.495  1.00  0.00     0.060 C 
HETATM    6  C6  UNL     1      -1.053   0.742   0.765  1.00  0.00    -0.030 A 
HETATM    7  C7  UNL     1      -1.865   0.633   1.805  1.00  0.00    -0.003 A 
HETATM    8  C8  UNL     1      -3.285   1.077   1.660  1.00  0.00     0.167 C 
HETATM    9  C9  UNL     1      -0.773   0.076   2.585  1.00  0.00     0.081 A 
HETATM   10  N2  UNL     1      -0.249  -0.433   3.710  1.00  0.00    -0.240 NA
HETATM   11  C10 UNL     1       1.046  -0.801   3.727  1.00  0.00     0.236 A 
HETATM   12  N3  UNL     1       1.874  -0.692   2.674  1.00  0.00    -0.224 NA
HETATM   13  C11 UNL     1       1.423  -0.191   1.510  1.00  0.00     0.138 A 
HETATM   14  C20 UNL     1       0.076   0.188   1.504  1.00  0.00     0.046 A 
ENDROOT
BRANCH  13  15
HETATM   15  N4  UNL     1       2.236  -0.046   0.358  1.00  0.00    -0.363 N 
HETATM   16  H13 UNL     1       1.801   0.353  -0.498  1.00  0.00     0.162 HD
BRANCH  15  17
HETATM   17  C12 UNL     1       3.639  -0.446   0.382  1.00  0.00     0.140 C 
BRANCH  17  18
HETATM   18  C13 UNL     1       3.763  -1.924   0.694  1.00  0.00     0.194 C 
BRANCH  18  19
HETATM   19  O2  UNL     1       3.127  -2.712  -0.235  1.00  0.00    -0.399 OA
HETATM   20  H17 UNL     1       2.628  -2.188  -0.928  1.00  0.00     0.209 HD
ENDBRANCH  18  19
ENDBRANCH  17  18
BRANCH  17  21
HETATM   21  C14 UNL     1       4.330  -0.068  -0.863  1.00  0.00    -0.034 A 
HETATM   22  C15 UNL     1       5.197  -0.774  -1.672  1.00  0.00     0.009 A 
HETATM   23  C16 UNL     1       5.720  -0.185  -2.804  1.00  0.00     0.001 A 
HETATM   24  C17 UNL     1       5.418   1.101  -3.181  1.00  0.00     0.000 A 
HETATM   25  C18 UNL     1       4.553   1.818  -2.381  1.00  0.00     0.001 A 
HETATM   26  C19 UNL     1       4.017   1.244  -1.239  1.00  0.00     0.009 A 
ENDBRANCH  17  21
ENDBRANCH  15  17
ENDBRANCH  13  15
BRANCH   1  27
HETATM   27  C2  UNL     1      -6.212  -0.196   0.826  1.00  0.00     0.098 C 
HETATM   28  C1  UNL     1      -7.245  -0.824  -0.110  1.00  0.00     0.014 C 
ENDBRANCH   1  27
TORSDOF 6
