REMARK  5 active torsions:
REMARK  status: ('A' for Active; 'I' for Inactive)
REMARK       I    between atoms: C2_2  and  N1_4 
REMARK    1  A    between atoms: C9_14  and  N4_15 
REMARK    2  A    between atoms: N4_15  and  C10_16 
REMARK    3  A    between atoms: C10_16  and  C11_17 
REMARK    4  A    between atoms: C10_16  and  C12_19 
REMARK    5  A    between atoms: C11_17  and  O2_18 
ROOT
HETATM    1  C1  UNL     1       5.583   2.341  -0.717  1.00  0.00     0.117 C 
HETATM    2  C2  UNL     1       5.506   0.843  -0.706  1.00  0.00     0.216 C 
HETATM    3  O1  UNL     1       6.574   0.188  -0.844  1.00  0.00    -0.274 OA
HETATM    4  N1  UNL     1       4.182   0.351  -0.535  1.00  0.00    -0.347 N 
HETATM    5  C3  UNL     1       2.890   0.981  -0.368  1.00  0.00     0.131 C 
HETATM    6  C4  UNL     1       2.152   0.166   0.720  1.00  0.00     0.060 C 
HETATM    7  C5  UNL     1       1.606  -1.015   0.030  1.00  0.00    -0.025 A 
HETATM    8  C6  UNL     1       2.735  -1.596  -0.587  1.00  0.00     0.010 A 
HETATM    9  S1  UNL     1       2.065  -3.039  -1.435  1.00  0.00    -0.072 SA
HETATM   10  C7  UNL     1       0.380  -2.789  -0.933  1.00  0.00     0.114 A 
HETATM   11  N2  UNL     1      -0.663  -3.543  -1.240  1.00  0.00    -0.234 NA
HETATM   12  C8  UNL     1      -1.873  -3.208  -0.772  1.00  0.00     0.236 A 
HETATM   13  N3  UNL     1      -1.871  -2.107  -0.025  1.00  0.00    -0.224 NA
HETATM   14  C9  UNL     1      -0.837  -1.339   0.292  1.00  0.00     0.139 A 
HETATM   15  C18 UNL     1       0.420  -1.646  -0.165  1.00  0.00     0.053 A 
HETATM   16  C19 UNL     1       4.128  -1.103  -0.527  1.00  0.00     0.172 C 
ENDROOT
BRANCH  14  17
HETATM   17  N4  UNL     1      -1.136  -0.202   1.129  1.00  0.00    -0.363 N 
HETATM   18  H9  UNL     1      -0.638   0.561   1.555  1.00  0.00     0.162 HD
BRANCH  17  19
HETATM   19  C10 UNL     1      -2.499   0.021   1.549  1.00  0.00     0.140 C 
BRANCH  19  20
HETATM   20  C11 UNL     1      -2.672   1.237   2.419  1.00  0.00     0.194 C 
BRANCH  20  21
HETATM   21  O2  UNL     1      -1.891   1.097   3.582  1.00  0.00    -0.399 OA
HETATM   22  H13 UNL     1      -2.388   0.468   4.167  1.00  0.00     0.209 HD
ENDBRANCH  20  21
ENDBRANCH  19  20
BRANCH  19  23
HETATM   23  C12 UNL     1      -3.358   0.228   0.350  1.00  0.00    -0.034 A 
HETATM   24  C13 UNL     1      -4.584  -0.376   0.192  1.00  0.00     0.009 A 
HETATM   25  C14 UNL     1      -5.295  -0.111  -0.962  1.00  0.00     0.001 A 
HETATM   26  C15 UNL     1      -4.777   0.740  -1.923  1.00  0.00     0.000 A 
HETATM   27  C16 UNL     1      -3.543   1.335  -1.742  1.00  0.00     0.001 A 
HETATM   28  C17 UNL     1      -2.805   1.089  -0.594  1.00  0.00     0.009 A 
ENDBRANCH  19  23
ENDBRANCH  17  19
ENDBRANCH  14  17
TORSDOF 5
