REMARK  7 active torsions:
REMARK  status: ('A' for Active; 'I' for Inactive)
REMARK    1  A    between atoms: C2_2  and  C3_3 
REMARK    2  A    between atoms: C3_3  and  C5_5 
REMARK    3  A    between atoms: C11_12  and  C12_13 
REMARK    4  A    between atoms: N2_15  and  N3_16 
REMARK    5  A    between atoms: N3_16  and  C13_17 
REMARK    6  A    between atoms: C14_18  and  C17_21 
REMARK    7  A    between atoms: C17_21  and  C18_22 
ROOT
HETATM    1  C5  UNL     1      -2.380   0.549   0.340  1.00  0.00     0.009 C 
HETATM    2  C6  UNL     1      -2.864  -0.123  -0.936  1.00  0.00     0.010 C 
HETATM    3  C7  UNL     1      -1.972   0.480  -2.028  1.00  0.00     0.029 C 
HETATM    4  C8  UNL     1      -0.657  -0.246  -1.862  1.00  0.00     0.001 C 
HETATM    5  C9  UNL     1      -0.155   0.004  -0.632  1.00  0.00     0.042 C 
HETATM    6  C10 UNL     1      -0.940   0.898   0.283  1.00  0.00     0.105 C 
HETATM    7  S1  UNL     1      -0.010   0.553   1.816  1.00  0.00    -0.125 SA
HETATM    8  C11 UNL     1       0.980  -0.844   1.250  1.00  0.00     0.211 C 
HETATM    9  N2  UNL     1       1.067  -0.545  -0.177  1.00  0.00    -0.257 N 
ENDROOT
BRANCH   9  10
HETATM   10  N3  UNL     1       2.192  -0.813  -0.815  1.00  0.00    -0.197 NA
BRANCH  10  11
HETATM   11  C13 UNL     1       3.108   0.108  -1.157  1.00  0.00     0.127 A 
HETATM   12  C14 UNL     1       4.418  -0.094  -1.884  1.00  0.00     0.023 A 
HETATM   13  C15 UNL     1       5.644   0.268  -2.432  1.00  0.00     0.035 A 
HETATM   14  C19 UNL     1       4.636  -1.448  -2.345  1.00  0.00    -0.026 A 
HETATM   15  C18 UNL     1       4.238  -0.297  -1.839  1.00  0.00     0.023 A 
HETATM   16  C16 UNL     1       5.604   1.760  -2.038  1.00  0.00    -0.039 A 
HETATM   17  C17 UNL     1       4.461   1.271  -1.570  1.00  0.00     0.035 A 
ENDBRANCH  10  11
ENDBRANCH   9  10
BRANCH   8  18
HETATM   18  C12 UNL     1       2.303  -0.907   1.938  1.00  0.00     0.118 C 
HETATM   19  N1  UNL     1       3.201  -0.044   2.111  1.00  0.00    -0.313 NA
HETATM   20  H19 UNL     1       4.107  -0.197   2.612  1.00  0.00     0.185 HD
ENDBRANCH   8  18
BRANCH   1  21
HETATM   21  C3  UNL     1      -2.822  -0.154   1.584  1.00  0.00    -0.013 C 
HETATM   22  C4  UNL     1      -2.251  -1.514   1.775  1.00  0.00     0.010 C 
BRANCH  21  23
HETATM   23  C2  UNL     1      -4.356  -0.211   1.642  1.00  0.00     0.000 C 
HETATM   24  C1  UNL     1      -4.880   1.200   1.468  1.00  0.00     0.005 C 
ENDBRANCH  21  23
ENDBRANCH   1  21
TORSDOF 7
