REMARK  7 active torsions:
REMARK  status: ('A' for Active; 'I' for Inactive)
REMARK    1  A    between atoms: C2_2  and  C3_3 
REMARK    2  A    between atoms: C4_4  and  C5_5 
REMARK    3  A    between atoms: C6_6  and  C7_7 
REMARK    4  A    between atoms: C6_6  and  N1_9 
REMARK    5  A    between atoms: C7_7  and  O1_8 
REMARK    6  A    between atoms: N1_9  and  C8_10 
REMARK       I    between atoms: N4_21  and  C16_22 
REMARK    7  A    between atoms: C16_22  and  C17_24 
ROOT
HETATM    1  C8  UNL     1       0.763   0.100  -0.154  1.00  0.00     0.103 C 
HETATM    2  C9  UNL     1      -0.265  -0.682  -0.445  1.00  0.00     0.023 A 
HETATM    3  C10 UNL     1      -0.082  -2.119  -0.611  1.00  0.00     0.122 A 
HETATM    4  N2  UNL     1       0.943  -2.858  -0.531  1.00  0.00    -0.166 NA
HETATM    5  C11 UNL     1       0.905  -4.220  -0.726  1.00  0.00     0.207 C 
HETATM    6  N3  UNL     1       0.878  -5.372  -0.872  1.00  0.00    -0.170 NA
HETATM    7  S1  UNL     1      -1.743  -2.741  -0.993  1.00  0.00    -0.071 SA
HETATM    8  C12 UNL     1      -2.528  -1.113  -0.908  1.00  0.00     0.010 A 
HETATM    9  C13 UNL     1      -1.621  -0.198  -0.620  1.00  0.00    -0.027 A 
HETATM   10  C14 UNL     1      -2.177   1.178  -0.528  1.00  0.00     0.060 C 
HETATM   11  C15 UNL     1      -3.399   1.185   0.358  1.00  0.00     0.131 C 
HETATM   12  N4  UNL     1      -4.322   0.117  -0.002  1.00  0.00    -0.347 N 
HETATM   13  C16 UNL     1      -5.532  -0.058   0.718  1.00  0.00     0.219 C 
HETATM   14  O2  UNL     1      -6.300  -0.991   0.376  1.00  0.00    -0.273 OA
HETATM   15  C19 UNL     1      -3.953  -0.744  -1.110  1.00  0.00     0.172 C 
ENDROOT
BRANCH   1  16
HETATM   16  N1  UNL     1       2.051  -0.450  -0.001  1.00  0.00    -0.366 N 
HETATM   17  H10 UNL     1       2.356  -1.296   0.567  1.00  0.00     0.165 HD
BRANCH  16  18
HETATM   18  C6  UNL     1       3.253   0.026  -0.593  1.00  0.00     0.032 C 
HETATM   19  C5  UNL     1       4.362   0.306   0.071  1.00  0.00     0.027 C 
BRANCH  19  20
HETATM   20  C4  UNL     1       5.548   0.790  -0.614  1.00  0.00     0.002 C 
HETATM   21  C3  UNL     1       6.678   1.081   0.014  1.00  0.00    -0.001 C 
BRANCH  21  22
HETATM   22  C2  UNL     1       6.941   0.978   1.441  1.00  0.00    -0.010 C 
HETATM   23  C1  UNL     1       8.102   1.283   2.048  1.00  0.00     0.011 C 
ENDBRANCH  21  22
ENDBRANCH  19  20
BRANCH  18  24
HETATM   24  C7  UNL     1       2.934   0.113  -2.038  1.00  0.00     0.220 C 
BRANCH  24  25
HETATM   25  O1  UNL     1       2.570  -1.118  -2.589  1.00  0.00    -0.395 OA
HETATM   26  H9  UNL     1       3.413  -1.638  -2.652  1.00  0.00     0.209 HD
ENDBRANCH  24  25
ENDBRANCH  18  24
ENDBRANCH  16  18
ENDBRANCH   1  16
BRANCH  13  27
HETATM   27  C17 UNL     1      -5.855   0.850   1.839  1.00  0.00     0.098 C 
HETATM   28  C18 UNL     1      -7.167   0.519   2.484  1.00  0.00     0.014 C 
ENDBRANCH  13  27
TORSDOF 7
