REMARK  6 active torsions:
REMARK  status: ('A' for Active; 'I' for Inactive)
REMARK    1  A    between atoms: C2_2  and  N1_3 
REMARK       I    between atoms: N1_3  and  C3_4 
REMARK    2  A    between atoms: N1_3  and  C6_9 
REMARK    3  A    between atoms: C3_4  and  C4_6 
REMARK    4  A    between atoms: C4_6  and  C5_7 
REMARK    5  A    between atoms: C5_7  and  S1_8 
REMARK    6  A    between atoms: C12_18  and  O2_19 
ROOT
HETATM    1  C6  UNL     1       0.288  -0.210   0.575  1.00  0.00     0.045 C 
HETATM    2  C7  UNL     1       0.340  -1.499   0.187  1.00  0.00     0.047 C 
HETATM    3  C8  UNL     1      -0.680  -2.475  -0.266  1.00  0.00     0.029 A 
HETATM    4  C9  UNL     1      -0.027  -3.592  -0.689  1.00  0.00     0.133 A 
HETATM    5  N2  UNL     1      -0.811  -4.599  -1.131  1.00  0.00    -0.253 NA
HETATM    6  C10 UNL     1      -2.138  -4.523  -1.159  1.00  0.00     0.234 A 
HETATM    7  N3  UNL     1      -2.774  -3.419  -0.740  1.00  0.00    -0.224 NA
HETATM    8  C11 UNL     1      -2.061  -2.354  -0.278  1.00  0.00     0.138 A 
HETATM    9  N4  UNL     1      -3.041  -1.362   0.076  1.00  0.00    -0.347 N 
HETATM   10  C12 UNL     1      -3.068   0.064   0.033  1.00  0.00     0.233 C 
HETATM   11  C14 UNL     1      -2.216   0.764   1.054  1.00  0.00     0.092 A 
HETATM   12  C15 UNL     1      -2.546   2.234   0.934  1.00  0.00    -0.013 A 
HETATM   13  C16 UNL     1      -1.475   2.917   0.567  1.00  0.00    -0.002 A 
HETATM   14  C17 UNL     1      -0.332   2.009   0.409  1.00  0.00     0.010 A 
HETATM   15  C18 UNL     1      -0.787   0.775   0.702  1.00  0.00    -0.019 A 
HETATM   16  H14 UNL     1      -3.916  -1.852   0.440  1.00  0.00     0.163 HD
ENDROOT
BRANCH   1  17
HETATM   17  N1  UNL     1       1.626   0.214   0.909  1.00  0.00    -0.318 N 
HETATM   18  C3  UNL     1       2.574   0.217  -0.182  1.00  0.00     0.225 C 
HETATM   19  O1  UNL     1       2.250  -0.086  -1.359  1.00  0.00    -0.273 OA
BRANCH  17  20
HETATM   20  C2  UNL     1       2.137   0.584   2.210  1.00  0.00     0.128 C 
HETATM   21  C1  UNL     1       2.081   2.042   2.528  1.00  0.00     0.027 C 
ENDBRANCH  17  20
BRANCH  18  22
HETATM   22  C4  UNL     1       3.989   0.573   0.000  1.00  0.00     0.113 C 
BRANCH  22  23
HETATM   23  C5  UNL     1       4.813   0.512  -1.261  1.00  0.00     0.080 C 
BRANCH  23  24
HETATM   24  S1  UNL     1       4.783  -1.165  -1.939  1.00  0.00    -0.182 SA
HETATM   25  H10 UNL     1       5.846  -1.309  -2.838  1.00  0.00     0.101 HD
ENDBRANCH  23  24
ENDBRANCH  22  23
ENDBRANCH  18  22
ENDBRANCH   1  17
BRANCH  10  26
HETATM   26  O2  UNL     1      -4.408   0.429   0.308  1.00  0.00    -0.371 OA
HETATM   27  C13 UNL     1      -4.955   1.160  -0.716  1.00  0.00     0.204 C 
ENDBRANCH  10  26
TORSDOF 6
