REMARK  8 active torsions:
REMARK  status: ('A' for Active; 'I' for Inactive)
REMARK    1  A    between atoms: C2_2  and  C3_3 
REMARK    2  A    between atoms: C3_3  and  C4_5 
REMARK    3  A    between atoms: C4_5  and  C5_6 
REMARK    4  A    between atoms: C8_9  and  N1_10 
REMARK    5  A    between atoms: N1_10  and  C9_11 
REMARK    6  A    between atoms: C9_11  and  C10_12 
REMARK    7  A    between atoms: C9_11  and  C11_14 
REMARK    8  A    between atoms: C10_12  and  O2_13 
ROOT
HETATM    1  C5  UNL     1      -2.516  -0.665  -0.583  1.00  0.00    -0.071 C 
HETATM    2  C6  UNL     1      -1.194  -0.794  -0.662  1.00  0.00     0.015 C 
HETATM    3  C7  UNL     1      -0.700  -0.696   0.703  1.00  0.00     0.002 C 
HETATM    4  C8  UNL     1       0.536  -0.430   1.157  1.00  0.00     0.133 C 
HETATM    5  N2  UNL     1       0.719  -0.399   2.566  1.00  0.00    -0.226 NA
HETATM    6  C17 UNL     1       1.640  -1.050   3.189  1.00  0.00     0.209 C 
HETATM    7  N3  UNL     1       1.306  -0.622   4.515  1.00  0.00    -0.360 N 
HETATM    8  C18 UNL     1       0.218  -1.308   5.141  1.00  0.00     0.095 C 
HETATM    9  C19 UNL     1      -0.880  -0.938   4.459  1.00  0.00     0.062 C 
HETATM   10  S1  UNL     1      -1.667  -0.026   3.169  1.00  0.00    -0.130 SA
HETATM   11  C20 UNL     1      -1.826  -0.946   1.621  1.00  0.00     0.092 C 
HETATM   12  C21 UNL     1      -3.010  -0.473   0.805  1.00  0.00     0.054 C 
HETATM   13  H20 UNL     1       1.439  -0.022   5.356  1.00  0.00     0.166 HD
ENDROOT
BRANCH   4  14
HETATM   14  N1  UNL     1       1.573  -0.199   0.212  1.00  0.00    -0.364 N 
HETATM   15  H9  UNL     1       1.469  -0.570  -0.755  1.00  0.00     0.162 HD
BRANCH  14  16
HETATM   16  C9  UNL     1       2.766   0.532   0.546  1.00  0.00     0.140 C 
BRANCH  16  17
HETATM   17  C10 UNL     1       2.474   1.956   0.997  1.00  0.00     0.194 C 
BRANCH  17  18
HETATM   18  O2  UNL     1       1.827   2.713   0.041  1.00  0.00    -0.399 OA
HETATM   19  H13 UNL     1       0.928   2.376  -0.158  1.00  0.00     0.209 HD
ENDBRANCH  17  18
ENDBRANCH  16  17
BRANCH  16  20
HETATM   20  C11 UNL     1       3.741   0.493  -0.546  1.00  0.00    -0.034 A 
HETATM   21  C12 UNL     1       3.254   0.715  -1.827  1.00  0.00     0.009 A 
HETATM   22  C13 UNL     1       4.169   0.679  -2.870  1.00  0.00     0.001 A 
HETATM   23  C14 UNL     1       5.527   0.439  -2.716  1.00  0.00     0.000 A 
HETATM   24  C15 UNL     1       5.956   0.225  -1.419  1.00  0.00     0.001 A 
HETATM   25  C16 UNL     1       5.093   0.247  -0.336  1.00  0.00     0.009 A 
ENDBRANCH  16  20
ENDBRANCH  14  16
ENDBRANCH   4  14
BRANCH   1  26
HETATM   26  C4  UNL     1      -3.455  -0.700  -1.733  1.00  0.00     0.112 C 
BRANCH  26  27
HETATM   27  C3  UNL     1      -4.201   0.589  -1.808  1.00  0.00     0.130 C 
HETATM   28  O1  UNL     1      -4.020   1.514  -1.003  1.00  0.00    -0.298 OA
BRANCH  27  29
HETATM   29  C2  UNL     1      -5.218   0.843  -2.865  1.00  0.00     0.074 C 
HETATM   30  C1  UNL     1      -5.348  -0.354  -3.785  1.00  0.00     0.013 C 
ENDBRANCH  27  29
ENDBRANCH  26  27
ENDBRANCH   1  26
TORSDOF 8
