REMARK  6 active torsions:
REMARK  status: ('A' for Active; 'I' for Inactive)
REMARK    1  A    between atoms: C2_2  and  C3_3 
REMARK       I    between atoms: C3_3  and  N1_5 
REMARK    2  A    between atoms: C10_15  and  N4_16 
REMARK    3  A    between atoms: N4_16  and  C11_17 
REMARK    4  A    between atoms: C11_17  and  C12_18 
REMARK    5  A    between atoms: C11_17  and  C13_20 
REMARK    6  A    between atoms: C12_18  and  O2_19 
ROOT
HETATM    1  C3  UNL     1       4.496   1.056  -1.817  1.00  0.00     0.223 C 
HETATM    2  O1  UNL     1       4.211   2.215  -2.212  1.00  0.00    -0.273 OA
HETATM    3  N1  UNL     1       3.626   0.431  -0.918  1.00  0.00    -0.324 N 
HETATM    4  C4  UNL     1       2.398   0.855  -0.310  1.00  0.00     0.135 C 
HETATM    5  C5  UNL     1       1.356  -0.224  -0.502  1.00  0.00     0.061 C 
HETATM    6  C6  UNL     1       1.209  -1.077   0.692  1.00  0.00    -0.020 A 
HETATM    7  C7  UNL     1       2.539  -1.607   0.817  1.00  0.00     0.037 A 
HETATM    8  S1  UNL     1       2.462  -2.678   2.273  1.00  0.00    -0.067 SA
HETATM    9  C8  UNL     1       0.728  -2.374   2.625  1.00  0.00     0.114 A 
HETATM   10  N2  UNL     1      -0.090  -2.825   3.585  1.00  0.00    -0.234 NA
HETATM   11  C9  UNL     1      -1.377  -2.462   3.669  1.00  0.00     0.236 A 
HETATM   12  N3  UNL     1      -1.749  -1.621   2.713  1.00  0.00    -0.224 NA
HETATM   13  C10 UNL     1      -1.012  -1.121   1.724  1.00  0.00     0.139 A 
HETATM   14  C19 UNL     1       0.305  -1.484   1.627  1.00  0.00     0.053 A 
HETATM   15  P1  UNL     1       3.940  -1.239  -0.277  1.00  0.00     0.018 P 
HETATM   16  H21 UNL     1       4.049  -2.188  -1.369  1.00  0.00     0.086 HD
ENDROOT
BRANCH  13  17
HETATM   17  N4  UNL     1      -1.686  -0.242   0.838  1.00  0.00    -0.363 N 
HETATM   18  H11 UNL     1      -1.509   0.323   0.002  1.00  0.00     0.162 HD
BRANCH  17  19
HETATM   19  C11 UNL     1      -3.108   0.084   1.043  1.00  0.00     0.140 C 
BRANCH  19  20
HETATM   20  C12 UNL     1      -3.336   0.887   2.286  1.00  0.00     0.194 C 
BRANCH  20  21
HETATM   21  O2  UNL     1      -4.690   1.157   2.446  1.00  0.00    -0.399 OA
HETATM   22  H15 UNL     1      -4.907   1.250   3.412  1.00  0.00     0.209 HD
ENDBRANCH  20  21
ENDBRANCH  19  20
BRANCH  19  23
HETATM   23  C13 UNL     1      -3.812   0.523  -0.151  1.00  0.00    -0.034 A 
HETATM   24  C14 UNL     1      -3.576  -0.340  -1.212  1.00  0.00     0.009 A 
HETATM   25  C15 UNL     1      -4.148  -0.112  -2.470  1.00  0.00     0.001 A 
HETATM   26  C16 UNL     1      -4.958   0.985  -2.656  1.00  0.00     0.000 A 
HETATM   27  C17 UNL     1      -5.203   1.847  -1.627  1.00  0.00     0.001 A 
HETATM   28  C18 UNL     1      -4.629   1.597  -0.410  1.00  0.00     0.009 A 
ENDBRANCH  19  23
ENDBRANCH  17  19
ENDBRANCH  13  17
BRANCH   1  29
HETATM   29  C2  UNL     1       5.696   0.326  -2.249  1.00  0.00     0.099 C 
HETATM   30  C1  UNL     1       6.956   0.765  -1.505  1.00  0.00     0.014 C 
ENDBRANCH   1  29
TORSDOF 6
