REMARK  8 active torsions:
REMARK  status: ('A' for Active; 'I' for Inactive)
REMARK    1  A    between atoms: C2_2  and  C3_3 
REMARK       I    between atoms: C3_3  and  N1_5 
REMARK    2  A    between atoms: N1_5  and  C4_6 
REMARK    3  A    between atoms: N1_5  and  C6_8 
REMARK    4  A    between atoms: C6_8  and  C7_9 
REMARK    5  A    between atoms: C8_10  and  C9_11 
REMARK    6  A    between atoms: C10_12  and  N2_13 
REMARK    7  A    between atoms: N3_15  and  C12_16 
REMARK    8  A    between atoms: C15_19  and  O2_20 
ROOT
HETATM    1  C9  UNL     1      -1.130  -1.291  -0.567  1.00  0.00     0.138 A 
HETATM    2  C10 UNL     1      -1.223  -2.455  -0.737  1.00  0.00     0.190 A 
HETATM    3  C12 UNL     1      -2.341  -2.152  -0.279  1.00  0.00     0.228 A 
HETATM    4  C13 UNL     1      -3.632  -1.692  -0.133  1.00  0.00     0.008 C 
HETATM    5  C14 UNL     1      -4.140  -1.316  -1.370  1.00  0.00     0.088 C 
HETATM    6  C15 UNL     1      -3.417  -1.633  -2.690  1.00  0.00     0.221 C 
HETATM    7  N4  UNL     1      -2.067  -2.321  -2.297  1.00  0.00    -0.366 N 
HETATM    8  H18 UNL     1      -1.844  -2.709  -3.357  1.00  0.00     0.158 HD
ENDROOT
BRANCH   1   9
HETATM    9  C8  UNL     1      -0.272  -0.233  -0.521  1.00  0.00    -0.085 C 
HETATM   10  C7  UNL     1       0.445   0.633  -0.467  1.00  0.00    -0.086 C 
BRANCH  10  11
HETATM   11  C6  UNL     1       1.352   1.736  -0.423  1.00  0.00     0.220 C 
BRANCH  11  12
HETATM   12  N1  UNL     1       1.493   2.295   0.885  1.00  0.00    -0.342 N 
HETATM   13  C3  UNL     1       2.533   1.749   1.687  1.00  0.00     0.220 C 
HETATM   14  O1  UNL     1       2.702   2.215   2.851  1.00  0.00    -0.273 OA
BRANCH  13  15
HETATM   15  C2  UNL     1       3.455   0.662   1.270  1.00  0.00     0.098 C 
HETATM   16  C1  UNL     1       4.412   0.377   2.394  1.00  0.00     0.014 C 
ENDBRANCH  13  15
BRANCH  12  17
HETATM   17  C4  UNL     1       0.713   3.343   1.484  1.00  0.00     0.122 C 
HETATM   18  C5  UNL     1       1.272   4.729   1.234  1.00  0.00     0.026 C 
ENDBRANCH  12  17
ENDBRANCH  11  12
ENDBRANCH  10  11
ENDBRANCH   1   9
BRANCH   2  19
HETATM   19  N2  UNL     1      -1.222  -3.738  -0.717  1.00  0.00    -0.172 N 
HETATM   20  C11 UNL     1      -1.269  -4.878  -0.795  1.00  0.00     0.393 A 
HETATM   21  N3  UNL     1      -2.346  -3.722  -0.406  1.00  0.00     0.053 N 
HETATM   22  H14 UNL     1      -3.481  -3.922  -0.090  1.00  0.00     0.313 HD
ENDBRANCH   2  19
BRANCH   6  23
HETATM   23  O2  UNL     1      -4.127  -2.574  -3.375  1.00  0.00    -0.377 OA
HETATM   24  H17 UNL     1      -4.871  -2.970  -2.845  1.00  0.00     0.212 HD
ENDBRANCH   6  23
TORSDOF 8
