REMARK  6 active torsions:
REMARK  status: ('A' for Active; 'I' for Inactive)
REMARK    1  A    between atoms: O1_1  and  C1_2 
REMARK    2  A    between atoms: C1_2  and  C2_3 
REMARK    3  A    between atoms: C2_3  and  N1_4 
REMARK    4  A    between atoms: C2_3  and  C19_22 
REMARK    5  A    between atoms: N1_4  and  C3_5 
REMARK    6  A    between atoms: C3_5  and  C4_6 
ROOT
HETATM    1  C4  UNL     1      -0.187  -0.813  -0.915  1.00  0.00    -0.005 A 
HETATM    2  C5  UNL     1      -0.743  -0.585  -2.176  1.00  0.00     0.152 A 
HETATM    3  O2  UNL     1      -1.924  -0.011  -2.018  1.00  0.00    -0.320 OA
HETATM    4  C6  UNL     1      -2.211   0.165  -0.763  1.00  0.00     0.097 A 
HETATM    5  C7  UNL     1      -1.128  -0.333  -0.007  1.00  0.00     0.008 A 
HETATM    6  C8  UNL     1      -1.496  -0.116   1.386  1.00  0.00     0.011 C 
HETATM    7  C9  UNL     1      -2.309  -1.078   1.731  1.00  0.00    -0.022 C 
HETATM    8  C10 UNL     1      -2.846  -2.233   1.017  1.00  0.00     0.054 C 
HETATM    9  C11 UNL     1      -4.214  -2.121   0.495  1.00  0.00    -0.022 C 
HETATM   10  C12 UNL     1      -4.941  -1.084   0.159  1.00  0.00     0.008 C 
HETATM   11  C13 UNL     1      -4.675   0.340   0.168  1.00  0.00    -0.023 A 
HETATM   12  C14 UNL     1      -5.584   1.284   0.570  1.00  0.00     0.012 A 
HETATM   13  C15 UNL     1      -5.401   2.649   0.568  1.00  0.00     0.001 A 
HETATM   14  C16 UNL     1      -4.181   3.104   0.118  1.00  0.00     0.001 A 
HETATM   15  C17 UNL     1      -3.232   2.169  -0.298  1.00  0.00     0.015 A 
HETATM   16  C18 UNL     1      -3.450   0.782  -0.282  1.00  0.00     0.009 A 
ENDROOT
BRANCH   1  17
HETATM   17  C3  UNL     1       0.958  -1.335  -0.092  1.00  0.00     0.156 C 
BRANCH  17  18
HETATM   18  N1  UNL     1       1.690  -0.353   0.537  1.00  0.00    -0.407 N 
HETATM   19  H5  UNL     1       1.783  -0.419   1.580  1.00  0.00     0.154 HD
BRANCH  18  20
HETATM   20  C2  UNL     1       2.614   0.524   0.021  1.00  0.00     0.133 C 
BRANCH  20  21
HETATM   21  C1  UNL     1       2.361   1.273  -1.240  1.00  0.00     0.193 C 
BRANCH  21  22
HETATM   22  O1  UNL     1       2.194   0.530  -2.376  1.00  0.00    -0.399 OA
HETATM   23  H1  UNL     1       2.867  -0.164  -2.455  1.00  0.00     0.209 HD
ENDBRANCH  21  22
ENDBRANCH  20  21
BRANCH  20  24
HETATM   24  C19 UNL     1       4.061   0.077   0.056  1.00  0.00    -0.034 A 
HETATM   25  C20 UNL     1       4.529  -1.152  -0.282  1.00  0.00     0.009 A 
HETATM   26  C21 UNL     1       5.849  -1.525  -0.243  1.00  0.00     0.001 A 
HETATM   27  C22 UNL     1       6.792  -0.606   0.166  1.00  0.00     0.000 A 
HETATM   28  C23 UNL     1       6.414   0.654   0.524  1.00  0.00     0.001 A 
HETATM   29  C24 UNL     1       5.081   0.944   0.457  1.00  0.00     0.009 A 
ENDBRANCH  20  24
ENDBRANCH  18  20
ENDBRANCH  17  18
ENDBRANCH   1  17
TORSDOF 6
