REMARK  8 active torsions:
REMARK  status: ('A' for Active; 'I' for Inactive)
REMARK    1  A    between atoms: N1_2  and  C3_4 
REMARK    2  A    between atoms: C3_4  and  C4_5 
REMARK    3  A    between atoms: C4_5  and  C5_6 
REMARK       I    between atoms: C5_6  and  N2_8 
REMARK    4  A    between atoms: C12_18  and  N5_19 
REMARK    5  A    between atoms: N5_19  and  C13_20 
REMARK    6  A    between atoms: C13_20  and  C14_21 
REMARK    7  A    between atoms: C13_20  and  C15_23 
REMARK    8  A    between atoms: C14_21  and  O2_22 
ROOT
HETATM    1  C5  UNL     1       3.557   0.865   0.036  1.00  0.00     0.221 C 
HETATM    2  O1  UNL     1       3.147   2.051   0.154  1.00  0.00    -0.273 OA
HETATM    3  N2  UNL     1       2.436   0.085  -0.436  1.00  0.00    -0.347 N 
HETATM    4  C6  UNL     1       1.246   0.880  -0.623  1.00  0.00     0.131 C 
HETATM    5  C7  UNL     1       0.197   0.137  -1.490  1.00  0.00     0.060 C 
HETATM    6  C8  UNL     1      -0.307  -1.016  -0.730  1.00  0.00    -0.025 A 
HETATM    7  C9  UNL     1       0.878  -1.702  -0.393  1.00  0.00     0.010 A 
HETATM    8  S1  UNL     1       0.349  -3.107   0.532  1.00  0.00    -0.072 SA
HETATM    9  C10 UNL     1      -1.413  -2.767   0.457  1.00  0.00     0.114 A 
HETATM   10  N3  UNL     1      -2.419  -3.418   0.940  1.00  0.00    -0.234 NA
HETATM   11  C11 UNL     1      -3.672  -2.977   0.756  1.00  0.00     0.236 A 
HETATM   12  N4  UNL     1      -3.741  -1.865   0.063  1.00  0.00    -0.224 NA
HETATM   13  C12 UNL     1      -2.748  -1.143  -0.465  1.00  0.00     0.139 A 
HETATM   14  C21 UNL     1      -1.461  -1.595  -0.276  1.00  0.00     0.053 A 
HETATM   15  C22 UNL     1       2.266  -1.312  -0.754  1.00  0.00     0.172 C 
ENDROOT
BRANCH  13  16
HETATM   16  N5  UNL     1      -3.130   0.049  -1.185  1.00  0.00    -0.363 N 
HETATM   17  H16 UNL     1      -2.611   0.761  -1.671  1.00  0.00     0.162 HD
BRANCH  16  18
HETATM   18  C13 UNL     1      -4.552   0.395  -1.305  1.00  0.00     0.140 C 
BRANCH  18  19
HETATM   19  C14 UNL     1      -5.299  -0.643  -2.117  1.00  0.00     0.194 C 
BRANCH  19  20
HETATM   20  O2  UNL     1      -6.630  -0.215  -2.209  1.00  0.00    -0.399 OA
HETATM   21  H20 UNL     1      -7.025  -0.504  -3.086  1.00  0.00     0.209 HD
ENDBRANCH  19  20
ENDBRANCH  18  19
BRANCH  18  22
HETATM   22  C15 UNL     1      -5.141   0.500   0.075  1.00  0.00    -0.034 A 
HETATM   23  C16 UNL     1      -6.261  -0.004   0.682  1.00  0.00     0.009 A 
HETATM   24  C17 UNL     1      -6.528   0.296   1.987  1.00  0.00     0.001 A 
HETATM   25  C18 UNL     1      -5.720   1.100   2.769  1.00  0.00     0.000 A 
HETATM   26  C19 UNL     1      -4.597   1.609   2.171  1.00  0.00     0.001 A 
HETATM   27  C20 UNL     1      -4.306   1.313   0.833  1.00  0.00     0.009 A 
ENDBRANCH  18  22
ENDBRANCH  16  18
ENDBRANCH  13  16
BRANCH   1  28
HETATM   28  C4  UNL     1       4.856   0.183   0.268  1.00  0.00     0.133 C 
BRANCH  28  29
HETATM   29  C3  UNL     1       5.836   1.235   0.785  1.00  0.00     0.280 C 
BRANCH  29  30
HETATM   30  N1  UNL     1       7.102   0.562   1.007  1.00  0.00     0.080 N 
HETATM   31  C1  UNL     1       7.646   0.173  -0.281  1.00  0.00     0.309 C 
HETATM   32  C2  UNL     1       7.984   1.447   1.722  1.00  0.00     0.309 C 
ENDBRANCH  29  30
ENDBRANCH  28  29
ENDBRANCH   1  28
TORSDOF 8
