REMARK  5 active torsions:
REMARK  status: ('A' for Active; 'I' for Inactive)
REMARK    1  A    between atoms: C3_4  and  N2_5 
REMARK    2  A    between atoms: N2_5  and  C4_6 
REMARK    3  A    between atoms: C4_6  and  C5_7 
REMARK    4  A    between atoms: C6_8  and  C7_9 
REMARK    5  A    between atoms: C14_20  and  N5_21 
ROOT
HETATM    1  C1  UNL     1      -1.287   1.595  -2.545  1.00  0.00     0.039 C 
HETATM    2  C2  UNL     1      -1.087   0.627  -1.647  1.00  0.00     0.020 C 
HETATM    3  N1  UNL     1      -0.441  -0.637  -1.699  1.00  0.00    -0.339 N 
HETATM    4  C3  UNL     1      -0.096  -0.402  -0.294  1.00  0.00     0.347 C 
HETATM    5  N3  UNL     1       0.044  -1.562   0.488  1.00  0.00    -0.221 NA
HETATM    6  C8  UNL     1       0.029  -1.612   1.756  1.00  0.00     0.228 C 
HETATM    7  N4  UNL     1      -0.161  -0.275   2.264  1.00  0.00    -0.247 NA
HETATM    8  C9  UNL     1      -1.432   0.039   2.372  1.00  0.00     0.296 C 
HETATM    9  O1  UNL     1      -2.842   0.014   2.351  1.00  0.00    -0.349 OA
HETATM   10  C10 UNL     1      -3.376   0.425   1.042  1.00  0.00     0.181 C 
HETATM   11  C11 UNL     1      -2.791   1.769   0.831  1.00  0.00     0.004 C 
HETATM   12  C12 UNL     1      -1.472   1.544   0.622  1.00  0.00    -0.004 C 
HETATM   13  C13 UNL     1      -1.378   0.289  -0.188  1.00  0.00     0.128 C 
HETATM   14  C14 UNL     1      -2.639  -0.439  -0.003  1.00  0.00     0.274 C 
HETATM   15  H3  UNL     1      -0.275  -1.398  -2.399  1.00  0.00     0.163 HD
ENDROOT
BRANCH   4  16
HETATM   16  N2  UNL     1       1.067   0.496  -0.268  1.00  0.00     0.140 N 
HETATM   17  H4  UNL     1       0.852   1.267  -0.933  1.00  0.00     0.322 HD
BRANCH  16  18
HETATM   18  C4  UNL     1       2.294  -0.089  -0.645  1.00  0.00     0.302 C 
BRANCH  18  19
HETATM   19  C5  UNL     1       2.898  -1.095   0.209  1.00  0.00    -0.000 C 
HETATM   20  C6  UNL     1       4.116  -0.926   0.771  1.00  0.00    -0.018 C 
BRANCH  20  21
HETATM   21  C7  UNL     1       5.140   0.150   0.755  1.00  0.00     0.112 C 
HETATM   22 BR1  UNL     1       5.396   0.740   2.598  1.00  0.00    -0.092 Br
ENDBRANCH  20  21
ENDBRANCH  18  19
ENDBRANCH  16  18
ENDBRANCH   4  16
BRANCH  14  23
HETATM   23  N5  UNL     1      -3.408  -0.432  -1.250  1.00  0.00     0.087 N 
HETATM   24  H17 UNL     1      -4.349  -0.828  -1.110  1.00  0.00     0.313 HD
HETATM   25  H18 UNL     1      -2.824  -0.965  -1.933  1.00  0.00     0.313 HD
ENDBRANCH  14  23
TORSDOF 5
