REMARK  8 active torsions:
REMARK  status: ('A' for Active; 'I' for Inactive)
REMARK    1  A    between atoms: O1_1  and  C1_2 
REMARK    2  A    between atoms: C1_2  and  C2_3 
REMARK    3  A    between atoms: C6_7  and  C7_8 
REMARK    4  A    between atoms: C17_20  and  N3_21 
REMARK    5  A    between atoms: N3_21  and  C18_22 
REMARK    6  A    between atoms: C18_22  and  C19_23 
REMARK    7  A    between atoms: C18_22  and  C20_25 
REMARK    8  A    between atoms: C19_23  and  O2_24 
ROOT
HETATM    1  C2  UNL     1      -1.317  -2.243  -0.772  1.00  0.00     0.044 C 
HETATM    2  C3  UNL     1      -1.606  -2.989   0.489  1.00  0.00     0.012 C 
HETATM    3  C4  UNL     1      -3.025  -2.757   0.918  1.00  0.00     0.005 C 
HETATM    4  C5  UNL     1      -3.447  -1.315   0.960  1.00  0.00     0.040 C 
HETATM    5  C6  UNL     1      -2.380  -0.493   0.342  1.00  0.00    -0.040 C 
HETATM    6  C13 UNL     1      -1.344  -0.763  -0.466  1.00  0.00    -0.029 C 
HETATM    7  C14 UNL     1      -0.449   0.214  -0.988  1.00  0.00     0.034 A 
HETATM    8  C15 UNL     1      -1.010   1.341  -1.580  1.00  0.00     0.134 A 
HETATM    9  N1  UNL     1      -0.245   2.321  -2.100  1.00  0.00    -0.253 NA
HETATM   10  C16 UNL     1       1.108   2.242  -2.063  1.00  0.00     0.234 A 
HETATM   11  N2  UNL     1       1.652   1.154  -1.490  1.00  0.00    -0.224 NA
HETATM   12  C17 UNL     1       0.928   0.155  -0.960  1.00  0.00     0.137 A 
ENDROOT
BRANCH  12  13
HETATM   13  N3  UNL     1       1.576  -0.941  -0.334  1.00  0.00    -0.363 N 
HETATM   14  H18 UNL     1       1.108  -1.735   0.147  1.00  0.00     0.162 HD
BRANCH  13  15
HETATM   15  C18 UNL     1       3.024  -0.998  -0.322  1.00  0.00     0.140 C 
BRANCH  15  16
HETATM   16  C19 UNL     1       3.635  -1.065  -1.699  1.00  0.00     0.194 C 
BRANCH  16  17
HETATM   17  O2  UNL     1       5.013  -1.138  -1.656  1.00  0.00    -0.399 OA
HETATM   18  H22 UNL     1       5.346  -2.057  -1.721  1.00  0.00     0.209 HD
ENDBRANCH  16  17
ENDBRANCH  15  16
BRANCH  15  19
HETATM   19  C20 UNL     1       3.592   0.108   0.502  1.00  0.00    -0.034 A 
HETATM   20  C21 UNL     1       4.591   1.036   0.320  1.00  0.00     0.009 A 
HETATM   21  C22 UNL     1       4.884   1.945   1.307  1.00  0.00     0.001 A 
HETATM   22  C23 UNL     1       4.214   1.989   2.512  1.00  0.00     0.000 A 
HETATM   23  C24 UNL     1       3.210   1.067   2.709  1.00  0.00     0.001 A 
HETATM   24  C25 UNL     1       2.898   0.131   1.714  1.00  0.00     0.009 A 
ENDBRANCH  15  19
ENDBRANCH  13  15
ENDBRANCH  12  13
BRANCH   1  25
HETATM   25  C1  UNL     1      -2.467  -2.582  -1.748  1.00  0.00     0.173 C 
BRANCH  25  26
HETATM   26  O1  UNL     1      -2.248  -1.909  -2.958  1.00  0.00    -0.400 OA
HETATM   27  H1  UNL     1      -2.529  -0.969  -2.929  1.00  0.00     0.209 HD
ENDBRANCH  25  26
ENDBRANCH   1  25
BRANCH   5  28
HETATM   28  C7  UNL     1      -2.566   0.886   0.778  1.00  0.00    -0.029 A 
HETATM   29  C8  UNL     1      -3.808   1.534   0.817  1.00  0.00     0.012 A 
HETATM   30  C9  UNL     1      -4.044   2.808   1.228  1.00  0.00     0.001 A 
HETATM   31  C10 UNL     1      -2.996   3.562   1.650  1.00  0.00     0.000 A 
HETATM   32  C11 UNL     1      -1.740   2.997   1.642  1.00  0.00     0.001 A 
HETATM   33  C12 UNL     1      -1.522   1.703   1.222  1.00  0.00     0.012 A 
ENDBRANCH   5  28
TORSDOF 8
