REMARK  5 active torsions:
REMARK  status: ('A' for Active; 'I' for Inactive)
REMARK    1  A    between atoms: O1_1  and  C1_2 
REMARK    2  A    between atoms: C1_2  and  C2_3 
REMARK    3  A    between atoms: C2_3  and  C3_4 
REMARK    4  A    between atoms: C2_3  and  N1_10 
REMARK    5  A    between atoms: C12_16  and  C13_17 
ROOT
HETATM    1  N1  UNL     1      -1.160   1.250   0.617  1.00  0.00    -0.328 N 
HETATM    2  C9  UNL     1      -1.816   2.509   0.689  1.00  0.00     0.204 A 
HETATM    3  N2  UNL     1      -1.330   3.641   0.348  1.00  0.00    -0.278 NA
HETATM    4  C10 UNL     1       0.006   3.732  -0.170  1.00  0.00     0.217 A 
HETATM    5  C11 UNL     1       0.664   2.413  -0.233  1.00  0.00     0.101 A 
HETATM    6  O2  UNL     1       1.864   2.197  -0.654  1.00  0.00    -0.309 OA
HETATM    7  C12 UNL     1       2.170   0.903  -0.588  1.00  0.00     0.097 A 
HETATM    8  C18 UNL     1       1.090   0.217  -0.086  1.00  0.00     0.038 A 
HETATM    9  C19 UNL     1       0.973  -1.198   0.166  1.00  0.00    -0.021 A 
HETATM   10  C20 UNL     1       1.354  -1.488   1.487  1.00  0.00     0.012 A 
HETATM   11  C21 UNL     1       1.333  -2.801   1.968  1.00  0.00     0.001 A 
HETATM   12  C22 UNL     1       0.940  -3.843   1.165  1.00  0.00     0.000 A 
HETATM   13  C23 UNL     1       0.569  -3.550  -0.124  1.00  0.00     0.001 A 
HETATM   14  C24 UNL     1       0.574  -2.281  -0.637  1.00  0.00     0.012 A 
HETATM   15  C25 UNL     1       0.147   1.191   0.132  1.00  0.00     0.082 A 
ENDROOT
BRANCH   1  16
HETATM   16  C2  UNL     1      -1.858   0.059   1.049  1.00  0.00     0.147 C 
BRANCH  16  17
HETATM   17  C1  UNL     1      -2.254   0.155   2.513  1.00  0.00     0.194 C 
BRANCH  17  18
HETATM   18  O1  UNL     1      -2.893  -0.970   2.993  1.00  0.00    -0.398 OA
HETATM   19  H1  UNL     1      -2.719  -1.801   2.528  1.00  0.00     0.209 HD
ENDBRANCH  17  18
ENDBRANCH  16  17
BRANCH  16  20
HETATM   20  C3  UNL     1      -3.152   0.101   0.259  1.00  0.00    -0.033 A 
HETATM   21  C4  UNL     1      -2.893   0.313  -1.083  1.00  0.00     0.009 A 
HETATM   22  C5  UNL     1      -3.899   0.400  -2.057  1.00  0.00     0.001 A 
HETATM   23  C6  UNL     1      -5.215   0.270  -1.666  1.00  0.00     0.000 A 
HETATM   24  C7  UNL     1      -5.461   0.061  -0.330  1.00  0.00     0.001 A 
HETATM   25  C8  UNL     1      -4.473  -0.024   0.619  1.00  0.00     0.009 A 
ENDBRANCH  16  20
ENDBRANCH   1  16
BRANCH   7  26
HETATM   26  C13 UNL     1       3.471   0.420  -1.009  1.00  0.00     0.001 A 
HETATM   27  C14 UNL     1       4.369   1.291  -1.447  1.00  0.00     0.014 A 
HETATM   28  C15 UNL     1       5.707   0.967  -1.900  1.00  0.00     0.025 A 
HETATM   29  C16 UNL     1       6.078  -0.285  -1.881  1.00  0.00     0.135 A 
HETATM   30  O3  UNL     1       5.182  -1.211  -1.435  1.00  0.00    -0.358 OA
HETATM   31  C17 UNL     1       3.878  -1.004  -1.000  1.00  0.00     0.216 A 
ENDBRANCH   7  26
TORSDOF 5
