REMARK  5 active torsions:
REMARK  status: ('A' for Active; 'I' for Inactive)
REMARK    1  A    between atoms: O1_1  and  C1_2 
REMARK    2  A    between atoms: C1_2  and  C2_3 
REMARK    3  A    between atoms: C2_3  and  N1_4 
REMARK    4  A    between atoms: C2_3  and  C20_24 
REMARK    5  A    between atoms: N1_4  and  C3_5 
ROOT
HETATM    1  C3  UNL     1       0.074   0.021   0.273  1.00  0.00     0.107 C 
HETATM    2  N2  UNL     1       0.383  -0.747  -0.760  1.00  0.00    -0.229 NA
HETATM    3  C4  UNL     1      -0.332  -0.930  -2.025  1.00  0.00     0.229 C 
HETATM    4  N3  UNL     1      -1.494  -1.203  -2.482  1.00  0.00    -0.278 NA
HETATM    5  C5  UNL     1      -2.833  -1.509  -2.433  1.00  0.00     0.189 C 
HETATM    6  C6  UNL     1      -3.704  -1.473  -1.198  1.00  0.00    -0.024 C 
HETATM    7  C7  UNL     1      -4.530  -1.951  -0.313  1.00  0.00    -0.017 C 
HETATM    8  C8  UNL     1      -4.889  -0.946   0.487  1.00  0.00     0.012 C 
HETATM    9  C9  UNL     1      -4.065  -0.588   1.566  1.00  0.00    -0.002 C 
HETATM   10  C10 UNL     1      -2.963  -0.194   2.291  1.00  0.00    -0.015 C 
HETATM   11  C11 UNL     1      -1.565   0.138   1.831  1.00  0.00     0.007 A 
HETATM   12  C12 UNL     1      -1.665   1.354   1.216  1.00  0.00     0.032 A 
HETATM   13  C13 UNL     1      -2.305   1.868  -0.153  1.00  0.00    -0.003 A 
HETATM   14  C14 UNL     1      -3.115   1.311  -1.166  1.00  0.00     0.038 A 
HETATM   15  C15 UNL     1      -3.281  -0.102  -1.022  1.00  0.00    -0.059 A 
HETATM   16  C16 UNL     1      -2.571   0.662  -0.201  1.00  0.00     0.041 A 
HETATM   17  C17 UNL     1      -1.929   1.733   0.443  1.00  0.00     0.000 A 
HETATM   18  C18 UNL     1      -1.908   3.141   0.100  1.00  0.00    -0.030 A 
HETATM   19  C19 UNL     1      -0.673   0.991   1.216  1.00  0.00     0.076 A 
ENDROOT
BRANCH   1  20
HETATM   20  N1  UNL     1       1.235  -0.331   1.117  1.00  0.00    -0.367 N 
HETATM   21  H5  UNL     1       1.305  -0.050   2.162  1.00  0.00     0.161 HD
BRANCH  20  22
HETATM   22  C2  UNL     1       2.436  -1.074   0.740  1.00  0.00     0.139 C 
BRANCH  22  23
HETATM   23  C1  UNL     1       3.245  -1.282   2.017  1.00  0.00     0.194 C 
BRANCH  23  24
HETATM   24  O1  UNL     1       4.402  -1.976   1.785  1.00  0.00    -0.399 OA
HETATM   25  H1  UNL     1       5.155  -1.323   1.769  1.00  0.00     0.209 HD
ENDBRANCH  23  24
ENDBRANCH  22  23
BRANCH  22  26
HETATM   26  C20 UNL     1       3.267  -0.364  -0.273  1.00  0.00    -0.034 A 
HETATM   27  C21 UNL     1       3.816  -0.967  -1.390  1.00  0.00     0.009 A 
HETATM   28  C22 UNL     1       4.602  -0.276  -2.299  1.00  0.00     0.001 A 
HETATM   29  C23 UNL     1       4.844   1.086  -2.067  1.00  0.00     0.000 A 
HETATM   30  C24 UNL     1       4.272   1.625  -0.944  1.00  0.00     0.001 A 
HETATM   31  C25 UNL     1       3.484   0.979  -0.013  1.00  0.00     0.009 A 
ENDBRANCH  22  26
ENDBRANCH  20  22
ENDBRANCH   1  20
TORSDOF 5
