REMARK  7 active torsions:
REMARK  status: ('A' for Active; 'I' for Inactive)
REMARK    1  A    between atoms: C2_2  and  C3_3 
REMARK    2  A    between atoms: C4_4  and  C5_5 
REMARK    3  A    between atoms: C6_6  and  C7_7 
REMARK    4  A    between atoms: C7_7  and  C8_8 
REMARK    5  A    between atoms: C7_7  and  C9_10 
REMARK    6  A    between atoms: C8_8  and  O1_9 
REMARK    7  A    between atoms: C10_11  and  C11_12 
ROOT
HETATM    1  C9  UNL     1      -0.665   0.720   0.247  1.00  0.00    -0.002 C 
HETATM    2  C10 UNL     1      -1.291  -0.485   0.443  1.00  0.00     0.096 C 
HETATM    3  O2  UNL     1      -2.548  -0.989   0.054  1.00  0.00    -0.290 OA
HETATM    4  C17 UNL     1      -3.256  -0.629  -1.104  1.00  0.00     0.183 A 
HETATM    5  N1  UNL     1      -4.058  -1.588  -1.636  1.00  0.00    -0.217 NA
HETATM    6  C18 UNL     1      -4.776  -1.357  -2.744  1.00  0.00     0.235 A 
HETATM    7  N2  UNL     1      -4.743  -0.157  -3.396  1.00  0.00    -0.253 NA
HETATM    8  C19 UNL     1      -3.948   0.837  -2.893  1.00  0.00     0.134 A 
HETATM    9  C20 UNL     1      -3.228   0.565  -1.754  1.00  0.00     0.046 A 
HETATM   10  C21 UNL     1      -2.472   1.721  -1.373  1.00  0.00    -0.009 A 
HETATM   11  C22 UNL     1      -2.931   2.870  -1.965  1.00  0.00     0.013 A 
HETATM   12  C23 UNL     1      -2.297   4.104  -1.775  1.00  0.00     0.001 A 
HETATM   13  C24 UNL     1      -1.169   4.095  -0.947  1.00  0.00     0.001 A 
HETATM   14  C25 UNL     1      -0.748   2.921  -0.376  1.00  0.00     0.013 A 
HETATM   15  C26 UNL     1      -1.367   1.719  -0.558  1.00  0.00    -0.015 A 
ENDROOT
BRANCH   1  16
HETATM   16  C7  UNL     1       0.650   0.878   0.821  1.00  0.00     0.068 C 
BRANCH  16  17
HETATM   17  C6  UNL     1       1.824   0.636  -0.099  1.00  0.00    -0.015 C 
HETATM   18  C5  UNL     1       2.914   0.039  -0.470  1.00  0.00    -0.003 C 
BRANCH  18  19
HETATM   19  C4  UNL     1       3.736   0.280  -1.647  1.00  0.00    -0.001 C 
HETATM   20  C3  UNL     1       4.678  -0.622  -1.464  1.00  0.00    -0.004 C 
BRANCH  20  21
HETATM   21  C2  UNL     1       4.533  -1.427  -0.267  1.00  0.00    -0.026 C 
HETATM   22  C1  UNL     1       5.416  -2.366   0.024  1.00  0.00     0.031 C 
ENDBRANCH  20  21
ENDBRANCH  18  19
ENDBRANCH  16  17
BRANCH  16  23
HETATM   23  C8  UNL     1       0.940   1.823   1.914  1.00  0.00     0.177 C 
BRANCH  23  24
HETATM   24  O1  UNL     1      -0.122   2.108   2.772  1.00  0.00    -0.400 OA
HETATM   25  H11 UNL     1       0.194   2.475   3.620  1.00  0.00     0.209 HD
ENDBRANCH  23  24
ENDBRANCH  16  23
ENDBRANCH   1  16
BRANCH   2  26
HETATM   26  C11 UNL     1      -0.687  -1.620   1.198  1.00  0.00    -0.002 A 
HETATM   27  C12 UNL     1       0.474  -2.389   1.041  1.00  0.00     0.014 A 
HETATM   28  C13 UNL     1       0.795  -3.365   1.945  1.00  0.00     0.001 A 
HETATM   29  C14 UNL     1       0.018  -3.653   3.043  1.00  0.00     0.000 A 
HETATM   30  C15 UNL     1      -1.139  -2.944   3.268  1.00  0.00     0.001 A 
HETATM   31  C16 UNL     1      -1.448  -1.954   2.337  1.00  0.00     0.014 A 
ENDBRANCH   2  26
TORSDOF 7
