REMARK  10 active torsions:
REMARK  status: ('A' for Active; 'I' for Inactive)
REMARK    1  A    between atoms: C2_3  and  C3_4 
REMARK    2  A    between atoms: C3_4  and  C4_5 
REMARK    3  A    between atoms: C4_5  and  C5_6 
REMARK    4  A    between atoms: C5_6  and  C6_7 
REMARK    5  A    between atoms: C6_7  and  C7_8 
REMARK    6  A    between atoms: C8_9  and  N1_10 
REMARK    7  A    between atoms: N1_10  and  C9_11 
REMARK    8  A    between atoms: C9_11  and  C10_12 
REMARK    9  A    between atoms: C17_21  and  O1_22 
REMARK   10  A    between atoms: O1_22  and  C18_23 
ROOT
HETATM    1  B1  UNL     1       1.749   8.690  -1.080  1.00  0.00     0.195 B 
HETATM    2  C1  UNL     1       1.386   6.816  -0.421  1.00  0.00    -0.236 C 
HETATM    3  C2  UNL     1       1.124   5.494   0.019  1.00  0.00     0.033 C 
ENDROOT
BRANCH   3   4
HETATM    4  C3  UNL     1       0.921   4.865  -1.094  1.00  0.00     0.006 C 
BRANCH   4   5
HETATM    5  C4  UNL     1       0.635   3.483  -0.829  1.00  0.00    -0.003 C 
BRANCH   5   6
HETATM    6  C5  UNL     1       0.351   2.310  -1.287  1.00  0.00    -0.022 C 
BRANCH   6   7
HETATM    7  C6  UNL     1       0.029   0.913  -1.560  1.00  0.00     0.074 C 
BRANCH   7   8
HETATM    8  C7  UNL     1      -0.056   0.108  -0.282  1.00  0.00     0.044 A 
HETATM    9  C8  UNL     1       1.129  -0.256   0.355  1.00  0.00     0.136 A 
HETATM   10  N2  UNL     1       1.108  -0.970   1.489  1.00  0.00    -0.224 NA
HETATM   11  C16 UNL     1      -0.074  -1.330   2.005  1.00  0.00     0.238 A 
HETATM   12  N3  UNL     1      -1.242  -0.986   1.404  1.00  0.00    -0.217 NA
HETATM   13  C17 UNL     1      -1.262  -0.271   0.264  1.00  0.00     0.181 A 
BRANCH   9  14
HETATM   14  N1  UNL     1       2.426   0.085  -0.105  1.00  0.00    -0.370 N 
HETATM   15  H7  UNL     1       2.392   0.656  -0.986  1.00  0.00     0.161 HD
BRANCH  14  16
HETATM   16  C9  UNL     1       3.720  -0.215   0.427  1.00  0.00     0.160 C 
BRANCH  16  17
HETATM   17  C10 UNL     1       4.008  -1.657   0.460  1.00  0.00    -0.041 A 
HETATM   18  C11 UNL     1       4.548  -2.220  -0.695  1.00  0.00     0.009 A 
HETATM   19  C12 UNL     1       4.866  -3.555  -0.775  1.00  0.00     0.001 A 
HETATM   20  C13 UNL     1       4.673  -4.423   0.273  1.00  0.00     0.000 A 
HETATM   21  C14 UNL     1       4.135  -3.874   1.429  1.00  0.00     0.001 A 
HETATM   22  C15 UNL     1       3.824  -2.531   1.487  1.00  0.00     0.009 A 
ENDBRANCH  16  17
ENDBRANCH  14  16
ENDBRANCH   9  14
BRANCH  13  23
HETATM   23  O1  UNL     1      -2.401   0.127  -0.422  1.00  0.00    -0.294 OA
BRANCH  23  24
HETATM   24  C18 UNL     1      -3.684  -0.171  -0.007  1.00  0.00     0.075 C 
HETATM   25  C19 UNL     1      -3.860  -1.448   0.195  1.00  0.00    -0.002 C 
HETATM   26  C20 UNL     1      -5.037  -2.276   0.641  1.00  0.00    -0.022 C 
HETATM   27  B2  UNL     1      -6.148  -2.504  -0.698  1.00  0.00     0.188 B 
HETATM   28  C21 UNL     1      -6.033  -1.119  -2.026  1.00  0.00    -0.089 C 
HETATM   29  C22 UNL     1      -6.416  -0.011  -1.462  1.00  0.00     0.129 C 
HETATM   30  O2  UNL     1      -5.735   0.916  -0.694  1.00  0.00    -0.357 OA
HETATM   31  C23 UNL     1      -4.587   1.020   0.120  1.00  0.00     0.239 C 
ENDBRANCH  23  24
ENDBRANCH  13  23
ENDBRANCH   7   8
ENDBRANCH   6   7
ENDBRANCH   5   6
ENDBRANCH   4   5
ENDBRANCH   3   4
TORSDOF 10
