REMARK  0 active torsions:
REMARK  status: ('A' for Active; 'I' for Inactive)
ROOT
HETATM    1  C1  UNL     1      -2.537   2.481  -2.780  1.00  0.00     0.042 A 
HETATM    2  C2  UNL     1      -1.900   2.192  -1.674  1.00  0.00    -0.018 A 
HETATM    3  C3  UNL     1      -2.198   0.982  -2.615  1.00  0.00     0.017 A 
HETATM    4  C4  UNL     1      -2.105  -0.375  -2.865  1.00  0.00    -0.005 C 
HETATM    5  C5  UNL     1      -1.500  -1.533  -2.107  1.00  0.00    -0.026 C 
HETATM    6  C6  UNL     1      -0.965  -2.383  -1.391  1.00  0.00     0.024 C 
HETATM    7  C7  UNL     1      -0.303  -1.921  -0.053  1.00  0.00     0.140 C 
HETATM    8  C8  UNL     1      -0.073  -3.199   0.701  1.00  0.00     0.228 C 
HETATM    9  O1  UNL     1       0.593  -2.809   1.862  1.00  0.00    -0.355 OA
HETATM   10  C9  UNL     1       1.409  -1.712   1.749  1.00  0.00     0.279 C 
HETATM   11  C10 UNL     1       2.054  -2.042   0.346  1.00  0.00     0.181 C 
HETATM   12  N1  UNL     1       0.991  -1.578  -0.523  1.00  0.00    -0.367 N 
HETATM   13  C11 UNL     1       1.336  -0.385  -1.083  1.00  0.00     0.134 C 
HETATM   14  C12 UNL     1       2.521   0.394  -0.575  1.00  0.00     0.003 C 
HETATM   15  C13 UNL     1       2.549   0.877   0.639  1.00  0.00    -0.002 C 
HETATM   16  C14 UNL     1       2.660   1.440   1.960  1.00  0.00    -0.001 C 
HETATM   17  C15 UNL     1       1.569   1.227   2.788  1.00  0.00     0.015 C 
HETATM   18  C16 UNL     1       0.499   0.488   2.219  1.00  0.00     0.101 C 
HETATM   19  C17 UNL     1      -0.457   1.348   1.428  1.00  0.00     0.012 C 
HETATM   20  C18 UNL     1      -1.380   2.281   1.100  1.00  0.00    -0.021 C 
HETATM   21  C19 UNL     1      -1.886   2.490  -0.352  1.00  0.00     0.033 A 
HETATM   22  C20 UNL     1      -1.004   1.596  -0.530  1.00  0.00     0.013 A 
HETATM   23  P1  UNL     1       0.144   0.826  -1.728  1.00  0.00    -0.082 P 
HETATM   24  C21 UNL     1       1.196   2.305  -2.328  1.00  0.00     0.047 C 
HETATM   25  C22 UNL     1      -0.399  -0.448   2.982  1.00  0.00     0.066 C 
HETATM   26  C23 UNL     1      -1.437  -0.912   1.972  1.00  0.00     0.120 C 
HETATM   27  N2  UNL     1      -1.109  -1.107   0.634  1.00  0.00    -0.392 N 
HETATM   28  O2  UNL     1       1.079  -0.491   1.520  1.00  0.00    -0.341 OA
HETATM   29  H27 UNL     1      -2.041  -0.992   0.103  1.00  0.00     0.156 HD
ENDROOT
TORSDOF 0
