REMARK  4 active torsions:
REMARK  status: ('A' for Active; 'I' for Inactive)
REMARK    1  A    between atoms: C2_2  and  C3_3 
REMARK    2  A    between atoms: C9_12  and  N2_13 
REMARK    3  A    between atoms: N2_13  and  C10_14 
REMARK    4  A    between atoms: C10_14  and  C11_15 
ROOT
HETATM    1  C3  UNL     1       2.465  -0.117  -0.001  1.00  0.00     0.015 A 
HETATM    2  C4  UNL     1       3.557   0.666  -0.285  1.00  0.00     0.143 A 
HETATM    3  C5  UNL     1       4.758   0.451  -0.725  1.00  0.00     0.259 C 
HETATM    4  O1  UNL     1       5.885   0.141  -1.170  1.00  0.00    -0.281 OA
HETATM    5  O2  UNL     1       3.261   1.918  -0.036  1.00  0.00    -0.286 OA
HETATM    6  C6  UNL     1       2.046   2.071   0.401  1.00  0.00     0.183 A 
HETATM    7  N1  UNL     1       1.389   3.183   0.759  1.00  0.00    -0.236 NA
HETATM    8  C7  UNL     1       0.098   3.079   1.192  1.00  0.00     0.122 A 
HETATM    9  C8  UNL     1      -0.434   1.808   1.226  1.00  0.00     0.049 A 
HETATM   10  C9  UNL     1       0.234   0.658   0.860  1.00  0.00     0.045 A 
HETATM   11  C16 UNL     1       1.531   0.797   0.429  1.00  0.00     0.056 A 
ENDROOT
BRANCH   1  12
HETATM   12  C2  UNL     1       2.448  -1.422  -0.149  1.00  0.00    -0.016 C 
HETATM   13  C1  UNL     1       3.671  -2.041  -0.642  1.00  0.00     0.037 C 
ENDBRANCH   1  12
BRANCH  10  14
HETATM   14  N2  UNL     1      -0.428  -0.570   0.966  1.00  0.00    -0.385 N 
HETATM   15  H7  UNL     1       0.118  -1.388   0.714  1.00  0.00     0.160 HD
BRANCH  14  16
HETATM   16  C10 UNL     1      -1.731  -1.039   1.351  1.00  0.00     0.160 C 
BRANCH  16  17
HETATM   17  C11 UNL     1      -2.714  -0.604   0.331  1.00  0.00    -0.023 A 
HETATM   18  C12 UNL     1      -3.594   0.449   0.219  1.00  0.00     0.012 A 
HETATM   19  C13 UNL     1      -4.376   0.586  -0.902  1.00  0.00     0.020 A 
HETATM   20  C14 UNL     1      -4.367  -0.272  -1.980  1.00  0.00     0.116 A 
HETATM   21  N3  UNL     1      -3.508  -1.305  -1.875  1.00  0.00    -0.273 NA
HETATM   22  C15 UNL     1      -2.735  -1.455  -0.786  1.00  0.00     0.124 A 
ENDBRANCH  16  17
ENDBRANCH  14  16
ENDBRANCH  10  14
TORSDOF 4
