REMARK  8 active torsions:
REMARK  status: ('A' for Active; 'I' for Inactive)
REMARK    1  A    between atoms: C7_7  and  C8_8 
REMARK    2  A    between atoms: C8_8  and  O1_9 
REMARK    3  A    between atoms: O1_9  and  C9_10 
REMARK    4  A    between atoms: C9_10  and  N1_11 
REMARK    5  A    between atoms: C10_12  and  C11_13 
REMARK    6  A    between atoms: C12_14  and  N2_15 
REMARK    7  A    between atoms: N2_15  and  C13_16 
REMARK    8  A    between atoms: C13_16  and  C14_17 
ROOT
HETATM    1  N1  UNL     1      -1.353  -1.288   0.133  1.00  0.00    -0.276 NA
HETATM    2  C10 UNL     1      -0.154  -1.603  -0.193  1.00  0.00     0.114 C 
ENDROOT
BRANCH   2   3
HETATM    3  C11 UNL     1       1.092  -0.858  -0.273  1.00  0.00     0.035 C 
HETATM    4  C12 UNL     1       2.152  -1.543  -0.659  1.00  0.00     0.084 C 
BRANCH   4   5
HETATM    5  N2  UNL     1       3.452  -0.993  -0.796  1.00  0.00    -0.394 N 
HETATM    6  H15 UNL     1       4.094  -1.253  -1.606  1.00  0.00     0.159 HD
BRANCH   5   7
HETATM    7  C13 UNL     1       4.010  -0.031   0.160  1.00  0.00     0.159 C 
BRANCH   7   8
HETATM    8  C14 UNL     1       5.376   0.367  -0.186  1.00  0.00    -0.023 A 
HETATM    9  C15 UNL     1       6.366  -0.424   0.363  1.00  0.00     0.012 A 
HETATM   10  C16 UNL     1       7.702  -0.187   0.135  1.00  0.00     0.020 A 
HETATM   11  C17 UNL     1       8.069   0.877  -0.667  1.00  0.00     0.116 A 
HETATM   12  N3  UNL     1       7.086   1.633  -1.190  1.00  0.00    -0.273 NA
HETATM   13  C18 UNL     1       5.770   1.408  -0.972  1.00  0.00     0.124 A 
ENDBRANCH   7   8
ENDBRANCH   5   7
ENDBRANCH   4   5
ENDBRANCH   2   3
BRANCH   1  14
HETATM   14  C9  UNL     1      -1.629   0.077   0.520  1.00  0.00     0.316 C 
BRANCH  14  15
HETATM   15  O1  UNL     1      -2.420   0.102   1.624  1.00  0.00    -0.366 OA
BRANCH  15  16
HETATM   16  C8  UNL     1      -3.654  -0.432   1.581  1.00  0.00     0.209 C 
BRANCH  16  17
HETATM   17  C7  UNL     1      -4.575   0.194   0.644  1.00  0.00    -0.029 A 
HETATM   18  C2  UNL     1      -4.854   0.093  -0.677  1.00  0.00    -0.054 A 
HETATM   19  C1  UNL     1      -4.132  -0.968  -1.395  1.00  0.00     0.049 C 
HETATM   20  C3  UNL     1      -5.759   0.849  -1.374  1.00  0.00     0.007 A 
HETATM   21  C4  UNL     1      -6.492   1.823  -0.727  1.00  0.00     0.001 A 
HETATM   22  C5  UNL     1      -6.270   1.992   0.623  1.00  0.00     0.001 A 
HETATM   23  C6  UNL     1      -5.336   1.190   1.268  1.00  0.00     0.010 A 
ENDBRANCH  16  17
ENDBRANCH  15  16
ENDBRANCH  14  15
ENDBRANCH   1  14
TORSDOF 8
