REMARK  3 active torsions:
REMARK  status: ('A' for Active; 'I' for Inactive)
REMARK    1  A    between atoms: C4_5  and  C5_6 
REMARK    2  A    between atoms: C5_6  and  N2_7 
REMARK    3  A    between atoms: N2_7  and  C6_8 
ROOT
HETATM    1  C6  UNL     1      -0.497  -1.318  -0.131  1.00  0.00     0.045 A 
HETATM    2  C7  UNL     1      -0.218  -2.658  -0.287  1.00  0.00     0.049 A 
HETATM    3  C8  UNL     1      -1.158  -3.650  -0.207  1.00  0.00     0.122 A 
HETATM    4  N3  UNL     1      -2.434  -3.306   0.039  1.00  0.00    -0.236 NA
HETATM    5  C9  UNL     1      -2.792  -2.024   0.204  1.00  0.00     0.183 A 
HETATM    6  O1  UNL     1      -3.928  -1.459   0.444  1.00  0.00    -0.290 OA
HETATM    7  C10 UNL     1      -3.819  -0.154   0.532  1.00  0.00     0.089 A 
HETATM    8  C11 UNL     1      -4.736   0.847   0.770  1.00  0.00     0.038 A 
HETATM    9  C12 UNL     1      -4.330   2.161   0.807  1.00  0.00     0.003 A 
HETATM   10  C13 UNL     1      -2.976   2.448   0.599  1.00  0.00     0.001 A 
HETATM   11  C14 UNL     1      -2.094   1.416   0.364  1.00  0.00     0.015 A 
HETATM   12  C15 UNL     1      -2.497   0.112   0.327  1.00  0.00     0.015 A 
HETATM   13  C16 UNL     1      -1.815  -1.038   0.117  1.00  0.00     0.057 A 
ENDROOT
BRANCH   1  14
HETATM   14  N2  UNL     1       0.553  -0.376  -0.231  1.00  0.00    -0.385 N 
HETATM   15  H6  UNL     1       0.682   0.617  -0.169  1.00  0.00     0.160 HD
BRANCH  14  16
HETATM   16  C5  UNL     1       1.865  -0.868  -0.498  1.00  0.00     0.160 C 
BRANCH  16  17
HETATM   17  C4  UNL     1       2.952   0.090  -0.581  1.00  0.00    -0.023 A 
HETATM   18  C3  UNL     1       3.677   0.435   0.565  1.00  0.00     0.124 A 
HETATM   19  N1  UNL     1       4.693   1.310   0.574  1.00  0.00    -0.273 NA
HETATM   20  C2  UNL     1       5.103   1.930  -0.521  1.00  0.00     0.116 A 
HETATM   21  C1  UNL     1       4.416   1.621  -1.681  1.00  0.00     0.020 A 
HETATM   22  C17 UNL     1       3.364   0.725  -1.727  1.00  0.00     0.012 A 
ENDBRANCH  16  17
ENDBRANCH  14  16
ENDBRANCH   1  14
TORSDOF 3
