REMARK  2 active torsions:
REMARK  status: ('A' for Active; 'I' for Inactive)
REMARK    1  A    between atoms: C4_5  and  N2_6 
REMARK    2  A    between atoms: N2_6  and  C5_7 
ROOT
HETATM    1  C5  UNL     1      -0.155   1.348  -1.011  1.00  0.00     0.049 A 
HETATM    2  C6  UNL     1      -0.395   2.073  -2.173  1.00  0.00     0.050 A 
HETATM    3  C7  UNL     1       0.576   2.240  -3.151  1.00  0.00     0.122 A 
HETATM    4  N3  UNL     1       1.762   1.667  -2.921  1.00  0.00    -0.236 NA
HETATM    5  C8  UNL     1       2.080   0.957  -1.838  1.00  0.00     0.183 A 
HETATM    6  O1  UNL     1       3.147   0.326  -1.413  1.00  0.00    -0.290 OA
HETATM    7  C9  UNL     1       2.920  -0.222  -0.243  1.00  0.00     0.089 A 
HETATM    8  C10 UNL     1       3.697  -0.969   0.601  1.00  0.00     0.038 A 
HETATM    9  C11 UNL     1       3.197  -1.427   1.801  1.00  0.00     0.003 A 
HETATM   10  C12 UNL     1       1.877  -1.125   2.164  1.00  0.00     0.001 A 
HETATM   11  C13 UNL     1       1.104  -0.374   1.309  1.00  0.00     0.015 A 
HETATM   12  C14 UNL     1       1.627   0.065   0.123  1.00  0.00     0.015 A 
HETATM   13  C15 UNL     1       1.097   0.812  -0.892  1.00  0.00     0.057 A 
ENDROOT
BRANCH   1  14
HETATM   14  N2  UNL     1      -1.268   1.302  -0.177  1.00  0.00    -0.354 N 
HETATM   15  H4  UNL     1      -1.518   2.275   0.179  1.00  0.00     0.166 HD
BRANCH  14  16
HETATM   16  C4  UNL     1      -2.183   0.319   0.353  1.00  0.00     0.050 A 
HETATM   17  C3  UNL     1      -3.199   0.579   1.242  1.00  0.00     0.145 A 
HETATM   18  N1  UNL     1      -3.936  -0.483   1.600  1.00  0.00    -0.271 NA
HETATM   19  C2  UNL     1      -3.704  -1.718   1.127  1.00  0.00     0.116 A 
HETATM   20  C1  UNL     1      -2.699  -2.023   0.236  1.00  0.00     0.021 A 
HETATM   21  C16 UNL     1      -1.917  -0.958  -0.158  1.00  0.00     0.032 A 
ENDBRANCH  14  16
ENDBRANCH   1  14
TORSDOF 2
