REMARK  4 active torsions:
REMARK  status: ('A' for Active; 'I' for Inactive)
REMARK    1  A    between atoms: C6_7  and  N2_8 
REMARK    2  A    between atoms: N2_8  and  C7_9 
REMARK    3  A    between atoms: C9_12  and  O1_13 
REMARK    4  A    between atoms: O1_13  and  C10_14 
ROOT
HETATM    1  C7  UNL     1      -0.733   0.388  -1.124  1.00  0.00     0.150 A 
HETATM    2  C8  UNL     1       0.212  -0.066  -2.215  1.00  0.00     0.121 A 
HETATM    3  N3  UNL     1       1.302  -0.648  -1.782  1.00  0.00    -0.239 NA
HETATM    4  C9  UNL     1       1.223  -0.658  -0.344  1.00  0.00     0.167 A 
HETATM    5  C16 UNL     1       0.095  -0.085   0.050  1.00  0.00     0.062 A 
ENDROOT
BRANCH   1   6
HETATM    6  N2  UNL     1      -2.019  -0.201  -1.175  1.00  0.00    -0.376 N 
HETATM    7  H7  UNL     1      -1.938  -0.874  -1.995  1.00  0.00     0.160 HD
BRANCH   6   8
HETATM    8  C6  UNL     1      -3.284  -0.214  -0.569  1.00  0.00     0.053 A 
HETATM    9  C2  UNL     1      -3.634   0.583   0.498  1.00  0.00     0.056 A 
HETATM   10  C1  UNL     1      -2.702   1.542   1.094  1.00  0.00     0.072 C 
HETATM   11  N1  UNL     1      -4.863   0.496   1.017  1.00  0.00    -0.264 NA
HETATM   12  C3  UNL     1      -5.782  -0.335   0.547  1.00  0.00     0.117 A 
HETATM   13  C4  UNL     1      -5.512  -1.159  -0.511  1.00  0.00     0.022 A 
HETATM   14  C5  UNL     1      -4.254  -1.082  -1.055  1.00  0.00     0.033 A 
ENDBRANCH   6   8
ENDBRANCH   1   6
BRANCH   4  15
HETATM   15  O1  UNL     1       2.335  -1.257   0.220  1.00  0.00    -0.291 OA
BRANCH  15  16
HETATM   16  C10 UNL     1       3.569  -0.619   0.307  1.00  0.00     0.099 A 
HETATM   17  C11 UNL     1       3.760   0.653  -0.166  1.00  0.00     0.039 A 
HETATM   18  C12 UNL     1       4.983   1.309  -0.089  1.00  0.00     0.003 A 
HETATM   19  C13 UNL     1       6.045   0.624   0.497  1.00  0.00     0.002 A 
HETATM   20  C14 UNL     1       5.875  -0.663   0.981  1.00  0.00     0.026 A 
HETATM   21  C15 UNL     1       4.638  -1.290   0.889  1.00  0.00     0.068 A 
HETATM   22 CL1  UNL     1       4.449  -2.907   1.505  1.00  0.00    -0.081 Cl
ENDBRANCH  15  16
ENDBRANCH   4  15
TORSDOF 4
