REMARK  2 active torsions:
REMARK  status: ('A' for Active; 'I' for Inactive)
REMARK    1  A    between atoms: C3_4  and  C4_5 
REMARK    2  A    between atoms: C5_6  and  C6_7 
ROOT
HETATM    1  C6  UNL     1      -0.850  -1.341  -0.146  1.00  0.00     0.094 C 
HETATM    2  N1  UNL     1      -0.141  -2.461  -0.001  1.00  0.00    -0.176 NA
HETATM    3  N2  UNL     1       1.223  -2.189   0.290  1.00  0.00    -0.290 N 
HETATM    4  C7  UNL     1       2.618  -1.807   0.041  1.00  0.00     0.316 C 
HETATM    5  O1  UNL     1       3.314  -1.762   1.270  1.00  0.00    -0.343 OA
HETATM    6  C8  UNL     1       4.441  -0.998   1.385  1.00  0.00     0.133 C 
HETATM    7  C9  UNL     1       5.137   0.117   1.368  1.00  0.00     0.005 C 
HETATM    8  C10 UNL     1       3.999   0.957   1.031  1.00  0.00     0.098 C 
HETATM    9  C11 UNL     1       3.669   2.244   0.794  1.00  0.00     0.049 A 
HETATM   10 BR2  UNL     1       3.115   4.016   0.447  1.00  0.00    -0.110 Br
HETATM   11  C12 UNL     1       2.320   1.924   0.529  1.00  0.00     0.058 A 
HETATM   12  C13 UNL     1       1.226   1.646   0.305  1.00  0.00    -0.001 C 
HETATM   13  N3  UNL     1      -0.048   1.297   0.041  1.00  0.00    -0.215 NA
HETATM   14  C14 UNL     1      -0.482   0.103  -0.059  1.00  0.00     0.160 C 
HETATM   15  H7  UNL     1       0.951  -2.445   1.274  1.00  0.00     0.184 HD
ENDROOT
BRANCH   1  16
HETATM   16  C5  UNL     1      -2.227  -1.565  -0.439  1.00  0.00     0.035 C 
HETATM   17  C4  UNL     1      -3.219  -0.723  -0.647  1.00  0.00     0.003 C 
BRANCH  17  18
HETATM   18  C3  UNL     1      -3.708   0.640  -0.747  1.00  0.00     0.014 C 
HETATM   19  C2  UNL     1      -4.623   1.567  -0.939  1.00  0.00    -0.015 C 
HETATM   20  C1  UNL     1      -5.999   1.066  -1.233  1.00  0.00     0.056 C 
HETATM   21 BR1  UNL     1      -4.165   3.409  -0.836  1.00  0.00    -0.056 Br
ENDBRANCH  17  18
ENDBRANCH   1  16
TORSDOF 2
