REMARK  7 active torsions:
REMARK  status: ('A' for Active; 'I' for Inactive)
REMARK    1  A    between atoms: C8_8  and  C9_9 
REMARK    2  A    between atoms: C9_9  and  N1_10 
REMARK    3  A    between atoms: N1_10  and  C10_11 
REMARK    4  A    between atoms: C10_11  and  C11_12 
REMARK    5  A    between atoms: C12_13  and  N2_14 
REMARK    6  A    between atoms: N2_14  and  C13_15 
REMARK    7  A    between atoms: C13_15  and  C14_16 
ROOT
HETATM    1  C10 UNL     1      -0.245  -1.270   0.010  1.00  0.00     0.317 C 
ENDROOT
BRANCH   1   2
HETATM    2  N1  UNL     1      -1.401  -1.838  -0.020  1.00  0.00    -0.432 NA
BRANCH   2   3
HETATM    3  C9  UNL     1      -2.400  -1.451  -0.994  1.00  0.00     0.169 C 
BRANCH   3   4
HETATM    4  C8  UNL     1      -3.701  -1.230  -0.288  1.00  0.00     0.084 A 
HETATM    5  C7  UNL     1      -4.631  -0.330  -0.036  1.00  0.00     0.039 A 
HETATM    6  C2  UNL     1      -5.033   0.994  -0.244  1.00  0.00    -0.030 A 
HETATM    7  C6  UNL     1      -5.386  -1.207   0.715  1.00  0.00     0.089 A 
HETATM    8  C1  UNL     1      -4.290   1.807  -0.966  1.00  0.00     0.024 C 
HETATM    9  C3  UNL     1      -6.217   1.410   0.325  1.00  0.00     0.011 A 
HETATM   10  C4  UNL     1      -6.952   0.512   1.070  1.00  0.00     0.004 A 
HETATM   11  C5  UNL     1      -6.573  -0.796   1.287  1.00  0.00     0.038 A 
HETATM   12  O1  UNL     1      -4.399  -2.172   0.450  1.00  0.00    -0.311 OA
ENDBRANCH   3   4
ENDBRANCH   2   3
ENDBRANCH   1   2
BRANCH   1  13
HETATM   13  C11 UNL     1       1.112  -0.795   0.252  1.00  0.00     0.019 C 
HETATM   14  C12 UNL     1       1.949  -1.221   1.178  1.00  0.00     0.081 C 
BRANCH  14  15
HETATM   15  N2  UNL     1       3.123  -0.441   0.989  1.00  0.00    -0.395 N 
HETATM   16  H11 UNL     1       3.290   0.264   1.764  1.00  0.00     0.159 HD
BRANCH  15  17
HETATM   17  C13 UNL     1       3.891  -0.725  -0.206  1.00  0.00     0.159 C 
BRANCH  17  18
HETATM   18  C14 UNL     1       5.085   0.149  -0.288  1.00  0.00    -0.023 A 
HETATM   19  C15 UNL     1       5.098   1.376  -0.904  1.00  0.00     0.012 A 
HETATM   20  C16 UNL     1       6.249   2.134  -0.941  1.00  0.00     0.020 A 
HETATM   21  C17 UNL     1       7.385   1.650  -0.354  1.00  0.00     0.116 A 
HETATM   22  N3  UNL     1       7.407   0.435   0.266  1.00  0.00    -0.273 NA
HETATM   23  C18 UNL     1       6.269  -0.284   0.287  1.00  0.00     0.124 A 
ENDBRANCH  17  18
ENDBRANCH  15  17
ENDBRANCH  14  15
ENDBRANCH   1  13
TORSDOF 7
