REMARK  5 active torsions:
REMARK  status: ('A' for Active; 'I' for Inactive)
REMARK    1  A    between atoms: N1_1  and  C1_2 
REMARK    2  A    between atoms: C6_7  and  C7_8 
REMARK    3  A    between atoms: C9_10  and  C10_11 
REMARK    4  A    between atoms: C10_11  and  C11_12 
REMARK    5  A    between atoms: C18_20  and  N2_21 
ROOT
HETATM    1  C7  UNL     1      -1.181  -0.383   0.094  1.00  0.00    -0.009 A 
HETATM    2  C8  UNL     1       0.044  -0.443  -0.405  1.00  0.00     0.017 A 
HETATM    3  C9  UNL     1       0.883  -1.425   0.253  1.00  0.00    -0.055 A 
HETATM    4  C17 UNL     1       0.105  -1.959   1.177  1.00  0.00     0.020 A 
HETATM    5  C18 UNL     1      -1.276  -1.376   1.193  1.00  0.00     0.275 A 
ENDROOT
BRANCH   1   6
HETATM    6  C6  UNL     1      -2.172   0.529  -0.417  1.00  0.00    -0.001 A 
HETATM    7  C1  UNL     1      -3.430   0.583   0.096  1.00  0.00     0.036 A 
HETATM    8  C2  UNL     1      -4.432   1.446  -0.357  1.00  0.00     0.030 A 
HETATM    9  C3  UNL     1      -4.157   2.310  -1.391  1.00  0.00     0.002 A 
HETATM   10  C4  UNL     1      -2.893   2.269  -1.922  1.00  0.00     0.001 A 
HETATM   11  C5  UNL     1      -1.943   1.398  -1.437  1.00  0.00     0.014 A 
BRANCH   7  12
HETATM   12  N1  UNL     1      -3.870  -0.242   1.165  1.00  0.00    -0.398 N 
HETATM   13  H1  UNL     1      -4.533  -0.971   0.762  1.00  0.00     0.156 HD
HETATM   14  H2  UNL     1      -3.841  -0.463   2.181  1.00  0.00     0.156 HD
ENDBRANCH   7  12
ENDBRANCH   1   6
BRANCH   5  15
HETATM   15  N2  UNL     1      -2.160  -2.441   0.816  1.00  0.00     0.090 N 
HETATM   16  H16 UNL     1      -1.792  -3.387   1.065  1.00  0.00     0.314 HD
HETATM   17  H17 UNL     1      -2.290  -2.474  -0.224  1.00  0.00     0.314 HD
ENDBRANCH   5  15
BRANCH   3  18
HETATM   18  C10 UNL     1       2.297  -1.768  -0.034  1.00  0.00     0.076 C 
BRANCH  18  19
HETATM   19  C11 UNL     1       3.199  -0.601   0.133  1.00  0.00    -0.054 A 
HETATM   20  C12 UNL     1       3.422   0.205  -0.979  1.00  0.00     0.009 A 
HETATM   21  C13 UNL     1       4.238   1.314  -0.950  1.00  0.00     0.024 A 
HETATM   22  C14 UNL     1       4.835   1.591   0.265  1.00  0.00     0.034 A 
HETATM   23 CL1  UNL     1       5.883   2.971   0.407  1.00  0.00    -0.084 Cl
HETATM   24  C15 UNL     1       4.655   0.828   1.416  1.00  0.00     0.024 A 
HETATM   25  C16 UNL     1       3.827  -0.272   1.326  1.00  0.00     0.009 A 
ENDBRANCH  18  19
ENDBRANCH   3  18
TORSDOF 5
