REMARK  4 active torsions:
REMARK  status: ('A' for Active; 'I' for Inactive)
REMARK    1  A    between atoms: O1_1  and  C1_2 
REMARK    2  A    between atoms: C6_7  and  C7_8 
REMARK    3  A    between atoms: C11_13  and  C12_14 
REMARK    4  A    between atoms: C12_14  and  C13_15 
ROOT
HETATM    1  C7  UNL     1      -1.360  -0.872  -0.353  1.00  0.00     0.001 A 
HETATM    2  C8  UNL     1      -2.075  -1.791  -1.130  1.00  0.00     0.129 A 
HETATM    3  N1  UNL     1      -1.353  -2.717  -1.769  1.00  0.00    -0.272 NA
HETATM    4  C9  UNL     1      -0.011  -2.744  -1.656  1.00  0.00     0.116 A 
HETATM    5  C10 UNL     1       0.738  -1.846  -0.892  1.00  0.00     0.027 A 
HETATM    6  C11 UNL     1       0.011  -0.877  -0.220  1.00  0.00    -0.040 A 
ENDROOT
BRANCH   1   7
HETATM    7  C6  UNL     1      -2.120   0.153   0.358  1.00  0.00     0.009 A 
HETATM    8  C1  UNL     1      -2.294   1.299  -0.396  1.00  0.00     0.076 A 
HETATM    9  C2  UNL     1      -2.993   2.377   0.122  1.00  0.00     0.037 A 
HETATM   10  C3  UNL     1      -3.532   2.334   1.400  1.00  0.00     0.003 A 
HETATM   11  C4  UNL     1      -3.345   1.178   2.133  1.00  0.00     0.001 A 
HETATM   12  C5  UNL     1      -2.651   0.096   1.631  1.00  0.00     0.015 A 
BRANCH   8  13
HETATM   13  O1  UNL     1      -1.833   1.541  -1.695  1.00  0.00    -0.360 OA
HETATM   14  H1  UNL     1      -0.827   1.665  -1.848  1.00  0.00     0.217 HD
ENDBRANCH   8  13
ENDBRANCH   1   7
BRANCH   6  15
HETATM   15  C12 UNL     1       0.661   0.139   0.624  1.00  0.00     0.079 C 
BRANCH  15  16
HETATM   16  C13 UNL     1       2.127  -0.077   0.604  1.00  0.00    -0.036 A 
HETATM   17  C14 UNL     1       2.870   0.578  -0.381  1.00  0.00     0.010 A 
HETATM   18  C15 UNL     1       4.238   0.476  -0.526  1.00  0.00     0.020 A 
HETATM   19  C16 UNL     1       4.874  -0.339   0.386  1.00  0.00     0.116 A 
HETATM   20  N2  UNL     1       4.190  -0.984   1.347  1.00  0.00    -0.273 NA
HETATM   21  C17 UNL     1       2.848  -0.869   1.469  1.00  0.00     0.123 A 
ENDBRANCH  15  16
ENDBRANCH   6  15
TORSDOF 4
