REMARK  1 active torsions:
REMARK  status: ('A' for Active; 'I' for Inactive)
REMARK    1  A    between atoms: N1_3  and  C3_4 
ROOT
HETATM    1  C3  UNL     1       2.216  -0.698   1.024  1.00  0.00     0.070 A 
HETATM    2  C4  UNL     1       1.493   0.455   0.615  1.00  0.00     0.010 A 
HETATM    3  C5  UNL     1       0.647   1.603   0.320  1.00  0.00     0.009 A 
HETATM    4  C6  UNL     1       1.308   2.669  -0.186  1.00  0.00     0.015 A 
HETATM    5  C7  UNL     1       0.722   3.861  -0.548  1.00  0.00     0.001 A 
HETATM    6  C8  UNL     1      -0.643   3.953  -0.374  1.00  0.00     0.003 A 
HETATM    7  C9  UNL     1      -1.311   2.853   0.147  1.00  0.00     0.038 A 
HETATM    8  C10 UNL     1      -0.717   1.639   0.517  1.00  0.00     0.087 A 
HETATM    9  O1  UNL     1      -1.722   0.826   0.981  1.00  0.00    -0.309 OA
HETATM   10  C11 UNL     1      -2.338  -0.228   0.384  1.00  0.00     0.085 A 
HETATM   11  C12 UNL     1      -3.708   0.005   0.280  1.00  0.00     0.061 A 
HETATM   12  C13 UNL     1      -4.583  -0.922  -0.295  1.00  0.00     0.036 A 
HETATM   13 CL1  UNL     1      -6.305  -0.672  -0.447  1.00  0.00    -0.084 Cl
HETATM   14  C14 UNL     1      -4.082  -2.101  -0.774  1.00  0.00     0.024 A 
HETATM   15  C15 UNL     1      -2.751  -2.358  -0.687  1.00  0.00     0.013 A 
HETATM   16  C16 UNL     1      -1.898  -1.461  -0.130  1.00  0.00    -0.007 A 
HETATM   17  C17 UNL     1      -0.441  -1.340   0.137  1.00  0.00     0.156 C 
HETATM   18  N2  UNL     1      -0.196  -0.998   1.511  1.00  0.00    -0.404 N 
HETATM   19  C18 UNL     1       1.039  -0.330   1.738  1.00  0.00     0.166 A 
HETATM   20  H14 UNL     1      -0.497  -1.671   2.199  1.00  0.00     0.154 HD
ENDROOT
BRANCH   1  21
HETATM   21  N1  UNL     1       3.373  -1.442   0.673  1.00  0.00    -0.267 NA
HETATM   22  C2  UNL     1       4.178  -1.143  -0.287  1.00  0.00     0.085 C 
HETATM   23  C1  UNL     1       5.277  -2.164  -0.344  1.00  0.00     0.057 C 
ENDBRANCH   1  21
TORSDOF 1
