REMARK  8 active torsions:
REMARK  status: ('A' for Active; 'I' for Inactive)
REMARK    1  A    between atoms: N1_1  and  C1_2 
REMARK    2  A    between atoms: C2_3  and  C3_4 
REMARK    3  A    between atoms: C4_5  and  C5_6 
REMARK    4  A    between atoms: C6_7  and  O1_8 
REMARK    5  A    between atoms: O1_8  and  C7_9 
REMARK    6  A    between atoms: C9_11  and  N2_12 
REMARK    7  A    between atoms: N2_12  and  C10_13 
REMARK    8  A    between atoms: C10_13  and  C11_14 
ROOT
HETATM    1  C7  UNL     1       0.335   0.921   0.341  1.00  0.00     0.058 A 
HETATM    2  C8  UNL     1      -0.241   0.204   1.322  1.00  0.00     0.061 A 
HETATM    3  C9  UNL     1      -1.625   0.694   1.482  1.00  0.00     0.027 A 
HETATM    4  C17 UNL     1      -1.821   1.668   0.608  1.00  0.00     0.009 A 
HETATM    5  C18 UNL     1      -0.624   1.925  -0.207  1.00  0.00     0.094 A 
ENDROOT
BRANCH   1   6
HETATM    6  O1  UNL     1       1.631   0.851  -0.196  1.00  0.00    -0.327 OA
BRANCH   6   7
HETATM    7  C6  UNL     1       2.737   0.654   0.651  1.00  0.00     0.142 C 
HETATM    8  C5  UNL     1       3.644   0.192  -0.231  1.00  0.00     0.024 C 
BRANCH   8   9
HETATM    9  C4  UNL     1       3.760  -0.120  -1.672  1.00  0.00    -0.002 C 
HETATM   10  C3  UNL     1       4.701  -0.588  -2.524  1.00  0.00    -0.019 C 
BRANCH  10  11
HETATM   11  C2  UNL     1       5.736  -0.732  -1.518  1.00  0.00     0.117 C 
HETATM   12  C1  UNL     1       6.986  -1.142  -1.539  1.00  0.00     0.202 C 
BRANCH  12  13
HETATM   13  N1  UNL     1       7.300  -0.976  -0.135  1.00  0.00     0.079 NA
HETATM   14  H1  UNL     1       6.948  -0.680   0.817  1.00  0.00     0.312 HD
HETATM   15  H2  UNL     1       6.919  -0.672   0.811  1.00  0.00     0.312 HD
ENDBRANCH  12  13
ENDBRANCH  10  11
ENDBRANCH   8   9
ENDBRANCH   6   7
ENDBRANCH   1   6
BRANCH   3  16
HETATM   16  N2  UNL     1      -2.488   0.116   2.459  1.00  0.00    -0.386 N 
HETATM   17  H10 UNL     1      -2.583   0.380   3.476  1.00  0.00     0.160 HD
BRANCH  16  18
HETATM   18  C10 UNL     1      -3.340  -0.967   1.998  1.00  0.00     0.158 C 
BRANCH  18  19
HETATM   19  C11 UNL     1      -4.201  -0.426   0.913  1.00  0.00    -0.041 A 
HETATM   20  C12 UNL     1      -5.440   0.140   1.185  1.00  0.00     0.010 A 
HETATM   21  C13 UNL     1      -6.200   0.626   0.153  1.00  0.00     0.024 A 
HETATM   22  C14 UNL     1      -5.808   0.590  -1.176  1.00  0.00     0.034 A 
HETATM   23 CL1  UNL     1      -6.769   1.207  -2.501  1.00  0.00    -0.084 Cl
HETATM   24  C15 UNL     1      -4.572   0.027  -1.467  1.00  0.00     0.024 A 
HETATM   25  C16 UNL     1      -3.823  -0.456  -0.414  1.00  0.00     0.010 A 
ENDBRANCH  18  19
ENDBRANCH  16  18
ENDBRANCH   3  16
TORSDOF 8
