REMARK  2 active torsions:
REMARK  status: ('A' for Active; 'I' for Inactive)
REMARK    1  A    between atoms: C2_2  and  C3_3 
REMARK    2  A    between atoms: C2_2  and  C11_14 
ROOT
HETATM    1  C3  UNL     1      -0.216  -0.399  -0.698  1.00  0.00     0.034 C 
HETATM    2  C4  UNL     1      -0.970  -1.104   0.210  1.00  0.00     0.034 C 
HETATM    3  C5  UNL     1      -2.397  -0.752   0.516  1.00  0.00    -0.054 C 
HETATM    4  C6  UNL     1      -2.866  -0.849   1.789  1.00  0.00     0.008 C 
HETATM    5  C7  UNL     1      -3.524   0.489   2.112  1.00  0.00     0.017 C 
HETATM    6  C8  UNL     1      -3.473   1.414   1.095  1.00  0.00     0.013 C 
HETATM    7 BR1  UNL     1      -4.178   3.027   1.887  1.00  0.00    -0.053 Br
HETATM    8  C9  UNL     1      -2.993   1.295  -0.349  1.00  0.00     0.143 C 
HETATM    9  C10 UNL     1      -3.310  -0.192  -0.605  1.00  0.00     0.070 C 
HETATM   10  N1  UNL     1      -1.722   1.713  -0.643  1.00  0.00    -0.326 N 
HETATM   11  N2  UNL     1      -0.722   0.895  -1.208  1.00  0.00    -0.308 N 
HETATM   12  H11 UNL     1      -1.339   2.375   0.065  1.00  0.00     0.181 HD
HETATM   13  H12 UNL     1      -0.154   1.070  -2.093  1.00  0.00     0.186 HD
ENDROOT
BRANCH   1  14
HETATM   14  C2  UNL     1       1.015  -1.074  -0.994  1.00  0.00     0.066 C 
HETATM   15  C1  UNL     1       1.125  -2.414  -0.315  1.00  0.00     0.021 C 
BRANCH  14  16
HETATM   16  C11 UNL     1       2.239  -0.275  -0.712  1.00  0.00    -0.047 A 
HETATM   17  C12 UNL     1       2.464   0.146   0.596  1.00  0.00     0.008 A 
HETATM   18  C13 UNL     1       3.579   0.897   0.959  1.00  0.00     0.002 A 
HETATM   19  C14 UNL     1       4.459   1.202  -0.071  1.00  0.00     0.019 A 
HETATM   20  C15 UNL     1       4.287   0.811  -1.388  1.00  0.00     0.011 A 
HETATM   21 BR2  UNL     1       5.488   1.230  -2.779  1.00  0.00    -0.051 Br
HETATM   22  C16 UNL     1       3.158   0.069  -1.667  1.00  0.00     0.027 A 
ENDBRANCH  14  16
ENDBRANCH   1  14
TORSDOF 2
