REMARK  5 active torsions:
REMARK  status: ('A' for Active; 'I' for Inactive)
REMARK    1  A    between atoms: C1_2  and  C2_3 
REMARK    2  A    between atoms: C4_5  and  C5_6 
REMARK    3  A    between atoms: C5_6  and  N1_7 
REMARK    4  A    between atoms: N1_7  and  C6_8 
REMARK    5  A    between atoms: C6_8  and  C7_9 
ROOT
HETATM    1  C7  UNL     1       1.614  -1.521   0.048  1.00  0.00     0.013 A 
HETATM    2  C8  UNL     1       1.362  -2.926  -0.211  1.00  0.00     0.152 A 
HETATM    3  N2  UNL     1       2.356  -3.716  -0.539  1.00  0.00    -0.184 NA
HETATM    4  N3  UNL     1       3.670  -3.227  -0.647  1.00  0.00    -0.256 N 
HETATM    5  C9  UNL     1       3.934  -1.852  -0.396  1.00  0.00     0.176 A 
HETATM    6  O1  UNL     1       5.054  -1.184  -0.433  1.00  0.00    -0.291 OA
HETATM    7  C10 UNL     1       4.895   0.071  -0.138  1.00  0.00     0.089 A 
HETATM    8  C11 UNL     1       5.655   1.211  -0.016  1.00  0.00     0.038 A 
HETATM    9  C12 UNL     1       5.145   2.449   0.332  1.00  0.00     0.003 A 
HETATM   10  C13 UNL     1       3.765   2.528   0.570  1.00  0.00     0.001 A 
HETATM   11  C14 UNL     1       2.955   1.420   0.462  1.00  0.00     0.015 A 
HETATM   12  C15 UNL     1       3.548   0.235   0.114  1.00  0.00     0.013 A 
HETATM   13  C16 UNL     1       2.936  -0.973  -0.047  1.00  0.00     0.043 A 
HETATM   14  H9  UNL     1       4.483  -3.837  -0.905  1.00  0.00     0.191 HD
ENDROOT
BRANCH   1  15
HETATM   15  C6  UNL     1       0.559  -0.872   0.358  1.00  0.00     0.097 C 
BRANCH  15  16
HETATM   16  N1  UNL     1      -0.775  -0.600   0.633  1.00  0.00    -0.394 N 
HETATM   17  H6  UNL     1      -1.284  -0.317   1.510  1.00  0.00     0.159 HD
BRANCH  16  18
HETATM   18  C5  UNL     1      -1.669  -0.782  -0.520  1.00  0.00     0.157 C 
BRANCH  18  19
HETATM   19  C4  UNL     1      -2.982  -0.124  -0.300  1.00  0.00    -0.044 A 
HETATM   20  C3  UNL     1      -4.083  -0.151  -1.250  1.00  0.00     0.012 A 
HETATM   21  C2  UNL     1      -5.087   0.562  -0.714  1.00  0.00    -0.062 A 
HETATM   22  C18 UNL     1      -4.724   1.112   0.630  1.00  0.00     0.063 A 
HETATM   23  C17 UNL     1      -3.338   0.582   0.756  1.00  0.00    -0.014 A 
BRANCH  21  24
HETATM   24  C1  UNL     1      -6.455   0.880  -1.225  1.00  0.00     0.149 C 
HETATM   25 CL1  UNL     1      -6.623   2.658  -1.374  1.00  0.00    -0.126 Cl
ENDBRANCH  21  24
ENDBRANCH  18  19
ENDBRANCH  16  18
ENDBRANCH  15  16
ENDBRANCH   1  15
TORSDOF 5
