REMARK  3 active torsions:
REMARK  status: ('A' for Active; 'I' for Inactive)
REMARK    1  A    between atoms: C4_5  and  C5_6 
REMARK    2  A    between atoms: C5_6  and  N1_7 
REMARK    3  A    between atoms: N1_7  and  C6_8 
ROOT
HETATM    1  C6  UNL     1      -0.339   0.873  -0.819  1.00  0.00     0.045 A 
HETATM    2  C7  UNL     1      -0.221   1.884  -1.745  1.00  0.00     0.049 A 
HETATM    3  C8  UNL     1      -1.277   2.476  -2.394  1.00  0.00     0.122 A 
HETATM    4  N2  UNL     1      -2.508   2.032  -2.098  1.00  0.00    -0.236 NA
HETATM    5  C9  UNL     1      -2.725   1.054  -1.212  1.00  0.00     0.183 A 
HETATM    6  O1  UNL     1      -3.808   0.475  -0.778  1.00  0.00    -0.290 OA
HETATM    7  C10 UNL     1      -3.543  -0.453   0.108  1.00  0.00     0.089 A 
HETATM    8  C11 UNL     1      -4.338  -1.305   0.823  1.00  0.00     0.038 A 
HETATM    9  C12 UNL     1      -3.779  -2.199   1.705  1.00  0.00     0.003 A 
HETATM   10  C13 UNL     1      -2.386  -2.210   1.847  1.00  0.00     0.001 A 
HETATM   11  C14 UNL     1      -1.612  -1.339   1.112  1.00  0.00     0.015 A 
HETATM   12  C15 UNL     1      -2.174  -0.455   0.239  1.00  0.00     0.015 A 
HETATM   13  C16 UNL     1      -1.631   0.492  -0.588  1.00  0.00     0.057 A 
ENDROOT
BRANCH   1  14
HETATM   14  N1  UNL     1       0.826   0.347  -0.221  1.00  0.00    -0.385 N 
HETATM   15  H4  UNL     1       1.065  -0.370   0.467  1.00  0.00     0.160 HD
BRANCH  14  16
HETATM   16  C5  UNL     1       2.086   0.909  -0.623  1.00  0.00     0.158 C 
BRANCH  16  17
HETATM   17  C4  UNL     1       3.273   0.338   0.019  1.00  0.00    -0.038 C 
HETATM   18  C3  UNL     1       3.523  -1.105  -0.169  1.00  0.00     0.023 C 
HETATM   19  C2  UNL     1       4.528  -1.431   0.627  1.00  0.00    -0.002 C 
HETATM   20  C1  UNL     1       5.173  -0.376   1.096  1.00  0.00     0.045 C 
HETATM   21 CL1  UNL     1       6.705  -0.146   1.912  1.00  0.00    -0.083 Cl
HETATM   22  C17 UNL     1       4.289   0.755   0.790  1.00  0.00     0.033 C 
ENDBRANCH  16  17
ENDBRANCH  14  16
ENDBRANCH   1  14
TORSDOF 3
