REMARK  0 active torsions:
REMARK  status: ('A' for Active; 'I' for Inactive)
ROOT
HETATM    1  C1  UNL     1       1.691   3.042   1.356  1.00  0.00     0.199 C 
HETATM    2  C2  UNL     1       0.366   2.705   1.382  1.00  0.00     0.057 C 
HETATM    3  C3  UNL     1      -0.676   1.631   1.400  1.00  0.00     0.036 C 
HETATM    4  C4  UNL     1      -2.042   1.753   1.372  1.00  0.00     0.027 C 
HETATM    5  C5  UNL     1      -3.170   1.615   0.645  1.00  0.00     0.002 C 
HETATM    6  C6  UNL     1      -3.709   0.437   0.073  1.00  0.00     0.000 C 
HETATM    7  C7  UNL     1      -4.287  -0.761  -0.459  1.00  0.00     0.003 C 
HETATM    8  C8  UNL     1      -3.357  -1.897  -0.314  1.00  0.00     0.037 C 
HETATM    9  C9  UNL     1      -2.090  -1.388  -0.395  1.00  0.00     0.082 A 
HETATM   10  C10 UNL     1      -0.900  -1.143  -0.950  1.00  0.00     0.044 A 
HETATM   11  C11 UNL     1      -0.600  -0.410   0.222  1.00  0.00     0.246 A 
HETATM   12  N1  UNL     1      -0.500   0.249   1.422  1.00  0.00    -0.246 NA
HETATM   13  O1  UNL     1      -1.842  -0.704   0.747  1.00  0.00    -0.308 OA
HETATM   14  C12 UNL     1       0.111  -1.187  -2.000  1.00  0.00     0.312 C 
HETATM   15  N2  UNL     1       1.136  -2.116  -2.059  1.00  0.00     0.091 NA
HETATM   16  C13 UNL     1       2.052  -2.352  -1.017  1.00  0.00     0.308 C 
HETATM   17  C14 UNL     1       2.515  -1.091  -0.341  1.00  0.00    -0.030 A 
HETATM   18  C15 UNL     1       2.673  -0.114  -1.282  1.00  0.00     0.011 A 
HETATM   19  C16 UNL     1       2.847   1.157  -0.793  1.00  0.00     0.037 A 
HETATM   20  C17 UNL     1       2.809   1.044   0.556  1.00  0.00     0.069 A 
HETATM   21  C18 UNL     1       2.672   0.138   1.566  1.00  0.00     0.037 A 
HETATM   22  C19 UNL     1       2.499  -1.113   1.032  1.00  0.00     0.011 A 
HETATM   23  O2  UNL     1       2.909   2.259   1.332  1.00  0.00    -0.343 OA
HETATM   24  H10 UNL     1       0.785  -3.046  -2.392  1.00  0.00     0.316 HD
ENDROOT
TORSDOF 0
