REMARK  4 active torsions:
REMARK  status: ('A' for Active; 'I' for Inactive)
REMARK    1  A    between atoms: C4_4  and  N1_5 
REMARK    2  A    between atoms: N1_5  and  C5_6 
REMARK    3  A    between atoms: C11_12  and  P1_13 
REMARK    4  A    between atoms: P1_13  and  C12_14 
ROOT
HETATM    1  C5  UNL     1      -0.646   0.499   0.920  1.00  0.00     0.042 A 
HETATM    2  C6  UNL     1      -1.274   0.553   2.087  1.00  0.00     0.010 A 
HETATM    3  C7  UNL     1      -0.394  -0.007   3.167  1.00  0.00     0.095 A 
HETATM    4  C8  UNL     1       0.826  -0.379   2.402  1.00  0.00     0.063 A 
HETATM    5  C9  UNL     1       0.671  -0.087   1.124  1.00  0.00     0.028 A 
HETATM    6  C10 UNL     1       1.928  -0.492   0.458  1.00  0.00    -0.018 C 
HETATM    7  C11 UNL     1       2.228  -0.290  -0.811  1.00  0.00     0.018 C 
HETATM    8  C15 UNL     1       2.777  -1.159   1.465  1.00  0.00     0.215 C 
HETATM    9  O1  UNL     1       2.054  -0.938   2.661  1.00  0.00    -0.350 OA
ENDROOT
BRANCH   1  10
HETATM   10  N1  UNL     1      -1.218   0.956  -0.303  1.00  0.00    -0.356 N 
HETATM   11  H4  UNL     1      -0.697   1.491  -1.032  1.00  0.00     0.166 HD
BRANCH  10  12
HETATM   12  C4  UNL     1      -2.610   0.647  -0.524  1.00  0.00     0.033 A 
HETATM   13  C3  UNL     1      -3.403   1.331  -1.333  1.00  0.00     0.040 A 
HETATM   14  C2  UNL     1      -4.704   0.703  -1.271  1.00  0.00    -0.037 A 
HETATM   15  C1  UNL     1      -5.859   0.978  -1.877  1.00  0.00     0.024 C 
HETATM   16  C17 UNL     1      -4.619  -0.427  -0.346  1.00  0.00    -0.050 A 
HETATM   17  C16 UNL     1      -3.362  -0.450   0.094  1.00  0.00     0.037 A 
HETATM   18  C18 UNL     1      -5.712  -1.386   0.049  1.00  0.00     0.049 C 
ENDBRANCH  10  12
ENDBRANCH   1  10
BRANCH   7  19
HETATM   19  P1  UNL     1       3.778  -0.784  -1.651  1.00  0.00    -0.082 P 
HETATM   20  H9  UNL     1       4.115   0.165  -2.700  1.00  0.00     0.066 HD
BRANCH  19  21
HETATM   21  C12 UNL     1       5.205  -0.833  -0.516  1.00  0.00     0.003 C 
HETATM   22  C13 UNL     1       6.189  -0.136  -0.009  1.00  0.00    -0.030 C 
HETATM   23  C14 UNL     1       6.294   1.269  -0.456  1.00  0.00     0.036 C 
ENDBRANCH  19  21
ENDBRANCH   7  19
TORSDOF 4
