REMARK  5 active torsions:
REMARK  status: ('A' for Active; 'I' for Inactive)
REMARK    1  A    between atoms: C2_2  and  C3_3 
REMARK    2  A    between atoms: C3_3  and  C4_4 
REMARK    3  A    between atoms: C4_4  and  C5_5 
REMARK    4  A    between atoms: C5_5  and  C6_6 
REMARK    5  A    between atoms: C6_6  and  C7_7 
ROOT
HETATM    1  C7  UNL     1       0.479   0.859   0.002  1.00  0.00    -0.024 C 
HETATM    2  C8  UNL     1      -0.346   1.938   0.003  1.00  0.00     0.124 C 
HETATM    3  N1  UNL     1      -1.352   1.638   0.993  1.00  0.00    -0.272 NA
HETATM    4  C9  UNL     1      -2.061   0.564   0.826  1.00  0.00     0.130 C 
HETATM    5  C10 UNL     1      -3.088  -0.315   1.268  1.00  0.00     0.011 A 
HETATM    6  C11 UNL     1      -4.390  -0.431   0.859  1.00  0.00     0.046 A 
HETATM    7 CL1  UNL     1      -4.563   0.800  -0.427  1.00  0.00    -0.083 Cl
HETATM    8  C12 UNL     1      -5.276  -1.339   1.389  1.00  0.00     0.025 A 
HETATM    9  C13 UNL     1      -4.763  -2.152   2.388  1.00  0.00     0.002 A 
HETATM   10  C14 UNL     1      -3.464  -2.031   2.789  1.00  0.00     0.010 A 
HETATM   11  C15 UNL     1      -2.551  -1.139   2.292  1.00  0.00    -0.028 A 
HETATM   12  C16 UNL     1      -1.139  -0.972   2.778  1.00  0.00     0.154 C 
HETATM   13  N2  UNL     1      -0.445  -0.000   2.014  1.00  0.00    -0.413 N 
HETATM   14  C17 UNL     1       0.425  -0.326   0.962  1.00  0.00     0.154 C 
HETATM   15  H15 UNL     1      -0.041   0.777   2.634  1.00  0.00     0.153 HD
ENDROOT
BRANCH   1  16
HETATM   16  C6  UNL     1       1.632   0.821  -0.920  1.00  0.00     0.007 C 
BRANCH  16  17
HETATM   17  C5  UNL     1       2.744   0.578  -1.677  1.00  0.00    -0.017 C 
BRANCH  17  18
HETATM   18  C4  UNL     1       3.835  -0.482  -1.882  1.00  0.00     0.042 C 
BRANCH  18  19
HETATM   19  C3  UNL     1       4.532   0.026  -2.823  1.00  0.00    -0.018 C 
BRANCH  19  20
HETATM   20  C2  UNL     1       5.353   0.531  -3.866  1.00  0.00    -0.014 C 
HETATM   21  C1  UNL     1       4.689   1.592  -4.192  1.00  0.00     0.011 C 
ENDBRANCH  19  20
ENDBRANCH  18  19
ENDBRANCH  17  18
ENDBRANCH  16  17
ENDBRANCH   1  16
TORSDOF 5
