REMARK  4 active torsions:
REMARK  status: ('A' for Active; 'I' for Inactive)
REMARK    1  A    between atoms: C1_2  and  C2_3 
REMARK    2  A    between atoms: C3_4  and  C4_5 
REMARK    3  A    between atoms: C4_5  and  N1_6 
REMARK    4  A    between atoms: N1_6  and  C5_7 
ROOT
HETATM    1  C5  UNL     1      -0.264  -0.443   2.009  1.00  0.00     0.045 A 
HETATM    2  C6  UNL     1       0.204  -0.352   3.327  1.00  0.00     0.049 A 
HETATM    3  C7  UNL     1      -0.379   0.315   4.369  1.00  0.00     0.122 A 
HETATM    4  N2  UNL     1      -1.512   0.916   4.001  1.00  0.00    -0.236 NA
HETATM    5  C8  UNL     1      -2.041   0.896   2.799  1.00  0.00     0.183 A 
HETATM    6  O1  UNL     1      -3.159   1.495   2.462  1.00  0.00    -0.290 OA
HETATM    7  C9  UNL     1      -3.394   1.266   1.174  1.00  0.00     0.089 A 
HETATM    8  C10 UNL     1      -4.372   1.608   0.264  1.00  0.00     0.038 A 
HETATM    9  C11 UNL     1      -4.323   1.190  -1.059  1.00  0.00     0.003 A 
HETATM   10  C12 UNL     1      -3.266   0.409  -1.477  1.00  0.00     0.001 A 
HETATM   11  C13 UNL     1      -2.289   0.066  -0.568  1.00  0.00     0.015 A 
HETATM   12  C14 UNL     1      -2.344   0.483   0.738  1.00  0.00     0.015 A 
HETATM   13  C15 UNL     1      -1.444   0.218   1.748  1.00  0.00     0.057 A 
ENDROOT
BRANCH   1  14
HETATM   14  N1  UNL     1       0.328  -1.097   0.925  1.00  0.00    -0.386 N 
HETATM   15  H5  UNL     1       1.137  -1.508   1.444  1.00  0.00     0.160 HD
BRANCH  14  16
HETATM   16  C4  UNL     1       0.999  -1.792  -0.118  1.00  0.00     0.147 C 
BRANCH  16  17
HETATM   17  C3  UNL     1       2.391  -1.288  -0.349  1.00  0.00    -0.006 C 
HETATM   18  C2  UNL     1       3.168  -0.747  -1.251  1.00  0.00     0.022 C 
BRANCH  18  19
HETATM   19  C1  UNL     1       2.762  -0.419  -2.599  1.00  0.00     0.044 C 
HETATM   20 CL1  UNL     1       1.198  -0.645  -3.347  1.00  0.00    -0.083 Cl
HETATM   21  C16 UNL     1       3.432   0.123  -3.615  1.00  0.00    -0.014 A 
HETATM   22  C17 UNL     1       4.067   0.703  -4.776  1.00  0.00     0.014 A 
HETATM   23  C18 UNL     1       4.844   0.586  -3.712  1.00  0.00     0.014 A 
ENDBRANCH  18  19
ENDBRANCH  16  17
ENDBRANCH  14  16
ENDBRANCH   1  14
TORSDOF 4
