REMARK  1 active torsions:
REMARK  status: ('A' for Active; 'I' for Inactive)
REMARK    1  A    between atoms: N1_1  and  C1_2 
ROOT
HETATM    1  C1  UNL     1      -0.273   0.501  -1.087  1.00  0.00     0.260 A 
HETATM    2  C2  UNL     1      -0.776   0.041   0.148  1.00  0.00     0.079 A 
HETATM    3  C3  UNL     1      -1.924   0.074   0.950  1.00  0.00    -0.048 A 
HETATM    4  C4  UNL     1      -3.098   0.639   0.620  1.00  0.00     0.031 A 
HETATM    5  C5  UNL     1      -4.196   0.646   1.443  1.00  0.00     0.034 A 
HETATM    6 CL1  UNL     1      -5.693   1.412   0.914  1.00  0.00    -0.084 Cl
HETATM    7  C6  UNL     1      -4.044   0.036   2.649  1.00  0.00     0.024 A 
HETATM    8  C7  UNL     1      -2.861  -0.548   3.014  1.00  0.00     0.010 A 
HETATM    9  C8  UNL     1      -1.761  -0.563   2.208  1.00  0.00    -0.047 A 
HETATM   10  C9  UNL     1      -0.617  -1.258   2.849  1.00  0.00     0.086 A 
HETATM   11  C10 UNL     1       0.651  -1.364   2.155  1.00  0.00     0.097 A 
HETATM   12  N2  UNL     1       1.375  -1.159   1.217  1.00  0.00    -0.240 NA
HETATM   13  C11 UNL     1       1.727  -0.688   0.010  1.00  0.00     0.178 A 
HETATM   14  O1  UNL     1       2.971  -0.954  -0.275  1.00  0.00    -0.291 OA
HETATM   15  C12 UNL     1       3.350  -0.510  -1.435  1.00  0.00     0.085 A 
HETATM   16  C13 UNL     1       2.228   0.119  -1.979  1.00  0.00     0.007 A 
HETATM   17  C14 UNL     1       1.162   0.025  -1.074  1.00  0.00     0.041 A 
HETATM   18  C15 UNL     1       2.388   0.659  -3.183  1.00  0.00    -0.008 A 
HETATM   19  C16 UNL     1       3.799   0.396  -3.581  1.00  0.00     0.058 A 
HETATM   20  C17 UNL     1       4.282  -0.347  -2.389  1.00  0.00     0.015 A 
ENDROOT
BRANCH   1  21
HETATM   21  N1  UNL     1      -0.208   1.946  -1.303  1.00  0.00     0.087 N 
HETATM   22  H1  UNL     1      -1.147   2.331  -1.052  1.00  0.00     0.313 HD
HETATM   23  H2  UNL     1       0.020   2.150  -2.316  1.00  0.00     0.313 HD
ENDBRANCH   1  21
TORSDOF 1
