REMARK  1 active torsions:
REMARK  status: ('A' for Active; 'I' for Inactive)
REMARK    1  A    between atoms: C1_2  and  C2_3 
ROOT
HETATM    1  C2  UNL     1      -2.570  -0.146  -0.523  1.00  0.00     0.016 A 
HETATM    2  C3  UNL     1      -1.201  -0.205  -0.515  1.00  0.00    -0.009 A 
HETATM    3  C4  UNL     1      -0.559  -0.259  -1.928  1.00  0.00     0.119 A 
HETATM    4  N1  UNL     1       0.387   0.750  -2.240  1.00  0.00    -0.390 N 
HETATM    5  C5  UNL     1       1.657   1.001  -1.559  1.00  0.00     0.040 A 
HETATM    6  C6  UNL     1       2.624   1.679  -2.246  1.00  0.00     0.049 A 
HETATM    7  C7  UNL     1       3.815   2.073  -1.663  1.00  0.00     0.122 A 
HETATM    8  N2  UNL     1       3.926   1.734  -0.366  1.00  0.00    -0.236 NA
HETATM    9  C8  UNL     1       3.027   1.088   0.329  1.00  0.00     0.178 A 
HETATM   10  O1  UNL     1       2.779   0.626   1.526  1.00  0.00    -0.299 OA
HETATM   11  C9  UNL     1       1.649   0.071   1.570  1.00  0.00     0.048 A 
HETATM   12  C10 UNL     1       0.813   0.001   0.365  1.00  0.00     0.028 A 
HETATM   13  C11 UNL     1       1.876   0.679  -0.190  1.00  0.00     0.032 A 
HETATM   14  C12 UNL     1      -0.411  -0.198  -0.254  1.00  0.00     0.076 A 
HETATM   15  C13 UNL     1      -1.676  -0.496   0.329  1.00  0.00     0.014 A 
HETATM   16  C14 UNL     1      -0.574  -0.590   0.849  1.00  0.00    -0.012 A 
HETATM   17  C15 UNL     1      -1.036  -1.399   1.985  1.00  0.00     0.017 C 
HETATM   18  C16 UNL     1      -0.349  -1.327   3.246  1.00  0.00    -0.004 C 
HETATM   19  C17 UNL     1       0.672  -0.941   3.887  1.00  0.00     0.006 C 
HETATM   20  C18 UNL     1       1.282  -0.381   2.758  1.00  0.00     0.055 C 
HETATM   21  H6  UNL     1       0.207   1.435  -3.048  1.00  0.00     0.159 HD
ENDROOT
BRANCH   1  22
HETATM   22  C1  UNL     1      -3.563  -0.133  -1.588  1.00  0.00     0.120 C 
HETATM   23 CL1  UNL     1      -4.610   1.319  -1.626  1.00  0.00    -0.130 Cl
ENDBRANCH   1  22
TORSDOF 1
