REMARK  2 active torsions:
REMARK  status: ('A' for Active; 'I' for Inactive)
REMARK    1  A    between atoms: C9_10  and  N2_11 
REMARK    2  A    between atoms: N2_11  and  C10_12 
ROOT
HETATM    1  C1  UNL     1      -3.854   1.829  -0.912  1.00  0.00     0.045 C 
HETATM    2  C2  UNL     1      -3.314   0.783  -0.008  1.00  0.00    -0.061 C 
HETATM    3  C3  UNL     1      -4.151  -0.294  -0.009  1.00  0.00     0.005 C 
HETATM    4  C4  UNL     1      -3.551  -1.563   0.559  1.00  0.00     0.010 C 
HETATM    5  C5  UNL     1      -2.321  -1.125   0.896  1.00  0.00    -0.025 C 
HETATM    6  C6  UNL     1      -2.080   0.051   1.862  1.00  0.00     0.070 C 
HETATM    7  C7  UNL     1      -2.006   1.103   0.681  1.00  0.00     0.115 C 
HETATM    8  N1  UNL     1      -0.823   0.668  -0.050  1.00  0.00    -0.376 N 
HETATM    9  C8  UNL     1      -0.313  -0.668  -0.246  1.00  0.00     0.105 A 
HETATM   10  C9  UNL     1       0.800  -1.166  -0.885  1.00  0.00     0.158 A 
HETATM   11  N3  UNL     1       0.981  -2.486  -0.948  1.00  0.00    -0.222 NA
HETATM   12  C16 UNL     1       0.153  -3.432  -0.426  1.00  0.00     0.236 A 
HETATM   13  N4  UNL     1      -1.004  -3.066   0.247  1.00  0.00    -0.239 NA
HETATM   14  C17 UNL     1      -1.108  -1.719   0.262  1.00  0.00     0.094 A 
HETATM   15  H9  UNL     1      -0.183   1.343  -0.537  1.00  0.00     0.160 HD
ENDROOT
BRANCH  10  16
HETATM   16  N2  UNL     1       1.636  -0.151  -1.408  1.00  0.00    -0.339 N 
HETATM   17  H10 UNL     1       1.327   0.261  -2.306  1.00  0.00     0.167 HD
BRANCH  16  18
HETATM   18  C10 UNL     1       2.834   0.327  -0.806  1.00  0.00     0.035 A 
HETATM   19  C11 UNL     1       3.500   1.418  -1.315  1.00  0.00     0.029 A 
HETATM   20  C12 UNL     1       4.674   1.856  -0.724  1.00  0.00     0.004 A 
HETATM   21  C13 UNL     1       5.132   1.144   0.392  1.00  0.00     0.019 A 
HETATM   22  C14 UNL     1       4.463   0.047   0.904  1.00  0.00     0.013 A 
HETATM   23 BR1  UNL     1       5.122  -0.908   2.434  1.00  0.00    -0.051 Br
HETATM   24  C15 UNL     1       3.298  -0.376   0.306  1.00  0.00     0.048 A 
ENDBRANCH  16  18
ENDBRANCH  10  16
TORSDOF 2
