REMARK  4 active torsions:
REMARK  status: ('A' for Active; 'I' for Inactive)
REMARK    1  A    between atoms: O1_2  and  C2_3 
REMARK    2  A    between atoms: C5_6  and  C6_7 
REMARK    3  A    between atoms: C6_7  and  N1_8 
REMARK    4  A    between atoms: N1_8  and  C7_9 
ROOT
HETATM    1  C7  UNL     1      -1.471   0.889   0.508  1.00  0.00     0.045 A 
HETATM    2  C8  UNL     1      -1.063   2.200   0.412  1.00  0.00     0.049 A 
HETATM    3  C9  UNL     1      -1.717   3.171  -0.315  1.00  0.00     0.122 A 
HETATM    4  N2  UNL     1      -2.832   2.816  -0.978  1.00  0.00    -0.236 NA
HETATM    5  C10 UNL     1      -3.264   1.547  -0.910  1.00  0.00     0.183 A 
HETATM    6  O2  UNL     1      -4.301   0.980  -1.457  1.00  0.00    -0.291 OA
HETATM    7  C11 UNL     1      -4.405  -0.290  -1.164  1.00  0.00     0.085 A 
HETATM    8  C12 UNL     1      -3.335  -0.578  -0.348  1.00  0.00     0.011 A 
HETATM    9  C13 UNL     1      -2.615   0.581  -0.187  1.00  0.00     0.056 A 
HETATM   10  C14 UNL     1      -3.364  -1.850  -0.003  1.00  0.00    -0.008 A 
HETATM   11  C15 UNL     1      -4.543  -2.511  -0.621  1.00  0.00     0.058 A 
HETATM   12  C16 UNL     1      -5.143  -1.370  -1.360  1.00  0.00     0.015 A 
ENDROOT
BRANCH   1  13
HETATM   13  N1  UNL     1      -0.742  -0.013   1.280  1.00  0.00    -0.385 N 
HETATM   14  H8  UNL     1      -1.149  -0.949   1.287  1.00  0.00     0.160 HD
BRANCH  13  15
HETATM   15  C6  UNL     1       0.455   0.005   2.089  1.00  0.00     0.158 C 
BRANCH  15  16
HETATM   16  C5  UNL     1       1.698   0.257   1.315  1.00  0.00    -0.040 A 
HETATM   17  C4  UNL     1       2.220  -0.910   0.742  1.00  0.00     0.011 A 
HETATM   18  C3  UNL     1       3.370  -0.954  -0.013  1.00  0.00     0.037 A 
HETATM   19  C2  UNL     1       4.081   0.202  -0.242  1.00  0.00     0.068 A 
HETATM   20  C18 UNL     1       3.574   1.349   0.318  1.00  0.00     0.037 A 
HETATM   21  C17 UNL     1       2.427   1.399   1.072  1.00  0.00     0.011 A 
BRANCH  19  22
HETATM   22  O1  UNL     1       5.237   0.324  -0.968  1.00  0.00    -0.356 OA
HETATM   23  C1  UNL     1       5.890  -0.744  -1.607  1.00  0.00     0.210 C 
ENDBRANCH  19  22
ENDBRANCH  15  16
ENDBRANCH  13  15
ENDBRANCH   1  13
TORSDOF 4
