REMARK  0 active torsions:
REMARK  status: ('A' for Active; 'I' for Inactive)
ROOT
HETATM    1  C1  UNL     1      -0.984   2.086   0.088  1.00  0.00     0.045 A 
HETATM    2  C2  UNL     1      -0.532   3.173  -0.272  1.00  0.00    -0.012 A 
HETATM    3  C3  UNL     1      -0.541   1.505   0.142  1.00  0.00     0.036 A 
HETATM    4  C4  UNL     1       0.922   1.299  -0.109  1.00  0.00     0.132 C 
HETATM    5  O1  UNL     1       2.064   2.050  -0.502  1.00  0.00    -0.316 OA
HETATM    6  C5  UNL     1       3.189   1.251  -0.355  1.00  0.00     0.173 A 
HETATM    7  N1  UNL     1       4.464   1.260  -0.476  1.00  0.00    -0.237 NA
HETATM    8  C6  UNL     1       5.227   0.166  -0.204  1.00  0.00     0.119 A 
HETATM    9  C7  UNL     1       4.808  -1.096   0.213  1.00  0.00     0.020 A 
HETATM   10  C8  UNL     1       3.407  -1.227   0.356  1.00  0.00     0.015 A 
HETATM   11  C9  UNL     1       2.714  -0.018   0.066  1.00  0.00     0.020 A 
HETATM   12  C10 UNL     1       1.268  -0.170   0.121  1.00  0.00     0.153 C 
HETATM   13  N2  UNL     1       0.711  -1.013  -0.887  1.00  0.00    -0.406 N 
HETATM   14  C11 UNL     1       0.077  -2.232  -0.608  1.00  0.00     0.156 C 
HETATM   15  C12 UNL     1      -1.289  -2.194  -0.071  1.00  0.00    -0.027 A 
HETATM   16  S1  UNL     1      -2.036  -2.719   1.426  1.00  0.00    -0.180 SA
HETATM   17  C13 UNL     1      -3.365  -1.470   1.520  1.00  0.00     0.048 A 
HETATM   18  C14 UNL     1      -3.154  -0.785   0.312  1.00  0.00     0.103 A 
HETATM   19  C15 UNL     1      -2.896  -0.233  -0.787  1.00  0.00     0.046 A 
HETATM   20  C16 UNL     1      -1.909  -1.175  -0.707  1.00  0.00     0.070 A 
HETATM   21  O2  UNL     1      -4.086   0.383   0.510  1.00  0.00    -0.347 OA
HETATM   22  C17 UNL     1      -3.280   1.680   0.380  1.00  0.00     0.132 C 
HETATM   23  C18 UNL     1      -2.400   2.681   0.244  1.00  0.00     0.003 C 
HETATM   24  H8  UNL     1       0.749  -0.697  -1.837  1.00  0.00     0.154 HD
HETATM   25  H11 UNL     1      -2.618  -4.053   1.073  1.00  0.00     0.100 HD
ENDROOT
TORSDOF 0
