REMARK  5 active torsions:
REMARK  status: ('A' for Active; 'I' for Inactive)
REMARK    1  A    between atoms: O1_2  and  C2_3 
REMARK    2  A    between atoms: C5_6  and  C6_7 
REMARK    3  A    between atoms: C6_7  and  N1_8 
REMARK    4  A    between atoms: N1_8  and  C7_9 
REMARK    5  A    between atoms: C11_14  and  C12_15 
ROOT
HETATM    1  C7  UNL     1      -1.709  -1.596  -0.644  1.00  0.00     0.042 A 
HETATM    2  C8  UNL     1      -1.802  -2.968  -0.700  1.00  0.00     0.049 A 
HETATM    3  C9  UNL     1      -2.939  -3.629  -1.079  1.00  0.00     0.118 A 
HETATM    4  N2  UNL     1      -4.009  -2.880  -1.408  1.00  0.00    -0.272 NA
HETATM    5  C10 UNL     1      -3.911  -1.540  -1.351  1.00  0.00     0.130 A 
HETATM    6  C11 UNL     1      -2.772  -0.818  -0.970  1.00  0.00     0.018 A 
ENDROOT
BRANCH   1   7
HETATM    7  N1  UNL     1      -0.501  -0.967  -0.261  1.00  0.00    -0.385 N 
HETATM    8  H8  UNL     1      -0.328   0.055  -0.207  1.00  0.00     0.160 HD
BRANCH   7   9
HETATM    9  C6  UNL     1       0.633  -1.782   0.092  1.00  0.00     0.158 C 
BRANCH   9  10
HETATM   10  C5  UNL     1       1.835  -0.996   0.473  1.00  0.00    -0.040 A 
HETATM   11  C4  UNL     1       2.075  -0.614   1.777  1.00  0.00     0.011 A 
HETATM   12  C3  UNL     1       3.209   0.116   2.073  1.00  0.00     0.037 A 
HETATM   13  C2  UNL     1       4.095   0.459   1.056  1.00  0.00     0.068 A 
HETATM   14  C19 UNL     1       3.833   0.063  -0.249  1.00  0.00     0.037 A 
HETATM   15  C18 UNL     1       2.700  -0.669  -0.561  1.00  0.00     0.011 A 
BRANCH  13  16
HETATM   16  O1  UNL     1       5.246   1.177   1.232  1.00  0.00    -0.356 OA
HETATM   17  C1  UNL     1       5.733   1.689   2.441  1.00  0.00     0.210 C 
ENDBRANCH  13  16
ENDBRANCH   9  10
ENDBRANCH   7   9
ENDBRANCH   1   7
BRANCH   6  18
HETATM   18  C12 UNL     1      -2.844   0.631  -0.946  1.00  0.00    -0.022 A 
HETATM   19  C13 UNL     1      -2.502   1.556   0.018  1.00  0.00     0.012 A 
HETATM   20  C14 UNL     1      -2.665   2.901  -0.230  1.00  0.00     0.001 A 
HETATM   21  C15 UNL     1      -3.160   3.380  -1.415  1.00  0.00     0.000 A 
HETATM   22  C16 UNL     1      -3.506   2.480  -2.386  1.00  0.00     0.001 A 
HETATM   23  C17 UNL     1      -3.350   1.118  -2.158  1.00  0.00     0.012 A 
ENDBRANCH   6  18
TORSDOF 5
