REMARK  3 active torsions:
REMARK  status: ('A' for Active; 'I' for Inactive)
REMARK    1  A    between atoms: C3_3  and  C4_5 
REMARK    2  A    between atoms: C10_13  and  N2_14 
REMARK    3  A    between atoms: N2_14  and  C11_15 
ROOT
HETATM    1  C4  UNL     1       2.667  -0.021   1.173  1.00  0.00     0.025 C 
HETATM    2  C5  UNL     1       1.922  -1.102   1.355  1.00  0.00    -0.037 C 
HETATM    3  C6  UNL     1       1.899  -2.331   0.563  1.00  0.00     0.156 C 
HETATM    4  N1  UNL     1       0.685  -2.506  -0.229  1.00  0.00    -0.385 N 
HETATM    5  C7  UNL     1      -0.695  -2.370   0.164  1.00  0.00     0.067 A 
HETATM    6  C8  UNL     1      -1.157  -1.758   1.252  1.00  0.00     0.100 A 
HETATM    7  O1  UNL     1      -0.363  -1.137   2.202  1.00  0.00    -0.347 OA
HETATM    8  C9  UNL     1       0.983  -1.090   2.497  1.00  0.00     0.211 C 
HETATM    9  C10 UNL     1      -2.165  -2.338   0.395  1.00  0.00     0.193 A 
HETATM   10  H8  UNL     1       0.767  -2.776  -1.257  1.00  0.00     0.159 HD
ENDROOT
BRANCH   9  11
HETATM   11  N2  UNL     1      -2.878  -1.590  -0.596  1.00  0.00    -0.372 N 
HETATM   12  H12 UNL     1      -3.616  -2.010  -1.200  1.00  0.00     0.161 HD
BRANCH  11  13
HETATM   13  C11 UNL     1      -2.919  -0.287  -1.099  1.00  0.00     0.059 A 
HETATM   14  C12 UNL     1      -3.697   0.713  -0.725  1.00  0.00     0.018 A 
HETATM   15 BR2  UNL     1      -5.009   0.551   0.677  1.00  0.00    -0.053 Br
HETATM   16  C13 UNL     1      -3.743   2.083  -1.234  1.00  0.00     0.070 A 
HETATM   17  C14 UNL     1      -2.827   2.398  -2.355  1.00  0.00     0.153 A 
HETATM   18  N3  UNL     1      -1.979   1.316  -2.762  1.00  0.00    -0.299 NA
HETATM   19  C15 UNL     1      -2.067   0.178  -2.180  1.00  0.00     0.140 A 
ENDBRANCH  11  13
ENDBRANCH   9  11
BRANCH   1  20
HETATM   20  C3  UNL     1       3.670   0.371   0.219  1.00  0.00     0.007 C 
HETATM   21  C2  UNL     1       4.271   1.571   0.307  1.00  0.00    -0.012 C 
HETATM   22  C1  UNL     1       3.867   2.470   1.424  1.00  0.00     0.037 C 
HETATM   23 BR1  UNL     1       4.298  -0.657  -1.261  1.00  0.00    -0.051 Br
ENDBRANCH   1  20
TORSDOF 3
