REMARK  1 active torsions:
REMARK  status: ('A' for Active; 'I' for Inactive)
REMARK    1  A    between atoms: O1_1  and  C1_2 
ROOT
HETATM    1  C1  UNL     1       3.815  -1.718  -0.987  1.00  0.00     0.275 C 
HETATM    2  N1  UNL     1       2.644  -2.252  -0.227  1.00  0.00    -0.269 NA
HETATM    3  C2  UNL     1       1.467  -1.859  -0.647  1.00  0.00     0.091 C 
HETATM    4  C3  UNL     1       0.126  -2.155  -0.165  1.00  0.00     0.085 C 
HETATM    5  C4  UNL     1      -0.851  -1.047  -0.080  1.00  0.00    -0.050 C 
HETATM    6  C5  UNL     1      -1.000   0.335  -0.279  1.00  0.00    -0.056 C 
HETATM    7  C6  UNL     1      -2.303   0.855   0.009  1.00  0.00     0.040 C 
HETATM    8  C7  UNL     1      -2.932   1.998   0.609  1.00  0.00     0.031 C 
HETATM    9  C8  UNL     1      -4.324   1.371   0.958  1.00  0.00    -0.030 C 
HETATM   10  C9  UNL     1      -4.968   0.144   0.822  1.00  0.00    -0.027 C 
HETATM   11  C10 UNL     1      -4.171  -0.809   0.188  1.00  0.00     0.054 C 
HETATM   12  C11 UNL     1      -3.470  -2.014   0.425  1.00  0.00    -0.022 C 
HETATM   13  C12 UNL     1      -2.187  -1.702   0.215  1.00  0.00     0.004 C 
HETATM   14  C13 UNL     1      -0.154   1.580  -0.578  1.00  0.00     0.150 C 
HETATM   15  N2  UNL     1       1.149   1.262  -0.509  1.00  0.00    -0.406 N 
HETATM   16  C14 UNL     1       2.409   1.728  -0.951  1.00  0.00     0.135 A 
HETATM   17  C15 UNL     1       2.928   0.341  -1.459  1.00  0.00     0.015 A 
HETATM   18  C16 UNL     1       3.732  -0.240  -0.632  1.00  0.00     0.001 A 
HETATM   19  C17 UNL     1       4.112   0.575   0.496  1.00  0.00    -0.017 A 
HETATM   20  C18 UNL     1       4.661   1.041   1.594  1.00  0.00     0.013 A 
HETATM   21  C19 UNL     1       3.861   2.270   1.385  1.00  0.00     0.011 A 
HETATM   22  C20 UNL     1       3.301   1.799   0.290  1.00  0.00    -0.021 A 
HETATM   23  H18 UNL     1       1.372   0.706   0.410  1.00  0.00     0.154 HD
ENDROOT
BRANCH   1  24
HETATM   24  O1  UNL     1       4.942  -2.284  -0.495  1.00  0.00    -0.371 OA
HETATM   25  H1  UNL     1       4.824  -2.888   0.273  1.00  0.00     0.212 HD
ENDBRANCH   1  24
TORSDOF 1
