REMARK  8 active torsions:
REMARK  status: ('A' for Active; 'I' for Inactive)
REMARK    1  A    between atoms: O1_2  and  C2_3 
REMARK    2  A    between atoms: C2_3  and  C3_4 
REMARK    3  A    between atoms: C5_6  and  C8_10 
REMARK    4  A    between atoms: C6_7  and  C7_8 
REMARK    5  A    between atoms: C8_10  and  N1_11 
REMARK    6  A    between atoms: N1_11  and  C9_12 
REMARK    7  A    between atoms: C13_17  and  C14_18 
REMARK    8  A    between atoms: C15_19  and  C16_20 
ROOT
HETATM    1  C9  UNL     1      -0.804   0.254   0.939  1.00  0.00     0.041 A 
HETATM    2  C10 UNL     1      -0.193  -0.751   1.714  1.00  0.00     0.049 A 
HETATM    3  C11 UNL     1      -0.789  -1.729   2.463  1.00  0.00     0.118 A 
HETATM    4  N2  UNL     1      -2.125  -1.697   2.427  1.00  0.00    -0.272 NA
HETATM    5  C12 UNL     1      -2.790  -0.781   1.721  1.00  0.00     0.130 A 
HETATM    6  C13 UNL     1      -2.181   0.197   0.976  1.00  0.00     0.008 A 
ENDROOT
BRANCH   1   7
HETATM    7  N1  UNL     1      -0.114   1.249   0.216  1.00  0.00    -0.389 N 
HETATM    8  H11 UNL     1      -0.750   1.920  -0.269  1.00  0.00     0.159 HD
BRANCH   7   9
HETATM    9  C8  UNL     1       1.258   1.609  -0.044  1.00  0.00     0.126 C 
BRANCH   9  10
HETATM   10  C5  UNL     1       1.945   0.507  -0.877  1.00  0.00    -0.022 A 
HETATM   11  C4  UNL     1       2.815  -0.399  -1.181  1.00  0.00     0.042 A 
HETATM   12  C3  UNL     1       3.939  -1.074  -0.651  1.00  0.00     0.030 A 
HETATM   13  C6  UNL     1       3.047   0.160   0.216  1.00  0.00     0.097 A 
BRANCH  12  14
HETATM   14  C2  UNL     1       4.009  -1.755  -1.807  1.00  0.00     0.155 C 
BRANCH  14  15
HETATM   15  O1  UNL     1       4.699  -2.741  -2.544  1.00  0.00    -0.388 OA
HETATM   16  C1  UNL     1       5.394  -3.744  -1.810  1.00  0.00     0.202 C 
ENDBRANCH  14  15
ENDBRANCH  12  14
BRANCH  13  17
HETATM   17  C7  UNL     1       3.256   0.659   1.490  1.00  0.00     0.361 C 
HETATM   18  F1  UNL     1       3.214   1.317   2.665  1.00  0.00    -0.461 F 
ENDBRANCH  13  17
ENDBRANCH   9  10
ENDBRANCH   7   9
ENDBRANCH   1   7
BRANCH   6  19
HETATM   19  C14 UNL     1      -3.042   1.120   0.216  1.00  0.00     0.016 C 
HETATM   20  C15 UNL     1      -4.362   1.065   0.343  1.00  0.00     0.012 C 
BRANCH  20  21
HETATM   21  C16 UNL     1      -5.268   1.976  -0.406  1.00  0.00    -0.036 A 
HETATM   22  C17 UNL     1      -5.208   2.980  -1.295  1.00  0.00     0.011 A 
HETATM   23  C18 UNL     1      -6.655   3.087  -1.302  1.00  0.00     0.002 A 
HETATM   24  C19 UNL     1      -6.736   2.105  -0.427  1.00  0.00     0.011 A 
ENDBRANCH  20  21
ENDBRANCH   6  19
TORSDOF 8
