REMARK  2 active torsions:
REMARK  status: ('A' for Active; 'I' for Inactive)
REMARK    1  A    between atoms: O1_2  and  C2_3 
REMARK    2  A    between atoms: C5_6  and  C6_7 
ROOT
HETATM    1  C6  UNL     1      -0.575  -1.333   0.378  1.00  0.00    -0.009 A 
HETATM    2  C7  UNL     1      -0.377  -2.696   0.641  1.00  0.00     0.032 A 
HETATM    3  C8  UNL     1      -1.435  -3.604   0.675  1.00  0.00     0.120 A 
HETATM    4  N1  UNL     1      -2.678  -3.142   0.445  1.00  0.00    -0.236 NA
HETATM    5  C9  UNL     1      -2.925  -1.845   0.187  1.00  0.00     0.181 A 
HETATM    6  O2  UNL     1      -4.002  -1.165  -0.064  1.00  0.00    -0.290 OA
HETATM    7  C10 UNL     1      -3.730   0.103  -0.259  1.00  0.00     0.089 A 
HETATM    8  C11 UNL     1      -4.517   1.196  -0.551  1.00  0.00     0.038 A 
HETATM    9  C12 UNL     1      -3.950   2.444  -0.710  1.00  0.00     0.003 A 
HETATM   10  C13 UNL     1      -2.563   2.588  -0.572  1.00  0.00     0.001 A 
HETATM   11  C14 UNL     1      -1.788   1.489  -0.279  1.00  0.00     0.015 A 
HETATM   12  C15 UNL     1      -2.374   0.263  -0.125  1.00  0.00     0.013 A 
HETATM   13  C16 UNL     1      -1.860  -0.973   0.160  1.00  0.00     0.041 A 
ENDROOT
BRANCH   1  14
HETATM   14  C5  UNL     1       0.642  -0.574   0.453  1.00  0.00    -0.025 A 
HETATM   15  C4  UNL     1       1.105   0.484   1.243  1.00  0.00     0.015 A 
HETATM   16  C3  UNL     1       2.346   1.048   1.099  1.00  0.00     0.037 A 
HETATM   17  C2  UNL     1       3.220   0.586   0.142  1.00  0.00     0.068 A 
HETATM   18  C18 UNL     1       2.826  -0.451  -0.666  1.00  0.00     0.037 A 
HETATM   19  C17 UNL     1       1.562  -1.017  -0.511  1.00  0.00     0.015 A 
BRANCH  17  20
HETATM   20  O1  UNL     1       4.433   1.259   0.123  1.00  0.00    -0.356 OA
HETATM   21  C1  UNL     1       5.464   0.933  -0.787  1.00  0.00     0.210 C 
ENDBRANCH  17  20
ENDBRANCH   1  14
TORSDOF 2
