REMARK  5 active torsions:
REMARK  status: ('A' for Active; 'I' for Inactive)
REMARK    1  A    between atoms: O1_1  and  C1_2 
REMARK    2  A    between atoms: C6_7  and  C7_8 
REMARK    3  A    between atoms: C11_13  and  N2_14 
REMARK    4  A    between atoms: N2_14  and  C12_15 
REMARK    5  A    between atoms: C12_15  and  C13_16 
ROOT
HETATM    1  C7  UNL     1       2.606  -0.982  -0.056  1.00  0.00     0.021 A 
HETATM    2  C8  UNL     1       3.172  -2.181   0.319  1.00  0.00     0.130 A 
HETATM    3  N1  UNL     1       2.477  -3.333   0.462  1.00  0.00    -0.272 NA
HETATM    4  C9  UNL     1       1.132  -3.358   0.231  1.00  0.00     0.118 A 
HETATM    5  C10 UNL     1       0.555  -2.169  -0.144  1.00  0.00     0.049 A 
HETATM    6  C11 UNL     1       1.236  -0.954  -0.303  1.00  0.00     0.042 A 
ENDROOT
BRANCH   6   7
HETATM    7  N2  UNL     1       0.541   0.234  -0.706  1.00  0.00    -0.385 N 
HETATM    8  H9  UNL     1       1.180   1.081  -0.804  1.00  0.00     0.160 HD
BRANCH   7   9
HETATM    9  C12 UNL     1      -0.886   0.370  -0.977  1.00  0.00     0.159 C 
BRANCH   9  10
HETATM   10  C13 UNL     1      -1.739   0.147   0.193  1.00  0.00    -0.029 A 
HETATM   11  C14 UNL     1      -1.358  -0.103   1.496  1.00  0.00     0.010 A 
HETATM   12  C15 UNL     1      -2.248  -0.298   2.532  1.00  0.00     0.002 A 
HETATM   13  C16 UNL     1      -3.609  -0.241   2.264  1.00  0.00     0.012 A 
HETATM   14  C17 UNL     1      -4.035   0.011   0.956  1.00  0.00    -0.025 A 
HETATM   15  C18 UNL     1      -5.394   0.063   0.736  1.00  0.00     0.012 A 
HETATM   16  C22 UNL     1      -3.098   0.197  -0.039  1.00  0.00    -0.018 A 
HETATM   17  C19 UNL     1      -5.873   0.312  -0.533  1.00  0.00     0.001 A 
HETATM   18  C20 UNL     1      -4.977   0.510  -1.583  1.00  0.00     0.001 A 
HETATM   19  C21 UNL     1      -3.623   0.444  -1.292  1.00  0.00     0.013 A 
ENDBRANCH   9  10
ENDBRANCH   7   9
ENDBRANCH   6   7
BRANCH   1  20
HETATM   20  C6  UNL     1       3.373   0.250  -0.204  1.00  0.00     0.011 A 
HETATM   21  C1  UNL     1       3.568   1.166   0.837  1.00  0.00     0.076 A 
HETATM   22  C2  UNL     1       4.312   2.304   0.605  1.00  0.00     0.037 A 
HETATM   23  C3  UNL     1       4.870   2.565  -0.629  1.00  0.00     0.003 A 
HETATM   24  C4  UNL     1       4.653   1.636  -1.630  1.00  0.00     0.001 A 
HETATM   25  C5  UNL     1       3.920   0.486  -1.451  1.00  0.00     0.015 A 
BRANCH  21  26
HETATM   26  O1  UNL     1       2.953   0.775   2.014  1.00  0.00    -0.360 OA
HETATM   27  H1  UNL     1       3.335   0.105   2.658  1.00  0.00     0.217 HD
ENDBRANCH  21  26
ENDBRANCH   1  20
TORSDOF 5
