REMARK  4 active torsions:
REMARK  status: ('A' for Active; 'I' for Inactive)
REMARK    1  A    between atoms: C5_6  and  C6_7 
REMARK    2  A    between atoms: C6_7  and  N1_8 
REMARK    3  A    between atoms: N1_8  and  C7_9 
REMARK    4  A    between atoms: C7_9  and  C8_10 
ROOT
HETATM    1  C8  UNL     1       0.840  -0.106  -0.567  1.00  0.00    -0.010 C 
HETATM    2  C9  UNL     1       1.421   0.319  -1.730  1.00  0.00     0.010 C 
HETATM    3  C10 UNL     1       1.998   0.604  -2.931  1.00  0.00     0.001 C 
HETATM    4  C11 UNL     1       3.357   0.755  -3.002  1.00  0.00     0.000 C 
HETATM    5  C12 UNL     1       4.308   0.737  -2.020  1.00  0.00     0.000 C 
HETATM    6  C13 UNL     1       4.582  -0.430  -1.367  1.00  0.00     0.000 C 
HETATM    7  C14 UNL     1       4.105  -1.720  -1.450  1.00  0.00     0.000 C 
HETATM    8  C15 UNL     1       3.139  -2.263  -0.631  1.00  0.00     0.002 C 
HETATM    9  C16 UNL     1       2.579  -1.537   0.369  1.00  0.00     0.023 C 
HETATM   10  C17 UNL     1       1.564  -0.617   0.488  1.00  0.00     0.052 C 
HETATM   11  C18 UNL     1       1.257  -0.174   1.816  1.00  0.00     0.100 C 
HETATM   12  N2  UNL     1       1.001   0.185   2.889  1.00  0.00    -0.191 NA
ENDROOT
BRANCH   1  13
HETATM   13  C7  UNL     1      -0.650  -0.045  -0.341  1.00  0.00     0.310 C 
BRANCH  13  14
HETATM   14  N1  UNL     1      -0.927   1.056   0.517  1.00  0.00     0.091 N 
HETATM   15  H8  UNL     1      -0.445   1.892   0.127  1.00  0.00     0.316 HD
BRANCH  14  16
HETATM   16  C6  UNL     1      -2.280   1.308   0.849  1.00  0.00     0.311 C 
BRANCH  16  17
HETATM   17  C5  UNL     1      -2.953   0.351   1.719  1.00  0.00    -0.001 C 
HETATM   18  C2  UNL     1      -4.357   0.476   2.099  1.00  0.00    -0.034 C 
HETATM   19  C1  UNL     1      -5.043   1.597   1.995  1.00  0.00     0.022 C 
HETATM   20  C3  UNL     1      -4.817  -0.865   2.604  1.00  0.00     0.213 C 
HETATM   21  O1  UNL     1      -3.571  -1.374   3.064  1.00  0.00    -0.358 OA
HETATM   22  C4  UNL     1      -2.557  -0.755   2.321  1.00  0.00     0.144 C 
ENDBRANCH  16  17
ENDBRANCH  14  16
ENDBRANCH  13  14
ENDBRANCH   1  13
TORSDOF 4
