REMARK  3 active torsions:
REMARK  status: ('A' for Active; 'I' for Inactive)
REMARK    1  A    between atoms: C4_4  and  C5_5 
REMARK    2  A    between atoms: C5_5  and  N1_6 
REMARK    3  A    between atoms: N1_6  and  C6_7 
ROOT
HETATM    1  C6  UNL     1       0.636  -1.301   0.216  1.00  0.00     0.045 A 
HETATM    2  C7  UNL     1       0.398  -2.606   0.590  1.00  0.00     0.049 A 
HETATM    3  C8  UNL     1       1.378  -3.517   0.877  1.00  0.00     0.122 A 
HETATM    4  N2  UNL     1       2.662  -3.160   0.802  1.00  0.00    -0.236 NA
HETATM    5  C9  UNL     1       2.973  -1.906   0.445  1.00  0.00     0.183 A 
HETATM    6  O1  UNL     1       4.136  -1.318   0.300  1.00  0.00    -0.290 OA
HETATM    7  C10 UNL     1       4.004  -0.072  -0.065  1.00  0.00     0.089 A 
HETATM    8  C11 UNL     1       4.918   0.924  -0.333  1.00  0.00     0.038 A 
HETATM    9  C12 UNL     1       4.483   2.178  -0.708  1.00  0.00     0.003 A 
HETATM   10  C13 UNL     1       3.102   2.396  -0.802  1.00  0.00     0.001 A 
HETATM   11  C14 UNL     1       2.215   1.377  -0.526  1.00  0.00     0.015 A 
HETATM   12  C15 UNL     1       2.651   0.148  -0.159  1.00  0.00     0.015 A 
HETATM   13  C16 UNL     1       1.973  -1.000   0.159  1.00  0.00     0.057 A 
ENDROOT
BRANCH   1  14
HETATM   14  N1  UNL     1      -0.426  -0.445  -0.056  1.00  0.00    -0.385 N 
HETATM   15  H6  UNL     1      -0.563   0.525  -0.341  1.00  0.00     0.160 HD
BRANCH  14  16
HETATM   16  C5  UNL     1      -1.760  -0.990   0.072  1.00  0.00     0.158 C 
BRANCH  16  17
HETATM   17  C4  UNL     1      -2.856  -0.048  -0.227  1.00  0.00    -0.041 A 
HETATM   18  C3  UNL     1      -3.482   0.778   0.676  1.00  0.00     0.009 A 
HETATM   19  C2  UNL     1      -4.503   1.641   0.344  1.00  0.00     0.001 A 
HETATM   20  C1  UNL     1      -4.940   1.692  -0.977  1.00  0.00     0.000 A 
HETATM   21  C18 UNL     1      -4.338   0.879  -1.914  1.00  0.00     0.001 A 
HETATM   22  C17 UNL     1      -3.329   0.040  -1.535  1.00  0.00     0.009 A 
ENDBRANCH  16  17
ENDBRANCH  14  16
ENDBRANCH   1  14
TORSDOF 3
