REMARK  4 active torsions:
REMARK  status: ('A' for Active; 'I' for Inactive)
REMARK    1  A    between atoms: C7_7  and  N1_8 
REMARK    2  A    between atoms: N1_8  and  C8_9 
REMARK    3  A    between atoms: C8_9  and  C9_10 
REMARK    4  A    between atoms: C9_10  and  P1_11 
ROOT
HETATM    1  N1  UNL     1      -0.412   0.442  -0.290  1.00  0.00    -0.389 N 
HETATM    2  H8  UNL     1      -0.272   0.111  -1.277  1.00  0.00     0.159 HD
ENDROOT
BRANCH   1   3
HETATM    3  C7  UNL     1      -1.819   0.751  -0.416  1.00  0.00     0.017 C 
HETATM    4  C6  UNL     1      -2.608  -0.496  -0.433  1.00  0.00     0.091 A 
HETATM    5  C5  UNL     1      -2.777  -0.912   0.987  1.00  0.00    -0.013 A 
HETATM    6  C22 UNL     1      -3.869  -0.454  -1.218  1.00  0.00     0.166 A 
HETATM    7  C4  UNL     1      -3.866  -1.270   1.646  1.00  0.00    -0.003 A 
HETATM    8  C3  UNL     1      -5.092  -1.259   0.878  1.00  0.00     0.005 A 
HETATM    9  C2  UNL     1      -5.039  -0.897  -0.394  1.00  0.00    -0.054 A 
HETATM   10  C1  UNL     1      -6.363  -0.917  -1.117  1.00  0.00     0.046 C 
HETATM   11  O1  UNL     1      -4.135   0.741  -1.868  1.00  0.00    -0.360 OA
HETATM   12  C21 UNL     1      -4.973   1.585  -1.155  1.00  0.00     0.317 C 
HETATM   13  N2  UNL     1      -4.251   2.838  -0.866  1.00  0.00    -0.276 NA
HETATM   14  C20 UNL     1      -2.999   3.019  -0.593  1.00  0.00     0.115 C 
HETATM   15  C19 UNL     1      -1.856   2.090  -0.468  1.00  0.00     0.044 C 
ENDBRANCH   1   3
BRANCH   1  16
HETATM   16  C8  UNL     1       0.635   0.475   0.680  1.00  0.00     0.147 C 
BRANCH  16  17
HETATM   17  C9  UNL     1       1.893  -0.033   0.023  1.00  0.00    -0.003 C 
BRANCH  17  18
HETATM   18  P1  UNL     1       3.065  -0.695   0.910  1.00  0.00    -0.096 P 
HETATM   19  C10 UNL     1       3.313  -2.444   0.521  1.00  0.00     0.062 A 
HETATM   20  C11 UNL     1       4.720  -2.685   0.114  1.00  0.00    -0.021 A 
HETATM   21  C12 UNL     1       5.771  -1.890  -0.007  1.00  0.00     0.008 A 
HETATM   22  C13 UNL     1       5.820  -0.467   0.247  1.00  0.00    -0.026 A 
HETATM   23  C14 UNL     1       6.939   0.296   0.102  1.00  0.00     0.012 A 
HETATM   24  C18 UNL     1       4.630   0.123   0.663  1.00  0.00    -0.024 A 
HETATM   25  C15 UNL     1       6.889   1.664   0.372  1.00  0.00     0.001 A 
HETATM   26  C16 UNL     1       5.712   2.268   0.787  1.00  0.00     0.001 A 
HETATM   27  C17 UNL     1       4.591   1.471   0.926  1.00  0.00     0.013 A 
HETATM   28  H12 UNL     1       2.729  -0.571   2.283  1.00  0.00     0.062 HD
ENDBRANCH  17  18
ENDBRANCH  16  17
ENDBRANCH   1  16
TORSDOF 4
