REMARK  2 active torsions:
REMARK  status: ('A' for Active; 'I' for Inactive)
REMARK    1  A    between atoms: C3_3  and  N1_4 
REMARK    2  A    between atoms: N1_4  and  C4_5 
ROOT
HETATM    1  C1  UNL     1       0.710   2.878  -0.524  1.00  0.00     0.046 C 
HETATM    2  C2  UNL     1      -0.398   1.918  -0.711  1.00  0.00    -0.055 C 
HETATM    3  C3  UNL     1      -0.054   0.722  -1.255  1.00  0.00     0.035 C 
HETATM    4  C11 UNL     1      -0.818  -0.480  -1.576  1.00  0.00     0.040 C 
HETATM    5  P1  UNL     1      -2.277  -1.269  -1.633  1.00  0.00    -0.066 P 
HETATM    6  C12 UNL     1      -2.156  -2.682  -0.667  1.00  0.00     0.010 C 
HETATM    7  C13 UNL     1      -2.915  -2.843   0.634  1.00  0.00    -0.000 C 
HETATM    8  C14 UNL     1      -3.692  -1.792   0.988  1.00  0.00     0.005 C 
HETATM    9  C15 UNL     1      -3.968  -0.462   0.341  1.00  0.00     0.149 C 
HETATM   10  C16 UNL     1      -3.886  -0.531  -1.123  1.00  0.00     0.078 C 
HETATM   11  O1  UNL     1      -3.424   0.601   0.924  1.00  0.00    -0.381 OA
HETATM   12  C17 UNL     1      -2.194   1.075   0.772  1.00  0.00     0.173 C 
HETATM   13  C18 UNL     1      -1.885   1.650  -0.568  1.00  0.00     0.062 C 
ENDROOT
BRANCH   3  14
HETATM   14  N1  UNL     1       1.336   0.865  -1.451  1.00  0.00    -0.356 N 
HETATM   15  H4  UNL     1       1.647   1.384  -2.303  1.00  0.00     0.166 HD
BRANCH  14  16
HETATM   16  C4  UNL     1       2.298   0.352  -0.572  1.00  0.00     0.029 C 
HETATM   17  C5  UNL     1       3.553   0.668  -0.796  1.00  0.00     0.006 C 
HETATM   18  C6  UNL     1       4.872   0.398  -0.194  1.00  0.00     0.056 C 
HETATM   19  C7  UNL     1       4.887  -0.681   0.798  1.00  0.00    -0.023 C 
HETATM   20  C8  UNL     1       3.988  -1.373   1.474  1.00  0.00    -0.004 C 
HETATM   21  C9  UNL     1       2.535  -1.227   1.402  1.00  0.00     0.002 C 
HETATM   22  C10 UNL     1       1.859  -0.492   0.527  1.00  0.00     0.029 C 
ENDBRANCH  14  16
ENDBRANCH   3  14
TORSDOF 2
