REMARK  3 active torsions:
REMARK  status: ('A' for Active; 'I' for Inactive)
REMARK    1  A    between atoms: C10_12  and  C11_13 
REMARK    2  A    between atoms: C11_13  and  C12_14 
REMARK    3  A    between atoms: C12_14  and  C13_15 
ROOT
HETATM    1  C1  UNL     1      -2.100   2.511   1.302  1.00  0.00     0.118 A 
HETATM    2  N1  UNL     1      -3.291   2.032   1.167  1.00  0.00    -0.260 NA
HETATM    3  C2  UNL     1      -3.728   0.844   0.515  1.00  0.00     0.070 A 
HETATM    4  C3  UNL     1      -5.096   0.609   0.557  1.00  0.00     0.032 A 
HETATM    5  C4  UNL     1      -5.612  -0.522  -0.086  1.00  0.00     0.005 A 
HETATM    6  C5  UNL     1      -4.792  -1.421  -0.767  1.00  0.00     0.038 A 
HETATM    7  C6  UNL     1      -3.425  -1.216  -0.827  1.00  0.00     0.088 A 
HETATM    8  O1  UNL     1      -2.386  -1.832  -1.362  1.00  0.00    -0.321 OA
HETATM    9  C7  UNL     1      -1.269  -1.194  -1.115  1.00  0.00     0.155 A 
HETATM   10  C8  UNL     1      -1.609  -0.092  -0.367  1.00  0.00     0.008 A 
HETATM   11  C9  UNL     1      -2.975  -0.084  -0.174  1.00  0.00     0.039 A 
HETATM   12  C10 UNL     1      -0.578   0.823   0.087  1.00  0.00    -0.043 A 
HETATM   13  C19 UNL     1      -0.860   1.927   0.802  1.00  0.00     0.027 A 
ENDROOT
BRANCH  12  14
HETATM   14  C11 UNL     1       0.858   0.652  -0.188  1.00  0.00     0.044 C 
BRANCH  14  15
HETATM   15  C12 UNL     1       1.542  -0.444   0.547  1.00  0.00     0.043 C 
BRANCH  15  16
HETATM   16  C13 UNL     1       3.003  -0.528   0.176  1.00  0.00    -0.058 A 
HETATM   17  C14 UNL     1       3.466  -1.307  -0.863  1.00  0.00     0.007 A 
HETATM   18  C15 UNL     1       4.836  -1.296  -1.102  1.00  0.00     0.001 A 
HETATM   19  C16 UNL     1       5.723  -0.544  -0.341  1.00  0.00     0.000 A 
HETATM   20  C17 UNL     1       5.241   0.239   0.707  1.00  0.00     0.001 A 
HETATM   21  C18 UNL     1       3.880   0.220   0.934  1.00  0.00     0.007 A 
ENDBRANCH  15  16
ENDBRANCH  14  15
ENDBRANCH  12  14
TORSDOF 3
