REMARK  0 active torsions:
REMARK  status: ('A' for Active; 'I' for Inactive)
ROOT
HETATM    1  C1  UNL     1       1.756   2.338  -1.477  1.00  0.00     0.023 C 
HETATM    2  C2  UNL     1       2.146   1.018  -0.580  1.00  0.00    -0.134 C 
HETATM    3  C3  UNL     1       2.438   0.064   0.042  1.00  0.00     0.039 A 
HETATM    4  C4  UNL     1       3.707  -0.186  -0.515  1.00  0.00     0.022 A 
HETATM    5  C5  UNL     1       3.820  -1.686  -0.258  1.00  0.00     0.002 A 
HETATM    6  C6  UNL     1       3.073  -2.508   0.259  1.00  0.00     0.003 A 
HETATM    7  C7  UNL     1       1.787  -2.046   0.796  1.00  0.00     0.038 A 
HETATM    8  C8  UNL     1       1.487  -0.640   0.647  1.00  0.00     0.089 A 
HETATM    9  O1  UNL     1       0.195  -0.178   1.150  1.00  0.00    -0.317 OA
HETATM   10  C9  UNL     1      -0.770  -1.191   1.261  1.00  0.00     0.300 A 
HETATM   11  N1  UNL     1      -0.968  -1.681   2.621  1.00  0.00    -0.263 NA
HETATM   12  C10 UNL     1      -2.213  -1.649   2.802  1.00  0.00     0.116 A 
HETATM   13  C11 UNL     1      -3.063  -1.144   1.692  1.00  0.00     0.048 A 
HETATM   14  C12 UNL     1      -2.114  -0.877   0.776  1.00  0.00     0.057 A 
HETATM   15  N2  UNL     1      -2.643  -0.407  -0.534  1.00  0.00    -0.389 N 
HETATM   16  C13 UNL     1      -2.612   1.117  -0.411  1.00  0.00     0.125 C 
HETATM   17  C14 UNL     1      -1.106   1.358  -0.299  1.00  0.00     0.037 C 
HETATM   18  C15 UNL     1      -1.014   2.491  -1.453  1.00  0.00    -0.017 C 
HETATM   19  C16 UNL     1       0.070   3.435  -2.236  1.00  0.00    -0.003 C 
HETATM   20  C17 UNL     1       1.438   3.326  -2.164  1.00  0.00     0.066 C 
HETATM   21  H8  UNL     1      -2.874  -1.259  -1.120  1.00  0.00     0.159 HD
ENDROOT
TORSDOF 0
