REMARK  8 active torsions:
REMARK  status: ('A' for Active; 'I' for Inactive)
REMARK    1  A    between atoms: C2_2  and  C3_3 
REMARK    2  A    between atoms: C4_4  and  C5_5 
REMARK    3  A    between atoms: C6_6  and  C7_7 
REMARK    4  A    between atoms: C7_7  and  C8_8 
REMARK    5  A    between atoms: C8_8  and  N1_9 
REMARK    6  A    between atoms: N1_9  and  C9_10 
REMARK    7  A    between atoms: C14_16  and  C15_17 
REMARK    8  A    between atoms: C15_17  and  C16_18 
ROOT
HETATM    1  C9  UNL     1       1.457   2.121   0.610  1.00  0.00     0.046 A 
HETATM    2  C10 UNL     1       1.337   3.311   1.269  1.00  0.00     0.049 A 
HETATM    3  C11 UNL     1       2.044   3.855   2.316  1.00  0.00     0.122 A 
HETATM    4  N2  UNL     1       3.022   2.988   2.710  1.00  0.00    -0.236 NA
HETATM    5  C12 UNL     1       3.233   1.821   2.156  1.00  0.00     0.185 A 
HETATM    6  C13 UNL     1       2.502   1.298   1.097  1.00  0.00     0.077 A 
HETATM    7  C14 UNL     1       3.300   0.099   1.101  1.00  0.00     0.094 A 
HETATM    8  O1  UNL     1       4.007   0.629   2.142  1.00  0.00    -0.290 OA
ENDROOT
BRANCH   1   9
HETATM    9  N1  UNL     1       0.733   1.588  -0.455  1.00  0.00    -0.389 N 
HETATM   10  H12 UNL     1       1.007   0.645  -0.829  1.00  0.00     0.159 HD
BRANCH   9  11
HETATM   11  C8  UNL     1      -0.386   2.003  -1.266  1.00  0.00     0.123 C 
BRANCH  11  12
HETATM   12  C7  UNL     1      -1.666   2.078  -0.451  1.00  0.00     0.047 C 
BRANCH  12  13
HETATM   13  C6  UNL     1      -1.957   0.774   0.141  1.00  0.00    -0.025 C 
HETATM   14  C5  UNL     1      -2.867  -0.181   0.159  1.00  0.00    -0.004 C 
BRANCH  14  15
HETATM   15  C4  UNL     1      -4.151  -0.390  -0.484  1.00  0.00    -0.004 C 
HETATM   16  C3  UNL     1      -4.994  -1.428  -0.338  1.00  0.00    -0.021 C 
BRANCH  16  17
HETATM   17  C2  UNL     1      -6.145  -1.236  -1.158  1.00  0.00     0.034 C 
HETATM   18  C1  UNL     1      -7.279  -1.649  -1.577  1.00  0.00    -0.008 C 
ENDBRANCH  16  17
ENDBRANCH  14  15
ENDBRANCH  12  13
ENDBRANCH  11  12
ENDBRANCH   9  11
ENDBRANCH   1   9
BRANCH   7  19
HETATM   19  C15 UNL     1       3.362  -1.016   0.435  1.00  0.00     0.038 C 
BRANCH  19  20
HETATM   20  C16 UNL     1       4.225  -2.179   0.524  1.00  0.00    -0.002 C 
HETATM   21  C17 UNL     1       4.164  -3.282  -0.274  1.00  0.00    -0.031 C 
HETATM   22  C18 UNL     1       5.245  -4.143   0.234  1.00  0.00     0.036 C 
ENDBRANCH  19  20
ENDBRANCH   7  19
TORSDOF 8
