REMARK  5 active torsions:
REMARK  status: ('A' for Active; 'I' for Inactive)
REMARK    1  A    between atoms: C1_2  and  C2_3 
REMARK    2  A    between atoms: C3_4  and  N2_5 
REMARK    3  A    between atoms: C3_4  and  C11_13 
REMARK    4  A    between atoms: N2_5  and  C4_6 
REMARK    5  A    between atoms: C4_6  and  C5_7 
ROOT
HETATM    1  C2  UNL     1      -1.256   2.039  -0.716  1.00  0.00     0.043 C 
HETATM    2  C3  UNL     1      -0.990   0.908  -0.080  1.00  0.00     0.012 C 
ENDROOT
BRANCH   2   3
HETATM    3  N2  UNL     1       0.337   0.341   0.014  1.00  0.00    -0.389 N 
HETATM    4  H4  UNL     1       0.706   1.048   0.696  1.00  0.00     0.159 HD
BRANCH   3   5
HETATM    5  C4  UNL     1       1.137  -0.751  -0.496  1.00  0.00     0.158 C 
BRANCH   5   6
HETATM    6  C5  UNL     1       2.495  -0.622   0.120  1.00  0.00    -0.041 A 
HETATM    7  C6  UNL     1       3.496   0.118  -0.477  1.00  0.00     0.009 A 
HETATM    8  C7  UNL     1       4.748   0.238   0.087  1.00  0.00     0.001 A 
HETATM    9  C8  UNL     1       5.028  -0.393   1.287  1.00  0.00     0.000 A 
HETATM   10  C9  UNL     1       4.060  -1.139   1.916  1.00  0.00     0.001 A 
HETATM   11  C10 UNL     1       2.816  -1.233   1.314  1.00  0.00     0.009 A 
ENDBRANCH   5   6
ENDBRANCH   3   5
ENDBRANCH   2   3
BRANCH   2  12
HETATM   12  C11 UNL     1      -1.786  -0.034   0.640  1.00  0.00     0.055 A 
HETATM   13  O1  UNL     1      -1.742  -1.375   0.052  1.00  0.00     0.000 OA
HETATM   14  C12 UNL     1      -3.214  -1.637  -0.388  1.00  0.00     0.007 A 
HETATM   15  C17 UNL     1      -2.116  -1.277   0.014  1.00  0.00     0.025 A 
HETATM   16  C13 UNL     1      -4.617  -1.581  -0.670  1.00  0.00    -0.015 A 
HETATM   17  C16 UNL     1      -3.216  -0.136   0.286  1.00  0.00     0.005 A 
HETATM   18  C14 UNL     1      -5.325  -0.470  -0.325  1.00  0.00    -0.006 A 
HETATM   19  C15 UNL     1      -4.445   0.416   0.265  1.00  0.00    -0.015 A 
ENDBRANCH   2  12
BRANCH   1  20
HETATM   20  C1  UNL     1      -0.194   2.767  -1.358  1.00  0.00     0.109 C 
HETATM   21  N1  UNL     1       1.001   2.302  -1.301  1.00  0.00    -0.312 NA
HETATM   22  H1  UNL     1       1.823   2.747  -1.726  1.00  0.00     0.186 HD
ENDBRANCH   1  20
TORSDOF 5
