REMARK  5 active torsions:
REMARK  status: ('A' for Active; 'I' for Inactive)
REMARK    1  A    between atoms: O1_2  and  C2_3 
REMARK    2  A    between atoms: C2_3  and  C3_4 
REMARK    3  A    between atoms: C5_6  and  O2_7 
REMARK    4  A    between atoms: C12_15  and  N2_16 
REMARK    5  A    between atoms: N2_16  and  C13_17 
ROOT
HETATM    1  C3  UNL     1       2.921  -0.473   0.692  1.00  0.00    -0.021 A 
HETATM    2  C4  UNL     1       4.107   0.259   0.564  1.00  0.00     0.046 A 
HETATM    3  C5  UNL     1       4.247   1.417  -0.171  1.00  0.00     0.071 A 
HETATM    4  C7  UNL     1       3.141   1.900  -0.837  1.00  0.00     0.074 A 
HETATM    5  C8  UNL     1       1.959   1.187  -0.720  1.00  0.00     0.089 A 
HETATM    6  C9  UNL     1       1.810   0.011   0.025  1.00  0.00     0.002 A 
HETATM    7  C10 UNL     1       0.691  -0.883   0.281  1.00  0.00     0.162 C 
HETATM    8  N1  UNL     1      -0.562  -0.537  -0.324  1.00  0.00    -0.379 N 
HETATM    9  C11 UNL     1      -1.141   0.689  -0.763  1.00  0.00     0.129 A 
HETATM   10  C12 UNL     1      -2.499   0.695  -0.628  1.00  0.00     0.160 A 
HETATM   11  N3  UNL     1      -3.064   1.816  -1.047  1.00  0.00    -0.222 NA
HETATM   12  C19 UNL     1      -2.447   2.884  -1.561  1.00  0.00     0.238 A 
HETATM   13  N4  UNL     1      -1.089   2.852  -1.685  1.00  0.00    -0.215 NA
HETATM   14  C20 UNL     1      -0.401   1.742  -1.283  1.00  0.00     0.202 A 
HETATM   15  O3  UNL     1       0.991   1.863  -1.474  1.00  0.00    -0.289 OA
HETATM   16  H13 UNL     1      -1.236  -1.343  -0.506  1.00  0.00     0.160 HD
ENDROOT
BRANCH  10  17
HETATM   17  N2  UNL     1      -3.227  -0.381  -0.089  1.00  0.00    -0.339 N 
HETATM   18  H14 UNL     1      -2.908  -1.287   0.298  1.00  0.00     0.167 HD
BRANCH  17  19
HETATM   19  C13 UNL     1      -4.635  -0.438   0.063  1.00  0.00     0.035 A 
HETATM   20  C14 UNL     1      -5.349   0.731   0.186  1.00  0.00     0.029 A 
HETATM   21  C15 UNL     1      -6.720   0.743   0.314  1.00  0.00     0.004 A 
HETATM   22  C16 UNL     1      -7.462  -0.408   0.330  1.00  0.00     0.019 A 
HETATM   23  C17 UNL     1      -6.793  -1.599   0.211  1.00  0.00     0.013 A 
HETATM   24 BR1  UNL     1      -7.707  -3.270   0.219  1.00  0.00    -0.051 Br
HETATM   25  C18 UNL     1      -5.429  -1.567   0.085  1.00  0.00     0.048 A 
ENDBRANCH  17  19
ENDBRANCH  10  17
BRANCH   1  26
HETATM   26  C2  UNL     1       2.914  -1.694   1.513  1.00  0.00     0.206 C 
BRANCH  26  27
HETATM   27  O1  UNL     1       2.924  -2.841   0.705  1.00  0.00    -0.391 OA
HETATM   28  C1  UNL     1       4.106  -2.753  -0.057  1.00  0.00     0.201 C 
ENDBRANCH  26  27
ENDBRANCH   1  26
BRANCH   3  29
HETATM   29  O2  UNL     1       5.464   2.079  -0.243  1.00  0.00    -0.356 OA
HETATM   30  C6  UNL     1       6.620   1.647   0.405  1.00  0.00     0.210 C 
ENDBRANCH   3  29
TORSDOF 5
