REMARK  4 active torsions:
REMARK  status: ('A' for Active; 'I' for Inactive)
REMARK    1  A    between atoms: C6_8  and  N2_9 
REMARK    2  A    between atoms: N2_9  and  C7_10 
REMARK    3  A    between atoms: C7_10  and  C8_11 
REMARK    4  A    between atoms: C15_18  and  C16_19 
ROOT
HETATM    1  C1  UNL     1       4.887  -0.284   1.656  1.00  0.00     0.073 C 
HETATM    2  C2  UNL     1       3.641  -0.674   1.781  1.00  0.00     0.068 A 
HETATM    3  O1  UNL     1       3.200  -1.494   2.669  1.00  0.00    -0.295 OA
HETATM    4  C3  UNL     1       1.926  -1.706   2.565  1.00  0.00     0.182 A 
HETATM    5  N1  UNL     1       1.133  -2.494   3.312  1.00  0.00    -0.236 NA
HETATM    6  C4  UNL     1      -0.185  -2.572   3.029  1.00  0.00     0.122 A 
HETATM    7  C5  UNL     1      -0.629  -1.828   1.979  1.00  0.00     0.049 A 
HETATM    8  C6  UNL     1       0.179  -1.002   1.190  1.00  0.00     0.045 A 
HETATM    9  C14 UNL     1       1.518  -0.937   1.495  1.00  0.00     0.057 A 
HETATM   10  C15 UNL     1       2.584  -0.253   0.955  1.00  0.00     0.021 A 
ENDROOT
BRANCH   8  11
HETATM   11  N2  UNL     1      -0.444  -0.296   0.132  1.00  0.00    -0.385 N 
HETATM   12  H5  UNL     1      -0.085   0.344  -0.561  1.00  0.00     0.160 HD
BRANCH  11  13
HETATM   13  C7  UNL     1      -1.841  -0.434  -0.096  1.00  0.00     0.158 C 
BRANCH  13  14
HETATM   14  C8  UNL     1      -2.417   0.303  -1.214  1.00  0.00    -0.041 A 
HETATM   15  C9  UNL     1      -2.911   1.599  -1.035  1.00  0.00     0.009 A 
HETATM   16  C10 UNL     1      -3.466   2.333  -2.069  1.00  0.00     0.001 A 
HETATM   17  C11 UNL     1      -3.521   1.734  -3.325  1.00  0.00     0.000 A 
HETATM   18  C12 UNL     1      -3.031   0.459  -3.486  1.00  0.00     0.001 A 
HETATM   19  C13 UNL     1      -2.486  -0.268  -2.478  1.00  0.00     0.009 A 
ENDBRANCH  13  14
ENDBRANCH  11  13
ENDBRANCH   8  11
BRANCH  10  20
HETATM   20  C16 UNL     1       2.535   0.586  -0.097  1.00  0.00    -0.022 A 
HETATM   21  C17 UNL     1       2.314   1.476  -1.263  1.00  0.00     0.013 A 
HETATM   22  C18 UNL     1       3.548   1.405  -0.811  1.00  0.00     0.013 A 
ENDBRANCH  10  20
TORSDOF 4
