REMARK  6 active torsions:
REMARK  status: ('A' for Active; 'I' for Inactive)
REMARK    1  A    between atoms: C6_6  and  N1_7 
REMARK    2  A    between atoms: N1_7  and  C7_8 
REMARK    3  A    between atoms: C7_8  and  C8_9 
REMARK    4  A    between atoms: C9_10  and  N2_11 
REMARK    5  A    between atoms: N2_11  and  C10_12 
REMARK    6  A    between atoms: C10_12  and  C11_13 
ROOT
HETATM    1  C8  UNL     1       0.280   1.113  -0.407  1.00  0.00     0.013 C 
HETATM    2  C9  UNL     1      -0.667   1.938  -0.804  1.00  0.00     0.080 C 
ENDROOT
BRANCH   1   3
HETATM    3  C7  UNL     1       1.710   1.394  -0.342  1.00  0.00     0.262 C 
BRANCH   3   4
HETATM    4  N1  UNL     1       2.904   1.880  -0.375  1.00  0.00    -0.281 NA
BRANCH   4   5
HETATM    5  C6  UNL     1       3.960   0.996   0.055  1.00  0.00     0.117 A 
HETATM    6  C5  UNL     1       4.056  -0.287  -0.451  1.00  0.00     0.063 A 
HETATM    7  C4  UNL     1       5.173  -0.812   0.190  1.00  0.00     0.002 A 
HETATM    8  C3  UNL     1       5.884  -1.931   0.241  1.00  0.00     0.015 A 
HETATM    9  C17 UNL     1       5.666   0.169   1.022  1.00  0.00     0.099 A 
HETATM   10  C2  UNL     1       6.953  -1.634   1.217  1.00  0.00     0.016 A 
HETATM   11  C1  UNL     1       6.702  -0.395   1.581  1.00  0.00     0.012 A 
HETATM   12  O1  UNL     1       4.917   1.244   0.921  1.00  0.00    -0.298 OA
ENDBRANCH   4   5
ENDBRANCH   3   4
ENDBRANCH   1   3
BRANCH   2  13
HETATM   13  N2  UNL     1      -1.899   1.278  -0.714  1.00  0.00    -0.395 N 
HETATM   14  H7  UNL     1      -2.284   1.425  -1.670  1.00  0.00     0.159 HD
BRANCH  13  15
HETATM   15  C10 UNL     1      -2.331   0.619   0.506  1.00  0.00     0.157 C 
BRANCH  15  16
HETATM   16  C11 UNL     1      -3.671   0.017   0.288  1.00  0.00    -0.041 A 
HETATM   17  C12 UNL     1      -4.826   0.731   0.545  1.00  0.00     0.009 A 
HETATM   18  C13 UNL     1      -6.041   0.104   0.317  1.00  0.00     0.001 A 
HETATM   19  C14 UNL     1      -6.112  -1.209  -0.158  1.00  0.00     0.000 A 
HETATM   20  C15 UNL     1      -4.940  -1.922  -0.414  1.00  0.00     0.001 A 
HETATM   21  C16 UNL     1      -3.740  -1.279  -0.181  1.00  0.00     0.009 A 
ENDBRANCH  15  16
ENDBRANCH  13  15
ENDBRANCH   2  13
TORSDOF 6
