REMARK  13 active torsions:
REMARK  status: ('A' for Active; 'I' for Inactive)
REMARK    1  A    between atoms: C2_2  and  C3_3 
REMARK    2  A    between atoms: C4_4  and  C5_5 
REMARK    3  A    between atoms: C5_5  and  C6_6 
REMARK    4  A    between atoms: C6_6  and  N1_7 
REMARK    5  A    between atoms: N1_7  and  C7_8 
REMARK    6  A    between atoms: C11_15  and  C12_16 
REMARK    7  A    between atoms: C12_16  and  N5_17 
REMARK    8  A    between atoms: C15_20  and  N6_21 
REMARK    9  A    between atoms: N8_27  and  C20_28 
REMARK   10  A    between atoms: C20_28  and  C21_29 
REMARK   11  A    between atoms: C21_29  and  C22_30 
REMARK   12  A    between atoms: C22_30  and  C23_31 
REMARK   13  A    between atoms: C23_31  and  C24_32 
ROOT
HETATM    1  C7  UNL     1      -1.024   2.444   1.295  1.00  0.00     0.154 A 
HETATM    2  N2  UNL     1      -0.207   3.506   1.215  1.00  0.00    -0.221 NA
HETATM    3  C8  UNL     1      -0.657   4.675   0.749  1.00  0.00     0.258 A 
HETATM    4  N3  UNL     1      -1.940   4.790   0.357  1.00  0.00    -0.161 NA
HETATM    5  N4  UNL     1      -2.768   3.736   0.432  1.00  0.00    -0.240 N 
HETATM    6  C9  UNL     1      -4.062   3.709   0.078  1.00  0.00     0.119 A 
HETATM    7  C10 UNL     1      -4.428   2.411   0.353  1.00  0.00     0.030 A 
HETATM    8  C11 UNL     1      -3.370   1.644   0.872  1.00  0.00    -0.007 A 
HETATM    9  C18 UNL     1      -2.332   2.555   0.897  1.00  0.00     0.111 A 
ENDROOT
BRANCH   1  10
HETATM   10  N1  UNL     1      -0.481   1.227   1.810  1.00  0.00    -0.369 N 
HETATM   11  H8  UNL     1      -0.887   0.306   1.972  1.00  0.00     0.161 HD
BRANCH  10  12
HETATM   12  C6  UNL     1       0.909   1.166   2.211  1.00  0.00     0.149 C 
BRANCH  12  13
HETATM   13  C5  UNL     1       1.747   1.325   0.990  1.00  0.00     0.008 C 
BRANCH  13  14
HETATM   14  C4  UNL     1       2.375   0.294   0.430  1.00  0.00     0.009 A 
HETATM   15  C3  UNL     1       3.171   0.340  -0.699  1.00  0.00     0.060 A 
HETATM   16  N8  UNL     1       3.579  -0.939  -0.869  1.00  0.00    -0.270 N 
HETATM   17  N7  UNL     1       3.063  -1.676   0.083  1.00  0.00    -0.184 NA
HETATM   18  C19 UNL     1       2.299  -0.969   0.930  1.00  0.00     0.152 A 
BRANCH  15  19
HETATM   19  C2  UNL     1       3.513   1.325  -1.485  1.00  0.00     0.001 C 
HETATM   20  C1  UNL     1       3.190   2.747  -1.478  1.00  0.00     0.038 C 
ENDBRANCH  15  19
BRANCH  16  21
HETATM   21  C20 UNL     1       4.444  -1.467  -1.912  1.00  0.00     0.152 C 
BRANCH  21  22
HETATM   22  C21 UNL     1       5.867  -1.350  -1.364  1.00  0.00     0.040 C 
BRANCH  22  23
HETATM   23  C22 UNL     1       5.950  -2.135  -0.140  1.00  0.00     0.075 C 
BRANCH  23  24
HETATM   24  C23 UNL     1       6.501  -3.339  -0.193  1.00  0.00    -0.121 C 
BRANCH  24  25
HETATM   25  C24 UNL     1       6.919  -4.563  -0.486  1.00  0.00     0.239 C 
HETATM   26  F1  UNL     1       5.969  -5.449  -0.853  1.00  0.00    -0.211 F 
ENDBRANCH  24  25
ENDBRANCH  23  24
ENDBRANCH  22  23
ENDBRANCH  21  22
ENDBRANCH  16  21
ENDBRANCH  13  14
ENDBRANCH  12  13
ENDBRANCH  10  12
ENDBRANCH   1  10
BRANCH   8  27
HETATM   27  C12 UNL     1      -3.430   0.244   1.264  1.00  0.00     0.158 C 
BRANCH  27  28
HETATM   28  N5  UNL     1      -2.852  -0.718   0.396  1.00  0.00    -0.408 N 
HETATM   29  C13 UNL     1      -2.930  -2.080   0.786  1.00  0.00     0.119 C 
HETATM   30  C14 UNL     1      -4.326  -2.592   0.499  1.00  0.00     0.055 C 
HETATM   31  C15 UNL     1      -4.686  -2.204  -0.901  1.00  0.00     0.221 C 
HETATM   32  C16 UNL     1      -3.533  -1.661  -1.711  1.00  0.00     0.055 C 
HETATM   33  C17 UNL     1      -2.884  -0.466  -0.997  1.00  0.00     0.119 C 
BRANCH  31  34
HETATM   34  N6  UNL     1      -5.803  -1.280  -0.862  1.00  0.00     0.083 N 
HETATM   35  H19 UNL     1      -5.567  -0.308  -1.088  1.00  0.00     0.313 HD
HETATM   36  H20 UNL     1      -6.367  -1.449  -0.024  1.00  0.00     0.313 HD
ENDBRANCH  31  34
ENDBRANCH  27  28
ENDBRANCH   8  27
TORSDOF 13
