REMARK  3 active torsions:
REMARK  status: ('A' for Active; 'I' for Inactive)
REMARK    1  A    between atoms: B1_9  and  C8_10 
REMARK    2  A    between atoms: C11_13  and  N2_14 
REMARK    3  A    between atoms: C13_17  and  C14_18 
ROOT
HETATM    1  C1  UNL     1      -0.995   2.442   1.580  1.00  0.00     0.004 C 
HETATM    2  C2  UNL     1      -0.070   1.621   1.177  1.00  0.00    -0.097 C 
HETATM    3  C3  UNL     1       1.137   1.231   2.130  1.00  0.00     0.059 C 
HETATM    4  C4  UNL     1       1.723   0.030   1.489  1.00  0.00    -0.051 C 
HETATM    5  C5  UNL     1       1.921  -1.264   1.642  1.00  0.00     0.007 C 
HETATM    6  C6  UNL     1       1.390  -2.104   0.523  1.00  0.00     0.016 C 
HETATM    7  C7  UNL     1       0.741  -1.605  -0.576  1.00  0.00     0.071 C 
HETATM    8  N1  UNL     1       0.810  -0.187  -0.403  1.00  0.00    -0.422 N 
HETATM    9  B1  UNL     1      -0.233   1.002  -0.358  1.00  0.00     0.360 B 
HETATM   10  C13 UNL     1       2.113   0.448   0.040  1.00  0.00     0.132 C 
ENDROOT
BRANCH   9  11
HETATM   11  C8  UNL     1      -1.698   0.444  -0.770  1.00  0.00     0.209 C 
HETATM   12  C9  UNL     1      -2.321  -0.405   0.256  1.00  0.00     0.030 C 
HETATM   13  C10 UNL     1      -3.798  -0.183   0.455  1.00  0.00     0.038 C 
HETATM   14  C11 UNL     1      -4.354   0.034  -0.954  1.00  0.00     0.245 C 
HETATM   15  C12 UNL     1      -3.843   1.387  -1.378  1.00  0.00     0.304 C 
HETATM   16  N3  UNL     1      -2.446   1.563  -1.233  1.00  0.00     0.084 N 
HETATM   17  H18 UNL     1      -2.029   2.002  -2.083  1.00  0.00     0.315 HD
BRANCH  14  18
HETATM   18  N2  UNL     1      -5.807   0.148  -0.761  1.00  0.00     0.084 N 
HETATM   19  H14 UNL     1      -6.117  -0.824  -0.477  1.00  0.00     0.313 HD
HETATM   20  H15 UNL     1      -6.307   0.376  -1.643  1.00  0.00     0.313 HD
ENDBRANCH  14  18
ENDBRANCH   9  11
BRANCH  10  21
HETATM   21  C14 UNL     1       3.276  -0.223  -0.475  1.00  0.00    -0.029 A 
HETATM   22  C15 UNL     1       4.303  -0.453   0.426  1.00  0.00     0.010 A 
HETATM   23  C16 UNL     1       5.468  -1.097   0.015  1.00  0.00     0.004 A 
HETATM   24  C17 UNL     1       5.544  -1.488  -1.316  1.00  0.00     0.042 A 
HETATM   25  C18 UNL     1       4.513  -1.254  -2.213  1.00  0.00     0.117 A 
HETATM   26  F1  UNL     1       4.687  -1.679  -3.503  1.00  0.00    -0.206 F 
HETATM   27  C19 UNL     1       3.356  -0.613  -1.796  1.00  0.00     0.051 A 
ENDBRANCH  10  21
TORSDOF 3
