REMARK  1 active torsions:
REMARK  status: ('A' for Active; 'I' for Inactive)
REMARK    1  A    between atoms: N1_1  and  C1_2 
ROOT
HETATM    1  C1  UNL     1      -2.441  -1.172   1.199  1.00  0.00     0.232 C 
HETATM    2  C2  UNL     1      -3.790  -0.893   0.622  1.00  0.00     0.055 C 
HETATM    3  C3  UNL     1      -3.670   0.285  -0.379  1.00  0.00     0.119 C 
HETATM    4  N2  UNL     1      -2.635   0.068  -1.294  1.00  0.00    -0.407 N 
HETATM    5  C4  UNL     1      -2.114  -1.273  -1.371  1.00  0.00     0.132 C 
HETATM    6  C5  UNL     1      -1.598  -1.636  -0.007  1.00  0.00     0.043 C 
HETATM    7  C6  UNL     1      -0.436  -2.290  -0.120  1.00  0.00     0.143 C 
HETATM    8  N3  UNL     1       0.762  -2.966   0.325  1.00  0.00    -0.298 N 
HETATM    9  C7  UNL     1       1.360  -2.993   1.653  1.00  0.00     0.151 C 
HETATM   10  C8  UNL     1       2.569  -3.775   1.833  1.00  0.00     0.020 C 
HETATM   11  C9  UNL     1       3.538  -2.965   1.449  1.00  0.00     0.022 C 
HETATM   12  C10 UNL     1       4.835  -2.430   1.146  1.00  0.00    -0.021 C 
HETATM   13  C11 UNL     1       4.785  -1.189   0.602  1.00  0.00    -0.004 C 
HETATM   14  C12 UNL     1       3.535  -0.549   0.425  1.00  0.00    -0.002 C 
HETATM   15  C13 UNL     1       2.255  -0.022   0.316  1.00  0.00     0.002 C 
HETATM   16  C14 UNL     1       2.389   1.219  -0.453  1.00  0.00     0.129 C 
HETATM   17  C15 UNL     1       2.272   0.510  -1.906  1.00  0.00     0.004 C 
HETATM   18  C16 UNL     1       1.812  -0.854  -1.949  1.00  0.00     0.019 C 
HETATM   19  C17 UNL     1       1.319  -2.264  -1.801  1.00  0.00     0.138 C 
HETATM   20  N4  UNL     1       0.859  -3.316  -1.057  1.00  0.00    -0.189 NA
HETATM   21  N5  UNL     1       1.337   2.157  -0.486  1.00  0.00    -0.362 N 
HETATM   22  C18 UNL     1       0.321   3.098  -0.081  1.00  0.00     0.155 A 
HETATM   23  N6  UNL     1       0.994   4.047   0.573  1.00  0.00    -0.221 NA
HETATM   24  C19 UNL     1       0.379   5.163   1.054  1.00  0.00     0.258 A 
HETATM   25  N7  UNL     1      -0.941   5.239   0.819  1.00  0.00    -0.161 NA
HETATM   26  N8  UNL     1      -1.501   4.247   0.164  1.00  0.00    -0.240 N 
HETATM   27  C20 UNL     1      -2.813   4.218  -0.162  1.00  0.00     0.119 A 
HETATM   28  C21 UNL     1      -3.192   3.096  -0.873  1.00  0.00     0.030 A 
HETATM   29  C22 UNL     1      -1.983   2.385  -0.973  1.00  0.00    -0.007 A 
HETATM   30  C23 UNL     1      -1.045   3.112  -0.355  1.00  0.00     0.111 A 
HETATM   31  C24 UNL     1      -1.670   1.061  -1.583  1.00  0.00     0.158 C 
HETATM   32  H23 UNL     1       1.042   2.399  -1.485  1.00  0.00     0.162 HD
ENDROOT
BRANCH   1  33
HETATM   33  N1  UNL     1      -1.790  -0.058   1.812  1.00  0.00     0.083 N 
HETATM   34  H1  UNL     1      -2.387   0.513   2.412  1.00  0.00     0.313 HD
HETATM   35  H2  UNL     1      -0.864  -0.343   2.163  1.00  0.00     0.313 HD
ENDBRANCH   1  33
TORSDOF 1
