REMARK  7 active torsions:
REMARK  status: ('A' for Active; 'I' for Inactive)
REMARK    1  A    between atoms: C1_2  and  C2_3 
REMARK    2  A    between atoms: C8_11  and  N3_12 
REMARK    3  A    between atoms: N3_12  and  C9_13 
REMARK    4  A    between atoms: C11_15  and  C12_16 
REMARK    5  A    between atoms: C12_16  and  O1_17 
REMARK    6  A    between atoms: O1_17  and  C13_18 
REMARK    7  A    between atoms: C13_18  and  C14_19 
ROOT
HETATM    1  C9  UNL     1      -0.846   0.123  -2.408  1.00  0.00     0.131 A 
HETATM    2  C10 UNL     1       0.344   0.306  -1.687  1.00  0.00     0.080 A 
HETATM    3  C11 UNL     1       1.496  -0.128  -2.321  1.00  0.00     0.063 A 
HETATM    4  N5  UNL     1       1.493  -0.700  -3.569  1.00  0.00    -0.244 NA
HETATM    5  C18 UNL     1       0.300  -0.851  -4.217  1.00  0.00     0.235 A 
HETATM    6  N6  UNL     1      -0.820  -0.440  -3.623  1.00  0.00    -0.224 NA
ENDROOT
BRANCH   1   7
HETATM    7  N3  UNL     1      -2.014   0.589  -1.750  1.00  0.00    -0.341 N 
HETATM    8  H8  UNL     1      -2.134   1.485  -2.263  1.00  0.00     0.167 HD
BRANCH   7   9
HETATM    9  C8  UNL     1      -2.849   0.096  -0.713  1.00  0.00     0.035 A 
HETATM   10  C7  UNL     1      -2.455  -1.024  -0.016  1.00  0.00     0.044 A 
HETATM   11  C6  UNL     1      -3.294  -1.458   0.988  1.00  0.00     0.015 A 
HETATM   12  C5  UNL     1      -3.331  -2.492   1.931  1.00  0.00     0.152 A 
HETATM   13  C21 UNL     1      -4.467  -0.763   1.241  1.00  0.00     0.075 A 
HETATM   14  N2  UNL     1      -4.464  -2.353   2.648  1.00  0.00    -0.183 NA
HETATM   15  N1  UNL     1      -5.169  -1.308   2.245  1.00  0.00    -0.265 N 
HETATM   16  C4  UNL     1      -6.436  -0.737   2.685  1.00  0.00     0.179 A 
HETATM   17  C3  UNL     1      -6.758   0.464   1.856  1.00  0.00     0.005 A 
HETATM   18  C2  UNL     1      -6.077   1.031   0.850  1.00  0.00    -0.019 A 
HETATM   19  C20 UNL     1      -4.825   0.366   0.509  1.00  0.00     0.004 A 
HETATM   20  C19 UNL     1      -3.997   0.833  -0.515  1.00  0.00     0.044 A 
BRANCH  18  21
HETATM   21  C1  UNL     1      -6.481   2.235   0.081  1.00  0.00     0.261 C 
HETATM   22  F1  UNL     1      -5.527   3.196   0.220  1.00  0.00    -0.251 F 
ENDBRANCH  18  21
ENDBRANCH   7   9
ENDBRANCH   1   7
BRANCH   3  23
HETATM   23  C12 UNL     1       2.812   0.035  -1.604  1.00  0.00     0.227 C 
BRANCH  23  24
HETATM   24  O1  UNL     1       2.605   0.162  -0.264  1.00  0.00    -0.383 OA
BRANCH  24  25
HETATM   25  C13 UNL     1       3.693   0.383   0.517  1.00  0.00     0.201 C 
BRANCH  25  26
HETATM   26  C14 UNL     1       4.809  -0.620   0.473  1.00  0.00     0.162 C 
HETATM   27  C15 UNL     1       5.797  -0.450   1.581  1.00  0.00     0.147 C 
HETATM   28  N4  UNL     1       7.005   0.186   1.239  1.00  0.00    -0.417 N 
HETATM   29  C16 UNL     1       7.434   0.181  -0.108  1.00  0.00     0.140 C 
HETATM   30  H17 UNL     1       7.442   0.827   1.896  1.00  0.00     0.153 HD
HETATM   31  C17 UNL     1       6.231   0.430  -1.007  1.00  0.00     0.187 C 
HETATM   32  O2  UNL     1       5.375  -0.653  -0.787  1.00  0.00    -0.381 OA
ENDBRANCH  25  26
ENDBRANCH  24  25
ENDBRANCH  23  24
ENDBRANCH   3  23
TORSDOF 7
