REMARK  8 active torsions:
REMARK  status: ('A' for Active; 'I' for Inactive)
REMARK    1  A    between atoms: C2_2  and  C3_3 
REMARK    2  A    between atoms: C3_3  and  C4_4 
REMARK    3  A    between atoms: C4_4  and  O1_5 
REMARK    4  A    between atoms: O1_5  and  C5_6 
REMARK    5  A    between atoms: C12_18  and  N5_19 
REMARK    6  A    between atoms: N5_19  and  C13_20 
REMARK    7  A    between atoms: N7_26  and  C18_27 
REMARK    8  A    between atoms: C18_27  and  C19_28 
ROOT
HETATM    1  C3  UNL     1      -2.024   1.039   0.448  1.00  0.00    -0.025 C 
HETATM    2  C10 UNL     1      -1.709   0.313  -0.578  1.00  0.00     0.100 A 
HETATM    3  N2  UNL     1      -2.500  -0.148  -1.662  1.00  0.00    -0.273 N 
HETATM    4  N3  UNL     1      -2.110  -1.008  -2.659  1.00  0.00    -0.167 NA
HETATM    5  C11 UNL     1      -0.931  -1.514  -2.728  1.00  0.00     0.257 A 
HETATM    6  N4  UNL     1      -0.030  -1.135  -1.699  1.00  0.00    -0.220 NA
HETATM    7  C12 UNL     1      -0.372  -0.316  -0.727  1.00  0.00     0.158 A 
HETATM    8  H18 UNL     1      -3.430   0.221  -1.729  1.00  0.00     0.189 HD
ENDROOT
BRANCH   7   9
HETATM    9  N5  UNL     1       0.666  -0.189   0.237  1.00  0.00    -0.337 N 
HETATM   10  H20 UNL     1       0.261  -0.421   1.216  1.00  0.00     0.167 HD
BRANCH   9  11
HETATM   11  C13 UNL     1       2.010   0.165  -0.064  1.00  0.00     0.067 A 
HETATM   12  C14 UNL     1       2.484   1.053  -0.914  1.00  0.00     0.034 A 
HETATM   13  C15 UNL     1       3.938   1.037  -0.850  1.00  0.00     0.036 A 
HETATM   14  C16 UNL     1       4.356   0.145   0.032  1.00  0.00     0.086 A 
HETATM   15  C17 UNL     1       3.148  -0.470   0.592  1.00  0.00     0.132 A 
HETATM   16  N7  UNL     1       5.145  -0.685   0.867  1.00  0.00    -0.263 N 
HETATM   17  N6  UNL     1       3.938  -1.201   1.330  1.00  0.00    -0.167 NA
BRANCH  16  18
HETATM   18  C18 UNL     1       6.556  -0.900   1.124  1.00  0.00     0.190 C 
BRANCH  18  19
HETATM   19  C19 UNL     1       7.407  -0.020   0.287  1.00  0.00    -0.035 A 
HETATM   20  C20 UNL     1       7.813   1.254   0.696  1.00  0.00     0.009 A 
HETATM   21  C21 UNL     1       8.610   2.000  -0.158  1.00  0.00     0.004 A 
HETATM   22  C22 UNL     1       8.985   1.475  -1.390  1.00  0.00     0.042 A 
HETATM   23  C23 UNL     1       8.582   0.220  -1.787  1.00  0.00     0.117 A 
HETATM   24  F1  UNL     1       8.934  -0.329  -2.996  1.00  0.00    -0.206 F 
HETATM   25  C24 UNL     1       7.778  -0.544  -0.934  1.00  0.00     0.051 A 
ENDBRANCH  18  19
ENDBRANCH  16  18
ENDBRANCH   9  11
ENDBRANCH   7   9
BRANCH   1  26
HETATM   26  C2  UNL     1      -1.180   1.560   1.589  1.00  0.00     0.034 C 
HETATM   27  C1  UNL     1      -1.538   0.973   2.918  1.00  0.00     0.010 C 
ENDBRANCH   1  26
BRANCH   1  28
HETATM   28  C4  UNL     1      -3.352   1.425   0.924  1.00  0.00     0.207 C 
BRANCH  28  29
HETATM   29  O1  UNL     1      -4.526   1.124   0.461  1.00  0.00    -0.355 OA
BRANCH  29  30
HETATM   30  C5  UNL     1      -5.172  -0.025   0.376  1.00  0.00     0.292 C 
HETATM   31  O2  UNL     1      -6.112  -0.194   1.464  1.00  0.00    -0.357 OA
HETATM   32  C6  UNL     1      -6.311  -1.540   1.619  1.00  0.00     0.201 C 
HETATM   33  C7  UNL     1      -5.957  -2.421   0.483  1.00  0.00     0.296 C 
HETATM   34  N1  UNL     1      -6.044  -1.867  -0.832  1.00  0.00     0.094 N 
HETATM   35  C8  UNL     1      -6.000  -0.391  -0.802  1.00  0.00     0.271 C 
HETATM   36  H13 UNL     1      -5.300  -2.260  -1.443  1.00  0.00     0.316 HD
HETATM   37  C9  UNL     1      -7.482  -0.043  -0.590  1.00  0.00     0.048 C 
ENDBRANCH  29  30
ENDBRANCH  28  29
ENDBRANCH   1  28
TORSDOF 8
