REMARK  3 active torsions:
REMARK  status: ('A' for Active; 'I' for Inactive)
REMARK    1  A    between atoms: B1_1  and  C1_2 
REMARK    2  A    between atoms: N1_3  and  C2_4 
REMARK    3  A    between atoms: N2_6  and  C4_7 
ROOT
HETATM    1  C4  UNL     1       0.473  -0.891  -0.123  1.00  0.00     0.132 C 
HETATM    2  N3  UNL     1      -0.032   0.261  -0.238  1.00  0.00    -0.210 N 
HETATM    3  C5  UNL     1       0.574   1.517  -0.189  1.00  0.00     0.257 A 
HETATM    4  N4  UNL     1      -0.697   1.498  -0.141  1.00  0.00    -0.181 N 
HETATM    5  N5  UNL     1      -1.524   2.599  -0.047  1.00  0.00    -0.290 N 
HETATM    6  C6  UNL     1      -2.680   1.944  -0.616  1.00  0.00     0.105 C 
HETATM    7  C7  UNL     1      -3.695   1.119  -0.293  1.00  0.00    -0.006 C 
HETATM    8  C8  UNL     1      -4.346   0.339   0.743  1.00  0.00     0.054 C 
HETATM    9  C9  UNL     1      -4.510  -1.128   0.539  1.00  0.00     0.171 C 
HETATM   10  O1  UNL     1      -3.402  -1.897   0.453  1.00  0.00    -0.387 OA
HETATM   11  C10 UNL     1      -2.517  -1.712  -0.552  1.00  0.00     0.195 C 
HETATM   12  C11 UNL     1      -1.349  -2.649  -0.332  1.00  0.00     0.003 C 
HETATM   13  C12 UNL     1      -0.111  -2.218  -0.161  1.00  0.00     0.049 C 
HETATM   14  H4  UNL     1      -1.773   3.594   0.193  1.00  0.00     0.188 HD
ENDROOT
BRANCH   1  15
HETATM   15  N2  UNL     1       1.866  -0.720   0.079  1.00  0.00    -0.336 N 
HETATM   16  C3  UNL     1       2.673   0.020  -0.861  1.00  0.00     0.124 A 
HETATM   17  C2  UNL     1       3.973   0.142  -0.610  1.00  0.00     0.071 A 
HETATM   18  C15 UNL     1       4.611  -0.438   0.567  1.00  0.00     0.030 A 
HETATM   19  C14 UNL     1       3.820  -1.103   1.389  1.00  0.00    -0.004 A 
HETATM   20  C13 UNL     1       2.365  -1.350   1.290  1.00  0.00     0.157 A 
BRANCH  17  21
HETATM   21  N1  UNL     1       4.731   0.866  -1.539  1.00  0.00    -0.265 NA
HETATM   22  C1  UNL     1       5.088   2.071  -1.291  1.00  0.00    -0.013 C 
BRANCH  22  23
HETATM   23  B1  UNL     1       6.093   3.382  -0.750  1.00  0.00     0.185 B 
HETATM   24  H1  UNL     1       5.195   5.304  -0.704  1.00  0.00    -0.029 HD
ENDBRANCH  22  23
ENDBRANCH  17  21
ENDBRANCH   1  15
TORSDOF 3
