REMARK  6 active torsions:
REMARK  status: ('A' for Active; 'I' for Inactive)
REMARK    1  A    between atoms: C6_7  and  N1_8 
REMARK    2  A    between atoms: N1_8  and  C7_9 
REMARK    3  A    between atoms: C13_15  and  C14_16 
REMARK    4  A    between atoms: C14_16  and  O1_17 
REMARK    5  A    between atoms: O1_17  and  C15_18 
REMARK    6  A    between atoms: C15_18  and  C16_19 
ROOT
HETATM    1  C7  UNL     1       2.286   0.478  -0.750  1.00  0.00     0.338 C 
HETATM    2  C8  UNL     1       1.653   1.340   0.177  1.00  0.00     0.085 C 
HETATM    3  C9  UNL     1       1.471   1.498   1.601  1.00  0.00    -0.020 C 
HETATM    4  C10 UNL     1       0.284   1.231   2.333  1.00  0.00     0.036 C 
HETATM    5  C11 UNL     1      -0.437   0.781   1.091  1.00  0.00     0.175 A 
HETATM    6  C12 UNL     1      -1.188   1.391   0.146  1.00  0.00     0.052 A 
HETATM    7  C13 UNL     1      -1.126   0.411  -0.874  1.00  0.00     0.008 A 
HETATM    8  C20 UNL     1      -0.388  -0.514  -0.317  1.00  0.00     0.245 A 
HETATM    9  C21 UNL     1       0.280  -1.629  -0.227  1.00  0.00     0.405 A 
HETATM   10  N3  UNL     1       1.032  -2.657   0.202  1.00  0.00    -0.212 NA
HETATM   11  C22 UNL     1       1.430  -2.408   1.529  1.00  0.00     0.262 A 
HETATM   12  N4  UNL     1       0.843  -1.249   1.624  1.00  0.00    -0.062 NA
HETATM   13  N5  UNL     1       0.123  -0.479   0.901  1.00  0.00     0.155 N 
HETATM   14  N6  UNL     1       0.864  -1.437  -1.599  1.00  0.00    -0.276 N 
HETATM   15  N7  UNL     1       1.978  -0.699  -1.375  1.00  0.00    -0.304 N 
HETATM   16  H27 UNL     1       0.293  -1.908  -2.298  1.00  0.00     0.185 HD
HETATM   17  H28 UNL     1       2.822  -1.025  -1.945  1.00  0.00     0.182 HD
ENDROOT
BRANCH   7  18
HETATM   18  C14 UNL     1      -1.610   0.205  -2.200  1.00  0.00     0.208 C 
BRANCH  18  19
HETATM   19  O1  UNL     1      -2.574   1.070  -2.598  1.00  0.00    -0.384 OA
BRANCH  19  20
HETATM   20  C15 UNL     1      -3.740   1.140  -1.910  1.00  0.00     0.201 C 
BRANCH  20  21
HETATM   21  C16 UNL     1      -4.565  -0.112  -1.826  1.00  0.00     0.173 C 
HETATM   22  C17 UNL     1      -5.874   0.261  -1.173  1.00  0.00     0.303 C 
HETATM   23  N2  UNL     1      -6.667  -0.889  -0.811  1.00  0.00     0.088 N 
HETATM   24  C18 UNL     1      -6.078  -2.127  -1.281  1.00  0.00     0.295 C 
HETATM   25  H21 UNL     1      -6.824  -0.869   0.201  1.00  0.00     0.316 HD
HETATM   26  C19 UNL     1      -4.670  -2.154  -0.731  1.00  0.00     0.198 C 
HETATM   27  O2  UNL     1      -3.895  -1.116  -1.200  1.00  0.00    -0.380 OA
ENDBRANCH  20  21
ENDBRANCH  19  20
ENDBRANCH  18  19
ENDBRANCH   7  18
BRANCH   1  28
HETATM   28  N1  UNL     1       3.783   0.500  -0.531  1.00  0.00     0.122 NA
HETATM   29  H7  UNL     1       4.077   1.490  -0.470  1.00  0.00     0.320 HD
BRANCH  28  30
HETATM   30  C6  UNL     1       4.269  -0.298   0.505  1.00  0.00     0.307 C 
HETATM   31  C1  UNL     1       5.803  -0.197   0.395  1.00  0.00     0.127 C 
HETATM   32  F1  UNL     1       6.458  -1.132  -0.348  1.00  0.00    -0.208 F 
HETATM   33  C2  UNL     1       6.475   0.783   1.008  1.00  0.00     0.017 C 
HETATM   34  C3  UNL     1       5.742   1.817   1.831  1.00  0.00     0.057 C 
HETATM   35  C4  UNL     1       4.683   1.065   2.562  1.00  0.00    -0.024 C 
HETATM   36  C5  UNL     1       4.019   0.086   1.909  1.00  0.00     0.012 C 
ENDBRANCH  28  30
ENDBRANCH   1  28
TORSDOF 6
