REMARK  4 active torsions:
REMARK  status: ('A' for Active; 'I' for Inactive)
REMARK    1  A    between atoms: N1_1  and  N2_2 
REMARK    2  A    between atoms: C3_5  and  C4_6 
REMARK    3  A    between atoms: C4_6  and  C5_7 
REMARK    4  A    between atoms: C5_7  and  C6_8 
ROOT
HETATM    1  N2  UNL     1      -0.182   1.891   2.696  1.00  0.00    -0.344 N 
HETATM    2  C1  UNL     1       1.123   1.692   2.138  1.00  0.00     0.147 C 
HETATM    3  C2  UNL     1       1.086   1.429   0.692  1.00  0.00     0.048 C 
HETATM    4  C3  UNL     1       1.286   1.256  -0.592  1.00  0.00    -0.049 C 
HETATM    5  C7  UNL     1       0.418   0.342  -1.351  1.00  0.00    -0.061 A 
HETATM    6  C8  UNL     1      -0.333  -0.471  -2.100  1.00  0.00     0.048 A 
HETATM    7  C9  UNL     1      -1.369  -1.474  -2.618  1.00  0.00     0.177 C 
HETATM    8  O1  UNL     1      -2.102  -1.921  -1.472  1.00  0.00    -0.388 OA
HETATM    9  C10 UNL     1      -1.284  -2.843  -0.861  1.00  0.00     0.193 C 
HETATM   10  C11 UNL     1      -1.549  -3.194   0.557  1.00  0.00     0.193 C 
HETATM   11  O2  UNL     1      -1.343  -2.058   1.266  1.00  0.00    -0.389 OA
HETATM   12  C12 UNL     1      -1.001  -2.029   2.553  1.00  0.00     0.175 C 
HETATM   13  C13 UNL     1      -0.622  -0.570   2.917  1.00  0.00     0.109 C 
HETATM   14  C14 UNL     1      -0.629   0.599   2.197  1.00  0.00     0.034 C 
HETATM   15  C15 UNL     1      -1.132   1.266   0.901  1.00  0.00     0.028 C 
HETATM   16  C16 UNL     1      -1.969   0.335   0.105  1.00  0.00    -0.017 C 
HETATM   17  C17 UNL     1      -0.924   0.203  -0.727  1.00  0.00     0.053 A 
ENDROOT
BRANCH   4  18
HETATM   18  C4  UNL     1       2.040   1.251  -1.755  1.00  0.00     0.006 C 
BRANCH  18  19
HETATM   19  C5  UNL     1       2.617   1.217  -2.849  1.00  0.00     0.005 C 
BRANCH  19  20
HETATM   20  C6  UNL     1       4.001   1.418  -3.316  1.00  0.00     0.249 C 
HETATM   21  F1  UNL     1       4.796   1.731  -2.214  1.00  0.00    -0.251 F 
ENDBRANCH  19  20
ENDBRANCH  18  19
ENDBRANCH   4  18
BRANCH   1  22
HETATM   22  N1  UNL     1      -1.470   2.211   3.314  1.00  0.00    -0.252 NA
HETATM   23  H1  UNL     1      -1.662   3.198   3.222  1.00  0.00     0.142 HD
HETATM   24  H2  UNL     1      -1.221   2.122   4.330  1.00  0.00     0.142 HD
ENDBRANCH   1  22
TORSDOF 4
