REMARK  7 active torsions:
REMARK  status: ('A' for Active; 'I' for Inactive)
REMARK    1  A    between atoms: N2_5  and  C4_6 
REMARK    2  A    between atoms: C4_6  and  C5_7 
REMARK    3  A    between atoms: C5_7  and  C6_8 
REMARK    4  A    between atoms: C7_9  and  C8_10 
REMARK    5  A    between atoms: C11_14  and  C12_15 
REMARK    6  A    between atoms: C12_15  and  N3_16 
REMARK    7  A    between atoms: N3_16  and  C14_18 
ROOT
HETATM    1  C1  UNL     1      -1.890  -2.101  -2.316  1.00  0.00     0.027 C 
HETATM    2  C2  UNL     1      -0.917  -2.003  -1.429  1.00  0.00     0.003 A 
HETATM    3  C3  UNL     1      -0.050  -3.024  -1.105  1.00  0.00     0.151 A 
HETATM    4  N1  UNL     1       0.756  -2.485  -0.178  1.00  0.00    -0.184 NA
HETATM    5  N2  UNL     1       0.470  -1.247   0.095  1.00  0.00    -0.268 N 
HETATM    6  C11 UNL     1      -0.574  -0.910  -0.671  1.00  0.00     0.079 A 
ENDROOT
BRANCH   6   7
HETATM    7  C12 UNL     1      -1.121   0.283  -0.646  1.00  0.00     0.124 C 
BRANCH   7   8
HETATM    8  N3  UNL     1      -2.189   0.859  -1.336  1.00  0.00    -0.342 N 
HETATM    9  C13 UNL     1      -1.878   1.284  -2.707  1.00  0.00     0.157 C 
BRANCH   8  10
HETATM   10  C14 UNL     1      -3.517   1.079  -0.883  1.00  0.00     0.159 A 
HETATM   11  N4  UNL     1      -4.445   1.606  -1.665  1.00  0.00    -0.220 NA
HETATM   12  C15 UNL     1      -5.699   1.807  -1.232  1.00  0.00     0.258 A 
HETATM   13  N5  UNL     1      -6.084   1.492   0.006  1.00  0.00    -0.161 NA
HETATM   14  N6  UNL     1      -5.191   0.959   0.836  1.00  0.00    -0.240 N 
HETATM   15  C16 UNL     1      -5.337   0.567   2.109  1.00  0.00     0.119 A 
HETATM   16  C19 UNL     1      -3.933   0.756   0.403  1.00  0.00     0.104 A 
HETATM   17  C17 UNL     1      -4.136   0.080   2.557  1.00  0.00     0.022 A 
HETATM   18  C18 UNL     1      -3.283   0.210   1.475  1.00  0.00     0.037 A 
ENDBRANCH   8  10
ENDBRANCH   7   8
ENDBRANCH   6   7
BRANCH   5  19
HETATM   19  C4  UNL     1       1.153  -0.395   1.048  1.00  0.00     0.155 C 
BRANCH  19  20
HETATM   20  C5  UNL     1       2.292   0.336   0.325  1.00  0.00     0.049 C 
BRANCH  20  21
HETATM   21  C6  UNL     1       3.264  -0.616  -0.252  1.00  0.00    -0.025 C 
HETATM   22  C7  UNL     1       4.552  -0.711   0.023  1.00  0.00    -0.001 C 
BRANCH  22  23
HETATM   23  C8  UNL     1       5.204   0.161   0.982  1.00  0.00     0.037 C 
HETATM   24  C9  UNL     1       6.510   0.023   1.224  1.00  0.00     0.090 C 
HETATM   25  C10 UNL     1       7.246   0.880   2.192  1.00  0.00     0.082 C 
HETATM   26  F1  UNL     1       7.250  -0.920   0.589  1.00  0.00    -0.211 F 
ENDBRANCH  22  23
ENDBRANCH  20  21
ENDBRANCH  19  20
ENDBRANCH   5  19
TORSDOF 7
