REMARK  8 active torsions:
REMARK  status: ('A' for Active; 'I' for Inactive)
REMARK    1  A    between atoms: C2_2  and  C3_3 
REMARK    2  A    between atoms: C3_3  and  C4_4 
REMARK    3  A    between atoms: C4_4  and  C5_5 
REMARK    4  A    between atoms: C5_5  and  N1_8 
REMARK    5  A    between atoms: N1_8  and  C7_9 
REMARK    6  A    between atoms: C11_16  and  C12_17 
REMARK    7  A    between atoms: C12_17  and  N5_18 
REMARK    8  A    between atoms: C15_21  and  N6_22 
ROOT
HETATM    1  C7  UNL     1       1.420  -1.407  -0.333  1.00  0.00     0.159 A 
HETATM    2  N2  UNL     1       2.332  -1.910  -1.185  1.00  0.00    -0.220 NA
HETATM    3  C8  UNL     1       2.383  -3.193  -1.586  1.00  0.00     0.258 A 
HETATM    4  N3  UNL     1       1.435  -4.007  -1.074  1.00  0.00    -0.161 NA
HETATM    5  N4  UNL     1       0.510  -3.572  -0.231  1.00  0.00    -0.240 N 
HETATM    6  C9  UNL     1      -0.511  -4.130   0.435  1.00  0.00     0.119 A 
HETATM    7  C10 UNL     1      -1.164  -3.181   1.225  1.00  0.00     0.030 A 
HETATM    8  C11 UNL     1      -0.508  -1.940   1.041  1.00  0.00     0.004 A 
HETATM    9  C18 UNL     1       0.477  -2.291   0.154  1.00  0.00     0.112 A 
ENDROOT
BRANCH   8  10
HETATM   10  C12 UNL     1      -1.042  -0.757   1.695  1.00  0.00     0.313 C 
BRANCH  10  11
HETATM   11  N5  UNL     1      -2.077  -0.105   0.955  1.00  0.00     0.092 N 
HETATM   12  C13 UNL     1      -1.846   0.240  -0.396  1.00  0.00     0.275 C 
HETATM   13  C14 UNL     1      -3.061   0.987  -0.932  1.00  0.00     0.065 C 
HETATM   14  C15 UNL     1      -4.256   0.886  -0.014  1.00  0.00     0.221 C 
HETATM   15  C16 UNL     1      -3.930   1.400   1.360  1.00  0.00     0.065 C 
HETATM   16  C17 UNL     1      -2.486   1.090   1.682  1.00  0.00     0.275 C 
BRANCH  14  17
HETATM   17  N6  UNL     1      -4.743  -0.488   0.024  1.00  0.00     0.083 N 
HETATM   18  H18 UNL     1      -4.389  -1.042  -0.765  1.00  0.00     0.313 HD
HETATM   19  H19 UNL     1      -4.498  -0.909   0.941  1.00  0.00     0.313 HD
ENDBRANCH  14  17
ENDBRANCH  10  11
ENDBRANCH   8  10
BRANCH   1  20
HETATM   20  N1  UNL     1       1.609  -0.002  -0.060  1.00  0.00    -0.339 N 
HETATM   21  H7  UNL     1       1.647   0.503   0.844  1.00  0.00     0.167 HD
BRANCH  20  22
HETATM   22  C5  UNL     1       1.805   0.779  -1.264  1.00  0.00     0.040 C 
HETATM   23  C6  UNL     1       1.488   1.202  -2.474  1.00  0.00     0.085 C 
HETATM   24 BR1  UNL     1       2.614   2.479  -3.378  1.00  0.00    -0.061 Br
BRANCH  22  25
HETATM   25  C4  UNL     1       3.055   1.580  -1.096  1.00  0.00     0.029 C 
BRANCH  25  26
HETATM   26  C3  UNL     1       4.108   1.993  -0.386  1.00  0.00    -0.002 C 
BRANCH  26  27
HETATM   27  C2  UNL     1       5.334   2.638   0.071  1.00  0.00    -0.026 C 
HETATM   28  C1  UNL     1       5.690   2.411   1.332  1.00  0.00     0.031 C 
ENDBRANCH  26  27
ENDBRANCH  25  26
ENDBRANCH  22  25
ENDBRANCH  20  22
ENDBRANCH   1  20
TORSDOF 8
