REMARK  8 active torsions:
REMARK  status: ('A' for Active; 'I' for Inactive)
REMARK    1  A    between atoms: C2_2  and  C3_3 
REMARK    2  A    between atoms: C4_4  and  C5_5 
REMARK    3  A    between atoms: C5_5  and  P1_7 
REMARK    4  A    between atoms: P1_7  and  N1_8 
REMARK    5  A    between atoms: N1_8  and  C7_9 
REMARK    6  A    between atoms: C11_16  and  C12_17 
REMARK    7  A    between atoms: C12_17  and  N5_18 
REMARK    8  A    between atoms: C15_21  and  N6_22 
ROOT
HETATM    1  C7  UNL     1       0.686  -1.847  -0.559  1.00  0.00     0.158 A 
HETATM    2  N2  UNL     1       1.873  -2.356  -0.140  1.00  0.00    -0.220 NA
HETATM    3  C8  UNL     1       1.836  -3.303   0.825  1.00  0.00     0.258 A 
HETATM    4  N3  UNL     1       0.675  -3.729   1.352  1.00  0.00    -0.161 NA
HETATM    5  N4  UNL     1      -0.501  -3.231   0.943  1.00  0.00    -0.240 N 
HETATM    6  C9  UNL     1      -1.785  -3.465   1.258  1.00  0.00     0.119 A 
HETATM    7  C10 UNL     1      -2.582  -2.632   0.462  1.00  0.00     0.030 A 
HETATM    8  C11 UNL     1      -1.733  -1.865  -0.362  1.00  0.00    -0.007 A 
HETATM    9  C18 UNL     1      -0.496  -2.292  -0.008  1.00  0.00     0.111 A 
ENDROOT
BRANCH   1  10
HETATM   10  N1  UNL     1       0.835  -0.876  -1.606  1.00  0.00    -0.345 N 
HETATM   11  H7  UNL     1       0.431  -0.789  -2.575  1.00  0.00     0.166 HD
BRANCH  10  12
HETATM   12  P1  UNL     1       1.955   0.497  -1.293  1.00  0.00     0.014 P 
HETATM   13  H6  UNL     1       1.674   1.658  -2.120  1.00  0.00     0.086 HD
BRANCH  12  14
HETATM   14  C5  UNL     1       3.698  -0.044  -1.513  1.00  0.00     0.030 C 
HETATM   15  C6  UNL     1       3.848  -0.919  -2.521  1.00  0.00     0.035 C 
BRANCH  14  16
HETATM   16  C4  UNL     1       4.772   0.420  -0.696  1.00  0.00    -0.061 C 
HETATM   17  C3  UNL     1       5.687   0.800  -0.010  1.00  0.00    -0.074 C 
BRANCH  17  18
HETATM   18  C2  UNL     1       6.793   1.236   0.825  1.00  0.00     0.054 C 
HETATM   19  C1  UNL     1       7.530   2.305   0.541  1.00  0.00     0.020 C 
ENDBRANCH  17  18
ENDBRANCH  14  16
ENDBRANCH  12  14
ENDBRANCH  10  12
ENDBRANCH   1  10
BRANCH   8  20
HETATM   20  C12 UNL     1      -2.340  -0.838  -1.240  1.00  0.00     0.158 C 
BRANCH  20  21
HETATM   21  N5  UNL     1      -2.528   0.371  -0.594  1.00  0.00    -0.408 N 
HETATM   22  C13 UNL     1      -1.537   1.049   0.133  1.00  0.00     0.119 C 
HETATM   23  C14 UNL     1      -2.178   1.403   1.492  1.00  0.00     0.055 C 
HETATM   24  C15 UNL     1      -3.317   2.338   1.271  1.00  0.00     0.221 C 
HETATM   25  C16 UNL     1      -3.647   2.488  -0.186  1.00  0.00     0.055 C 
HETATM   26  C17 UNL     1      -3.656   1.177  -0.950  1.00  0.00     0.119 C 
BRANCH  24  27
HETATM   27  N6  UNL     1      -4.459   1.877   2.044  1.00  0.00     0.083 N 
HETATM   28  H18 UNL     1      -5.358   2.315   1.729  1.00  0.00     0.313 HD
HETATM   29  H19 UNL     1      -4.508   0.842   2.078  1.00  0.00     0.313 HD
ENDBRANCH  24  27
ENDBRANCH  20  21
ENDBRANCH   8  20
TORSDOF 8
