REMARK  5 active torsions:
REMARK  status: ('A' for Active; 'I' for Inactive)
REMARK    1  A    between atoms: N1_1  and  C1_2 
REMARK    2  A    between atoms: N2_5  and  C4_6 
REMARK    3  A    between atoms: C4_6  and  C5_7 
REMARK    4  A    between atoms: C9_14  and  N6_15 
REMARK    5  A    between atoms: N6_15  and  C10_16 
ROOT
HETATM    1  C5  UNL     1      -0.488  -1.535  -1.186  1.00  0.00    -0.007 A 
HETATM    2  C6  UNL     1      -0.320  -2.918  -1.399  1.00  0.00     0.030 A 
HETATM    3  C7  UNL     1      -1.258  -3.689  -0.745  1.00  0.00     0.119 A 
HETATM    4  N3  UNL     1      -2.026  -2.784  -0.113  1.00  0.00    -0.240 N 
HETATM    5  N4  UNL     1      -3.090  -2.963   0.652  1.00  0.00    -0.161 NA
HETATM    6  C8  UNL     1      -3.766  -1.940   1.200  1.00  0.00     0.258 A 
HETATM    7  N5  UNL     1      -3.349  -0.661   0.963  1.00  0.00    -0.220 NA
HETATM    8  C9  UNL     1      -2.280  -0.502   0.194  1.00  0.00     0.159 A 
HETATM    9  C14 UNL     1      -1.577  -1.544  -0.372  1.00  0.00     0.112 A 
ENDROOT
BRANCH   1  10
HETATM   10  C4  UNL     1       0.398  -0.491  -1.729  1.00  0.00     0.158 C 
BRANCH  10  11
HETATM   11  N2  UNL     1       1.426  -0.177  -0.827  1.00  0.00    -0.408 N 
HETATM   12  C3  UNL     1       1.205   0.218   0.483  1.00  0.00     0.119 C 
HETATM   13  C2  UNL     1       2.459  -0.025   1.324  1.00  0.00     0.055 C 
HETATM   14  C1  UNL     1       3.729   0.356   0.655  1.00  0.00     0.221 C 
HETATM   15  C16 UNL     1       3.792  -0.077  -0.805  1.00  0.00     0.055 C 
HETATM   16  C15 UNL     1       2.554   0.505  -1.455  1.00  0.00     0.119 C 
BRANCH  14  17
HETATM   17  N1  UNL     1       3.985   1.765   0.788  1.00  0.00     0.083 N 
HETATM   18  H1  UNL     1       3.142   2.311   0.983  1.00  0.00     0.313 HD
HETATM   19  H2  UNL     1       4.543   2.170   0.012  1.00  0.00     0.313 HD
ENDBRANCH  14  17
ENDBRANCH  10  11
ENDBRANCH   1  10
BRANCH   8  20
HETATM   20  N6  UNL     1      -1.898   0.848  -0.028  1.00  0.00    -0.339 N 
HETATM   21  H13 UNL     1      -1.211   1.478  -0.482  1.00  0.00     0.167 HD
BRANCH  20  22
HETATM   22  C10 UNL     1      -2.691   1.888   0.559  1.00  0.00     0.033 A 
HETATM   23  C11 UNL     1      -3.987   2.044   0.300  1.00  0.00     0.029 A 
HETATM   24  C12 UNL     1      -4.149   3.213   1.178  1.00  0.00     0.004 A 
HETATM   25  C13 UNL     1      -2.845   3.057   1.439  1.00  0.00     0.029 A 
ENDBRANCH  20  22
ENDBRANCH   8  20
TORSDOF 5
