REMARK  3 active torsions:
REMARK  status: ('A' for Active; 'I' for Inactive)
REMARK    1  A    between atoms: C5_6  and  N1_7 
REMARK    2  A    between atoms: N1_7  and  C6_8 
REMARK    3  A    between atoms: C10_15  and  N4_16 
ROOT
HETATM    1  C6  UNL     1      -0.776  -0.326  -1.332  1.00  0.00     0.094 A 
HETATM    2  B1  UNL     1      -1.750  -0.158  -2.581  1.00  0.00     0.241 B 
HETATM    3  C7  UNL     1      -1.034  -0.104  -3.988  1.00  0.00     0.053 A 
HETATM    4  N2  UNL     1       0.236  -0.186  -4.155  1.00  0.00    -0.196 NA
HETATM    5  N3  UNL     1       1.122  -0.336  -3.058  1.00  0.00    -0.247 N 
HETATM    6  C8  UNL     1       2.462  -0.439  -3.040  1.00  0.00     0.121 A 
HETATM    7  C9  UNL     1       2.826  -0.569  -1.717  1.00  0.00     0.050 A 
HETATM    8  C10 UNL     1       1.665  -0.538  -0.969  1.00  0.00     0.057 A 
HETATM    9  C15 UNL     1       0.594  -0.391  -1.823  1.00  0.00     0.075 A 
HETATM   10  H6  UNL     1      -2.699   0.563  -2.408  1.00  0.00    -0.018 HD
ENDROOT
BRANCH   1  11
HETATM   11  N1  UNL     1      -1.012   0.672  -0.335  1.00  0.00    -0.388 N 
HETATM   12  H4  UNL     1      -0.246   1.342  -0.111  1.00  0.00     0.159 HD
BRANCH  11  13
HETATM   13  C5  UNL     1      -2.242   0.796   0.363  1.00  0.00     0.029 A 
HETATM   14  C4  UNL     1      -3.314  -0.042   0.151  1.00  0.00     0.029 A 
HETATM   15  C3  UNL     1      -4.518   0.076   0.828  1.00  0.00     0.004 A 
HETATM   16  C2  UNL     1      -4.680   1.069   1.763  1.00  0.00     0.024 A 
HETATM   17  C1  UNL     1      -3.624   1.927   2.000  1.00  0.00     0.036 A 
HETATM   18 CL1  UNL     1      -3.772   3.212   3.182  1.00  0.00    -0.084 Cl
HETATM   19  C16 UNL     1      -2.445   1.767   1.299  1.00  0.00     0.052 A 
ENDBRANCH  11  13
ENDBRANCH   1  11
BRANCH   8  20
HETATM   20  N4  UNL     1       1.876  -0.663   0.455  1.00  0.00    -0.379 N 
HETATM   21  C11 UNL     1       1.689   0.026   1.729  1.00  0.00     0.123 C 
HETATM   22  C12 UNL     1       3.104   0.105   2.313  1.00  0.00     0.021 C 
HETATM   23  C13 UNL     1       3.578  -1.308   1.970  1.00  0.00     0.021 C 
HETATM   24  C14 UNL     1       2.489  -1.845   1.063  1.00  0.00     0.123 C 
ENDBRANCH   8  20
TORSDOF 3
