REMARK  5 active torsions:
REMARK  status: ('A' for Active; 'I' for Inactive)
REMARK    1  A    between atoms: N1_1  and  C1_2 
REMARK    2  A    between atoms: N2_5  and  C4_6 
REMARK    3  A    between atoms: C4_6  and  C5_7 
REMARK    4  A    between atoms: C9_14  and  N6_15 
REMARK    5  A    between atoms: N6_15  and  C10_16 
ROOT
HETATM    1  C5  UNL     1       0.104   1.424  -0.742  1.00  0.00    -0.006 A 
HETATM    2  C6  UNL     1       0.879   2.508  -1.195  1.00  0.00     0.030 A 
HETATM    3  C7  UNL     1       0.340   3.686  -0.684  1.00  0.00     0.119 A 
HETATM    4  N3  UNL     1      -0.755   3.384   0.074  1.00  0.00    -0.240 N 
HETATM    5  N4  UNL     1      -1.690   4.059   0.738  1.00  0.00    -0.161 NA
HETATM    6  C8  UNL     1      -2.717   3.442   1.328  1.00  0.00     0.258 A 
HETATM    7  N5  UNL     1      -2.799   2.103   1.254  1.00  0.00    -0.220 NA
HETATM    8  C9  UNL     1      -1.884   1.372   0.608  1.00  0.00     0.159 A 
HETATM    9  C16 UNL     1      -0.860   2.049   0.014  1.00  0.00     0.112 A 
ENDROOT
BRANCH   1  10
HETATM   10  C4  UNL     1       0.750   0.192  -1.154  1.00  0.00     0.163 C 
BRANCH  10  11
HETATM   11  N2  UNL     1       2.193   0.162  -0.762  1.00  0.00    -0.386 N 
HETATM   12  C3  UNL     1       2.792   0.415   0.479  1.00  0.00     0.084 C 
HETATM   13  C2  UNL     1       3.914  -0.223   0.819  1.00  0.00     0.025 C 
HETATM   14  C1  UNL     1       4.537  -1.206  -0.107  1.00  0.00     0.243 C 
HETATM   15  C18 UNL     1       4.260  -0.975  -1.549  1.00  0.00     0.059 C 
HETATM   16  C17 UNL     1       3.054  -0.180  -1.880  1.00  0.00     0.125 C 
BRANCH  14  17
HETATM   17  N1  UNL     1       4.185  -2.564   0.277  1.00  0.00     0.086 N 
HETATM   18  H1  UNL     1       4.727  -2.905   1.078  1.00  0.00     0.313 HD
HETATM   19  H2  UNL     1       3.159  -2.613   0.367  1.00  0.00     0.313 HD
ENDBRANCH  14  17
ENDBRANCH  10  11
ENDBRANCH   1  10
BRANCH   8  20
HETATM   20  N6  UNL     1      -2.046  -0.025   0.513  1.00  0.00    -0.339 N 
HETATM   21  H11 UNL     1      -1.359  -0.749   0.306  1.00  0.00     0.167 HD
BRANCH  20  22
HETATM   22  C10 UNL     1      -3.115  -0.929   0.722  1.00  0.00     0.035 A 
HETATM   23  C11 UNL     1      -3.839  -0.807   1.864  1.00  0.00     0.029 A 
HETATM   24  C12 UNL     1      -4.919  -1.660   2.089  1.00  0.00     0.004 A 
HETATM   25  C13 UNL     1      -5.268  -2.639   1.166  1.00  0.00     0.024 A 
HETATM   26  C14 UNL     1      -4.569  -2.799  -0.000  1.00  0.00     0.036 A 
HETATM   27 CL1  UNL     1      -4.766  -3.915  -1.322  1.00  0.00    -0.084 Cl
HETATM   28  C15 UNL     1      -3.497  -1.918  -0.181  1.00  0.00     0.053 A 
ENDBRANCH  20  22
ENDBRANCH   8  20
TORSDOF 5
