REMARK  2 active torsions:
REMARK  status: ('A' for Active; 'I' for Inactive)
REMARK    1  A    between atoms: N1_1  and  C1_2 
REMARK    2  A    between atoms: N2_5  and  C4_6 
ROOT
HETATM    1  C4  UNL     1       0.506   0.143  -0.214  1.00  0.00     0.230 C 
HETATM    2  C5  UNL     1      -0.136  -0.203   1.068  1.00  0.00     0.064 C 
HETATM    3  C6  UNL     1      -0.059  -1.572   1.540  1.00  0.00    -0.006 C 
HETATM    4  C7  UNL     1      -1.143  -2.337   1.748  1.00  0.00     0.105 C 
HETATM    5  N3  UNL     1      -2.558  -2.101   1.599  1.00  0.00    -0.289 N 
HETATM    6  N4  UNL     1      -3.413  -2.883   0.846  1.00  0.00    -0.168 NA
HETATM    7  C8  UNL     1      -4.308  -2.367   0.086  1.00  0.00     0.256 C 
HETATM    8  N5  UNL     1      -4.496  -0.966  -0.048  1.00  0.00    -0.235 NA
HETATM    9  C9  UNL     1      -4.474  -0.524  -1.278  1.00  0.00     0.208 C 
HETATM   10  N6  UNL     1      -4.657   0.873  -1.491  1.00  0.00    -0.351 N 
HETATM   11  C10 UNL     1      -3.580   1.535  -0.805  1.00  0.00     0.033 A 
HETATM   12  C11 UNL     1      -3.983   2.511   0.083  1.00  0.00     0.029 A 
HETATM   13  C12 UNL     1      -3.029   3.216   0.804  1.00  0.00     0.003 A 
HETATM   14  C13 UNL     1      -1.734   2.867   0.561  1.00  0.00     0.007 A 
HETATM   15  C14 UNL     1      -1.293   1.882  -0.332  1.00  0.00    -0.054 A 
HETATM   16  C15 UNL     1      -2.264   1.199  -1.034  1.00  0.00     0.036 A 
HETATM   17  C16 UNL     1       0.159   1.620  -0.487  1.00  0.00     0.074 C 
HETATM   18  H13 UNL     1      -2.568  -1.256   2.201  1.00  0.00     0.188 HD
HETATM   19  H16 UNL     1      -5.296   1.575  -1.967  1.00  0.00     0.166 HD
ENDROOT
BRANCH   1  20
HETATM   20  N2  UNL     1       1.889  -0.040  -0.370  1.00  0.00     0.093 N 
HETATM   21  C3  UNL     1       2.450  -1.328  -0.228  1.00  0.00     0.275 C 
HETATM   22  C2  UNL     1       3.704  -1.531  -1.069  1.00  0.00     0.065 C 
HETATM   23  C1  UNL     1       4.547  -0.306  -0.931  1.00  0.00     0.221 C 
HETATM   24  C18 UNL     1       4.184   0.412   0.339  1.00  0.00     0.065 C 
HETATM   25  C17 UNL     1       2.743   0.892   0.334  1.00  0.00     0.275 C 
BRANCH  23  26
HETATM   26  N1  UNL     1       5.945  -0.733  -0.760  1.00  0.00     0.083 N 
HETATM   27  H1  UNL     1       5.964  -1.557  -0.117  1.00  0.00     0.313 HD
HETATM   28  H2  UNL     1       6.340  -1.048  -1.676  1.00  0.00     0.313 HD
ENDBRANCH  23  26
ENDBRANCH   1  20
TORSDOF 2
