REMARK  2 active torsions:
REMARK  status: ('A' for Active; 'I' for Inactive)
REMARK    1  A    between atoms: C9_13  and  N5_14 
REMARK    2  A    between atoms: N5_14  and  C10_15 
ROOT
HETATM    1  C1  UNL     1      -3.524   1.900  -0.167  1.00  0.00     0.041 C 
HETATM    2  C2  UNL     1      -2.728   0.623  -0.482  1.00  0.00     0.061 C 
HETATM    3  C3  UNL     1      -3.201   0.190  -1.835  1.00  0.00     0.063 C 
HETATM    4  C4  UNL     1      -4.615  -0.301  -1.495  1.00  0.00     0.273 C 
HETATM    5  N1  UNL     1      -4.671  -0.435  -0.056  1.00  0.00     0.094 N 
HETATM    6  C5  UNL     1      -3.268  -0.424   0.396  1.00  0.00     0.272 C 
HETATM    7  C6  UNL     1      -2.783  -1.796   0.182  1.00  0.00     0.030 C 
HETATM    8  C7  UNL     1      -1.612  -2.439   0.257  1.00  0.00     0.117 C 
HETATM    9  N2  UNL     1      -0.316  -1.940   0.606  1.00  0.00    -0.239 N 
HETATM   10  N3  UNL     1       0.424  -3.017   1.092  1.00  0.00    -0.161 NA
HETATM   11  C8  UNL     1       1.649  -2.748   1.467  1.00  0.00     0.258 A 
HETATM   12  N4  UNL     1       2.287  -1.452   1.421  1.00  0.00    -0.220 NA
HETATM   13  C9  UNL     1       1.659  -0.410   0.982  1.00  0.00     0.160 A 
HETATM   14  C16 UNL     1       0.291  -0.655   0.550  1.00  0.00     0.118 A 
HETATM   15  C17 UNL     1      -0.099   0.542   0.154  1.00  0.00     0.119 C 
HETATM   16  N6  UNL     1      -1.350   0.979  -0.386  1.00  0.00    -0.385 N 
HETATM   17  H8  UNL     1      -5.263   0.242   0.430  1.00  0.00     0.316 HD
HETATM   18  H19 UNL     1      -1.251   1.900  -0.914  1.00  0.00     0.159 HD
ENDROOT
BRANCH  13  19
HETATM   19  N5  UNL     1       2.330   0.864   0.956  1.00  0.00    -0.339 N 
HETATM   20  H13 UNL     1       1.726   1.626   1.409  1.00  0.00     0.167 HD
BRANCH  19  21
HETATM   21  C10 UNL     1       3.656   0.862   0.359  1.00  0.00     0.035 A 
HETATM   22  C11 UNL     1       3.895   1.081  -0.983  1.00  0.00     0.029 A 
HETATM   23  C12 UNL     1       5.213   1.053  -1.427  1.00  0.00     0.004 A 
HETATM   24  C13 UNL     1       6.195   0.807  -0.494  1.00  0.00     0.024 A 
HETATM   25  C14 UNL     1       5.965   0.585   0.851  1.00  0.00     0.036 A 
HETATM   26 CL1  UNL     1       7.285   0.280   1.960  1.00  0.00    -0.084 Cl
HETATM   27  C15 UNL     1       4.649   0.617   1.277  1.00  0.00     0.053 A 
ENDBRANCH  19  21
ENDBRANCH  13  19
TORSDOF 2
