REMARK  5 active torsions:
REMARK  status: ('A' for Active; 'I' for Inactive)
REMARK    1  A    between atoms: C10_10  and  C11_11 
REMARK    2  A    between atoms: C11_11  and  C12_12 
REMARK    3  A    between atoms: C12_12  and  C13_13 
REMARK    4  A    between atoms: C13_13  and  N1_14 
REMARK    5  A    between atoms: C13_13  and  C14_15 
ROOT
HETATM    1  C1  UNL     1      -4.935   3.787  -0.706  1.00  0.00     0.013 C 
HETATM    2  C2  UNL     1      -4.063   3.116  -0.265  1.00  0.00    -0.101 C 
HETATM    3  C3  UNL     1      -3.015   2.283   0.255  1.00  0.00     0.062 A 
HETATM    4  C4  UNL     1      -2.216   2.348   1.277  1.00  0.00    -0.016 A 
HETATM    5  C5  UNL     1      -1.893   1.105   0.493  1.00  0.00     0.019 A 
HETATM    6  C6  UNL     1      -3.309   0.324   0.343  1.00  0.00     0.048 A 
HETATM    7  C7  UNL     1      -3.069   0.392  -1.187  1.00  0.00     0.087 A 
HETATM    8  C8  UNL     1      -2.294   0.931  -0.150  1.00  0.00     0.033 A 
HETATM    9  C9  UNL     1      -1.467  -0.140  -0.172  1.00  0.00     0.022 A 
HETATM   10  C10 UNL     1      -0.353  -0.574   0.364  1.00  0.00    -0.067 C 
HETATM   11  C16 UNL     1      -0.269  -1.742  -0.540  1.00  0.00     0.022 C 
HETATM   12  C17 UNL     1      -1.080  -2.106  -1.516  1.00  0.00     0.103 C 
HETATM   13  N2  UNL     1      -2.247  -1.730  -2.180  1.00  0.00    -0.315 N 
HETATM   14  N3  UNL     1      -3.614  -1.556  -2.304  1.00  0.00    -0.153 NA
HETATM   15  N4  UNL     1      -4.056  -0.284  -1.889  1.00  0.00    -0.325 N 
HETATM   16  H18 UNL     1      -2.286  -1.320  -3.164  1.00  0.00     0.181 HD
HETATM   17  H19 UNL     1      -4.139  -2.302  -1.805  1.00  0.00     0.172 HD
HETATM   18  H20 UNL     1      -4.959   0.219  -2.003  1.00  0.00     0.176 HD
ENDROOT
BRANCH  10  19
HETATM   19  C11 UNL     1       0.818  -0.531   1.330  1.00  0.00     0.037 C 
BRANCH  19  20
HETATM   20  C12 UNL     1       2.038  -0.423   0.442  1.00  0.00     0.039 C 
BRANCH  20  21
HETATM   21  C13 UNL     1       3.314  -0.358   1.255  1.00  0.00     0.217 C 
BRANCH  21  22
HETATM   22  N1  UNL     1       3.383   0.752   2.148  1.00  0.00     0.082 N 
HETATM   23  H9  UNL     1       3.644   0.473   3.111  1.00  0.00     0.313 HD
HETATM   24  H10 UNL     1       2.570   1.403   2.095  1.00  0.00     0.313 HD
ENDBRANCH  21  22
BRANCH  21  25
HETATM   25  C14 UNL     1       4.460  -0.407   0.268  1.00  0.00     0.031 C 
HETATM   26  C15 UNL     1       5.771  -0.347   1.021  1.00  0.00     0.007 C 
ENDBRANCH  21  25
ENDBRANCH  20  21
ENDBRANCH  19  20
ENDBRANCH  10  19
TORSDOF 5
