REMARK  6 active torsions:
REMARK  status: ('A' for Active; 'I' for Inactive)
REMARK    1  A    between atoms: N1_2  and  C2_3 
REMARK    2  A    between atoms: C3_4  and  N2_5 
REMARK    3  A    between atoms: N2_5  and  C4_6 
REMARK    4  A    between atoms: C11_16  and  O1_17 
REMARK    5  A    between atoms: O1_17  and  C12_18 
REMARK    6  A    between atoms: C13_19  and  C14_20 
ROOT
HETATM    1  C2  UNL     1       0.291   0.385   0.183  1.00  0.00     0.128 A 
HETATM    2  C3  UNL     1       1.426   0.868  -0.467  1.00  0.00     0.160 A 
HETATM    3  N3  UNL     1       1.535   2.219  -0.593  1.00  0.00    -0.222 NA
HETATM    4  C10 UNL     1       0.562   3.037  -0.095  1.00  0.00     0.238 A 
HETATM    5  N4  UNL     1      -0.513   2.522   0.522  1.00  0.00    -0.215 NA
HETATM    6  C11 UNL     1      -0.694   1.194   0.687  1.00  0.00     0.201 A 
ENDROOT
BRANCH   2   7
HETATM    7  N2  UNL     1       2.422  -0.013  -0.966  1.00  0.00    -0.339 N 
HETATM    8  H5  UNL     1       2.222  -0.717  -1.712  1.00  0.00     0.167 HD
BRANCH   7   9
HETATM    9  C4  UNL     1       3.770   0.026  -0.460  1.00  0.00     0.035 A 
HETATM   10  C5  UNL     1       4.755  -0.831  -0.877  1.00  0.00     0.029 A 
HETATM   11  C6  UNL     1       6.048  -0.741  -0.366  1.00  0.00     0.004 A 
HETATM   12  C7  UNL     1       6.368   0.218   0.580  1.00  0.00     0.019 A 
HETATM   13  C8  UNL     1       5.377   1.088   1.008  1.00  0.00     0.013 A 
HETATM   14 BR1  UNL     1       5.766   2.437   2.318  1.00  0.00    -0.051 Br
HETATM   15  C9  UNL     1       4.114   0.966   0.479  1.00  0.00     0.048 A 
ENDBRANCH   7   9
ENDBRANCH   2   7
BRANCH   1  16
HETATM   16  N1  UNL     1       0.195  -1.023   0.304  1.00  0.00    -0.388 N 
HETATM   17  C1  UNL     1      -0.378  -2.024  -0.543  1.00  0.00     0.146 C 
HETATM   18  H4  UNL     1       0.617  -1.463   1.158  1.00  0.00     0.159 HD
ENDBRANCH   1  16
BRANCH   6  19
HETATM   19  O1  UNL     1      -1.849   0.860   1.338  1.00  0.00    -0.302 OA
BRANCH  19  20
HETATM   20  C12 UNL     1      -2.199  -0.446   1.588  1.00  0.00     0.145 C 
HETATM   21  C13 UNL     1      -3.267  -1.108   1.192  1.00  0.00     0.033 C 
BRANCH  21  22
HETATM   22  C14 UNL     1      -4.339  -0.565   0.374  1.00  0.00    -0.035 C 
HETATM   23  C15 UNL     1      -4.400   0.686  -0.098  1.00  0.00     0.008 C 
HETATM   24  C16 UNL     1      -5.654   0.761  -0.858  1.00  0.00     0.196 C 
HETATM   25  O2  UNL     1      -5.970  -0.554  -1.165  1.00  0.00    -0.383 OA
HETATM   26  C17 UNL     1      -5.550  -1.293  -0.078  1.00  0.00     0.206 C 
ENDBRANCH  21  22
ENDBRANCH  19  20
ENDBRANCH   6  19
TORSDOF 6
