REMARK  7 active torsions:
REMARK  status: ('A' for Active; 'I' for Inactive)
REMARK    1  A    between atoms: C3_3  and  C4_4 
REMARK    2  A    between atoms: C4_4  and  C5_5 
REMARK    3  A    between atoms: C5_5  and  N1_6 
REMARK    4  A    between atoms: N1_6  and  C6_7 
REMARK    5  A    between atoms: C10_15  and  C11_16 
REMARK    6  A    between atoms: C11_16  and  N5_17 
REMARK    7  A    between atoms: C14_20  and  N6_21 
ROOT
HETATM    1  C1  UNL     1      -7.823   1.613   0.194  1.00  0.00     0.012 C 
HETATM    2  C2  UNL     1      -6.712   1.908   0.553  1.00  0.00    -0.114 C 
HETATM    3  C3  UNL     1      -5.351   2.289   0.996  1.00  0.00     0.121 C 
ENDROOT
BRANCH   3   4
HETATM    4  C4  UNL     1      -4.410   1.173   0.772  1.00  0.00     0.002 C 
BRANCH   4   5
HETATM    5  C5  UNL     1      -3.733   0.092   0.502  1.00  0.00     0.086 C 
BRANCH   5   6
HETATM    6  N1  UNL     1      -2.516  -0.647   0.489  1.00  0.00    -0.352 N 
HETATM    7  H6  UNL     1      -2.200  -1.154   1.322  1.00  0.00     0.166 HD
BRANCH   6   8
HETATM    8  C6  UNL     1      -1.865  -0.570  -0.767  1.00  0.00     0.139 C 
HETATM    9  N2  UNL     1      -2.105   0.029  -1.867  1.00  0.00    -0.224 NA
HETATM   10  C7  UNL     1      -1.366  -0.007  -3.070  1.00  0.00     0.255 C 
HETATM   11  N3  UNL     1      -0.288  -0.788  -3.101  1.00  0.00    -0.184 NA
HETATM   12  N4  UNL     1      -0.017  -1.529  -1.915  1.00  0.00    -0.332 N 
HETATM   13  B1  UNL     1       0.622  -2.912  -1.687  1.00  0.00     0.321 B 
HETATM   14  C10 UNL     1      -0.450  -1.088  -0.636  1.00  0.00     0.127 A 
HETATM   15  C8  UNL     1       0.400  -3.163  -0.142  1.00  0.00    -0.057 A 
HETATM   16  H8  UNL     1       0.978  -3.681  -2.508  1.00  0.00     0.006 HD
HETATM   17  C9  UNL     1      -0.218  -2.098   0.360  1.00  0.00     0.000 A 
BRANCH  14  18
HETATM   18  C11 UNL     1       0.393   0.189  -0.253  1.00  0.00     0.160 C 
BRANCH  18  19
HETATM   19  N5  UNL     1       1.752  -0.030  -0.087  1.00  0.00    -0.409 N 
HETATM   20  C12 UNL     1       2.286  -0.748   0.976  1.00  0.00     0.119 C 
HETATM   21  C13 UNL     1       3.420  -0.049   1.712  1.00  0.00     0.055 C 
HETATM   22  C14 UNL     1       4.458   0.280   0.656  1.00  0.00     0.221 C 
HETATM   23  C15 UNL     1       3.805   1.338  -0.228  1.00  0.00     0.055 C 
HETATM   24  C16 UNL     1       2.646   0.709  -0.913  1.00  0.00     0.119 C 
BRANCH  22  25
HETATM   25  N6  UNL     1       5.698   0.748   1.210  1.00  0.00     0.083 N 
HETATM   26  H18 UNL     1       6.477   0.085   0.972  1.00  0.00     0.313 HD
HETATM   27  H19 UNL     1       5.856   1.718   0.856  1.00  0.00     0.313 HD
ENDBRANCH  22  25
ENDBRANCH  18  19
ENDBRANCH  14  18
ENDBRANCH   6   8
ENDBRANCH   5   6
ENDBRANCH   4   5
ENDBRANCH   3   4
TORSDOF 7
