REMARK  4 active torsions:
REMARK  status: ('A' for Active; 'I' for Inactive)
REMARK    1  A    between atoms: C3_3  and  C6_6 
REMARK    2  A    between atoms: C6_6  and  N1_7 
REMARK    3  A    between atoms: N1_7  and  C7_8 
REMARK    4  A    between atoms: C15_19  and  N5_20 
ROOT
HETATM    1  C1  UNL     1      -3.562   0.293  -2.889  1.00  0.00     0.013 C 
HETATM    2  C2  UNL     1      -3.562   0.139  -1.709  1.00  0.00    -0.106 C 
HETATM    3  C3  UNL     1      -3.571  -0.067  -0.271  1.00  0.00     0.031 C 
HETATM    4  C4  UNL     1      -4.003   1.164   0.498  1.00  0.00     0.030 C 
HETATM    5  C5  UNL     1      -4.566  -1.177   0.037  1.00  0.00     0.030 C 
ENDROOT
BRANCH   3   6
HETATM    6  C6  UNL     1      -2.228  -0.544   0.226  1.00  0.00     0.142 C 
BRANCH   6   7
HETATM    7  N1  UNL     1      -1.177   0.397  -0.059  1.00  0.00    -0.376 N 
HETATM    8  H10 UNL     1      -1.368   1.303  -0.559  1.00  0.00     0.160 HD
BRANCH   7   9
HETATM    9  C7  UNL     1       0.184   0.129   0.335  1.00  0.00     0.109 C 
HETATM   10  N2  UNL     1       0.182  -0.578   1.445  1.00  0.00    -0.228 NA
HETATM   11  C8  UNL     1       1.228  -1.323   2.119  1.00  0.00     0.235 C 
HETATM   12  N3  UNL     1       2.549  -1.321   2.102  1.00  0.00    -0.245 NA
HETATM   13  C9  UNL     1       3.526  -0.950   1.093  1.00  0.00     0.051 A 
HETATM   14  C10 UNL     1       3.252   0.214   0.466  1.00  0.00    -0.010 A 
HETATM   15  C11 UNL     1       4.451  -0.460   0.038  1.00  0.00     0.088 A 
HETATM   16  C15 UNL     1       2.319   1.371   0.208  1.00  0.00     0.262 C 
HETATM   17  C14 UNL     1       1.184   0.729  -0.627  1.00  0.00     0.109 C 
HETATM   18  C13 UNL     1       1.794  -0.350  -1.471  1.00  0.00     0.128 C 
HETATM   19  N4  UNL     1       3.100  -0.173  -1.964  1.00  0.00    -0.419 N 
HETATM   20  C12 UNL     1       4.156  -0.998  -1.378  1.00  0.00     0.129 C 
HETATM   21  H15 UNL     1       3.405   0.798  -2.120  1.00  0.00     0.153 HD
BRANCH  16  22
HETATM   22  N5  UNL     1       1.850   1.976   1.389  1.00  0.00     0.087 N 
HETATM   23  H20 UNL     1       1.989   1.480   2.273  1.00  0.00     0.313 HD
HETATM   24  H21 UNL     1       2.149   2.988   1.425  1.00  0.00     0.313 HD
ENDBRANCH  16  22
ENDBRANCH   7   9
ENDBRANCH   6   7
ENDBRANCH   3   6
TORSDOF 4
