REMARK  1 active torsions:
REMARK  status: ('A' for Active; 'I' for Inactive)
REMARK    1  A    between atoms: C4_5  and  N2_6 
ROOT
HETATM    1  C1  UNL     1      -2.627   3.262   0.217  1.00  0.00     0.143 C 
HETATM    2  N1  UNL     1      -2.183   2.138   0.848  1.00  0.00    -0.416 N 
HETATM    3  C2  UNL     1      -2.851   0.933   0.908  1.00  0.00     0.118 C 
HETATM    4  C3  UNL     1      -2.833   0.210  -0.414  1.00  0.00     0.055 C 
HETATM    5  C4  UNL     1      -3.064  -1.244  -0.103  1.00  0.00     0.223 C 
HETATM    6  C5  UNL     1      -2.086  -1.794   0.913  1.00  0.00     0.072 C 
HETATM    7  C6  UNL     1      -0.670  -1.722   0.584  1.00  0.00    -0.042 A 
HETATM    8  C7  UNL     1      -0.219  -2.963   0.338  1.00  0.00     0.113 A 
HETATM    9  N3  UNL     1       1.086  -3.289  -0.008  1.00  0.00    -0.287 N 
HETATM   10  N4  UNL     1       2.096  -2.381  -0.145  1.00  0.00    -0.160 NA
HETATM   11  C8  UNL     1       1.765  -1.138   0.073  1.00  0.00     0.147 A 
HETATM   12  C9  UNL     1       0.312  -0.650   0.472  1.00  0.00     0.080 A 
HETATM   13  C10 UNL     1      -0.571   0.451   0.759  1.00  0.00     0.030 A 
HETATM   14  C11 UNL     1       0.620   0.850   0.538  1.00  0.00     0.064 A 
HETATM   15  C12 UNL     1       1.636   1.166   0.348  1.00  0.00    -0.112 A 
HETATM   16  C13 UNL     1       2.846   1.514   0.118  1.00  0.00     0.079 A 
HETATM   17  C14 UNL     1       4.005   1.939  -0.090  1.00  0.00     0.015 A 
HETATM   18  C15 UNL     1       5.270   1.277  -0.476  1.00  0.00     0.058 A 
HETATM   19  C16 UNL     1       5.116  -0.178  -0.599  1.00  0.00    -0.005 A 
HETATM   20  C17 UNL     1       4.032  -0.948  -0.435  1.00  0.00     0.095 A 
HETATM   21  N5  UNL     1       2.865  -0.071  -0.069  1.00  0.00    -0.302 N 
HETATM   22  C18 UNL     1      -0.705   1.903   0.780  1.00  0.00     0.135 A 
HETATM   23  H14 UNL     1       1.536  -4.188  -0.214  1.00  0.00     0.188 HD
ENDROOT
BRANCH   5  24
HETATM   24  N2  UNL     1      -3.079  -2.006  -1.316  1.00  0.00     0.083 N 
HETATM   25  H9  UNL     1      -4.045  -2.048  -1.730  1.00  0.00     0.313 HD
HETATM   26  H10 UNL     1      -2.646  -2.952  -1.243  1.00  0.00     0.313 HD
ENDBRANCH   5  24
TORSDOF 1
