REMARK  3 active torsions:
REMARK  status: ('A' for Active; 'I' for Inactive)
REMARK    1  A    between atoms: C7_7  and  N1_8 
REMARK    2  A    between atoms: N1_8  and  C8_9 
REMARK    3  A    between atoms: C16_22  and  N6_23 
ROOT
HETATM    1  C1  UNL     1       6.450   2.438   2.602  1.00  0.00     0.018 C 
HETATM    2  C2  UNL     1       5.912   1.672   1.833  1.00  0.00    -0.078 C 
HETATM    3  C3  UNL     1       5.276   0.743   0.935  1.00  0.00     0.019 A 
HETATM    4  C4  UNL     1       6.034   0.149  -0.053  1.00  0.00     0.021 A 
HETATM    5  C5  UNL     1       5.368  -0.741  -0.895  1.00  0.00     0.004 A 
HETATM    6  C6  UNL     1       4.020  -0.990  -0.716  1.00  0.00     0.029 A 
HETATM    7  C7  UNL     1       3.279  -0.391   0.275  1.00  0.00     0.035 A 
HETATM    8  C19 UNL     1       3.937   0.479   1.094  1.00  0.00     0.050 A 
ENDROOT
BRANCH   7   9
HETATM    9  N1  UNL     1       1.893  -0.610   0.507  1.00  0.00    -0.339 N 
HETATM   10  H5  UNL     1       1.370  -0.125   1.262  1.00  0.00     0.167 HD
BRANCH   9  11
HETATM   11  C8  UNL     1       1.052  -1.490  -0.219  1.00  0.00     0.158 A 
HETATM   12  N2  UNL     1       1.605  -2.650  -0.493  1.00  0.00    -0.220 NA
HETATM   13  C9  UNL     1       0.867  -3.626  -1.217  1.00  0.00     0.257 A 
HETATM   14  N3  UNL     1      -0.333  -3.348  -1.588  1.00  0.00    -0.167 NA
HETATM   15  N4  UNL     1      -0.930  -2.129  -1.307  1.00  0.00    -0.273 N 
HETATM   16  C10 UNL     1      -0.291  -1.075  -0.590  1.00  0.00     0.103 A 
HETATM   17  H7  UNL     1      -1.875  -2.022  -1.676  1.00  0.00     0.189 HD
HETATM   18  C11 UNL     1      -0.791   0.130  -0.341  1.00  0.00    -0.007 C 
HETATM   19  C12 UNL     1      -0.166   1.314   0.333  1.00  0.00     0.139 C 
HETATM   20  C14 UNL     1      -2.227   0.284  -0.804  1.00  0.00    -0.030 C 
HETATM   21  S1  UNL     1      -1.237   2.777  -0.098  1.00  0.00    -0.049 SA
HETATM   22  N5  UNL     1      -2.850   2.068  -0.542  1.00  0.00    -0.331 N 
HETATM   23  C13 UNL     1      -2.678   1.220  -1.716  1.00  0.00     0.106 C 
HETATM   24  C18 UNL     1      -4.038   2.379   0.282  1.00  0.00     0.138 C 
HETATM   25  C17 UNL     1      -4.847   1.095   0.466  1.00  0.00     0.045 C 
HETATM   26  C16 UNL     1      -3.927   0.047   0.993  1.00  0.00     0.079 C 
HETATM   27  C15 UNL     1      -3.149  -0.711  -0.112  1.00  0.00     0.065 C 
BRANCH  26  28
HETATM   28  N6  UNL     1      -4.736  -0.974   1.637  1.00  0.00    -0.426 N 
HETATM   29  H14 UNL     1      -5.685  -1.073   1.259  1.00  0.00     0.150 HD
HETATM   30  H15 UNL     1      -4.232  -1.829   1.893  1.00  0.00     0.150 HD
ENDBRANCH  26  28
ENDBRANCH   9  11
ENDBRANCH   7   9
TORSDOF 3
