REMARK  6 active torsions:
REMARK  status: ('A' for Active; 'I' for Inactive)
REMARK    1  A    between atoms: C4_6  and  C5_7 
REMARK    2  A    between atoms: C5_7  and  N3_8 
REMARK    3  A    between atoms: C8_11  and  N4_12 
REMARK    4  A    between atoms: C11_15  and  C12_16 
REMARK    5  A    between atoms: C12_16  and  N5_17 
REMARK    6  A    between atoms: N5_17  and  C13_18 
ROOT
HETATM    1  N1  UNL     1       2.740  -3.492   2.921  1.00  0.00    -0.171 NA
HETATM    2  C1  UNL     1       2.119  -3.126   2.017  1.00  0.00     0.189 C 
HETATM    3  N2  UNL     1       1.384  -2.669   0.914  1.00  0.00    -0.262 N 
HETATM    4  C2  UNL     1       1.071  -3.453  -0.131  1.00  0.00     0.109 A 
HETATM    5  C3  UNL     1       0.346  -2.669  -0.966  1.00  0.00     0.029 A 
HETATM    6  C4  UNL     1       0.182  -1.368  -0.469  1.00  0.00    -0.014 A 
HETATM    7  C11 UNL     1       0.862  -1.418   0.729  1.00  0.00     0.052 A 
ENDROOT
BRANCH   7   8
HETATM    8  C12 UNL     1       0.977  -0.236   1.637  1.00  0.00     0.178 C 
BRANCH   8   9
HETATM    9  N5  UNL     1       1.837   0.762   1.058  1.00  0.00    -0.384 N 
HETATM   10  H18 UNL     1       1.288   1.661   0.865  1.00  0.00     0.160 HD
BRANCH   9  11
HETATM   11  C13 UNL     1       3.192   0.869   0.681  1.00  0.00     0.028 A 
HETATM   12  C14 UNL     1       4.126  -0.130   0.823  1.00  0.00     0.029 A 
HETATM   13  C15 UNL     1       5.450  -0.056   0.465  1.00  0.00     0.002 A 
HETATM   14  C16 UNL     1       5.877   1.124  -0.084  1.00  0.00     0.000 A 
HETATM   15  C17 UNL     1       4.997   2.166  -0.255  1.00  0.00     0.002 A 
HETATM   16  C18 UNL     1       3.690   2.023   0.125  1.00  0.00     0.029 A 
ENDBRANCH   9  11
ENDBRANCH   8   9
ENDBRANCH   7   8
BRANCH   6  17
HETATM   17  C5  UNL     1      -0.607  -0.395  -1.202  1.00  0.00     0.157 C 
BRANCH  17  18
HETATM   18  N3  UNL     1      -1.968  -0.232  -0.924  1.00  0.00    -0.408 N 
HETATM   19  C6  UNL     1      -2.434   0.051   0.363  1.00  0.00     0.119 C 
HETATM   20  C7  UNL     1      -3.946  -0.112   0.500  1.00  0.00     0.055 C 
HETATM   21  C8  UNL     1      -4.651   0.764  -0.469  1.00  0.00     0.221 C 
HETATM   22  C9  UNL     1      -3.660   1.372  -1.455  1.00  0.00     0.055 C 
HETATM   23  C10 UNL     1      -2.743   0.323  -2.007  1.00  0.00     0.119 C 
BRANCH  21  24
HETATM   24  N4  UNL     1      -5.315   1.839   0.211  1.00  0.00     0.083 N 
HETATM   25  H10 UNL     1      -5.721   1.575   1.143  1.00  0.00     0.313 HD
HETATM   26  H11 UNL     1      -6.015   2.344  -0.382  1.00  0.00     0.313 HD
ENDBRANCH  21  24
ENDBRANCH  17  18
ENDBRANCH   6  17
TORSDOF 6
