REMARK  3 active torsions:
REMARK  status: ('A' for Active; 'I' for Inactive)
REMARK    1  A    between atoms: C4_5  and  N1_6 
REMARK    2  A    between atoms: N1_6  and  C5_7 
REMARK    3  A    between atoms: C9_13  and  N4_14 
ROOT
HETATM    1  C1  UNL     1       8.571  -0.466   0.410  1.00  0.00    -0.004 C 
HETATM    2  C2  UNL     1       7.402  -0.667   0.121  1.00  0.00    -0.171 C 
HETATM    3  B1  UNL     1       5.936  -0.945  -0.247  1.00  0.00     0.297 B 
HETATM    4  C3  UNL     1       4.826   0.118  -0.025  1.00  0.00    -0.033 A 
HETATM    5  C4  UNL     1       3.548  -0.015  -0.342  1.00  0.00     0.020 A 
HETATM    6  C17 UNL     1       3.163  -1.262  -0.947  1.00  0.00     0.023 A 
HETATM    7  C18 UNL     1       4.034  -2.230  -1.178  1.00  0.00    -0.033 A 
HETATM    8  C19 UNL     1       5.495  -2.324  -0.918  1.00  0.00    -0.002 A 
ENDROOT
BRANCH   5   9
HETATM    9  N1  UNL     1       2.633   1.041  -0.083  1.00  0.00    -0.340 N 
HETATM   10  H3  UNL     1       2.726   2.079  -0.139  1.00  0.00     0.167 HD
BRANCH   9  11
HETATM   11  C5  UNL     1       1.324   0.685   0.339  1.00  0.00     0.154 C 
HETATM   12  N2  UNL     1       1.063  -0.420   1.013  1.00  0.00    -0.223 NA
HETATM   13  C6  UNL     1      -0.289  -0.700   1.403  1.00  0.00     0.231 C 
HETATM   14  N3  UNL     1      -0.871  -0.562   0.276  1.00  0.00    -0.247 NA
HETATM   15  C7  UNL     1      -2.287  -0.743   0.154  1.00  0.00     0.347 C 
HETATM   16  C8  UNL     1      -2.940  -1.009   1.492  1.00  0.00     0.094 C 
HETATM   17  N5  UNL     1      -2.767   0.554  -0.379  1.00  0.00     0.114 N 
HETATM   18  C9  UNL     1      -4.302  -0.333   1.478  1.00  0.00     0.223 C 
HETATM   19  C10 UNL     1      -4.896  -0.440   0.089  1.00  0.00     0.066 C 
HETATM   20  C11 UNL     1      -4.128   0.494  -0.818  1.00  0.00     0.277 C 
HETATM   21  C12 UNL     1      -1.811   0.919  -1.379  1.00  0.00     0.290 C 
HETATM   22  C13 UNL     1      -0.879   1.998  -0.966  1.00  0.00     0.094 A 
HETATM   23  C14 UNL     1      -1.552   3.105  -0.251  1.00  0.00     0.005 A 
HETATM   24  C16 UNL     1       0.180   1.581   0.001  1.00  0.00     0.089 A 
HETATM   25  C15 UNL     1      -0.961   3.280   0.919  1.00  0.00     0.114 A 
HETATM   26  N6  UNL     1       0.100   2.344   1.066  1.00  0.00    -0.261 NA
BRANCH  18  27
HETATM   27  N4  UNL     1      -5.186  -0.966   2.420  1.00  0.00     0.083 N 
HETATM   28  H9  UNL     1      -6.160  -0.593   2.227  1.00  0.00     0.313 HD
HETATM   29  H10 UNL     1      -5.170  -1.994   2.209  1.00  0.00     0.313 HD
ENDBRANCH  18  27
ENDBRANCH   9  11
ENDBRANCH   5   9
TORSDOF 3
