REMARK  4 active torsions:
REMARK  status: ('A' for Active; 'I' for Inactive)
REMARK    1  A    between atoms: C3_3  and  C17_22 
REMARK    2  A    between atoms: C4_4  and  C5_5 
REMARK    3  A    between atoms: C14_18  and  N5_19 
REMARK    4  A    between atoms: C17_22  and  C18_23 
ROOT
HETATM    1  C1  UNL     1       3.605  -3.531  -0.393  1.00  0.00     0.017 C 
HETATM    2  C2  UNL     1       3.918  -2.416   0.016  1.00  0.00    -0.082 C 
HETATM    3  C3  UNL     1       4.274  -1.109   0.471  1.00  0.00     0.000 C 
HETATM    4  C4  UNL     1       3.512  -0.041   0.402  1.00  0.00     0.048 C 
ENDROOT
BRANCH   3   5
HETATM    5  C17 UNL     1       5.616  -1.041   1.077  1.00  0.00     0.074 C 
BRANCH   5   6
HETATM    6  C18 UNL     1       5.844   0.328   1.603  1.00  0.00    -0.032 C 
HETATM    7  C19 UNL     1       6.894   1.021   1.121  1.00  0.00     0.007 C 
ENDBRANCH   5   6
ENDBRANCH   3   5
BRANCH   4   8
HETATM    8  C5  UNL     1       2.171  -0.022  -0.151  1.00  0.00     0.059 C 
HETATM    9  C6  UNL     1       1.559  -1.092   0.459  1.00  0.00     0.032 C 
HETATM   10  C7  UNL     1       0.257  -1.503   0.357  1.00  0.00     0.011 C 
HETATM   11  C8  UNL     1      -0.769  -0.634   0.524  1.00  0.00    -0.041 C 
HETATM   12  C9  UNL     1      -0.553   0.722   0.301  1.00  0.00     0.121 C 
HETATM   13  C16 UNL     1      -2.201  -0.710   0.913  1.00  0.00     0.042 C 
HETATM   14  N1  UNL     1      -0.867   1.858  -0.392  1.00  0.00    -0.262 N 
HETATM   15  N2  UNL     1       0.092   2.433  -1.091  1.00  0.00    -0.165 NA
HETATM   16  C11 UNL     1      -2.247   2.260  -0.239  1.00  0.00     0.266 C 
HETATM   17  C10 UNL     1       1.374   1.987  -0.998  1.00  0.00     0.255 C 
HETATM   18  N3  UNL     1       1.412   0.653  -1.010  1.00  0.00    -0.240 NA
HETATM   19  N4  UNL     1      -3.052   1.653  -1.239  1.00  0.00    -0.404 N 
HETATM   20  C12 UNL     1      -4.453   1.612  -1.032  1.00  0.00     0.117 C 
HETATM   21  H9  UNL     1      -2.787   1.889  -2.216  1.00  0.00     0.154 HD
HETATM   22  C13 UNL     1      -4.869   0.658   0.073  1.00  0.00     0.054 C 
HETATM   23  C14 UNL     1      -4.457  -0.768  -0.239  1.00  0.00     0.219 C 
HETATM   24  C15 UNL     1      -2.982  -0.945  -0.340  1.00  0.00     0.040 C 
BRANCH  23  25
HETATM   25  N5  UNL     1      -4.916  -1.578   0.870  1.00  0.00     0.083 N 
HETATM   26  H15 UNL     1      -4.235  -2.309   1.146  1.00  0.00     0.313 HD
HETATM   27  H16 UNL     1      -5.880  -1.952   0.750  1.00  0.00     0.313 HD
ENDBRANCH  23  25
ENDBRANCH   4   8
TORSDOF 4
