REMARK  6 active torsions:
REMARK  status: ('A' for Active; 'I' for Inactive)
REMARK    1  A    between atoms: C6_6  and  C7_7 
REMARK    2  A    between atoms: C7_7  and  N1_8 
REMARK    3  A    between atoms: N1_8  and  C8_9 
REMARK    4  A    between atoms: C13_16  and  C14_17 
REMARK    5  A    between atoms: C14_17  and  N4_18 
REMARK    6  A    between atoms: C17_21  and  N5_22 
ROOT
HETATM    1  C1  UNL     1       6.055  -0.387   3.847  1.00  0.00     0.018 C 
HETATM    2  C2  UNL     1       5.379  -0.732   2.910  1.00  0.00    -0.077 C 
HETATM    3  C3  UNL     1       4.546  -1.156   1.794  1.00  0.00     0.018 A 
HETATM    4  C4  UNL     1       3.354  -0.634   1.676  1.00  0.00     0.021 A 
HETATM    5  C5  UNL     1       2.536  -1.074   0.553  1.00  0.00     0.006 A 
HETATM    6  C6  UNL     1       2.845  -1.940  -0.371  1.00  0.00    -0.058 A 
HETATM    7  C20 UNL     1       4.047  -2.746  -0.614  1.00  0.00     0.072 A 
HETATM    8  P1  UNL     1       5.306  -2.391   0.687  1.00  0.00    -0.081 P 
HETATM    9  H26 UNL     1       6.500  -1.834   0.121  1.00  0.00     0.063 HD
ENDROOT
BRANCH   6  10
HETATM   10  C7  UNL     1       1.873  -2.244  -1.423  1.00  0.00     0.155 C 
BRANCH  10  11
HETATM   11  N1  UNL     1       0.648  -1.512  -1.343  1.00  0.00    -0.371 N 
HETATM   12  H6  UNL     1      -0.239  -2.034  -1.088  1.00  0.00     0.161 HD
BRANCH  11  13
HETATM   13  C8  UNL     1       0.506  -0.120  -1.581  1.00  0.00     0.129 A 
HETATM   14  N2  UNL     1       1.597   0.415  -2.053  1.00  0.00    -0.252 NA
HETATM   15  C9  UNL     1       1.752   1.793  -2.386  1.00  0.00     0.289 A 
HETATM   16  N3  UNL     1       0.543   2.546  -2.152  1.00  0.00    -0.298 N 
HETATM   17  C10 UNL     1       0.513   3.915  -2.436  1.00  0.00     0.003 C 
HETATM   18  C12 UNL     1      -0.643   1.961  -1.637  1.00  0.00     0.115 A 
HETATM   19  C11 UNL     1       0.469   5.113  -2.690  1.00  0.00     0.037 C 
HETATM   20  C13 UNL     1      -0.716   0.674  -1.343  1.00  0.00     0.021 A 
BRANCH  20  21
HETATM   21  C14 UNL     1      -1.793  -0.159  -0.802  1.00  0.00     0.161 C 
BRANCH  21  22
HETATM   22  N4  UNL     1      -2.950   0.622  -0.554  1.00  0.00    -0.408 N 
HETATM   23  C15 UNL     1      -2.886   1.564   0.511  1.00  0.00     0.119 C 
HETATM   24  C16 UNL     1      -3.704   1.242   1.726  1.00  0.00     0.055 C 
HETATM   25  C17 UNL     1      -4.145  -0.164   1.873  1.00  0.00     0.221 C 
HETATM   26  C18 UNL     1      -4.478  -0.896   0.617  1.00  0.00     0.055 C 
HETATM   27  C19 UNL     1      -4.188  -0.103  -0.632  1.00  0.00     0.119 C 
BRANCH  25  28
HETATM   28  N5  UNL     1      -3.202  -0.889   2.734  1.00  0.00     0.083 N 
HETATM   29  H18 UNL     1      -3.704  -1.729   3.145  1.00  0.00     0.313 HD
HETATM   30  H19 UNL     1      -3.023  -0.247   3.558  1.00  0.00     0.313 HD
ENDBRANCH  25  28
ENDBRANCH  21  22
ENDBRANCH  20  21
ENDBRANCH  11  13
ENDBRANCH  10  11
ENDBRANCH   6  10
TORSDOF 6
