REMARK  8 active torsions:
REMARK  status: ('A' for Active; 'I' for Inactive)
REMARK    1  A    between atoms: C3_3  and  N1_4 
REMARK    2  A    between atoms: N1_4  and  C4_5 
REMARK    3  A    between atoms: C4_5  and  C5_6 
REMARK    4  A    between atoms: C5_6  and  C6_7 
REMARK    5  A    between atoms: C6_7  and  C7_8 
REMARK    6  A    between atoms: C8_10  and  C9_11 
REMARK    7  A    between atoms: C11_14  and  N3_15 
REMARK    8  A    between atoms: C14_18  and  N4_19 
ROOT
HETATM    1  C1  UNL     1       2.436  -2.515   0.396  1.00  0.00     0.030 C 
HETATM    2  C2  UNL     1       1.245  -1.704   0.886  1.00  0.00     0.100 C 
HETATM    3  C3  UNL     1       0.532  -0.980  -0.285  1.00  0.00     0.121 C 
HETATM    4  C10 UNL     1      -0.691  -1.341   0.494  1.00  0.00     0.154 C 
HETATM    5  C11 UNL     1      -1.813  -1.976  -0.163  1.00  0.00     0.045 C 
HETATM    6  C17 UNL     1      -1.376  -3.180  -0.589  1.00  0.00     0.128 C 
HETATM    7  N5  UNL     1       0.024  -3.316  -0.214  1.00  0.00    -0.327 N 
HETATM    8  N6  UNL     1       0.062  -2.531   0.962  1.00  0.00    -0.213 NA
HETATM    9  H27 UNL     1       0.486  -3.922  -0.938  1.00  0.00     0.180 HD
ENDROOT
BRANCH   3  10
HETATM   10  N1  UNL     1       0.924   0.401  -0.210  1.00  0.00    -0.413 N 
HETATM   11  H6  UNL     1       0.438   1.336  -0.190  1.00  0.00     0.153 HD
BRANCH  10  12
HETATM   12  C4  UNL     1       2.183   0.936  -0.161  1.00  0.00     0.057 C 
BRANCH  12  13
HETATM   13  C5  UNL     1       3.424   1.233  -0.163  1.00  0.00     0.053 C 
BRANCH  13  14
HETATM   14  C6  UNL     1       4.292   2.216   0.008  1.00  0.00     0.065 C 
BRANCH  14  15
HETATM   15  C7  UNL     1       5.261   2.945   0.125  1.00  0.00     0.200 A 
HETATM   16  N2  UNL     1       6.512   2.137  -0.068  1.00  0.00    -0.049 N 
HETATM   17  H10 UNL     1       6.510   1.111  -0.297  1.00  0.00     0.279 HD
HETATM   18  H11 UNL     1       6.914   1.178  -0.302  1.00  0.00     0.279 HD
HETATM   19  C8  UNL     1       6.416   3.633   0.235  1.00  0.00     0.274 A 
BRANCH  19  20
HETATM   20  C9  UNL     1       5.559   4.702   0.413  1.00  0.00     0.408 C 
HETATM   21  F1  UNL     1       5.477   6.070   0.634  1.00  0.00    -0.432 F 
ENDBRANCH  19  20
ENDBRANCH  14  15
ENDBRANCH  13  14
ENDBRANCH  12  13
ENDBRANCH  10  12
ENDBRANCH   3  10
BRANCH   5  22
HETATM   22  N3  UNL     1      -3.095  -1.366  -0.269  1.00  0.00    -0.381 N 
HETATM   23  C12 UNL     1      -3.804  -1.354   1.008  1.00  0.00     0.125 C 
HETATM   24  C13 UNL     1      -4.545  -0.043   1.060  1.00  0.00     0.055 C 
HETATM   25  C14 UNL     1      -5.550  -0.012  -0.050  1.00  0.00     0.221 C 
HETATM   26  C15 UNL     1      -4.919  -0.136  -1.403  1.00  0.00     0.055 C 
HETATM   27  C16 UNL     1      -3.621  -0.843  -1.479  1.00  0.00     0.125 C 
BRANCH  25  28
HETATM   28  N4  UNL     1      -6.403   1.143   0.134  1.00  0.00     0.083 N 
HETATM   29  H20 UNL     1      -6.271   1.520   1.082  1.00  0.00     0.313 HD
HETATM   30  H21 UNL     1      -6.196   1.817  -0.612  1.00  0.00     0.313 HD
ENDBRANCH  25  28
ENDBRANCH   5  22
TORSDOF 8
