REMARK  7 active torsions:
REMARK  status: ('A' for Active; 'I' for Inactive)
REMARK    1  A    between atoms: B1_2  and  C2_3 
REMARK    2  A    between atoms: C6_7  and  N1_8 
REMARK    3  A    between atoms: N1_8  and  C7_9 
REMARK    4  A    between atoms: C10_15  and  C11_16 
REMARK    5  A    between atoms: C11_16  and  C12_17 
REMARK    6  A    between atoms: C12_17  and  N5_18 
REMARK    7  A    between atoms: C15_21  and  N6_22 
ROOT
HETATM    1  C7  UNL     1       2.045   0.085  -0.705  1.00  0.00     0.106 C 
HETATM    2  N2  UNL     1       2.582   0.791   0.336  1.00  0.00    -0.227 NA
HETATM    3  C8  UNL     1       1.714   0.878   1.437  1.00  0.00     0.256 C 
HETATM    4  N3  UNL     1       1.388   0.799   2.744  1.00  0.00    -0.168 NA
HETATM    5  N4  UNL     1      -0.020   1.107   2.979  1.00  0.00    -0.288 N 
HETATM    6  C9  UNL     1      -0.354   0.436   1.801  1.00  0.00     0.112 C 
HETATM    7  C10 UNL     1      -0.723  -0.165   0.690  1.00  0.00    -0.061 C 
HETATM    8  C18 UNL     1       0.037  -1.199  -0.078  1.00  0.00     0.043 C 
HETATM    9  C19 UNL     1       0.818  -0.653  -1.193  1.00  0.00     0.083 C 
HETATM   10  H10 UNL     1      -0.445   1.586   3.739  1.00  0.00     0.188 HD
ENDROOT
BRANCH   1  11
HETATM   11  N1  UNL     1       3.135   0.155  -1.661  1.00  0.00    -0.344 N 
HETATM   12  H8  UNL     1       2.962   0.401  -2.676  1.00  0.00     0.167 HD
BRANCH  11  13
HETATM   13  C6  UNL     1       4.471  -0.186  -1.140  1.00  0.00     0.033 A 
HETATM   14  C5  UNL     1       4.836  -1.522  -1.250  1.00  0.00     0.029 A 
HETATM   15  C4  UNL     1       5.981  -2.115  -0.805  1.00  0.00     0.002 A 
HETATM   16  C3  UNL     1       6.818  -1.239  -0.198  1.00  0.00    -0.005 A 
HETATM   17  C2  UNL     1       6.524   0.087  -0.062  1.00  0.00    -0.101 A 
HETATM   18  C20 UNL     1       5.357   0.639  -0.525  1.00  0.00     0.024 A 
BRANCH  17  19
HETATM   19  B1  UNL     1       7.514   1.073   0.660  1.00  0.00     0.190 B 
HETATM   20  C1  UNL     1       9.064   0.661   0.577  1.00  0.00    -0.053 C 
HETATM   21  H4  UNL     1       7.190   1.499   1.707  1.00  0.00    -0.021 HD
ENDBRANCH  17  19
ENDBRANCH  11  13
ENDBRANCH   1  11
BRANCH   7  22
HETATM   22  C11 UNL     1      -2.030   0.103   0.082  1.00  0.00     0.066 C 
BRANCH  22  23
HETATM   23  C12 UNL     1      -3.031   0.667   1.064  1.00  0.00     0.276 C 
BRANCH  23  24
HETATM   24  N5  UNL     1      -4.395   0.577   0.616  1.00  0.00     0.088 N 
HETATM   25  C13 UNL     1      -4.883   1.315  -0.447  1.00  0.00     0.274 C 
HETATM   26  C14 UNL     1      -6.420   1.336  -0.358  1.00  0.00     0.065 C 
HETATM   27  C15 UNL     1      -6.960   0.193   0.428  1.00  0.00     0.221 C 
HETATM   28  C16 UNL     1      -6.123  -1.034   0.108  1.00  0.00     0.065 C 
HETATM   29  C17 UNL     1      -4.708  -0.859   0.507  1.00  0.00     0.274 C 
BRANCH  27  30
HETATM   30  N6  UNL     1      -8.316  -0.148  -0.069  1.00  0.00     0.083 N 
HETATM   31  H21 UNL     1      -8.612  -1.044   0.406  1.00  0.00     0.313 HD
HETATM   32  H22 UNL     1      -8.233  -0.269  -1.097  1.00  0.00     0.313 HD
ENDBRANCH  27  30
ENDBRANCH  23  24
ENDBRANCH  22  23
ENDBRANCH   7  22
TORSDOF 7
