REMARK  8 active torsions:
REMARK  status: ('A' for Active; 'I' for Inactive)
REMARK    1  A    between atoms: N1_2  and  C2_3 
REMARK    2  A    between atoms: C2_3  and  C3_4 
REMARK    3  A    between atoms: C2_3  and  N2_10 
REMARK    4  A    between atoms: C4_5  and  C5_7 
REMARK    5  A    between atoms: N2_10  and  C7_11 
REMARK    6  A    between atoms: C11_18  and  C12_19 
REMARK    7  A    between atoms: C12_19  and  N6_20 
REMARK    8  A    between atoms: N6_20  and  C13_21 
ROOT
HETATM    1  C7  UNL     1       0.389  -1.838  -1.574  1.00  0.00     0.156 A 
HETATM    2  N3  UNL     1       0.671  -2.580  -2.644  1.00  0.00    -0.221 NA
HETATM    3  C8  UNL     1       0.139  -3.747  -2.896  1.00  0.00     0.258 A 
HETATM    4  N4  UNL     1      -0.751  -4.242  -2.030  1.00  0.00    -0.161 NA
HETATM    5  N5  UNL     1      -1.068  -3.541  -0.947  1.00  0.00    -0.240 N 
HETATM    6  C9  UNL     1      -1.925  -3.881   0.004  1.00  0.00     0.119 A 
HETATM    7  C10 UNL     1      -1.913  -2.837   0.900  1.00  0.00     0.030 A 
HETATM    8  C11 UNL     1      -1.026  -1.828   0.490  1.00  0.00     0.004 A 
HETATM    9  C19 UNL     1      -0.515  -2.329  -0.687  1.00  0.00     0.111 A 
ENDROOT
BRANCH   1  10
HETATM   10  N2  UNL     1       0.996  -0.580  -1.318  1.00  0.00    -0.349 N 
HETATM   11  H7  UNL     1       0.774  -0.053  -0.469  1.00  0.00     0.163 HD
BRANCH  10  12
HETATM   12  C2  UNL     1       2.003   0.225  -2.030  1.00  0.00     0.224 C 
BRANCH  12  13
HETATM   13  N1  UNL     1       1.741   0.103  -3.413  1.00  0.00    -0.285 NA
HETATM   14  C1  UNL     1       2.528  -0.331  -4.294  1.00  0.00     0.145 C 
ENDBRANCH  12  13
BRANCH  12  15
HETATM   15  C3  UNL     1       3.368   0.054  -1.572  1.00  0.00     0.139 A 
HETATM   16  C4  UNL     1       4.618  -0.250  -1.078  1.00  0.00     0.105 A 
HETATM   17 CL1  UNL     1       3.173  -1.213  -0.985  1.00  0.00    -0.195 Cl
BRANCH  16  18
HETATM   18  C5  UNL     1       5.690   0.748  -1.363  1.00  0.00     0.147 A 
HETATM   19  C6  UNL     1       6.847   0.490  -0.911  1.00  0.00     0.223 A 
HETATM   20  F1  UNL     1       5.876  -0.427  -0.642  1.00  0.00    -0.389 F 
ENDBRANCH  16  18
ENDBRANCH  12  15
ENDBRANCH  10  12
ENDBRANCH   1  10
BRANCH   8  21
HETATM   21  C12 UNL     1      -0.872  -0.599   1.265  1.00  0.00     0.311 C 
BRANCH  21  22
HETATM   22  N6  UNL     1      -1.601   0.531   0.759  1.00  0.00     0.092 N 
HETATM   23  H13 UNL     1      -1.347   0.762  -0.202  1.00  0.00     0.316 HD
BRANCH  22  24
HETATM   24  C13 UNL     1      -1.450   1.681   1.608  1.00  0.00     0.220 C 
HETATM   25  C14 UNL     1      -2.159   2.897   1.047  1.00  0.00     0.035 C 
HETATM   26  C15 UNL     1      -3.393   3.299   1.778  1.00  0.00     0.002 C 
HETATM   27  C16 UNL     1      -4.292   2.180   2.200  1.00  0.00     0.000 C 
HETATM   28  C17 UNL     1      -3.498   0.962   2.685  1.00  0.00     0.002 C 
HETATM   29  C18 UNL     1      -2.107   1.443   2.973  1.00  0.00     0.035 C 
ENDBRANCH  22  24
ENDBRANCH  21  22
ENDBRANCH   8  21
TORSDOF 8
