REMARK  5 active torsions:
REMARK  status: ('A' for Active; 'I' for Inactive)
REMARK    1  A    between atoms: O1_2  and  C2_3 
REMARK    2  A    between atoms: C2_3  and  N1_4 
REMARK    3  A    between atoms: N1_4  and  C3_5 
REMARK    4  A    between atoms: C8_13  and  P1_14 
REMARK    5  A    between atoms: C11_17  and  O3_18 
ROOT
HETATM    1  C3  UNL     1       0.536   0.142  -0.023  1.00  0.00     0.097 C 
HETATM    2  C4  UNL     1       1.545  -0.504   0.525  1.00  0.00     0.150 C 
HETATM    3  N2  UNL     1       2.447   0.054   1.508  1.00  0.00    -0.223 NA
HETATM    4  C5  UNL     1       2.204   0.750   2.617  1.00  0.00     0.237 C 
HETATM    5  N3  UNL     1       0.966   1.365   3.084  1.00  0.00    -0.230 NA
HETATM    6  C6  UNL     1      -0.216   0.768   3.061  1.00  0.00     0.254 C 
HETATM    7  O2  UNL     1      -0.803   0.026   2.007  1.00  0.00    -0.318 OA
HETATM    8  C7  UNL     1      -0.816   0.222   0.614  1.00  0.00     0.179 A 
HETATM    9  C8  UNL     1      -1.593   1.454   0.329  1.00  0.00    -0.012 A 
HETATM   10  C10 UNL     1      -2.480   0.784  -0.350  1.00  0.00     0.030 A 
HETATM   11  C11 UNL     1      -1.809  -0.474  -0.161  1.00  0.00     0.138 A 
HETATM   12  C13 UNL     1      -2.481  -1.691   0.266  1.00  0.00     0.015 C 
HETATM   13  C14 UNL     1      -1.890  -2.907   0.367  1.00  0.00    -0.021 C 
HETATM   14  C15 UNL     1      -0.429  -2.800  -0.000  1.00  0.00     0.046 C 
HETATM   15  C16 UNL     1       0.386  -3.903  -0.074  1.00  0.00    -0.002 C 
HETATM   16  C17 UNL     1       1.666  -3.185  -0.412  1.00  0.00     0.122 C 
HETATM   17  N4  UNL     1       1.607  -1.837   0.061  1.00  0.00    -0.373 N 
HETATM   18  H23 UNL     1       2.281  -2.027   0.833  1.00  0.00     0.161 HD
ENDROOT
BRANCH   1  19
HETATM   19  N1  UNL     1       0.887   0.710  -1.267  1.00  0.00    -0.366 N 
HETATM   20  H6  UNL     1       0.215   0.925  -2.036  1.00  0.00     0.161 HD
BRANCH  19  21
HETATM   21  C2  UNL     1       2.306   0.958  -1.376  1.00  0.00     0.289 C 
BRANCH  21  22
HETATM   22  O1  UNL     1       2.709   1.856  -0.395  1.00  0.00    -0.377 OA
HETATM   23  C1  UNL     1       4.086   2.043  -0.515  1.00  0.00     0.203 C 
ENDBRANCH  21  22
ENDBRANCH  19  21
ENDBRANCH   1  19
BRANCH   9  24
HETATM   24  P1  UNL     1      -1.439   3.255   0.687  1.00  0.00    -0.099 P 
HETATM   25  C9  UNL     1      -3.058   4.117   0.370  1.00  0.00     0.045 C 
HETATM   26  H9  UNL     1      -0.491   3.756  -0.321  1.00  0.00     0.062 HD
ENDBRANCH   9  24
BRANCH  11  27
HETATM   27  O3  UNL     1      -1.303  -0.778  -1.529  1.00  0.00    -0.373 OA
HETATM   28  C12 UNL     1      -2.398  -1.356  -2.200  1.00  0.00     0.203 C 
ENDBRANCH  11  27
TORSDOF 5
