REMARK  7 active torsions:
REMARK  status: ('A' for Active; 'I' for Inactive)
REMARK    1  A    between atoms: C3_3  and  C4_4 
REMARK    2  A    between atoms: C4_4  and  C5_6 
REMARK    3  A    between atoms: C5_6  and  N1_9 
REMARK    4  A    between atoms: N1_9  and  C7_10 
REMARK    5  A    between atoms: C11_17  and  C12_18 
REMARK    6  A    between atoms: C12_18  and  N5_19 
REMARK    7  A    between atoms: C15_22  and  N6_23 
ROOT
HETATM    1  C7  UNL     1       0.920  -0.612   1.768  1.00  0.00     0.159 A 
HETATM    2  N2  UNL     1       1.626  -0.664   2.918  1.00  0.00    -0.220 NA
HETATM    3  C8  UNL     1       1.562  -1.782   3.688  1.00  0.00     0.258 A 
HETATM    4  N3  UNL     1       0.805  -2.827   3.309  1.00  0.00    -0.161 NA
HETATM    5  N4  UNL     1       0.107  -2.791   2.186  1.00  0.00    -0.240 N 
HETATM    6  C9  UNL     1      -0.716  -3.729   1.638  1.00  0.00     0.119 A 
HETATM    7  C10 UNL     1      -1.180  -3.152   0.473  1.00  0.00     0.030 A 
HETATM    8  C11 UNL     1      -0.641  -1.871   0.314  1.00  0.00     0.004 A 
HETATM    9  C18 UNL     1       0.157  -1.709   1.424  1.00  0.00     0.112 A 
ENDROOT
BRANCH   1  10
HETATM   10  N1  UNL     1       0.977   0.579   0.948  1.00  0.00    -0.339 N 
HETATM   11  H8  UNL     1       0.316   1.376   0.824  1.00  0.00     0.167 HD
BRANCH  10  12
HETATM   12  C5  UNL     1       2.235   0.364   0.317  1.00  0.00     0.060 C 
HETATM   13  C6  UNL     1       2.669  -0.617  -0.422  1.00  0.00     0.215 C 
HETATM   14  F1  UNL     1       3.925  -0.591  -0.912  1.00  0.00    -0.217 F 
BRANCH  12  15
HETATM   15  C4  UNL     1       3.122   1.485   0.603  1.00  0.00     0.156 C 
HETATM   16 CL1  UNL     1       3.163   1.908   2.321  1.00  0.00    -0.114 Cl
BRANCH  15  17
HETATM   17  C3  UNL     1       4.497   1.346   0.038  1.00  0.00    -0.005 C 
HETATM   18  C2  UNL     1       5.025   1.947  -1.032  1.00  0.00    -0.033 C 
HETATM   19  C1  UNL     1       6.424   1.663  -1.418  1.00  0.00     0.036 C 
ENDBRANCH  15  17
ENDBRANCH  12  15
ENDBRANCH  10  12
ENDBRANCH   1  10
BRANCH   8  20
HETATM   20  C12 UNL     1      -0.970  -1.029  -0.835  1.00  0.00     0.313 C 
BRANCH  20  21
HETATM   21  N5  UNL     1      -1.934   0.039  -0.505  1.00  0.00     0.092 N 
HETATM   22  C13 UNL     1      -3.157  -0.482   0.013  1.00  0.00     0.275 C 
HETATM   23  C14 UNL     1      -4.415  -0.076  -0.627  1.00  0.00     0.065 C 
HETATM   24  C15 UNL     1      -4.442   1.197  -1.380  1.00  0.00     0.221 C 
HETATM   25  C16 UNL     1      -3.110   1.849  -1.561  1.00  0.00     0.065 C 
HETATM   26  C17 UNL     1      -2.097   0.769  -1.747  1.00  0.00     0.275 C 
BRANCH  24  27
HETATM   27  N6  UNL     1      -5.328   2.177  -0.734  1.00  0.00     0.083 N 
HETATM   28  H19 UNL     1      -6.303   1.763  -0.812  1.00  0.00     0.313 HD
HETATM   29  H20 UNL     1      -5.113   2.130   0.288  1.00  0.00     0.313 HD
ENDBRANCH  24  27
ENDBRANCH  20  21
ENDBRANCH   8  20
TORSDOF 7
