REMARK  7 active torsions:
REMARK  status: ('A' for Active; 'I' for Inactive)
REMARK    1  A    between atoms: N1_1  and  C1_2 
REMARK    2  A    between atoms: N2_5  and  C4_6 
REMARK    3  A    between atoms: N3_9  and  N4_10 
REMARK    4  A    between atoms: C7_11  and  C8_12 
REMARK    5  A    between atoms: C8_12  and  S1_13 
REMARK    6  A    between atoms: S1_13  and  N5_14 
REMARK    7  A    between atoms: N5_14  and  C9_15 
ROOT
HETATM    1  C4  UNL     1       1.352  -0.111   0.666  1.00  0.00     0.057 A 
HETATM    2  C5  UNL     1       1.474   0.486   1.914  1.00  0.00     0.050 A 
HETATM    3  C6  UNL     1       0.231   0.445   2.516  1.00  0.00     0.118 A 
HETATM    4  N3  UNL     1      -0.603  -0.159   1.649  1.00  0.00    -0.275 N 
HETATM    5  C7  UNL     1       0.038  -0.510   0.520  1.00  0.00     0.070 A 
ENDROOT
BRANCH   5   6
HETATM    6  C8  UNL     1      -0.333  -1.177  -0.740  1.00  0.00     0.159 C 
BRANCH   6   7
HETATM    7  S1  UNL     1      -2.103  -1.611  -0.747  1.00  0.00    -0.049 SA
BRANCH   7   8
HETATM    8  N5  UNL     1      -3.021  -0.101  -0.756  1.00  0.00    -0.330 N 
HETATM    9  H14 UNL     1      -2.556   0.830  -0.920  1.00  0.00     0.174 HD
BRANCH   8  10
HETATM   10  C9  UNL     1      -4.422  -0.134  -0.539  1.00  0.00     0.040 A 
HETATM   11  C10 UNL     1      -5.068  -1.331  -0.321  1.00  0.00     0.033 A 
HETATM   12  C11 UNL     1      -6.439  -1.365  -0.108  1.00  0.00     0.046 A 
HETATM   13  C12 UNL     1      -7.168  -0.198  -0.112  1.00  0.00     0.138 A 
HETATM   14  F1  UNL     1      -8.508  -0.085   0.083  1.00  0.00    -0.204 F 
HETATM   15  C13 UNL     1      -6.522   1.006  -0.330  1.00  0.00     0.074 A 
HETATM   16 CL1  UNL     1      -7.330   2.535  -0.358  1.00  0.00    -0.081 Cl
HETATM   17  C14 UNL     1      -5.173   1.017  -0.538  1.00  0.00     0.057 A 
ENDBRANCH   8  10
ENDBRANCH   7   8
ENDBRANCH   6   7
ENDBRANCH   5   6
BRANCH   1  18
HETATM   18  N2  UNL     1       2.540  -0.166  -0.115  1.00  0.00    -0.379 N 
HETATM   19  C3  UNL     1       2.519   0.493  -1.382  1.00  0.00     0.125 C 
HETATM   20  C2  UNL     1       3.907   0.838  -1.889  1.00  0.00     0.055 C 
HETATM   21  C1  UNL     1       4.890   1.019  -0.759  1.00  0.00     0.221 C 
HETATM   22  C16 UNL     1       4.999  -0.303  -0.060  1.00  0.00     0.055 C 
HETATM   23  C15 UNL     1       3.710  -0.882   0.404  1.00  0.00     0.125 C 
BRANCH  21  24
HETATM   24  N1  UNL     1       6.177   1.294  -1.403  1.00  0.00     0.083 N 
HETATM   25  H1  UNL     1       6.777   1.911  -0.817  1.00  0.00     0.313 HD
HETATM   26  H2  UNL     1       6.623   0.383  -1.639  1.00  0.00     0.313 HD
ENDBRANCH  21  24
ENDBRANCH   1  18
BRANCH   4  27
HETATM   27  N4  UNL     1      -1.966  -0.435   1.801  1.00  0.00    -0.339 N 
HETATM   28  H10 UNL     1      -2.777   0.194   2.015  1.00  0.00     0.177 HD
HETATM   29  H11 UNL     1      -2.532  -1.315   1.747  1.00  0.00     0.177 HD
ENDBRANCH   4  27
TORSDOF 7
