REMARK  7 active torsions:
REMARK  status: ('A' for Active; 'I' for Inactive)
REMARK    1  A    between atoms: C2_2  and  C3_3 
REMARK    2  A    between atoms: C3_3  and  C4_4 
REMARK    3  A    between atoms: C4_4  and  N1_5 
REMARK    4  A    between atoms: N1_5  and  C5_6 
REMARK    5  A    between atoms: C5_6  and  C6_7 
REMARK    6  A    between atoms: C10_14  and  N5_15 
REMARK    7  A    between atoms: N5_15  and  C11_16 
ROOT
HETATM    1  C6  UNL     1       0.513  -2.276  -0.439  1.00  0.00     0.004 A 
HETATM    2  C7  UNL     1       1.006  -3.571  -0.396  1.00  0.00     0.030 A 
HETATM    3  C8  UNL     1       0.049  -4.422   0.112  1.00  0.00     0.119 A 
HETATM    4  N2  UNL     1      -1.005  -3.632   0.367  1.00  0.00    -0.240 N 
HETATM    5  N3  UNL     1      -2.164  -4.055   0.873  1.00  0.00    -0.161 NA
HETATM    6  C9  UNL     1      -3.163  -3.170   1.089  1.00  0.00     0.258 A 
HETATM    7  N4  UNL     1      -2.927  -1.889   0.775  1.00  0.00    -0.220 NA
HETATM    8  C10 UNL     1      -1.784  -1.445   0.271  1.00  0.00     0.159 A 
HETATM    9  C17 UNL     1      -0.771  -2.348   0.053  1.00  0.00     0.112 A 
ENDROOT
BRANCH   8  10
HETATM   10  N5  UNL     1      -1.626  -0.092  -0.030  1.00  0.00    -0.339 N 
HETATM   11  H16 UNL     1      -0.853   0.499  -0.373  1.00  0.00     0.167 HD
BRANCH  10  12
HETATM   12  C11 UNL     1      -2.678   0.869   0.099  1.00  0.00     0.035 A 
HETATM   13  C12 UNL     1      -4.002   0.493  -0.079  1.00  0.00     0.032 A 
HETATM   14  C13 UNL     1      -5.068   1.357   0.052  1.00  0.00     0.046 A 
HETATM   15  C14 UNL     1      -4.848   2.675   0.375  1.00  0.00     0.138 A 
HETATM   16  F1  UNL     1      -5.854   3.570   0.516  1.00  0.00    -0.204 F 
HETATM   17  C15 UNL     1      -3.566   3.121   0.566  1.00  0.00     0.074 A 
HETATM   18 CL1  UNL     1      -3.170   4.791   0.983  1.00  0.00    -0.081 Cl
HETATM   19  C16 UNL     1      -2.560   2.223   0.424  1.00  0.00     0.056 A 
ENDBRANCH  10  12
ENDBRANCH   8  10
BRANCH   1  20
HETATM   20  C5  UNL     1       1.234  -1.068  -0.915  1.00  0.00     0.310 C 
BRANCH  20  21
HETATM   21  N1  UNL     1       1.647  -0.335   0.249  1.00  0.00     0.087 N 
HETATM   22  H10 UNL     1       2.208  -0.994   0.833  1.00  0.00     0.316 HD
BRANCH  21  23
HETATM   23  C4  UNL     1       2.360   0.881  -0.031  1.00  0.00     0.270 C 
BRANCH  23  24
HETATM   24  C3  UNL     1       3.703   0.535  -0.632  1.00  0.00     0.029 C 
BRANCH  24  25
HETATM   25  C2  UNL     1       4.419   1.859  -0.907  1.00  0.00    -0.003 C 
HETATM   26  C1  UNL     1       4.590   2.614   0.389  1.00  0.00     0.005 C 
ENDBRANCH  24  25
ENDBRANCH  23  24
ENDBRANCH  21  23
ENDBRANCH  20  21
ENDBRANCH   1  20
TORSDOF 7
