REMARK  9 active torsions:
REMARK  status: ('A' for Active; 'I' for Inactive)
REMARK    1  A    between atoms: B1_1  and  C1_2 
REMARK    2  A    between atoms: C1_2  and  C2_3 
REMARK    3  A    between atoms: C1_2  and  N6_25 
REMARK    4  A    between atoms: C2_3  and  C3_4 
REMARK    5  A    between atoms: C3_4  and  N1_5 
REMARK    6  A    between atoms: N1_5  and  C5_7 
REMARK    7  A    between atoms: C5_7  and  C6_8 
REMARK    8  A    between atoms: C10_15  and  N5_16 
REMARK    9  A    between atoms: N5_16  and  C11_17 
ROOT
HETATM    1  C6  UNL     1      -0.457  -1.713   0.051  1.00  0.00    -0.007 A 
HETATM    2  C7  UNL     1      -1.162  -2.811  -0.422  1.00  0.00     0.030 A 
HETATM    3  C8  UNL     1      -0.740  -3.099  -1.715  1.00  0.00     0.119 A 
HETATM    4  N2  UNL     1       0.214  -2.230  -2.095  1.00  0.00    -0.240 N 
HETATM    5  N3  UNL     1       0.904  -2.129  -3.217  1.00  0.00    -0.161 NA
HETATM    6  C9  UNL     1       1.834  -1.153  -3.321  1.00  0.00     0.258 A 
HETATM    7  N4  UNL     1       2.024  -0.324  -2.289  1.00  0.00    -0.220 NA
HETATM    8  C10 UNL     1       1.307  -0.434  -1.133  1.00  0.00     0.159 A 
HETATM    9  C18 UNL     1       0.349  -1.435  -1.028  1.00  0.00     0.112 A 
ENDROOT
BRANCH   1  10
HETATM   10  C5  UNL     1      -0.596  -0.970   1.317  1.00  0.00     0.157 C 
BRANCH  10  11
HETATM   11  N1  UNL     1      -1.554   0.065   1.319  1.00  0.00    -0.413 N 
HETATM   12  C4  UNL     1      -1.579   0.781   2.568  1.00  0.00     0.143 C 
BRANCH  11  13
HETATM   13  C3  UNL     1      -1.728   0.879   0.180  1.00  0.00     0.118 C 
BRANCH  13  14
HETATM   14  C2  UNL     1      -3.147   1.421   0.061  1.00  0.00     0.043 C 
BRANCH  14  15
HETATM   15  C1  UNL     1      -4.085   0.256  -0.074  1.00  0.00     0.165 C 
BRANCH  15  16
HETATM   16  B1  UNL     1      -3.942  -0.677   1.200  1.00  0.00     0.177 B 
HETATM   17  H1  UNL     1      -4.305  -0.224   2.248  1.00  0.00    -0.029 HD
HETATM   18  H2  UNL     1      -3.839  -1.862   1.070  1.00  0.00    -0.029 HD
ENDBRANCH  15  16
BRANCH  15  19
HETATM   19  N6  UNL     1      -5.486   0.674  -0.099  1.00  0.00     0.074 N 
HETATM   20  C19 UNL     1      -5.796   1.534  -1.199  1.00  0.00     0.306 C 
HETATM   21  H24 UNL     1      -5.829   0.995   0.820  1.00  0.00     0.314 HD
ENDBRANCH  15  19
ENDBRANCH  14  15
ENDBRANCH  13  14
ENDBRANCH  11  13
ENDBRANCH  10  11
ENDBRANCH   1  10
BRANCH   8  22
HETATM   22  N5  UNL     1       1.701   0.554  -0.158  1.00  0.00    -0.339 N 
HETATM   23  H16 UNL     1       1.255   1.378   0.301  1.00  0.00     0.167 HD
BRANCH  22  24
HETATM   24  C11 UNL     1       3.067   0.198   0.205  1.00  0.00     0.034 A 
HETATM   25  C12 UNL     1       3.483  -1.034   0.665  1.00  0.00     0.029 A 
HETATM   26  C13 UNL     1       4.829  -1.234   0.925  1.00  0.00     0.003 A 
HETATM   27  C14 UNL     1       5.726  -0.192   0.717  1.00  0.00     0.007 A 
HETATM   28  C15 UNL     1       5.331   1.029   0.263  1.00  0.00    -0.060 A 
HETATM   29  C16 UNL     1       6.373   2.076   0.049  1.00  0.00     0.048 C 
HETATM   30  C17 UNL     1       4.002   1.226   0.006  1.00  0.00     0.036 A 
ENDBRANCH  22  24
ENDBRANCH   8  22
TORSDOF 9
