REMARK  6 active torsions:
REMARK  status: ('A' for Active; 'I' for Inactive)
REMARK    1  A    between atoms: C5_5  and  C6_6 
REMARK    2  A    between atoms: C6_6  and  N1_7 
REMARK    3  A    between atoms: N1_7  and  C7_8 
REMARK    4  A    between atoms: C11_15  and  C12_16 
REMARK    5  A    between atoms: C12_16  and  N5_17 
REMARK    6  A    between atoms: C15_20  and  N6_21 
ROOT
HETATM    1  C7  UNL     1       0.201  -2.304  -1.525  1.00  0.00     0.154 A 
HETATM    2  N2  UNL     1       0.908  -3.358  -1.978  1.00  0.00    -0.221 NA
HETATM    3  C8  UNL     1       0.305  -4.478  -2.406  1.00  0.00     0.258 A 
HETATM    4  N3  UNL     1      -1.035  -4.546  -2.380  1.00  0.00    -0.161 NA
HETATM    5  N4  UNL     1      -1.718  -3.483  -1.924  1.00  0.00    -0.240 N 
HETATM    6  C9  UNL     1      -3.060  -3.449  -1.858  1.00  0.00     0.119 A 
HETATM    7  C10 UNL     1      -3.321  -2.196  -1.343  1.00  0.00     0.030 A 
HETATM    8  C11 UNL     1      -2.147  -1.493  -1.106  1.00  0.00     0.004 A 
HETATM    9  C18 UNL     1      -1.170  -2.357  -1.492  1.00  0.00     0.111 A 
ENDROOT
BRANCH   1  10
HETATM   10  N1  UNL     1       0.915  -1.153  -1.083  1.00  0.00    -0.367 N 
HETATM   11  H8  UNL     1       0.683  -0.231  -0.695  1.00  0.00     0.161 HD
BRANCH  10  12
HETATM   12  C6  UNL     1       2.362  -1.189  -1.157  1.00  0.00     0.177 C 
BRANCH  12  13
HETATM   13  C5  UNL     1       3.060   0.006  -0.700  1.00  0.00     0.023 A 
HETATM   14  C4  UNL     1       3.927  -0.024   0.305  1.00  0.00     0.026 A 
HETATM   15  C3  UNL     1       4.626   1.173   0.762  1.00  0.00     0.006 A 
HETATM   16  C2  UNL     1       4.359   2.307   0.129  1.00  0.00    -0.066 A 
HETATM   17  C1  UNL     1       5.057   3.522   0.581  1.00  0.00     0.045 C 
HETATM   18  C19 UNL     1       3.407   2.470  -1.010  1.00  0.00     0.153 A 
HETATM   19  N7  UNL     1       2.772   1.225  -1.383  1.00  0.00    -0.388 N 
HETATM   20  H25 UNL     1       2.110   1.339  -2.178  1.00  0.00     0.159 HD
ENDBRANCH  12  13
ENDBRANCH  10  12
ENDBRANCH   1  10
BRANCH   8  21
HETATM   21  C12 UNL     1      -2.018  -0.142  -0.569  1.00  0.00     0.313 C 
BRANCH  21  22
HETATM   22  N5  UNL     1      -1.587  -0.172   0.838  1.00  0.00     0.092 N 
HETATM   23  C13 UNL     1      -2.527  -0.890   1.624  1.00  0.00     0.275 C 
HETATM   24  C14 UNL     1      -2.638  -0.234   2.981  1.00  0.00     0.065 C 
HETATM   25  C15 UNL     1      -3.316   1.108   2.689  1.00  0.00     0.221 C 
HETATM   26  C16 UNL     1      -2.460   1.935   1.763  1.00  0.00     0.065 C 
HETATM   27  C17 UNL     1      -1.290   1.162   1.217  1.00  0.00     0.275 C 
BRANCH  25  28
HETATM   28  N6  UNL     1      -3.505   1.780   3.952  1.00  0.00     0.083 N 
HETATM   29  H19 UNL     1      -4.159   2.597   3.841  1.00  0.00     0.313 HD
HETATM   30  H20 UNL     1      -2.576   2.192   4.229  1.00  0.00     0.313 HD
ENDBRANCH  25  28
ENDBRANCH  21  22
ENDBRANCH   8  21
TORSDOF 6
