REMARK  0 active torsions:
REMARK  status: ('A' for Active; 'I' for Inactive)
ROOT
HETATM    1  C1  UNL     1      -2.149  -0.694   1.438  1.00  0.00     0.046 C 
HETATM    2  C2  UNL     1      -1.687  -1.018   0.052  1.00  0.00    -0.051 C 
HETATM    3  C3  UNL     1      -0.628  -1.696  -0.437  1.00  0.00    -0.050 C 
HETATM    4  C4  UNL     1      -1.080  -2.473  -1.625  1.00  0.00     0.006 C 
HETATM    5  C5  UNL     1      -2.402  -2.164  -1.737  1.00  0.00     0.003 C 
HETATM    6  C6  UNL     1      -2.264  -0.730  -1.287  1.00  0.00     0.135 C 
HETATM    7  N1  UNL     1      -3.483  -0.002  -1.217  1.00  0.00    -0.372 N 
HETATM    8  C7  UNL     1      -2.983   1.215  -0.607  1.00  0.00     0.225 C 
HETATM    9  N2  UNL     1      -1.891   1.866  -0.755  1.00  0.00    -0.171 NA
HETATM   10  N3  UNL     1      -1.495   3.020  -0.128  1.00  0.00    -0.288 N 
HETATM   11  C8  UNL     1      -0.241   3.388   0.373  1.00  0.00     0.109 C 
HETATM   12  C9  UNL     1       0.989   3.232   0.795  1.00  0.00     0.019 C 
HETATM   13  C10 UNL     1       1.851   2.064   0.950  1.00  0.00     0.006 C 
HETATM   14  C11 UNL     1       1.949   0.731   0.808  1.00  0.00    -0.052 C 
HETATM   15  C12 UNL     1       3.131  -0.098   1.124  1.00  0.00     0.303 C 
HETATM   16  N4  UNL     1       3.729  -0.745  -0.006  1.00  0.00     0.087 N 
HETATM   17  C13 UNL     1       2.743  -1.302  -0.876  1.00  0.00     0.270 C 
HETATM   18  C14 UNL     1       1.783  -2.123  -0.035  1.00  0.00     0.039 C 
HETATM   19  C15 UNL     1       0.587  -1.359   0.400  1.00  0.00     0.024 C 
HETATM   20  C16 UNL     1       0.729   0.138   0.295  1.00  0.00     0.045 C 
HETATM   21  H7  UNL     1      -4.504  -0.014  -1.420  1.00  0.00     0.161 HD
HETATM   22  H9  UNL     1      -2.361   3.588  -0.102  1.00  0.00     0.188 HD
HETATM   23  H15 UNL     1       4.324  -0.068  -0.506  1.00  0.00     0.316 HD
ENDROOT
TORSDOF 0
