REMARK  0 active torsions:
REMARK  status: ('A' for Active; 'I' for Inactive)
ROOT
HETATM    1  C1  UNL     1      -3.903   0.968   1.623  1.00  0.00     0.045 C 
HETATM    2  C2  UNL     1      -2.508   1.003   1.028  1.00  0.00    -0.065 C 
HETATM    3  C3  UNL     1      -2.132   2.268   0.787  1.00  0.00     0.002 C 
HETATM    4  C4  UNL     1      -1.073   3.152   0.277  1.00  0.00     0.001 C 
HETATM    5  C5  UNL     1       0.123   3.294  -0.244  1.00  0.00     0.144 A 
HETATM    6  C6  UNL     1       1.431   3.094  -0.791  1.00  0.00     0.108 A 
HETATM    7  N1  UNL     1       0.729   2.188  -0.434  1.00  0.00    -0.345 N 
HETATM    8  C7  UNL     1       0.132   1.112  -0.111  1.00  0.00     0.229 C 
HETATM    9  N2  UNL     1      -0.050   0.220   0.708  1.00  0.00    -0.170 NA
HETATM   10  N3  UNL     1      -0.903  -0.852   0.574  1.00  0.00    -0.260 N 
HETATM   11  C8  UNL     1      -2.176  -0.430   0.994  1.00  0.00     0.181 C 
HETATM   12  C9  UNL     1      -0.315  -2.079   0.115  1.00  0.00     0.276 A 
HETATM   13  C10 UNL     1      -1.230  -3.335   0.260  1.00  0.00     0.078 C 
HETATM   14  N4  UNL     1       0.244  -2.053  -1.242  1.00  0.00     0.126 N 
HETATM   15  C11 UNL     1       1.051  -2.292  -0.056  1.00  0.00     0.301 A 
HETATM   16  C12 UNL     1       2.097  -1.369   0.383  1.00  0.00     0.162 C 
HETATM   17  N5  UNL     1       2.678  -0.523  -0.657  1.00  0.00    -0.392 N 
HETATM   18  C13 UNL     1       3.314  -1.476  -1.594  1.00  0.00     0.148 C 
HETATM   19  C14 UNL     1       2.876   0.834  -1.017  1.00  0.00     0.083 C 
HETATM   20  C15 UNL     1       2.386   2.047  -1.028  1.00  0.00     0.026 C 
HETATM   21  H13 UNL     1       0.308  -1.141  -1.726  1.00  0.00     0.320 HD
ENDROOT
TORSDOF 0
