REMARK  9 active torsions:
REMARK  status: ('A' for Active; 'I' for Inactive)
REMARK    1  A    between atoms: C6_6  and  N1_7 
REMARK    2  A    between atoms: N1_7  and  C7_8 
REMARK    3  A    between atoms: C11_15  and  N5_16 
REMARK    4  A    between atoms: N5_16  and  C12_17 
REMARK    5  A    between atoms: N5_16  and  C14_20 
REMARK    6  A    between atoms: C12_17  and  C13_18 
REMARK    7  A    between atoms: C14_20  and  C15_21 
REMARK    8  A    between atoms: C15_21  and  C16_22 
REMARK    9  A    between atoms: C16_22  and  N6_23 
ROOT
HETATM    1  C7  UNL     1      -1.165  -1.301   0.521  1.00  0.00     0.160 A 
HETATM    2  N2  UNL     1      -2.211  -1.995   0.985  1.00  0.00    -0.220 NA
HETATM    3  C8  UNL     1      -2.148  -3.035   1.798  1.00  0.00     0.258 A 
HETATM    4  N3  UNL     1      -0.933  -3.415   2.181  1.00  0.00    -0.161 NA
HETATM    5  N4  UNL     1       0.177  -2.800   1.782  1.00  0.00    -0.238 N 
HETATM    6  C9  UNL     1       1.477  -3.013   2.045  1.00  0.00     0.121 A 
HETATM    7  C10 UNL     1       2.229  -2.057   1.358  1.00  0.00     0.051 A 
HETATM    8  C11 UNL     1       1.299  -1.266   0.671  1.00  0.00     0.064 A 
HETATM    9  C17 UNL     1       0.048  -1.755   0.959  1.00  0.00     0.130 A 
ENDROOT
BRANCH   8  10
HETATM   10  N5  UNL     1       1.887  -0.253  -0.132  1.00  0.00    -0.378 N 
BRANCH  10  11
HETATM   11  C12 UNL     1       2.164  -0.088  -1.579  1.00  0.00     0.140 C 
BRANCH  11  12
HETATM   12  C13 UNL     1       1.687  -1.338  -2.278  1.00  0.00     0.198 C 
HETATM   13  S1  UNL     1       1.431  -2.686  -2.675  1.00  0.00    -0.195 SA
ENDBRANCH  11  12
ENDBRANCH  10  11
BRANCH  10  14
HETATM   14  C14 UNL     1       2.308   0.878   0.641  1.00  0.00     0.125 C 
BRANCH  14  15
HETATM   15  C15 UNL     1       3.835   1.034   0.688  1.00  0.00     0.049 C 
BRANCH  15  16
HETATM   16  C16 UNL     1       4.089   2.275   1.551  1.00  0.00     0.268 C 
BRANCH  16  17
HETATM   17  N6  UNL     1       5.474   2.578   1.709  1.00  0.00     0.078 N 
HETATM   18  H20 UNL     1       6.130   2.116   1.075  1.00  0.00     0.312 HD
HETATM   19  H21 UNL     1       5.586   3.625   1.776  1.00  0.00     0.312 HD
ENDBRANCH  16  17
ENDBRANCH  15  16
ENDBRANCH  14  15
ENDBRANCH  10  14
ENDBRANCH   8  10
BRANCH   1  20
HETATM   20  N1  UNL     1      -1.229  -0.177  -0.332  1.00  0.00    -0.339 N 
HETATM   21  H7  UNL     1      -0.366   0.319  -0.606  1.00  0.00     0.167 HD
BRANCH  20  22
HETATM   22  C6  UNL     1      -2.339   0.471  -0.922  1.00  0.00     0.034 A 
HETATM   23  C5  UNL     1      -2.275   1.455  -1.891  1.00  0.00     0.029 A 
HETATM   24  C4  UNL     1      -3.382   2.058  -2.423  1.00  0.00     0.003 A 
HETATM   25  C3  UNL     1      -4.650   1.713  -2.016  1.00  0.00     0.007 A 
HETATM   26  C2  UNL     1      -4.753   0.740  -1.055  1.00  0.00    -0.060 A 
HETATM   27  C1  UNL     1      -6.136   0.387  -0.629  1.00  0.00     0.048 C 
HETATM   28  C18 UNL     1      -3.624   0.156  -0.543  1.00  0.00     0.036 A 
ENDBRANCH  20  22
ENDBRANCH   1  20
TORSDOF 9
