REMARK  3 active torsions:
REMARK  status: ('A' for Active; 'I' for Inactive)
REMARK    1  A    between atoms: N1_1  and  C1_2 
REMARK    2  A    between atoms: C9_14  and  N6_15 
REMARK    3  A    between atoms: N6_15  and  C10_16 
ROOT
HETATM    1  C1  UNL     1       4.411  -0.452   0.709  1.00  0.00     0.220 C 
HETATM    2  C2  UNL     1       3.394  -0.624   1.852  1.00  0.00     0.065 C 
HETATM    3  C3  UNL     1       2.344   0.192   1.365  1.00  0.00     0.272 C 
HETATM    4  N2  UNL     1       1.137   0.764   1.647  1.00  0.00     0.087 N 
HETATM    5  C4  UNL     1       0.806   1.318   0.285  1.00  0.00     0.311 C 
HETATM    6  C5  UNL     1       0.642   0.289  -0.733  1.00  0.00     0.010 A 
HETATM    7  C6  UNL     1       1.651  -0.250  -1.482  1.00  0.00    -0.030 A 
HETATM    8  C7  UNL     1       1.034  -1.216  -2.334  1.00  0.00     0.126 A 
HETATM    9  N3  UNL     1      -0.310  -1.277  -2.121  1.00  0.00    -0.239 N 
HETATM   10  N4  UNL     1      -1.215  -2.029  -2.696  1.00  0.00    -0.161 NA
HETATM   11  C8  UNL     1      -2.502  -1.936  -2.336  1.00  0.00     0.258 A 
HETATM   12  N5  UNL     1      -2.798  -1.049  -1.376  1.00  0.00    -0.220 NA
HETATM   13  C9  UNL     1      -1.849  -0.293  -0.806  1.00  0.00     0.159 A 
HETATM   14  C16 UNL     1      -0.518  -0.362  -1.154  1.00  0.00     0.112 A 
HETATM   15  C17 UNL     1       3.083  -0.026  -1.529  1.00  0.00     0.043 C 
HETATM   16  C18 UNL     1       4.062  -0.694  -0.681  1.00  0.00     0.040 C 
HETATM   17  H8  UNL     1       0.338   0.195   1.976  1.00  0.00     0.316 HD
ENDROOT
BRANCH  13  18
HETATM   18  N6  UNL     1      -2.295   0.592   0.204  1.00  0.00    -0.339 N 
HETATM   19  H13 UNL     1      -1.941   1.290   0.860  1.00  0.00     0.167 HD
BRANCH  18  20
HETATM   20  C10 UNL     1      -3.668   0.640   0.564  1.00  0.00     0.036 A 
HETATM   21  C11 UNL     1      -4.357  -0.559   0.663  1.00  0.00     0.029 A 
HETATM   22  C12 UNL     1      -5.710  -0.642   0.976  1.00  0.00     0.005 A 
HETATM   23  C13 UNL     1      -6.394   0.542   1.200  1.00  0.00     0.042 A 
HETATM   24  C14 UNL     1      -5.778   1.768   1.120  1.00  0.00     0.118 A 
HETATM   25  F1  UNL     1      -6.406   2.959   1.331  1.00  0.00    -0.206 F 
HETATM   26  C15 UNL     1      -4.442   1.784   0.807  1.00  0.00     0.071 A 
ENDBRANCH  18  20
ENDBRANCH  13  18
BRANCH   1  27
HETATM   27  N1  UNL     1       4.894   0.950   0.772  1.00  0.00     0.083 N 
HETATM   28  H1  UNL     1       5.334   1.231  -0.127  1.00  0.00     0.313 HD
HETATM   29  H2  UNL     1       5.507   1.031   1.605  1.00  0.00     0.313 HD
ENDBRANCH   1  27
TORSDOF 3
