REMARK  2 active torsions:
REMARK  status: ('A' for Active; 'I' for Inactive)
REMARK    1  A    between atoms: N1_8  and  C7_9 
REMARK    2  A    between atoms: C16_23  and  N6_24 
ROOT
HETATM    1  C7  UNL     1      -1.478   0.366   0.369  1.00  0.00     0.144 C 
HETATM    2  N2  UNL     1      -1.076   1.586   0.443  1.00  0.00    -0.224 NA
HETATM    3  C8  UNL     1       0.240   2.019   0.652  1.00  0.00     0.257 C 
HETATM    4  N3  UNL     1       1.322   2.296   1.258  1.00  0.00    -0.170 NA
HETATM    5  N4  UNL     1       2.462   2.811   0.681  1.00  0.00    -0.303 N 
HETATM    6  C9  UNL     1       3.554   2.953  -0.219  1.00  0.00     0.016 C 
HETATM    7  B1  UNL     1       4.759   1.795  -0.310  1.00  0.00     0.193 B 
HETATM    8  C10 UNL     1       5.053   0.368   0.452  1.00  0.00    -0.050 C 
HETATM    9  C11 UNL     1       3.751  -0.293   0.930  1.00  0.00    -0.004 C 
HETATM   10  C12 UNL     1       2.942  -0.512  -0.329  1.00  0.00     0.053 C 
HETATM   11  C13 UNL     1       1.631  -1.154  -0.032  1.00  0.00     0.008 C 
HETATM   12  N5  UNL     1       0.742  -0.373   0.459  1.00  0.00    -0.278 NA
HETATM   13  C14 UNL     1      -0.610  -0.828   0.495  1.00  0.00     0.140 C 
HETATM   14  C15 UNL     1      -0.790  -1.558   1.803  1.00  0.00     0.051 C 
HETATM   15  C16 UNL     1      -0.839  -1.711  -0.702  1.00  0.00     0.255 C 
HETATM   16  C17 UNL     1       0.029  -2.958  -0.634  1.00  0.00     0.044 C 
HETATM   17  C18 UNL     1       1.470  -2.603  -0.322  1.00  0.00     0.056 C 
HETATM   18  H7  UNL     1       2.442   3.551   1.433  1.00  0.00     0.186 HD
ENDROOT
BRANCH   1  19
HETATM   19  N1  UNL     1      -2.891   0.368   0.148  1.00  0.00    -0.308 N 
HETATM   20  C2  UNL     1      -3.564   1.254  -0.754  1.00  0.00     0.052 C 
HETATM   21  C1  UNL     1      -2.742   2.234  -1.509  1.00  0.00     0.072 C 
HETATM   22  C3  UNL     1      -4.892   1.158  -0.874  1.00  0.00     0.140 C 
HETATM   23  F1  UNL     1      -5.535   1.995  -1.727  1.00  0.00    -0.204 F 
HETATM   24  C4  UNL     1      -5.620   0.148  -0.077  1.00  0.00     0.058 C 
HETATM   25  C5  UNL     1      -4.981  -0.236   1.015  1.00  0.00    -0.005 C 
HETATM   26  C6  UNL     1      -3.714  -0.544   0.841  1.00  0.00     0.111 C 
ENDBRANCH   1  19
BRANCH  15  27
HETATM   27  N6  UNL     1      -0.464  -0.984  -1.891  1.00  0.00     0.086 N 
HETATM   28  H19 UNL     1      -1.174  -1.029  -2.645  1.00  0.00     0.313 HD
HETATM   29  H20 UNL     1      -0.228   0.003  -1.687  1.00  0.00     0.313 HD
ENDBRANCH  15  27
TORSDOF 2
