REMARK  2 active torsions:
REMARK  status: ('A' for Active; 'I' for Inactive)
REMARK    1  A    between atoms: N1_2  and  C2_3 
REMARK    2  A    between atoms: N5_12  and  N6_13 
ROOT
HETATM    1  C2  UNL     1      -1.112  -1.100  -1.418  1.00  0.00     0.131 C 
HETATM    2  C3  UNL     1      -2.628  -1.030  -1.394  1.00  0.00     0.299 C 
HETATM    3  N2  UNL     1      -3.036  -0.426  -0.132  1.00  0.00     0.096 N 
HETATM    4  C4  UNL     1      -3.293   1.007  -0.215  1.00  0.00     0.301 C 
HETATM    5  C5  UNL     1      -2.904   1.701   1.037  1.00  0.00     0.021 C 
HETATM    6  C6  UNL     1      -1.967   2.605   1.300  1.00  0.00     0.107 C 
HETATM    7  N3  UNL     1      -0.918   3.370   0.720  1.00  0.00    -0.289 N 
HETATM    8  N4  UNL     1      -0.419   2.151   0.423  1.00  0.00    -0.169 NA
HETATM    9  C7  UNL     1       0.675   1.891  -0.105  1.00  0.00     0.249 C 
HETATM   10  N5  UNL     1       0.399   0.427  -0.054  1.00  0.00    -0.273 N 
HETATM   11  C14 UNL     1      -0.860  -0.049  -0.425  1.00  0.00     0.161 C 
HETATM   12  C15 UNL     1      -1.793  -0.499   0.679  1.00  0.00     0.302 C 
HETATM   13  H12 UNL     1      -0.934   4.412   0.741  1.00  0.00     0.188 HD
ENDROOT
BRANCH  10  14
HETATM   14  N6  UNL     1       1.685   0.168   0.403  1.00  0.00    -0.287 N 
HETATM   15  C8  UNL     1       1.834   0.181   1.814  1.00  0.00     0.176 A 
HETATM   16  C9  UNL     1       3.246  -0.120   2.158  1.00  0.00    -0.002 A 
HETATM   17  C10 UNL     1       4.301  -0.375   1.410  1.00  0.00     0.042 A 
HETATM   18  C11 UNL     1       4.028  -0.359  -0.017  1.00  0.00     0.140 A 
HETATM   19  F1  UNL     1       5.030  -0.606  -0.893  1.00  0.00    -0.204 F 
HETATM   20  C12 UNL     1       2.795  -0.102  -0.485  1.00  0.00     0.063 A 
HETATM   21  C13 UNL     1       2.556  -0.094  -1.956  1.00  0.00     0.073 C 
ENDBRANCH  10  14
BRANCH   1  22
HETATM   22  N1  UNL     1      -0.476  -2.310  -1.367  1.00  0.00    -0.418 N 
HETATM   23  C1  UNL     1      -0.559  -3.286  -0.404  1.00  0.00     0.140 C 
HETATM   24  H4  UNL     1       0.218  -2.518  -2.131  1.00  0.00     0.153 HD
ENDBRANCH   1  22
TORSDOF 2
