REMARK  5 active torsions:
REMARK  status: ('A' for Active; 'I' for Inactive)
REMARK    1  A    between atoms: N1_1  and  C1_2 
REMARK    2  A    between atoms: N2_5  and  C4_6 
REMARK    3  A    between atoms: C4_6  and  C5_7 
REMARK    4  A    between atoms: C9_14  and  N6_15 
REMARK    5  A    between atoms: N6_15  and  C10_16 
ROOT
HETATM    1  C5  UNL     1       0.021   0.625  -1.247  1.00  0.00     0.004 A 
HETATM    2  C6  UNL     1       0.557   1.578  -2.089  1.00  0.00     0.030 A 
HETATM    3  C7  UNL     1      -0.310   1.816  -3.146  1.00  0.00     0.119 A 
HETATM    4  N3  UNL     1      -1.354   0.999  -2.920  1.00  0.00    -0.240 N 
HETATM    5  N4  UNL     1      -2.395   0.937  -3.729  1.00  0.00    -0.161 NA
HETATM    6  C8  UNL     1      -3.419   0.108  -3.480  1.00  0.00     0.258 A 
HETATM    7  N5  UNL     1      -3.321  -0.642  -2.376  1.00  0.00    -0.220 NA
HETATM    8  C9  UNL     1      -2.280  -0.603  -1.534  1.00  0.00     0.159 A 
HETATM    9  C16 UNL     1      -1.218   0.262  -1.801  1.00  0.00     0.112 A 
ENDROOT
BRANCH   1  10
HETATM   10  C4  UNL     1       0.518   0.006  -0.006  1.00  0.00     0.313 C 
BRANCH  10  11
HETATM   11  N2  UNL     1       1.906   0.250   0.288  1.00  0.00     0.092 N 
HETATM   12  C3  UNL     1       2.724  -0.369  -0.726  1.00  0.00     0.275 C 
HETATM   13  C2  UNL     1       4.201  -0.134  -0.450  1.00  0.00     0.065 C 
HETATM   14  C1  UNL     1       4.395   0.406   0.951  1.00  0.00     0.221 C 
HETATM   15  C18 UNL     1       3.583  -0.366   1.969  1.00  0.00     0.065 C 
HETATM   16  C17 UNL     1       2.137  -0.412   1.587  1.00  0.00     0.275 C 
BRANCH  14  17
HETATM   17  N1  UNL     1       5.780   0.258   1.345  1.00  0.00     0.083 N 
HETATM   18  H1  UNL     1       6.425   0.277   0.542  1.00  0.00     0.313 HD
HETATM   19  H2  UNL     1       5.928  -0.523   2.021  1.00  0.00     0.313 HD
ENDBRANCH  14  17
ENDBRANCH  10  11
ENDBRANCH   1  10
BRANCH   8  20
HETATM   20  N6  UNL     1      -2.183  -1.387  -0.339  1.00  0.00    -0.339 N 
HETATM   21  H13 UNL     1      -1.674  -2.203   0.046  1.00  0.00     0.167 HD
BRANCH  20  22
HETATM   22  C10 UNL     1      -3.086  -0.879   0.635  1.00  0.00     0.033 A 
HETATM   23  C11 UNL     1      -4.422  -0.683   0.275  1.00  0.00     0.029 A 
HETATM   24  C12 UNL     1      -5.382  -0.180   1.123  1.00  0.00     0.002 A 
HETATM   25  C13 UNL     1      -5.050   0.165   2.416  1.00  0.00     0.000 A 
HETATM   26  C14 UNL     1      -3.731  -0.011   2.825  1.00  0.00     0.002 A 
HETATM   27  C15 UNL     1      -2.815  -0.518   1.933  1.00  0.00     0.029 A 
ENDBRANCH  20  22
ENDBRANCH   8  20
TORSDOF 5
