REMARK  5 active torsions:
REMARK  status: ('A' for Active; 'I' for Inactive)
REMARK    1  A    between atoms: N1_1  and  C1_2 
REMARK    2  A    between atoms: N2_5  and  C4_6 
REMARK    3  A    between atoms: C4_6  and  C5_7 
REMARK    4  A    between atoms: C8_12  and  N5_13 
REMARK    5  A    between atoms: N5_13  and  C9_14 
ROOT
HETATM    1  C5  UNL     1      -1.112  -0.741  -1.319  1.00  0.00     0.002 A 
HETATM    2  C6  UNL     1      -1.253  -2.036  -1.773  1.00  0.00     0.030 A 
HETATM    3  C7  UNL     1      -0.037  -2.675  -1.666  1.00  0.00     0.120 A 
HETATM    4  N3  UNL     1       0.800  -1.755  -1.153  1.00  0.00    -0.228 N 
HETATM    5  N4  UNL     1       2.077  -1.941  -0.884  1.00  0.00     0.026 NA
HETATM    6  C8  UNL     1       2.881  -1.006  -0.375  1.00  0.00     0.744 A 
HETATM    7  N6  UNL     1       2.271   0.165  -0.154  1.00  0.00    -0.071 NA
HETATM    8  C15 UNL     1       0.982   0.432  -0.401  1.00  0.00     0.168 A 
HETATM    9  C16 UNL     1       0.210  -0.570  -0.923  1.00  0.00     0.084 A 
ENDROOT
BRANCH   1  10
HETATM   10  C4  UNL     1      -2.033   0.441  -1.177  1.00  0.00     0.313 C 
BRANCH  10  11
HETATM   11  N2  UNL     1      -2.388   0.609   0.199  1.00  0.00     0.092 N 
HETATM   12  C3  UNL     1      -3.267   1.738   0.449  1.00  0.00     0.275 C 
HETATM   13  C2  UNL     1      -4.519   1.639  -0.368  1.00  0.00     0.065 C 
HETATM   14  C1  UNL     1      -5.168   0.318  -0.065  1.00  0.00     0.221 C 
HETATM   15  C18 UNL     1      -4.442  -0.469   1.015  1.00  0.00     0.065 C 
HETATM   16  C17 UNL     1      -2.980  -0.616   0.703  1.00  0.00     0.275 C 
BRANCH  14  17
HETATM   17  N1  UNL     1      -6.522   0.601   0.406  1.00  0.00     0.083 N 
HETATM   18  H1  UNL     1      -7.056   1.001  -0.372  1.00  0.00     0.313 HD
HETATM   19  H2  UNL     1      -6.418   1.291   1.187  1.00  0.00     0.313 HD
ENDBRANCH  14  17
ENDBRANCH  10  11
ENDBRANCH   1  10
BRANCH   6  20
HETATM   20  N5  UNL     1       4.245  -1.292  -0.115  1.00  0.00    -0.187 N 
HETATM   21  H12 UNL     1       4.562  -2.279  -0.351  1.00  0.00     0.184 HD
BRANCH  20  22
HETATM   22  C9  UNL     1       5.250  -0.449   0.416  1.00  0.00     0.052 A 
HETATM   23  C10 UNL     1       6.533  -0.899   0.596  1.00  0.00     0.030 A 
HETATM   24  C11 UNL     1       7.537  -0.117   1.106  1.00  0.00     0.005 A 
HETATM   25  C12 UNL     1       7.301   1.190   1.472  1.00  0.00     0.042 A 
HETATM   26  C13 UNL     1       6.033   1.687   1.311  1.00  0.00     0.118 A 
HETATM   27  F1  UNL     1       5.791   2.969   1.668  1.00  0.00    -0.206 F 
HETATM   28  C14 UNL     1       5.059   0.860   0.794  1.00  0.00     0.072 A 
ENDBRANCH  20  22
ENDBRANCH   6  20
TORSDOF 5
