REMARK  4 active torsions:
REMARK  status: ('A' for Active; 'I' for Inactive)
REMARK    1  A    between atoms: O1_2  and  C2_3 
REMARK    2  A    between atoms: C4_5  and  O2_6 
REMARK    3  A    between atoms: C11_16  and  N3_17 
REMARK    4  A    between atoms: N3_17  and  C12_18 
ROOT
HETATM    1  C2  UNL     1      -4.685  -0.311  -0.489  1.00  0.00     0.073 A 
HETATM    2  C3  UNL     1      -4.181  -1.568  -0.226  1.00  0.00     0.074 A 
HETATM    3  C4  UNL     1      -2.848  -1.791   0.134  1.00  0.00     0.081 A 
HETATM    4  C6  UNL     1      -1.970  -0.711   0.238  1.00  0.00     0.027 A 
HETATM    5  C7  UNL     1      -2.515   0.529  -0.034  1.00  0.00     0.091 A 
HETATM    6  C8  UNL     1      -3.824   0.763  -0.389  1.00  0.00     0.074 A 
HETATM    7  O3  UNL     1      -1.758   1.721   0.028  1.00  0.00    -0.289 OA
HETATM    8  C9  UNL     1      -0.359   1.841  -0.140  1.00  0.00     0.202 A 
HETATM    9  N1  UNL     1       0.039   3.023  -0.695  1.00  0.00    -0.215 NA
HETATM   10  C10 UNL     1       1.344   3.272  -0.913  1.00  0.00     0.238 A 
HETATM   11  N2  UNL     1       2.229   2.347  -0.578  1.00  0.00    -0.222 NA
HETATM   12  C11 UNL     1       1.969   1.158  -0.031  1.00  0.00     0.160 A 
HETATM   13  C18 UNL     1       0.632   0.924   0.184  1.00  0.00     0.129 A 
HETATM   14  N4  UNL     1       0.388  -0.349   0.789  1.00  0.00    -0.379 N 
HETATM   15  C19 UNL     1      -0.687  -1.298   0.623  1.00  0.00     0.164 C 
HETATM   16  H15 UNL     1       1.158  -0.602   1.482  1.00  0.00     0.160 HD
ENDROOT
BRANCH  12  17
HETATM   17  N3  UNL     1       2.963   0.207   0.297  1.00  0.00    -0.339 N 
HETATM   18  H10 UNL     1       2.822  -0.761   0.644  1.00  0.00     0.167 HD
BRANCH  17  19
HETATM   19  C12 UNL     1       4.358   0.441   0.182  1.00  0.00     0.035 A 
HETATM   20  C13 UNL     1       4.949   1.680   0.123  1.00  0.00     0.029 A 
HETATM   21  C14 UNL     1       6.298   1.923  -0.009  1.00  0.00     0.004 A 
HETATM   22  C15 UNL     1       7.160   0.857  -0.089  1.00  0.00     0.019 A 
HETATM   23  C16 UNL     1       6.659  -0.422  -0.038  1.00  0.00     0.013 A 
HETATM   24 BR1  UNL     1       7.836  -1.914  -0.149  1.00  0.00    -0.051 Br
HETATM   25  C17 UNL     1       5.312  -0.568   0.092  1.00  0.00     0.048 A 
ENDBRANCH  17  19
ENDBRANCH  12  17
BRANCH   3  26
HETATM   26  O2  UNL     1      -2.495  -3.098   0.365  1.00  0.00    -0.355 OA
HETATM   27  C5  UNL     1      -3.378  -4.197   0.262  1.00  0.00     0.210 C 
ENDBRANCH   3  26
BRANCH   1  28
HETATM   28  O1  UNL     1      -5.994  -0.072  -0.846  1.00  0.00    -0.356 OA
HETATM   29  C1  UNL     1      -6.474   1.219  -1.108  1.00  0.00     0.210 C 
ENDBRANCH   1  28
TORSDOF 4
