REMARK  5 active torsions:
REMARK  status: ('A' for Active; 'I' for Inactive)
REMARK    1  A    between atoms: N1_1  and  N2_2 
REMARK    2  A    between atoms: C3_5  and  N3_6 
REMARK    3  A    between atoms: N3_6  and  C4_7 
REMARK    4  A    between atoms: C8_14  and  N7_15 
REMARK    5  A    between atoms: N7_15  and  C9_16 
ROOT
HETATM    1  C4  UNL     1      -0.154  -0.346   1.144  1.00  0.00     0.062 A 
HETATM    2  C5  UNL     1      -0.969  -1.322   1.713  1.00  0.00     0.051 A 
HETATM    3  C6  UNL     1      -0.255  -2.144   2.560  1.00  0.00     0.121 A 
HETATM    4  N4  UNL     1       1.013  -1.704   2.539  1.00  0.00    -0.238 N 
HETATM    5  N5  UNL     1       2.099  -2.119   3.160  1.00  0.00    -0.161 NA
HETATM    6  C7  UNL     1       3.279  -1.483   2.963  1.00  0.00     0.258 A 
HETATM    7  N6  UNL     1       3.368  -0.415   2.131  1.00  0.00    -0.220 NA
HETATM    8  C8  UNL     1       2.253   0.003   1.501  1.00  0.00     0.160 A 
HETATM    9  C15 UNL     1       1.063  -0.651   1.708  1.00  0.00     0.130 A 
ENDROOT
BRANCH   1  10
HETATM   10  N3  UNL     1      -0.490   0.659   0.218  1.00  0.00    -0.383 N 
HETATM   11  H8  UNL     1       0.280   1.309  -0.059  1.00  0.00     0.160 HD
BRANCH  10  12
HETATM   12  C3  UNL     1      -1.795   0.804  -0.334  1.00  0.00     0.084 C 
HETATM   13  C2  UNL     1      -2.878   1.016   0.651  1.00  0.00     0.041 C 
HETATM   14  C1  UNL     1      -4.144   0.243   0.364  1.00  0.00     0.109 C 
HETATM   15  N2  UNL     1      -4.452   0.440  -1.042  1.00  0.00    -0.254 NA
HETATM   16  C17 UNL     1      -3.453  -0.106  -1.926  1.00  0.00     0.109 C 
HETATM   17  C16 UNL     1      -2.132  -0.347  -1.286  1.00  0.00     0.041 C 
BRANCH  15  18
HETATM   18  N1  UNL     1      -5.741   0.015  -1.354  1.00  0.00    -0.269 NA
HETATM   19  H1  UNL     1      -6.251  -0.124  -0.433  1.00  0.00     0.137 HD
HETATM   20  H2  UNL     1      -6.209   0.801  -1.889  1.00  0.00     0.137 HD
ENDBRANCH  15  18
ENDBRANCH  10  12
ENDBRANCH   1  10
BRANCH   8  21
HETATM   21  N7  UNL     1       2.551   1.137   0.702  1.00  0.00    -0.339 N 
HETATM   22  H12 UNL     1       2.300   2.121   0.893  1.00  0.00     0.167 HD
BRANCH  21  23
HETATM   23  C9  UNL     1       3.291   0.795  -0.484  1.00  0.00     0.036 A 
HETATM   24  C10 UNL     1       3.446  -0.468  -0.978  1.00  0.00     0.029 A 
HETATM   25  C11 UNL     1       4.205  -0.708  -2.109  1.00  0.00     0.005 A 
HETATM   26  C12 UNL     1       4.844   0.336  -2.792  1.00  0.00     0.042 A 
HETATM   27  C13 UNL     1       4.688   1.612  -2.294  1.00  0.00     0.118 A 
HETATM   28  F1  UNL     1       5.316   2.630  -2.963  1.00  0.00    -0.206 F 
HETATM   29  C14 UNL     1       3.928   1.845  -1.164  1.00  0.00     0.071 A 
ENDBRANCH  21  23
ENDBRANCH   8  21
TORSDOF 5
