REMARK  4 active torsions:
REMARK  status: ('A' for Active; 'I' for Inactive)
REMARK    1  A    between atoms: C2_2  and  C3_3 
REMARK    2  A    between atoms: N2_9  and  C8_10 
REMARK    3  A    between atoms: N3_16  and  N4_17 
REMARK    4  A    between atoms: C14_18  and  N5_19 
ROOT
HETATM    1  C3  UNL     1       2.797   0.721  -1.389  1.00  0.00     0.253 C 
HETATM    2  N1  UNL     1       3.883  -0.164  -1.781  1.00  0.00     0.097 N 
HETATM    3  C4  UNL     1       3.792  -1.149  -0.720  1.00  0.00     0.327 C 
HETATM    4  C5  UNL     1       2.320  -1.363  -0.607  1.00  0.00     0.043 C 
HETATM    5  C6  UNL     1       1.699  -0.241  -1.010  1.00  0.00    -0.003 C 
HETATM    6  C7  UNL     1       0.327   0.218  -1.167  1.00  0.00     0.190 C 
HETATM    7  N2  UNL     1      -0.696  -0.250  -0.328  1.00  0.00    -0.266 N 
HETATM    8  N3  UNL     1      -1.102  -1.469   0.252  1.00  0.00    -0.180 N 
HETATM    9  C15 UNL     1      -0.416  -2.605   0.759  1.00  0.00     0.156 C 
HETATM   10  C16 UNL     1       0.792  -3.070   0.613  1.00  0.00     0.109 C 
HETATM   11  N6  UNL     1       1.948  -2.637  -0.122  1.00  0.00    -0.366 N 
HETATM   12  H7  UNL     1       3.648  -0.605  -2.691  1.00  0.00     0.317 HD
HETATM   13  H22 UNL     1       2.611  -3.417  -0.318  1.00  0.00     0.165 HD
ENDROOT
BRANCH   7  14
HETATM   14  C8  UNL     1      -1.639   0.783   0.060  1.00  0.00     0.053 A 
HETATM   15  C9  UNL     1      -1.835   1.818  -0.864  1.00  0.00     0.031 A 
HETATM   16  C10 UNL     1      -2.682   2.873  -0.629  1.00  0.00     0.002 A 
HETATM   17  C11 UNL     1      -3.380   2.936   0.561  1.00  0.00     0.000 A 
HETATM   18  C12 UNL     1      -3.203   1.932   1.481  1.00  0.00     0.002 A 
HETATM   19  C13 UNL     1      -2.355   0.890   1.229  1.00  0.00     0.031 A 
ENDBRANCH   7  14
BRANCH   8  20
HETATM   20  N4  UNL     1      -2.512  -1.598   0.344  1.00  0.00    -0.148 NA
HETATM   21  C14 UNL     1      -2.957  -2.522   1.113  1.00  0.00     0.224 C 
BRANCH  21  22
HETATM   22  N5  UNL     1      -4.369  -2.603   1.165  1.00  0.00    -0.392 N 
HETATM   23  H18 UNL     1      -5.352  -2.903   1.033  1.00  0.00     0.157 HD
HETATM   24  H19 UNL     1      -5.080  -1.979   1.646  1.00  0.00     0.157 HD
ENDBRANCH  21  22
ENDBRANCH   8  20
BRANCH   1  25
HETATM   25  C2  UNL     1       3.269   1.568  -0.263  1.00  0.00     0.036 C 
HETATM   26  C1  UNL     1       2.298   2.554   0.285  1.00  0.00     0.007 C 
ENDBRANCH   1  25
TORSDOF 4
