REMARK  5 active torsions:
REMARK  status: ('A' for Active; 'I' for Inactive)
REMARK    1  A    between atoms: N1_5  and  C5_6 
REMARK    2  A    between atoms: C5_6  and  C6_7 
REMARK    3  A    between atoms: C10_14  and  N5_15 
REMARK    4  A    between atoms: N5_15  and  C11_16 
REMARK    5  A    between atoms: C17_24  and  N7_25 
ROOT
HETATM    1  C6  UNL     1      -0.165   1.647  -0.117  1.00  0.00     0.004 A 
HETATM    2  C7  UNL     1      -0.779   2.801  -0.569  1.00  0.00     0.030 A 
HETATM    3  C8  UNL     1       0.001   3.916  -0.401  1.00  0.00     0.119 A 
HETATM    4  N2  UNL     1       1.138   3.459   0.171  1.00  0.00    -0.240 N 
HETATM    5  N3  UNL     1       2.191   4.188   0.514  1.00  0.00    -0.161 NA
HETATM    6  C9  UNL     1       3.237   3.555   1.067  1.00  0.00     0.258 A 
HETATM    7  N4  UNL     1       3.230   2.210   1.274  1.00  0.00    -0.220 NA
HETATM    8  C10 UNL     1       2.120   1.508   0.902  1.00  0.00     0.159 A 
HETATM    9  C16 UNL     1       1.038   2.142   0.333  1.00  0.00     0.112 A 
ENDROOT
BRANCH   1  10
HETATM   10  C5  UNL     1      -0.557   0.225  -0.079  1.00  0.00     0.316 C 
BRANCH  10  11
HETATM   11  N1  UNL     1      -1.850   0.045  -0.643  1.00  0.00     0.115 N 
HETATM   12  C4  UNL     1      -2.164  -1.372  -0.862  1.00  0.00     0.276 C 
HETATM   13  C3  UNL     1      -3.524  -1.213  -1.537  1.00  0.00     0.038 C 
HETATM   14  C2  UNL     1      -4.143  -0.162  -0.626  1.00  0.00     0.036 C 
HETATM   15  C1  UNL     1      -5.141  -0.769   0.334  1.00  0.00     0.014 C 
HETATM   16  C17 UNL     1      -2.969   0.427   0.173  1.00  0.00     0.319 C 
BRANCH  16  17
HETATM   17  N7  UNL     1      -3.010  -0.086   1.488  1.00  0.00    -0.402 N 
HETATM   18  H21 UNL     1      -2.339  -0.767   1.802  1.00  0.00     0.152 HD
HETATM   19  H22 UNL     1      -3.439   0.524   2.201  1.00  0.00     0.152 HD
ENDBRANCH  16  17
ENDBRANCH  10  11
ENDBRANCH   1  10
BRANCH   8  20
HETATM   20  N5  UNL     1       2.279   0.143   1.192  1.00  0.00    -0.339 N 
HETATM   21  H14 UNL     1       1.662  -0.008   2.020  1.00  0.00     0.167 HD
BRANCH  20  22
HETATM   22  C11 UNL     1       3.025  -0.913   0.631  1.00  0.00     0.035 A 
HETATM   23  C12 UNL     1       2.587  -2.148   0.797  1.00  0.00     0.022 A 
HETATM   24  C13 UNL     1       3.309  -3.306   0.243  1.00  0.00     0.151 A 
HETATM   25  N6  UNL     1       4.534  -2.935  -0.441  1.00  0.00    -0.363 N 
HETATM   26  C14 UNL     1       5.012  -1.618  -0.630  1.00  0.00     0.186 A 
HETATM   27  H18 UNL     1       5.065  -3.777  -0.804  1.00  0.00     0.162 HD
HETATM   28  F1  UNL     1       6.164  -1.447  -1.316  1.00  0.00    -0.186 F 
HETATM   29  C15 UNL     1       4.276  -0.650  -0.108  1.00  0.00     0.090 A 
ENDBRANCH  20  22
ENDBRANCH   8  20
TORSDOF 5
