REMARK  3 active torsions:
REMARK  status: ('A' for Active; 'I' for Inactive)
REMARK    1  A    between atoms: C2_2  and  N1_3 
REMARK    2  A    between atoms: C10_16  and  C11_17 
REMARK    3  A    between atoms: C12_18  and  C13_19 
ROOT
HETATM    1  C1  UNL     1       0.321  -1.881  -1.502  1.00  0.00     0.051 C 
HETATM    2  C2  UNL     1       0.889  -1.287  -0.212  1.00  0.00     0.172 C 
HETATM    3  C3  UNL     1       0.211  -1.946   0.923  1.00  0.00     0.062 C 
HETATM    4  C4  UNL     1      -1.173  -1.802   1.302  1.00  0.00     0.116 C 
HETATM    5  N2  UNL     1      -2.252  -1.811   0.408  1.00  0.00    -0.418 N 
HETATM    6  C5  UNL     1      -2.550  -0.747  -0.399  1.00  0.00     0.143 C 
HETATM    7  C6  UNL     1      -3.215   0.438   0.204  1.00  0.00     0.026 C 
HETATM    8  C7  UNL     1      -2.700   1.632   0.390  1.00  0.00     0.088 A 
HETATM    9  N3  UNL     1      -3.190   2.852   0.918  1.00  0.00    -0.274 N 
HETATM   10  N4  UNL     1      -2.389   3.951   1.145  1.00  0.00    -0.168 NA
HETATM   11  C8  UNL     1      -1.123   3.990   0.906  1.00  0.00     0.256 A 
HETATM   12  N5  UNL     1      -0.529   2.772   0.362  1.00  0.00    -0.226 NA
HETATM   13  C9  UNL     1      -1.280   1.707   0.139  1.00  0.00     0.133 A 
HETATM   14  N6  UNL     1      -0.084   1.034  -0.213  1.00  0.00    -0.265 NA
HETATM   15  C10 UNL     1       0.991   0.198  -0.228  1.00  0.00     0.122 C 
HETATM   16  H10 UNL     1      -3.064  -2.417   0.632  1.00  0.00     0.153 HD
HETATM   17  H14 UNL     1      -4.228   2.784   1.102  1.00  0.00     0.189 HD
HETATM   18  H16 UNL     1      -0.373   0.440   0.646  1.00  0.00     0.130 HD
ENDROOT
BRANCH   2  19
HETATM   19  N1  UNL     1       2.327  -1.702  -0.255  1.00  0.00     0.089 N 
HETATM   20  H4  UNL     1       2.269  -2.710  -0.495  1.00  0.00     0.313 HD
HETATM   21  H5  UNL     1       2.620  -1.612   0.758  1.00  0.00     0.313 HD
ENDBRANCH   2  19
BRANCH  15  22
HETATM   22  C11 UNL     1       1.910   0.494  -1.431  1.00  0.00    -0.006 C 
HETATM   23  C12 UNL     1       3.200   0.785  -1.404  1.00  0.00     0.002 C 
BRANCH  23  24
HETATM   24  C13 UNL     1       4.160   0.924  -0.315  1.00  0.00     0.249 C 
HETATM   25  F1  UNL     1       5.181  -0.015  -0.512  1.00  0.00    -0.251 F 
ENDBRANCH  23  24
ENDBRANCH  15  22
TORSDOF 3
