REMARK  1 active torsions:
REMARK  status: ('A' for Active; 'I' for Inactive)
REMARK    1  A    between atoms: C2_2  and  C3_3 
ROOT
HETATM    1  C3  UNL     1       1.550   0.921  -2.648  1.00  0.00     0.082 C 
HETATM    2  C4  UNL     1       1.354  -0.305  -1.839  1.00  0.00     0.049 C 
HETATM    3  C5  UNL     1      -0.071  -0.795  -1.749  1.00  0.00     0.188 C 
HETATM    4  N1  UNL     1      -0.230  -2.050  -1.077  1.00  0.00    -0.147 NA
HETATM    5  N2  UNL     1      -0.285  -2.263   0.021  1.00  0.00    -0.349 NA
HETATM    6  C6  UNL     1      -0.371  -2.713   1.294  1.00  0.00     0.273 C 
HETATM    7  C7  UNL     1      -1.538  -2.047   2.101  1.00  0.00     0.113 C 
HETATM    8  C8  UNL     1      -1.626  -2.812   3.437  1.00  0.00     0.168 C 
HETATM    9  N3  UNL     1      -2.600  -3.834   3.152  1.00  0.00    -0.311 N 
HETATM   10  N4  UNL     1      -3.381  -3.336   2.129  1.00  0.00    -0.163 NA
HETATM   11  C9  UNL     1      -2.820  -2.328   1.513  1.00  0.00     0.166 C 
HETATM   12  N5  UNL     1      -3.435  -1.589   0.440  1.00  0.00    -0.226 NA
HETATM   13  C10 UNL     1      -2.942  -0.345   0.244  1.00  0.00     0.209 C 
HETATM   14  N6  UNL     1      -1.829  -0.002   1.201  1.00  0.00    -0.353 N 
HETATM   15  C11 UNL     1      -1.109  -0.687   2.317  1.00  0.00     0.031 C 
HETATM   16  C12 UNL     1      -0.757   0.497   2.645  1.00  0.00     0.026 C 
HETATM   17  C13 UNL     1      -0.255   1.790   2.393  1.00  0.00     0.002 C 
HETATM   18  C14 UNL     1       0.046   1.690   1.060  1.00  0.00     0.108 C 
HETATM   19  C15 UNL     1       0.600   2.532   0.045  1.00  0.00     0.135 C 
HETATM   20  F1  UNL     1       0.807   3.660   0.876  1.00  0.00    -0.239 F 
HETATM   21  C16 UNL     1       1.117   3.222  -1.032  1.00  0.00     0.098 C 
HETATM   22  N7  UNL     1       1.004   2.139  -2.024  1.00  0.00    -0.395 N 
HETATM   23  H15 UNL     1      -2.615  -4.740   3.686  1.00  0.00     0.182 HD
HETATM   24  H17 UNL     1      -1.875   0.994   0.797  1.00  0.00     0.166 HD
HETATM   25  H22 UNL     1       0.056   2.418  -2.453  1.00  0.00     0.159 HD
ENDROOT
BRANCH   1  26
HETATM   26  C2  UNL     1       3.017   1.238  -2.946  1.00  0.00     0.020 C 
HETATM   27  C1  UNL     1       3.117   2.504  -3.786  1.00  0.00     0.007 C 
ENDBRANCH   1  26
TORSDOF 1
