REMARK  5 active torsions:
REMARK  status: ('A' for Active; 'I' for Inactive)
REMARK    1  A    between atoms: N1_1  and  C1_2 
REMARK    2  A    between atoms: N2_5  and  C4_6 
REMARK    3  A    between atoms: C4_6  and  C5_7 
REMARK    4  A    between atoms: N5_13  and  C9_14 
REMARK    5  A    between atoms: C16_22  and  N6_23 
ROOT
HETATM    1  C5  UNL     1      -0.643  -0.601  -1.213  1.00  0.00    -0.009 C 
HETATM    2  C6  UNL     1      -1.723  -1.165  -0.599  1.00  0.00     0.063 C 
HETATM    3  C7  UNL     1      -1.468  -2.674  -0.786  1.00  0.00     0.333 C 
HETATM    4  N3  UNL     1      -1.799  -2.359  -2.231  1.00  0.00     0.112 N 
HETATM    5  C8  UNL     1      -2.991  -1.530  -2.173  1.00  0.00     0.384 C 
HETATM    6  N4  UNL     1      -3.741  -1.481  -0.912  1.00  0.00    -0.205 NA
HETATM    7  N5  UNL     1      -2.927  -0.681  -0.026  1.00  0.00    -0.278 N 
HETATM    8  C15 UNL     1      -0.552  -1.545  -2.410  1.00  0.00     0.312 C 
HETATM    9  H14 UNL     1      -3.936  -2.403  -0.564  1.00  0.00     0.149 HD
ENDROOT
BRANCH   1  10
HETATM   10  C4  UNL     1       0.022   0.625  -0.674  1.00  0.00     0.157 C 
BRANCH  10  11
HETATM   11  N2  UNL     1       1.376   0.239  -0.383  1.00  0.00    -0.381 N 
HETATM   12  C3  UNL     1       1.551  -0.662   0.667  1.00  0.00     0.121 C 
HETATM   13  C2  UNL     1       2.694  -0.511   1.587  1.00  0.00     0.055 C 
HETATM   14  C1  UNL     1       3.802   0.393   1.125  1.00  0.00     0.223 C 
HETATM   15  C17 UNL     1       3.291   1.577   0.341  1.00  0.00     0.092 C 
HETATM   16  C16 UNL     1       2.368   1.149  -0.750  1.00  0.00     0.316 C 
BRANCH  14  17
HETATM   17  N1  UNL     1       4.831  -0.347   0.423  1.00  0.00     0.083 N 
HETATM   18  H1  UNL     1       4.678  -0.463  -0.583  1.00  0.00     0.313 HD
HETATM   19  H2  UNL     1       5.760   0.116   0.547  1.00  0.00     0.313 HD
ENDBRANCH  14  17
BRANCH  16  20
HETATM   20  N6  UNL     1       3.068   0.648  -1.936  1.00  0.00     0.101 N 
HETATM   21  H22 UNL     1       2.851  -0.346  -2.134  1.00  0.00     0.315 HD
HETATM   22  H23 UNL     1       2.969   1.250  -2.762  1.00  0.00     0.315 HD
ENDBRANCH  16  20
ENDBRANCH  10  11
ENDBRANCH   1  10
BRANCH   7  23
HETATM   23  C9  UNL     1      -2.771   0.281   0.994  1.00  0.00     0.054 A 
HETATM   24  C10 UNL     1      -2.148   0.131   2.215  1.00  0.00     0.031 A 
HETATM   25  C11 UNL     1      -2.177   1.253   2.987  1.00  0.00     0.005 A 
HETATM   26  C12 UNL     1      -2.761   2.429   2.612  1.00  0.00     0.042 A 
HETATM   27  C13 UNL     1      -3.375   2.575   1.408  1.00  0.00     0.118 A 
HETATM   28  F1  UNL     1      -3.917   3.778   1.140  1.00  0.00    -0.206 F 
HETATM   29  C14 UNL     1      -3.387   1.463   0.555  1.00  0.00     0.073 A 
ENDBRANCH   7  23
TORSDOF 5
