REMARK  5 active torsions:
REMARK  status: ('A' for Active; 'I' for Inactive)
REMARK    1  A    between atoms: N1_1  and  C1_2 
REMARK    2  A    between atoms: N2_5  and  C4_6 
REMARK    3  A    between atoms: C4_6  and  C5_7 
REMARK    4  A    between atoms: C10_15  and  N6_16 
REMARK    5  A    between atoms: N6_16  and  C11_17 
ROOT
HETATM    1  C5  UNL     1      -0.046   1.672  -0.973  1.00  0.00    -0.032 A 
HETATM    2  C6  UNL     1      -1.136   1.194  -1.535  1.00  0.00     0.044 A 
HETATM    3  C7  UNL     1      -1.563   1.836  -2.773  1.00  0.00     0.060 A 
HETATM    4  C8  UNL     1      -0.658   2.771  -2.971  1.00  0.00     0.010 A 
HETATM    5  C9  UNL     1       0.364   2.771  -1.898  1.00  0.00     0.066 A 
HETATM    6  N3  UNL     1      -2.739   1.349  -3.396  1.00  0.00    -0.284 N 
HETATM    7  N4  UNL     1      -3.450   0.279  -2.822  1.00  0.00    -0.217 N 
HETATM    8  N5  UNL     1      -2.973  -0.274  -1.647  1.00  0.00    -0.140 NA
HETATM    9  C10 UNL     1      -1.925   0.097  -1.013  1.00  0.00     0.162 A 
HETATM   10  H13 UNL     1      -3.040   1.814  -4.280  1.00  0.00     0.188 HD
HETATM   11  H14 UNL     1      -4.317  -0.072  -3.294  1.00  0.00     0.210 HD
ENDROOT
BRANCH   1  12
HETATM   12  C4  UNL     1       0.860   1.529   0.160  1.00  0.00     0.308 C 
BRANCH  12  13
HETATM   13  N2  UNL     1       2.241   1.212  -0.262  1.00  0.00     0.092 N 
HETATM   14  C3  UNL     1       3.164   1.257   0.851  1.00  0.00     0.275 C 
HETATM   15  C2  UNL     1       4.255   0.210   0.779  1.00  0.00     0.065 C 
HETATM   16  C1  UNL     1       3.685  -1.177   0.985  1.00  0.00     0.221 C 
HETATM   17  C18 UNL     1       2.404  -1.221   0.173  1.00  0.00     0.065 C 
HETATM   18  C17 UNL     1       2.328  -0.124  -0.833  1.00  0.00     0.275 C 
BRANCH  16  19
HETATM   19  N1  UNL     1       4.617  -2.157   0.492  1.00  0.00     0.083 N 
HETATM   20  H1  UNL     1       4.322  -2.501  -0.434  1.00  0.00     0.313 HD
HETATM   21  H2  UNL     1       4.596  -2.983   1.158  1.00  0.00     0.313 HD
ENDBRANCH  16  19
ENDBRANCH  12  13
ENDBRANCH   1  12
BRANCH   9  22
HETATM   22  N6  UNL     1      -1.631  -0.653   0.148  1.00  0.00    -0.339 N 
HETATM   23  H15 UNL     1      -0.632  -0.913   0.260  1.00  0.00     0.167 HD
BRANCH  22  24
HETATM   24  C11 UNL     1      -2.605  -1.082   1.128  1.00  0.00     0.033 A 
HETATM   25  C12 UNL     1      -3.946  -0.838   1.068  1.00  0.00     0.029 A 
HETATM   26  C13 UNL     1      -4.808  -1.302   2.068  1.00  0.00     0.002 A 
HETATM   27  C14 UNL     1      -4.288  -2.027   3.148  1.00  0.00     0.000 A 
HETATM   28  C15 UNL     1      -2.927  -2.273   3.207  1.00  0.00     0.002 A 
HETATM   29  C16 UNL     1      -2.103  -1.806   2.211  1.00  0.00     0.029 A 
ENDBRANCH  22  24
ENDBRANCH   9  22
TORSDOF 5
