REMARK  5 active torsions:
REMARK  status: ('A' for Active; 'I' for Inactive)
REMARK    1  A    between atoms: N1_1  and  C1_2 
REMARK    2  A    between atoms: N2_5  and  C4_6 
REMARK    3  A    between atoms: C4_6  and  C5_7 
REMARK    4  A    between atoms: C9_14  and  N6_15 
REMARK    5  A    between atoms: N6_15  and  C10_16 
ROOT
HETATM    1  C5  UNL     1       0.057  -1.385  -0.874  1.00  0.00     0.004 A 
HETATM    2  C6  UNL     1      -0.512  -2.590  -1.260  1.00  0.00     0.030 A 
HETATM    3  C7  UNL     1       0.487  -3.542  -1.319  1.00  0.00     0.119 A 
HETATM    4  N3  UNL     1       1.634  -2.927  -0.977  1.00  0.00    -0.240 N 
HETATM    5  N4  UNL     1       2.808  -3.547  -0.927  1.00  0.00    -0.161 NA
HETATM    6  C8  UNL     1       3.862  -2.802  -0.570  1.00  0.00     0.258 A 
HETATM    7  N5  UNL     1       3.691  -1.508  -0.289  1.00  0.00    -0.220 NA
HETATM    8  C9  UNL     1       2.501  -0.902  -0.346  1.00  0.00     0.159 A 
HETATM    9  C15 UNL     1       1.393  -1.623  -0.705  1.00  0.00     0.112 A 
ENDROOT
BRANCH   1  10
HETATM   10  C4  UNL     1      -0.643  -0.113  -0.687  1.00  0.00     0.313 C 
BRANCH  10  11
HETATM   11  N2  UNL     1      -2.099  -0.241  -0.923  1.00  0.00     0.092 N 
HETATM   12  C3  UNL     1      -2.607   1.112  -0.789  1.00  0.00     0.275 C 
HETATM   13  C2  UNL     1      -4.072   1.220  -0.561  1.00  0.00     0.065 C 
HETATM   14  C1  UNL     1      -4.592   0.233   0.446  1.00  0.00     0.221 C 
HETATM   15  C17 UNL     1      -3.376  -0.332   1.170  1.00  0.00     0.065 C 
HETATM   16  C16 UNL     1      -2.599  -1.105   0.124  1.00  0.00     0.275 C 
BRANCH  14  17
HETATM   17  N1  UNL     1      -5.552   0.814   1.345  1.00  0.00     0.083 N 
HETATM   18  H1  UNL     1      -5.826   0.110   2.053  1.00  0.00     0.313 HD
HETATM   19  H2  UNL     1      -6.395   1.050   0.802  1.00  0.00     0.313 HD
ENDBRANCH  14  17
ENDBRANCH  10  11
ENDBRANCH   1  10
BRANCH   8  20
HETATM   20  N6  UNL     1       2.375   0.475  -0.044  1.00  0.00    -0.338 N 
HETATM   21  H13 UNL     1       1.556   1.098  -0.086  1.00  0.00     0.167 HD
BRANCH  20  22
HETATM   22  C10 UNL     1       3.396   1.356   0.407  1.00  0.00     0.051 A 
HETATM   23  C11 UNL     1       3.447   2.755   0.341  1.00  0.00     0.032 A 
HETATM   24  C12 UNL     1       4.483   3.495   0.825  1.00  0.00     0.021 A 
HETATM   25  C13 UNL     1       5.556   2.917   1.416  1.00  0.00     0.116 A 
HETATM   26  N7  UNL     1       5.547   1.575   1.501  1.00  0.00    -0.271 NA
HETATM   27  C14 UNL     1       4.525   0.843   1.024  1.00  0.00     0.145 A 
ENDBRANCH  20  22
ENDBRANCH   8  20
TORSDOF 5
