REMARK  5 active torsions:
REMARK  status: ('A' for Active; 'I' for Inactive)
REMARK    1  A    between atoms: N1_1  and  C1_2 
REMARK    2  A    between atoms: N2_5  and  C4_6 
REMARK    3  A    between atoms: C4_6  and  C5_7 
REMARK    4  A    between atoms: C7_9  and  N3_10 
REMARK    5  A    between atoms: N3_10  and  C8_11 
ROOT
HETATM    1  C5  UNL     1       0.599  -1.947   0.467  1.00  0.00     0.000 A 
HETATM    2  C6  UNL     1      -0.637  -2.135   0.038  1.00  0.00     0.105 A 
HETATM    3  C7  UNL     1      -2.029  -1.700  -0.005  1.00  0.00     0.158 A 
HETATM    4  N4  UNL     1      -2.903  -2.358  -0.663  1.00  0.00    -0.220 NA
HETATM    5  C14 UNL     1      -2.502  -3.527  -1.358  1.00  0.00     0.257 A 
HETATM    6  N5  UNL     1      -1.286  -3.977  -1.368  1.00  0.00    -0.165 NA
HETATM    7  N6  UNL     1      -0.261  -3.306  -0.664  1.00  0.00    -0.261 N 
HETATM    8  C15 UNL     1       1.098  -3.153  -0.231  1.00  0.00     0.190 A 
ENDROOT
BRANCH   1   9
HETATM    9  C4  UNL     1       1.315  -0.959   1.315  1.00  0.00     0.310 C 
BRANCH   9  10
HETATM   10  N2  UNL     1       2.368  -0.298   0.606  1.00  0.00     0.092 N 
HETATM   11  C3  UNL     1       3.079   0.668   1.421  1.00  0.00     0.275 C 
HETATM   12  C2  UNL     1       3.247   2.005   0.765  1.00  0.00     0.065 C 
HETATM   13  C1  UNL     1       3.832   1.849  -0.631  1.00  0.00     0.221 C 
HETATM   14  C17 UNL     1       3.156   0.758  -1.418  1.00  0.00     0.065 C 
HETATM   15  C16 UNL     1       1.930   0.265  -0.648  1.00  0.00     0.275 C 
BRANCH  13  16
HETATM   16  N1  UNL     1       5.246   1.541  -0.497  1.00  0.00     0.083 N 
HETATM   17  H1  UNL     1       5.402   0.868   0.269  1.00  0.00     0.313 HD
HETATM   18  H2  UNL     1       5.841   2.398  -0.400  1.00  0.00     0.313 HD
ENDBRANCH  13  16
ENDBRANCH   9  10
ENDBRANCH   1   9
BRANCH   3  19
HETATM   19  N3  UNL     1      -2.458  -0.547   0.671  1.00  0.00    -0.339 N 
HETATM   20  H10 UNL     1      -1.982  -0.318   1.595  1.00  0.00     0.167 HD
BRANCH  19  21
HETATM   21  C8  UNL     1      -3.469   0.342   0.227  1.00  0.00     0.033 A 
HETATM   22  C9  UNL     1      -4.174   0.258  -0.949  1.00  0.00     0.029 A 
HETATM   23  C10 UNL     1      -5.157   1.137  -1.351  1.00  0.00     0.002 A 
HETATM   24  C11 UNL     1      -5.479   2.196  -0.527  1.00  0.00     0.000 A 
HETATM   25  C12 UNL     1      -4.806   2.335   0.668  1.00  0.00     0.002 A 
HETATM   26  C13 UNL     1      -3.832   1.423   1.015  1.00  0.00     0.029 A 
ENDBRANCH  19  21
ENDBRANCH   3  19
TORSDOF 5
