REMARK  5 active torsions:
REMARK  status: ('A' for Active; 'I' for Inactive)
REMARK    1  A    between atoms: C5_5  and  N1_6 
REMARK    2  A    between atoms: N1_6  and  C6_7 
REMARK    3  A    between atoms: C10_14  and  C11_15 
REMARK    4  A    between atoms: C11_15  and  N5_16 
REMARK    5  A    between atoms: C14_19  and  N6_20 
ROOT
HETATM    1  C6  UNL     1       1.292  -1.417  -0.535  1.00  0.00     0.159 A 
HETATM    2  N2  UNL     1       2.280  -1.820  -1.338  1.00  0.00    -0.220 NA
HETATM    3  C7  UNL     1       2.214  -2.932  -2.072  1.00  0.00     0.258 A 
HETATM    4  N3  UNL     1       1.101  -3.709  -2.020  1.00  0.00    -0.161 NA
HETATM    5  N4  UNL     1       0.105  -3.314  -1.218  1.00  0.00    -0.240 N 
HETATM    6  C8  UNL     1      -1.063  -3.953  -1.040  1.00  0.00     0.119 A 
HETATM    7  C9  UNL     1      -1.777  -3.196  -0.136  1.00  0.00     0.030 A 
HETATM    8  C10 UNL     1      -0.999  -2.086   0.220  1.00  0.00    -0.007 A 
HETATM    9  C17 UNL     1       0.171  -2.204  -0.485  1.00  0.00     0.112 A 
ENDROOT
BRANCH   8  10
HETATM   10  C11 UNL     1      -1.467  -1.066   1.181  1.00  0.00     0.158 C 
BRANCH  10  11
HETATM   11  N5  UNL     1      -1.882   0.167   0.576  1.00  0.00    -0.408 N 
HETATM   12  C12 UNL     1      -2.334   1.172   1.459  1.00  0.00     0.119 C 
HETATM   13  C13 UNL     1      -3.837   1.191   1.641  1.00  0.00     0.055 C 
HETATM   14  C14 UNL     1      -4.527   0.670   0.392  1.00  0.00     0.221 C 
HETATM   15  C15 UNL     1      -3.683   0.891  -0.832  1.00  0.00     0.055 C 
HETATM   16  C16 UNL     1      -2.430   0.064  -0.708  1.00  0.00     0.119 C 
BRANCH  14  17
HETATM   17  N6  UNL     1      -5.826   1.234   0.173  1.00  0.00     0.083 N 
HETATM   18  H17 UNL     1      -5.915   2.237   0.393  1.00  0.00     0.313 HD
HETATM   19  H18 UNL     1      -6.596   0.640   0.576  1.00  0.00     0.313 HD
ENDBRANCH  14  17
ENDBRANCH  10  11
ENDBRANCH   8  10
BRANCH   1  20
HETATM   20  N1  UNL     1       1.434  -0.224   0.212  1.00  0.00    -0.339 N 
HETATM   21  H6  UNL     1       0.831   0.339   0.827  1.00  0.00     0.167 HD
BRANCH  20  22
HETATM   22  C5  UNL     1       2.648   0.521   0.234  1.00  0.00     0.033 A 
HETATM   23  C4  UNL     1       3.862  -0.141   0.097  1.00  0.00     0.030 A 
HETATM   24  C3  UNL     1       5.079   0.527   0.089  1.00  0.00     0.009 A 
HETATM   25  C2  UNL     1       5.148   1.891   0.218  1.00  0.00    -0.062 A 
HETATM   26  C1  UNL     1       6.417   2.638   0.212  1.00  0.00     0.048 C 
HETATM   27  C19 UNL     1       3.972   2.591   0.357  1.00  0.00     0.009 A 
HETATM   28  C18 UNL     1       2.805   1.893   0.359  1.00  0.00     0.030 A 
ENDBRANCH  20  22
ENDBRANCH   1  20
TORSDOF 5
