REMARK  2 active torsions:
REMARK  status: ('A' for Active; 'I' for Inactive)
REMARK    1  A    between atoms: C4_7  and  N4_8 
REMARK    2  A    between atoms: N4_8  and  C5_9 
ROOT
HETATM    1  C1  UNL     1      -3.261  -1.889   0.475  1.00  0.00     0.102 C 
HETATM    2  C2  UNL     1      -2.163  -2.454   0.021  1.00  0.00     0.132 C 
HETATM    3  N1  UNL     1      -0.887  -1.877   0.332  1.00  0.00    -0.248 N 
HETATM    4  N2  UNL     1      -0.266  -2.719   1.275  1.00  0.00    -0.164 NA
HETATM    5  C3  UNL     1       0.911  -2.360   1.723  1.00  0.00     0.257 A 
HETATM    6  N3  UNL     1       1.526  -1.168   1.268  1.00  0.00    -0.223 NA
HETATM    7  C4  UNL     1       0.967  -0.370   0.391  1.00  0.00     0.150 A 
HETATM    8  C11 UNL     1      -0.319  -0.647  -0.224  1.00  0.00     0.275 A 
HETATM    9  N5  UNL     1      -1.224   0.407  -0.373  1.00  0.00    -0.385 N 
HETATM   10  C12 UNL     1      -1.443   1.370   0.608  1.00  0.00     0.121 C 
HETATM   11  C13 UNL     1      -2.901   1.604   0.952  1.00  0.00     0.044 C 
HETATM   12  C14 UNL     1      -3.764   0.444   0.507  1.00  0.00     0.084 C 
HETATM   13  C15 UNL     1      -3.621   0.253  -0.985  1.00  0.00     0.044 C 
HETATM   14  C16 UNL     1      -2.176   0.295  -1.422  1.00  0.00     0.121 C 
HETATM   15  N6  UNL     1      -3.389  -0.708   1.284  1.00  0.00    -0.393 N 
HETATM   16  H20 UNL     1      -3.277  -0.481   2.307  1.00  0.00     0.159 HD
ENDROOT
BRANCH   7  17
HETATM   17  N4  UNL     1       1.771   0.769   0.088  1.00  0.00    -0.341 N 
HETATM   18  H4  UNL     1       1.215   1.664  -0.102  1.00  0.00     0.167 HD
BRANCH  17  19
HETATM   19  C5  UNL     1       3.191   0.720   0.039  1.00  0.00     0.033 A 
HETATM   20  C6  UNL     1       3.759   1.274  -1.089  1.00  0.00     0.029 A 
HETATM   21  C7  UNL     1       5.128   1.279  -1.233  1.00  0.00     0.002 A 
HETATM   22  C8  UNL     1       5.973   0.737  -0.271  1.00  0.00     0.000 A 
HETATM   23  C9  UNL     1       5.432   0.175   0.870  1.00  0.00     0.002 A 
HETATM   24  C10 UNL     1       4.036   0.190   0.981  1.00  0.00     0.029 A 
ENDBRANCH  17  19
ENDBRANCH   7  17
TORSDOF 2
