REMARK  7 active torsions:
REMARK  status: ('A' for Active; 'I' for Inactive)
REMARK    1  A    between atoms: C5_5  and  N1_6 
REMARK    2  A    between atoms: N1_6  and  C6_7 
REMARK    3  A    between atoms: C10_14  and  C11_15 
REMARK    4  A    between atoms: C11_15  and  N5_16 
REMARK    5  A    between atoms: N5_16  and  C12_17 
REMARK    6  A    between atoms: C12_17  and  C13_18 
REMARK    7  A    between atoms: C16_21  and  N6_22 
ROOT
HETATM    1  C6  UNL     1      -1.651  -1.159   0.319  1.00  0.00     0.159 A 
HETATM    2  N2  UNL     1      -2.527  -2.135   0.130  1.00  0.00    -0.220 NA
HETATM    3  C7  UNL     1      -2.225  -3.428   0.307  1.00  0.00     0.258 A 
HETATM    4  N3  UNL     1      -0.976  -3.736   0.694  1.00  0.00    -0.161 NA
HETATM    5  N4  UNL     1      -0.086  -2.750   0.886  1.00  0.00    -0.240 N 
HETATM    6  C8  UNL     1       1.185  -2.932   1.276  1.00  0.00     0.119 A 
HETATM    7  C9  UNL     1       1.718  -1.650   1.347  1.00  0.00     0.030 A 
HETATM    8  C10 UNL     1       0.755  -0.706   0.996  1.00  0.00     0.004 A 
HETATM    9  C17 UNL     1      -0.379  -1.446   0.711  1.00  0.00     0.112 A 
ENDROOT
BRANCH   8  10
HETATM   10  C11 UNL     1       0.899   0.746   0.948  1.00  0.00     0.310 C 
BRANCH  10  11
HETATM   11  N5  UNL     1       2.294   1.179   1.104  1.00  0.00     0.088 N 
HETATM   12  H12 UNL     1       2.293   2.199   1.327  1.00  0.00     0.316 HD
BRANCH  11  13
HETATM   13  C12 UNL     1       3.130   0.862  -0.008  1.00  0.00     0.276 C 
BRANCH  13  14
HETATM   14  C13 UNL     1       4.570   1.324   0.216  1.00  0.00     0.046 C 
HETATM   15  C14 UNL     1       5.154   0.655   1.439  1.00  0.00     0.010 C 
HETATM   16  C15 UNL     1       5.716  -0.408   0.521  1.00  0.00     0.036 C 
HETATM   17  C16 UNL     1       5.598   0.587  -0.607  1.00  0.00     0.223 C 
BRANCH  17  18
HETATM   18  N6  UNL     1       5.110   0.043  -1.856  1.00  0.00     0.083 N 
HETATM   19  H21 UNL     1       5.798   0.311  -2.597  1.00  0.00     0.313 HD
HETATM   20  H22 UNL     1       5.154  -1.004  -1.809  1.00  0.00     0.313 HD
ENDBRANCH  17  18
ENDBRANCH  13  14
ENDBRANCH  11  13
ENDBRANCH  10  11
ENDBRANCH   8  10
BRANCH   1  21
HETATM   21  N1  UNL     1      -2.070   0.178   0.119  1.00  0.00    -0.339 N 
HETATM   22  H6  UNL     1      -1.592   1.095   0.152  1.00  0.00     0.167 HD
BRANCH  21  23
HETATM   23  C5  UNL     1      -3.416   0.537  -0.200  1.00  0.00     0.033 A 
HETATM   24  C4  UNL     1      -4.499  -0.206   0.249  1.00  0.00     0.030 A 
HETATM   25  C3  UNL     1      -5.817   0.072  -0.041  1.00  0.00     0.009 A 
HETATM   26  C2  UNL     1      -6.110   1.160  -0.832  1.00  0.00    -0.062 A 
HETATM   27  C1  UNL     1      -7.520   1.481  -1.163  1.00  0.00     0.048 C 
HETATM   28  C19 UNL     1      -5.101   1.955  -1.321  1.00  0.00     0.009 A 
HETATM   29  C18 UNL     1      -3.809   1.622  -0.994  1.00  0.00     0.030 A 
ENDBRANCH  21  23
ENDBRANCH   1  21
TORSDOF 7
