REMARK  7 active torsions:
REMARK  status: ('A' for Active; 'I' for Inactive)
REMARK    1  A    between atoms: C2_2  and  C3_3 
REMARK    2  A    between atoms: C3_3  and  C4_4 
REMARK    3  A    between atoms: C4_4  and  B1_5 
REMARK    4  A    between atoms: B1_5  and  C5_6 
REMARK    5  A    between atoms: C9_12  and  C10_13 
REMARK    6  A    between atoms: C10_13  and  N3_14 
REMARK    7  A    between atoms: C13_17  and  N4_18 
ROOT
HETATM    1  C5  UNL     1       1.535   0.468   1.840  1.00  0.00    -0.029 C 
HETATM    2  C6  UNL     1       1.481   1.212   2.939  1.00  0.00     0.105 C 
HETATM    3  N1  UNL     1       0.984   0.529   3.925  1.00  0.00    -0.166 NA
HETATM    4  N2  UNL     1       0.021  -0.298   3.286  1.00  0.00    -0.244 N 
HETATM    5  C7  UNL     1      -1.079  -1.055   3.479  1.00  0.00     0.119 A 
HETATM    6  C8  UNL     1      -1.422  -1.574   2.245  1.00  0.00     0.030 A 
HETATM    7  C9  UNL     1      -0.525  -1.136   1.259  1.00  0.00    -0.011 A 
HETATM    8  C16 UNL     1       0.337  -0.353   1.978  1.00  0.00     0.064 A 
ENDROOT
BRANCH   7   9
HETATM    9  C10 UNL     1      -0.690  -1.512  -0.159  1.00  0.00     0.158 C 
BRANCH   9  10
HETATM   10  N3  UNL     1      -1.407  -0.549  -0.873  1.00  0.00    -0.408 N 
HETATM   11  C11 UNL     1      -0.998   0.778  -0.997  1.00  0.00     0.119 C 
HETATM   12  C12 UNL     1      -2.113   1.630  -0.354  1.00  0.00     0.055 C 
HETATM   13  C13 UNL     1      -3.475   1.060  -0.598  1.00  0.00     0.221 C 
HETATM   14  C14 UNL     1      -3.572   0.054  -1.691  1.00  0.00     0.055 C 
HETATM   15  C15 UNL     1      -2.477  -0.975  -1.707  1.00  0.00     0.119 C 
BRANCH  13  16
HETATM   16  N4  UNL     1      -4.115   0.587   0.638  1.00  0.00     0.083 N 
HETATM   17  H14 UNL     1      -5.159   0.594   0.500  1.00  0.00     0.313 HD
HETATM   18  H15 UNL     1      -3.866  -0.414   0.818  1.00  0.00     0.313 HD
ENDBRANCH  13  16
ENDBRANCH   9  10
ENDBRANCH   7   9
BRANCH   1  19
HETATM   19  B1  UNL     1       2.650   0.314   0.459  1.00  0.00     0.281 B 
BRANCH  19  20
HETATM   20  C4  UNL     1       4.173   0.068  -0.459  1.00  0.00    -0.216 C 
BRANCH  20  21
HETATM   21  C3  UNL     1       5.345  -0.408  -0.844  1.00  0.00     0.034 C 
BRANCH  21  22
HETATM   22  C2  UNL     1       6.077   0.718  -1.370  1.00  0.00    -0.004 C 
HETATM   23  C1  UNL     1       7.295   0.605  -1.846  1.00  0.00     0.012 C 
ENDBRANCH  21  22
ENDBRANCH  20  21
ENDBRANCH  19  20
ENDBRANCH   1  19
TORSDOF 7
