REMARK  6 active torsions:
REMARK  status: ('A' for Active; 'I' for Inactive)
REMARK    1  A    between atoms: N1_1  and  C1_2 
REMARK    2  A    between atoms: N2_5  and  C4_6 
REMARK    3  A    between atoms: C4_6  and  C5_7 
REMARK    4  A    between atoms: C9_14  and  N6_15 
REMARK    5  A    between atoms: N6_15  and  C10_16 
REMARK    6  A    between atoms: C13_19  and  S1_20 
ROOT
HETATM    1  C5  UNL     1      -0.560   0.544   1.203  1.00  0.00    -0.007 A 
HETATM    2  C6  UNL     1      -1.413   0.529   2.297  1.00  0.00     0.030 A 
HETATM    3  C7  UNL     1      -1.203  -0.631   3.019  1.00  0.00     0.119 A 
HETATM    4  N3  UNL     1      -0.229  -1.332   2.388  1.00  0.00    -0.240 N 
HETATM    5  N4  UNL     1       0.332  -2.487   2.707  1.00  0.00    -0.161 NA
HETATM    6  C8  UNL     1       1.328  -2.968   1.908  1.00  0.00     0.258 A 
HETATM    7  N5  UNL     1       1.715  -2.272   0.831  1.00  0.00    -0.220 NA
HETATM    8  C9  UNL     1       1.152  -1.103   0.501  1.00  0.00     0.159 A 
HETATM    9  C16 UNL     1       0.139  -0.633   1.326  1.00  0.00     0.112 A 
ENDROOT
BRANCH   1  10
HETATM   10  C4  UNL     1      -0.643   1.631   0.251  1.00  0.00     0.158 C 
BRANCH  10  11
HETATM   11  N2  UNL     1      -1.583   1.446  -0.796  1.00  0.00    -0.408 N 
HETATM   12  C3  UNL     1      -2.742   2.309  -0.656  1.00  0.00     0.119 C 
HETATM   13  C2  UNL     1      -3.905   1.727   0.034  1.00  0.00     0.055 C 
HETATM   14  C1  UNL     1      -4.148   0.278  -0.139  1.00  0.00     0.221 C 
HETATM   15  C18 UNL     1      -3.001  -0.575  -0.515  1.00  0.00     0.055 C 
HETATM   16  C17 UNL     1      -1.913   0.146  -1.232  1.00  0.00     0.119 C 
BRANCH  14  17
HETATM   17  N1  UNL     1      -5.272  -0.006  -1.029  1.00  0.00     0.083 N 
HETATM   18  H1  UNL     1      -5.381   0.693  -1.794  1.00  0.00     0.313 HD
HETATM   19  H2  UNL     1      -6.149  -0.216  -0.533  1.00  0.00     0.313 HD
ENDBRANCH  14  17
ENDBRANCH  10  11
ENDBRANCH   1  10
BRANCH   8  20
HETATM   20  N6  UNL     1       1.672  -0.399  -0.653  1.00  0.00    -0.339 N 
HETATM   21  H13 UNL     1       1.188   0.076  -1.444  1.00  0.00     0.167 HD
BRANCH  20  22
HETATM   22  C10 UNL     1       3.084  -0.246  -0.924  1.00  0.00     0.033 A 
HETATM   23  C11 UNL     1       3.659   0.300  -2.053  1.00  0.00     0.031 A 
HETATM   24  C12 UNL     1       5.040   0.397  -2.163  1.00  0.00     0.020 A 
HETATM   25  C13 UNL     1       5.900  -0.034  -1.182  1.00  0.00    -0.003 A 
HETATM   26  C14 UNL     1       5.318  -0.581  -0.050  1.00  0.00     0.020 A 
HETATM   27  C15 UNL     1       3.935  -0.683   0.070  1.00  0.00     0.031 A 
BRANCH  25  28
HETATM   28  S1  UNL     1       7.653   0.145  -1.449  1.00  0.00    -0.143 SA
HETATM   29  H16 UNL     1       8.287   0.734  -0.346  1.00  0.00     0.107 HD
ENDBRANCH  25  28
ENDBRANCH  20  22
ENDBRANCH   8  20
TORSDOF 6
