REMARK  7 active torsions:
REMARK  status: ('A' for Active; 'I' for Inactive)
REMARK    1  A    between atoms: C4_4  and  N1_5 
REMARK    2  A    between atoms: N2_8  and  C7_9 
REMARK    3  A    between atoms: C7_9  and  C8_10 
REMARK    4  A    between atoms: C9_11  and  C10_12 
REMARK    5  A    between atoms: C11_13  and  C12_14 
REMARK    6  A    between atoms: C12_14  and  N3_15 
REMARK    7  A    between atoms: N3_15  and  C13_16 
ROOT
HETATM    1  C8  UNL     1      -0.858  -0.352  -0.302  1.00  0.00     0.003 C 
HETATM    2  C9  UNL     1       0.300  -0.007  -0.862  1.00  0.00    -0.002 C 
ENDROOT
BRANCH   1   3
HETATM    3  C7  UNL     1      -2.056  -0.591  -1.109  1.00  0.00     0.300 C 
BRANCH   3   4
HETATM    4  N2  UNL     1      -3.153   0.269  -0.800  1.00  0.00     0.096 N 
HETATM    5  C2  UNL     1      -3.498   0.373   0.582  1.00  0.00     0.221 C 
HETATM    6  C1  UNL     1      -4.268   1.688   0.750  1.00  0.00     0.043 C 
HETATM    7  C3  UNL     1      -4.298  -0.785   1.122  1.00  0.00     0.070 C 
HETATM    8  C4  UNL     1      -5.515  -1.075   0.274  1.00  0.00     0.221 C 
HETATM    9  C5  UNL     1      -5.109  -1.196  -1.178  1.00  0.00     0.065 C 
HETATM   10  C6  UNL     1      -4.285  -0.041  -1.645  1.00  0.00     0.275 C 
BRANCH   8  11
HETATM   11  N1  UNL     1      -6.474   0.002   0.463  1.00  0.00     0.083 N 
HETATM   12  H8  UNL     1      -7.162  -0.327   1.175  1.00  0.00     0.313 HD
HETATM   13  H9  UNL     1      -6.948   0.141  -0.457  1.00  0.00     0.313 HD
ENDBRANCH   8  11
ENDBRANCH   3   4
ENDBRANCH   1   3
BRANCH   2  14
HETATM   14  C10 UNL     1       1.562   0.260  -0.181  1.00  0.00    -0.003 C 
HETATM   15  C11 UNL     1       2.708   0.602  -0.748  1.00  0.00    -0.007 C 
BRANCH  15  16
HETATM   16  C12 UNL     1       3.895   0.837   0.083  1.00  0.00     0.147 C 
BRANCH  16  17
HETATM   17  N3  UNL     1       4.933  -0.096  -0.317  1.00  0.00    -0.387 N 
HETATM   18  H22 UNL     1       4.917  -0.835  -1.055  1.00  0.00     0.160 HD
BRANCH  17  19
HETATM   19  C13 UNL     1       6.238  -0.149   0.289  1.00  0.00     0.024 A 
HETATM   20  C14 UNL     1       6.933  -0.791   1.239  1.00  0.00     0.006 A 
HETATM   21  C15 UNL     1       8.320  -0.306   1.329  1.00  0.00     0.056 A 
HETATM   22  C16 UNL     1       8.346   0.741   0.266  1.00  0.00    -0.021 A 
HETATM   23  C17 UNL     1       7.152   0.825  -0.324  1.00  0.00     0.025 A 
ENDBRANCH  17  19
ENDBRANCH  16  17
ENDBRANCH  15  16
ENDBRANCH   2  14
TORSDOF 7
