REMARK  8 active torsions:
REMARK  status: ('A' for Active; 'I' for Inactive)
REMARK    1  A    between atoms: C5_5  and  N1_6 
REMARK    2  A    between atoms: N1_6  and  C6_7 
REMARK    3  A    between atoms: N4_11  and  C8_12 
REMARK    4  A    between atoms: C8_12  and  P1_13 
REMARK    5  A    between atoms: P1_13  and  C9_14 
REMARK    6  A    between atoms: C9_14  and  C10_15 
REMARK    7  A    between atoms: C10_15  and  N5_16 
REMARK    8  A    between atoms: C13_19  and  N6_20 
ROOT
HETATM    1  C6  UNL     1       3.436  -0.762  -0.240  1.00  0.00     0.126 C 
HETATM    2  N2  UNL     1       3.604  -1.679   0.574  1.00  0.00    -0.225 NA
HETATM    3  C7  UNL     1       2.782  -2.628   1.168  1.00  0.00     0.257 C 
HETATM    4  N3  UNL     1       1.482  -2.559   0.830  1.00  0.00    -0.158 NA
HETATM    5  N4  UNL     1       1.229  -1.480  -0.061  1.00  0.00    -0.226 N 
HETATM    6  C16 UNL     1       2.087  -0.756  -0.940  1.00  0.00     0.239 C 
ENDROOT
BRANCH   5   7
HETATM    7  C8  UNL     1       0.041  -0.976   0.062  1.00  0.00    -0.022 C 
BRANCH   7   8
HETATM    8  P1  UNL     1      -1.198  -0.436   0.211  1.00  0.00    -0.033 P 
HETATM    9  H8  UNL     1      -1.590  -0.267   0.251  1.00  0.00     0.072 HD
BRANCH   8  10
HETATM   10  C9  UNL     1      -3.377   0.536   0.516  1.00  0.00     0.065 C 
BRANCH  10  11
HETATM   11  C10 UNL     1      -3.921  -0.397  -0.449  1.00  0.00     0.122 C 
BRANCH  11  12
HETATM   12  N5  UNL     1      -5.290  -0.348  -0.756  1.00  0.00    -0.412 N 
HETATM   13  C11 UNL     1      -6.220  -0.727   0.245  1.00  0.00     0.119 C 
HETATM   14  C12 UNL     1      -6.482   0.441   1.150  1.00  0.00     0.055 C 
HETATM   15  C13 UNL     1      -7.005   1.579   0.343  1.00  0.00     0.221 C 
HETATM   16  C14 UNL     1      -6.282   1.896  -0.911  1.00  0.00     0.055 C 
HETATM   17  C15 UNL     1      -5.724   0.696  -1.627  1.00  0.00     0.119 C 
BRANCH  15  18
HETATM   18  N6  UNL     1      -8.444   1.406   0.140  1.00  0.00     0.083 N 
HETATM   19  H18 UNL     1      -8.853   2.327  -0.131  1.00  0.00     0.313 HD
HETATM   20  H19 UNL     1      -8.901   0.959   0.939  1.00  0.00     0.313 HD
ENDBRANCH  15  18
ENDBRANCH  11  12
ENDBRANCH  10  11
ENDBRANCH   8  10
ENDBRANCH   7   8
ENDBRANCH   5   7
BRANCH   1  21
HETATM   21  N1  UNL     1       4.359   0.159  -0.758  1.00  0.00    -0.343 N 
HETATM   22  H6  UNL     1       4.015   0.962  -1.320  1.00  0.00     0.167 HD
BRANCH  21  23
HETATM   23  C5  UNL     1       5.733  -0.019  -0.507  1.00  0.00     0.033 A 
HETATM   24  C4  UNL     1       6.413  -0.988   0.149  1.00  0.00     0.030 A 
HETATM   25  C3  UNL     1       7.767  -1.040   0.333  1.00  0.00     0.009 A 
HETATM   26  C2  UNL     1       8.546  -0.029  -0.183  1.00  0.00    -0.062 A 
HETATM   27  C1  UNL     1      10.023  -0.036  -0.013  1.00  0.00     0.048 C 
HETATM   28  C18 UNL     1       7.941   0.989  -0.861  1.00  0.00     0.009 A 
HETATM   29  C17 UNL     1       6.573   0.981  -1.011  1.00  0.00     0.030 A 
ENDBRANCH  21  23
ENDBRANCH   1  21
TORSDOF 8
