REMARK  5 active torsions:
REMARK  status: ('A' for Active; 'I' for Inactive)
REMARK    1  A    between atoms: N1_2  and  C1_3 
REMARK    2  A    between atoms: N2_6  and  C4_7 
REMARK    3  A    between atoms: C4_7  and  C5_8 
REMARK    4  A    between atoms: C9_15  and  N6_16 
REMARK    5  A    between atoms: N6_16  and  C10_17 
ROOT
HETATM    1  C5  UNL     1       0.251  -1.455  -0.242  1.00  0.00     0.004 A 
HETATM    2  C6  UNL     1       1.070  -2.586  -0.159  1.00  0.00     0.030 A 
HETATM    3  C7  UNL     1       0.255  -3.684   0.041  1.00  0.00     0.119 A 
HETATM    4  N3  UNL     1      -1.003  -3.216   0.073  1.00  0.00    -0.240 N 
HETATM    5  N4  UNL     1      -2.120  -3.942   0.250  1.00  0.00    -0.161 NA
HETATM    6  C8  UNL     1      -3.318  -3.336   0.263  1.00  0.00     0.258 A 
HETATM    7  N5  UNL     1      -3.367  -2.017   0.097  1.00  0.00    -0.220 NA
HETATM    8  C9  UNL     1      -2.272  -1.272  -0.081  1.00  0.00     0.159 A 
HETATM    9  C16 UNL     1      -1.041  -1.882  -0.095  1.00  0.00     0.112 A 
ENDROOT
BRANCH   1  10
HETATM   10  C4  UNL     1       0.754  -0.098  -0.450  1.00  0.00     0.313 C 
BRANCH  10  11
HETATM   11  N2  UNL     1       2.229  -0.067  -0.432  1.00  0.00     0.092 N 
HETATM   12  C3  UNL     1       2.575   1.300  -0.799  1.00  0.00     0.274 C 
HETATM   13  C2  UNL     1       3.750   1.821  -0.041  1.00  0.00     0.051 C 
HETATM   14  C1  UNL     1       4.748   0.824   0.407  1.00  0.00     0.075 C 
HETATM   15  C18 UNL     1       4.156  -0.502   0.869  1.00  0.00     0.051 C 
HETATM   16  C17 UNL     1       2.664  -0.269   0.946  1.00  0.00     0.274 C 
BRANCH  14  17
HETATM   17  N1  UNL     1       5.769   0.532  -0.569  1.00  0.00    -0.233 NA
HETATM   18 CL1  UNL     1       6.692   1.912  -1.017  1.00  0.00    -0.024 Cl
HETATM   19  H1  UNL     1       6.415  -0.208  -0.219  1.00  0.00     0.141 HD
ENDBRANCH  14  17
ENDBRANCH  10  11
ENDBRANCH   1  10
BRANCH   8  20
HETATM   20  N6  UNL     1      -2.359   0.128  -0.262  1.00  0.00    -0.339 N 
HETATM   21  H12 UNL     1      -1.587   0.776  -0.489  1.00  0.00     0.167 HD
BRANCH  20  22
HETATM   22  C10 UNL     1      -3.545   0.905  -0.171  1.00  0.00     0.035 A 
HETATM   23  C11 UNL     1      -4.668   0.487   0.515  1.00  0.00     0.029 A 
HETATM   24  C12 UNL     1      -5.819   1.213   0.596  1.00  0.00     0.004 A 
HETATM   25  C13 UNL     1      -5.941   2.432  -0.010  1.00  0.00     0.024 A 
HETATM   26  C14 UNL     1      -4.866   2.909  -0.707  1.00  0.00     0.036 A 
HETATM   27 CL2  UNL     1      -4.910   4.468  -1.530  1.00  0.00    -0.084 Cl
HETATM   28  C15 UNL     1      -3.730   2.138  -0.758  1.00  0.00     0.053 A 
ENDBRANCH  20  22
ENDBRANCH   8  20
TORSDOF 5
