REMARK  6 active torsions:
REMARK  status: ('A' for Active; 'I' for Inactive)
REMARK    1  A    between atoms: C5_5  and  N1_6 
REMARK    2  A    between atoms: N1_6  and  C6_7 
REMARK    3  A    between atoms: C10_14  and  C11_15 
REMARK    4  A    between atoms: C11_15  and  N5_16 
REMARK    5  A    between atoms: C14_19  and  N6_20 
REMARK    6  A    between atoms: C16_22  and  N7_23 
ROOT
HETATM    1  C6  UNL     1       1.505  -0.666   2.046  1.00  0.00     0.159 A 
HETATM    2  N2  UNL     1       2.409  -0.685   3.063  1.00  0.00    -0.220 NA
HETATM    3  C7  UNL     1       2.471  -1.823   3.814  1.00  0.00     0.258 A 
HETATM    4  N3  UNL     1       1.663  -2.852   3.532  1.00  0.00    -0.161 NA
HETATM    5  N4  UNL     1       0.788  -2.812   2.537  1.00  0.00    -0.240 N 
HETATM    6  C8  UNL     1      -0.108  -3.727   2.100  1.00  0.00     0.119 A 
HETATM    7  C9  UNL     1      -0.760  -3.140   1.029  1.00  0.00     0.030 A 
HETATM    8  C10 UNL     1      -0.281  -1.854   0.785  1.00  0.00     0.004 A 
HETATM    9  C17 UNL     1       0.671  -1.737   1.763  1.00  0.00     0.112 A 
ENDROOT
BRANCH   8  10
HETATM   10  C11 UNL     1      -0.754  -0.961  -0.269  1.00  0.00     0.316 C 
BRANCH  10  11
HETATM   11  N5  UNL     1      -1.610   0.105   0.214  1.00  0.00     0.126 N 
HETATM   12  C12 UNL     1      -2.752  -0.358   0.922  1.00  0.00     0.277 C 
HETATM   13  C13 UNL     1      -4.072  -0.299   0.282  1.00  0.00     0.055 C 
HETATM   14  C14 UNL     1      -4.182   0.513  -0.978  1.00  0.00     0.079 C 
HETATM   15  C15 UNL     1      -2.905   0.583  -1.761  1.00  0.00     0.092 C 
HETATM   16  C16 UNL     1      -1.860   1.104  -0.782  1.00  0.00     0.453 C 
BRANCH  14  17
HETATM   17  N6  UNL     1      -5.287   0.043  -1.794  1.00  0.00    -0.426 N 
HETATM   18  H17 UNL     1      -5.302   0.461  -2.729  1.00  0.00     0.150 HD
HETATM   19  H18 UNL     1      -5.475  -0.957  -1.710  1.00  0.00     0.150 HD
ENDBRANCH  14  17
BRANCH  16  20
HETATM   20  N7  UNL     1      -2.441   2.266  -0.126  1.00  0.00     0.112 N 
HETATM   21  H22 UNL     1      -1.687   2.880   0.257  1.00  0.00     0.315 HD
HETATM   22  H23 UNL     1      -3.025   1.997   0.691  1.00  0.00     0.315 HD
ENDBRANCH  16  20
ENDBRANCH  10  11
ENDBRANCH   8  10
BRANCH   1  23
HETATM   23  N1  UNL     1       1.454   0.538   1.272  1.00  0.00    -0.339 N 
HETATM   24  H6  UNL     1       0.708   1.249   1.443  1.00  0.00     0.167 HD
BRANCH  23  25
HETATM   25  C5  UNL     1       2.438   0.777   0.242  1.00  0.00     0.033 A 
HETATM   26  C4  UNL     1       2.396   1.874  -0.590  1.00  0.00     0.030 A 
HETATM   27  C3  UNL     1       3.396   2.047  -1.554  1.00  0.00     0.009 A 
HETATM   28  C2  UNL     1       4.419   1.106  -1.658  1.00  0.00    -0.062 A 
HETATM   29  C1  UNL     1       5.397   1.467  -2.743  1.00  0.00     0.048 C 
HETATM   30  C19 UNL     1       4.456   0.015  -0.826  1.00  0.00     0.009 A 
HETATM   31  C18 UNL     1       3.473  -0.155   0.122  1.00  0.00     0.030 A 
ENDBRANCH  23  25
ENDBRANCH   1  23
TORSDOF 6
