REMARK  5 active torsions:
REMARK  status: ('A' for Active; 'I' for Inactive)
REMARK    1  A    between atoms: C5_7  and  N1_8 
REMARK    2  A    between atoms: N1_8  and  C6_9 
REMARK    3  A    between atoms: N4_13  and  C8_14 
REMARK    4  A    between atoms: C9_15  and  N5_16 
REMARK    5  A    between atoms: N5_16  and  C10_17 
ROOT
HETATM    1  C6  UNL     1       2.280  -0.077  -0.105  1.00  0.00     0.125 A 
HETATM    2  N2  UNL     1       2.376   0.899  -0.963  1.00  0.00    -0.225 NA
HETATM    3  C7  UNL     1       1.342   1.072  -1.924  1.00  0.00     0.257 A 
HETATM    4  N3  UNL     1       0.321   0.279  -1.954  1.00  0.00    -0.166 NA
HETATM    5  N4  UNL     1       0.180  -0.776  -1.056  1.00  0.00    -0.272 N 
HETATM    6  C14 UNL     1       1.156  -1.043  -0.047  1.00  0.00     0.229 A 
ENDROOT
BRANCH   5   7
HETATM    7  C8  UNL     1      -0.970  -1.605  -1.154  1.00  0.00     0.129 C 
HETATM    8  C9  UNL     1      -2.220  -1.385  -0.815  1.00  0.00     0.103 C 
BRANCH   8   9
HETATM    9  N5  UNL     1      -2.580  -0.135  -0.246  1.00  0.00    -0.369 N 
HETATM   10  H7  UNL     1      -1.844   0.428   0.233  1.00  0.00     0.161 HD
BRANCH   9  11
HETATM   11  C10 UNL     1      -4.004   0.169  -0.438  1.00  0.00     0.322 C 
HETATM   12  C11 UNL     1      -4.252   1.509   0.207  1.00  0.00     0.087 C 
HETATM   13  C12 UNL     1      -5.737   1.801   0.276  1.00  0.00     0.275 C 
HETATM   14  N6  UNL     1      -6.475   0.704   0.846  1.00  0.00     0.111 N 
HETATM   15  C13 UNL     1      -5.653  -0.411   1.204  1.00  0.00     0.539 C 
HETATM   16  H13 UNL     1      -6.950   1.041   1.718  1.00  0.00     0.318 HD
HETATM   17  N7  UNL     1      -4.833  -0.885   0.124  1.00  0.00     0.134 N 
HETATM   18  H16 UNL     1      -4.188  -1.601   0.533  1.00  0.00     0.320 HD
ENDBRANCH   9  11
ENDBRANCH   8   9
ENDBRANCH   5   7
BRANCH   1  19
HETATM   19  N1  UNL     1       3.356  -0.174   0.816  1.00  0.00    -0.343 N 
HETATM   20  H3  UNL     1       3.118  -0.425   1.825  1.00  0.00     0.167 HD
BRANCH  19  21
HETATM   21  C5  UNL     1       4.709   0.031   0.503  1.00  0.00     0.036 A 
HETATM   22  C4  UNL     1       5.692  -0.057   1.499  1.00  0.00     0.053 A 
HETATM   23  C3  UNL     1       7.028   0.125   1.277  1.00  0.00     0.037 A 
HETATM   24  C2  UNL     1       7.485   0.413   0.015  1.00  0.00     0.048 A 
HETATM   25 CL2  UNL     1       8.166  -0.010   2.601  1.00  0.00    -0.084 Cl
HETATM   26  C1  UNL     1       6.561   0.513  -1.009  1.00  0.00     0.037 A 
HETATM   27 CL1  UNL     1       7.136   0.878  -2.606  1.00  0.00    -0.084 Cl
HETATM   28  C15 UNL     1       5.225   0.318  -0.719  1.00  0.00     0.053 A 
ENDBRANCH  19  21
ENDBRANCH   1  19
TORSDOF 5
