REMARK  3 active torsions:
REMARK  status: ('A' for Active; 'I' for Inactive)
REMARK    1  A    between atoms: C2_2  and  C3_3 
REMARK    2  A    between atoms: N1_6  and  C6_7 
REMARK    3  A    between atoms: C14_19  and  N6_20 
ROOT
HETATM    1  C6  UNL     1       0.022  -0.518  -1.097  1.00  0.00     0.114 C 
HETATM    2  N2  UNL     1      -0.280  -1.672  -1.544  1.00  0.00    -0.117 NA
HETATM    3  C7  UNL     1       0.632  -2.755  -1.663  1.00  0.00     0.223 A 
HETATM    4  N3  UNL     1      -0.567  -3.037  -1.458  1.00  0.00    -0.204 N 
HETATM    5  N4  UNL     1      -1.233  -4.215  -1.314  1.00  0.00    -0.294 N 
HETATM    6  C8  UNL     1      -2.102  -3.349  -0.561  1.00  0.00     0.105 C 
HETATM    7  C9  UNL     1      -2.994  -2.386  -0.610  1.00  0.00    -0.007 C 
HETATM    8  C10 UNL     1      -3.985  -1.357  -0.192  1.00  0.00     0.048 C 
HETATM    9  C11 UNL     1      -3.447  -0.016  -0.729  1.00  0.00     0.121 C 
HETATM   10  N5  UNL     1      -2.150   0.167  -0.181  1.00  0.00    -0.401 N 
HETATM   11  C12 UNL     1      -2.077   0.604   1.158  1.00  0.00     0.119 C 
HETATM   12  C13 UNL     1      -1.740   2.058   1.327  1.00  0.00     0.055 C 
HETATM   13  C14 UNL     1      -1.517   2.672  -0.050  1.00  0.00     0.221 C 
HETATM   14  C15 UNL     1      -0.438   1.818  -0.701  1.00  0.00     0.067 C 
HETATM   15  C16 UNL     1      -1.086   0.493  -1.047  1.00  0.00     0.146 C 
HETATM   16  H8  UNL     1      -1.748  -5.100  -1.197  1.00  0.00     0.187 HD
ENDROOT
BRANCH   1  17
HETATM   17  N1  UNL     1       1.348  -0.219  -0.667  1.00  0.00    -0.323 N 
HETATM   18  C5  UNL     1       2.385   0.466  -1.360  1.00  0.00     0.110 C 
HETATM   19  C4  UNL     1       3.408   0.852  -0.671  1.00  0.00    -0.002 C 
HETATM   20  C3  UNL     1       3.778   0.209   0.400  1.00  0.00    -0.045 C 
HETATM   21  C18 UNL     1       2.790  -0.514   1.222  1.00  0.00     0.025 C 
HETATM   22  C17 UNL     1       1.584  -0.715   0.667  1.00  0.00     0.098 C 
BRANCH  20  23
HETATM   23  C2  UNL     1       5.184   0.167   0.846  1.00  0.00     0.035 C 
HETATM   24  C1  UNL     1       5.424   0.731   2.199  1.00  0.00     0.010 C 
ENDBRANCH  20  23
ENDBRANCH   1  17
BRANCH  13  25
HETATM   25  N6  UNL     1      -1.098   4.041   0.086  1.00  0.00     0.083 N 
HETATM   26  H20 UNL     1      -1.950   4.614   0.309  1.00  0.00     0.313 HD
HETATM   27  H21 UNL     1      -0.696   4.409  -0.793  1.00  0.00     0.313 HD
ENDBRANCH  13  25
TORSDOF 3
