REMARK  5 active torsions:
REMARK  status: ('A' for Active; 'I' for Inactive)
REMARK    1  A    between atoms: O1_2  and  C2_3 
REMARK    2  A    between atoms: C6_7  and  S1_8 
REMARK    3  A    between atoms: S1_8  and  O2_9 
REMARK    4  A    between atoms: C10_14  and  N2_15 
REMARK    5  A    between atoms: N2_15  and  C11_16 
ROOT
HETATM    1  C2  UNL     1      -4.597  -0.023   0.472  1.00  0.00     0.072 A 
HETATM    2  C3  UNL     1      -3.503  -0.378   1.277  1.00  0.00     0.074 A 
HETATM    3  C4  UNL     1      -2.203  -0.133   0.876  1.00  0.00     0.090 A 
HETATM    4  C5  UNL     1      -1.913   0.472  -0.330  1.00  0.00     0.013 A 
HETATM    5  C6  UNL     1      -2.996   0.828  -1.135  1.00  0.00     0.041 A 
HETATM    6  C7  UNL     1      -4.285   0.578  -0.726  1.00  0.00     0.058 A 
HETATM    7  C8  UNL     1      -0.713   0.879  -1.066  1.00  0.00     0.163 C 
HETATM    8  N1  UNL     1       0.508   0.247  -0.677  1.00  0.00    -0.379 N 
HETATM    9  C9  UNL     1       0.804  -0.696   0.334  1.00  0.00     0.129 A 
HETATM   10  C10 UNL     1       2.015  -1.248   0.068  1.00  0.00     0.160 A 
HETATM   11  N3  UNL     1       2.475  -2.186   0.924  1.00  0.00    -0.222 NA
HETATM   12  C17 UNL     1       1.742  -2.544   1.994  1.00  0.00     0.238 A 
HETATM   13  N4  UNL     1       0.521  -2.005   2.287  1.00  0.00    -0.215 NA
HETATM   14  C18 UNL     1       0.046  -1.056   1.429  1.00  0.00     0.202 A 
HETATM   15  O3  UNL     1      -1.200  -0.526   1.752  1.00  0.00    -0.289 OA
HETATM   16  H9  UNL     1       1.317   0.548  -1.259  1.00  0.00     0.160 HD
ENDROOT
BRANCH  10  17
HETATM   17  N2  UNL     1       2.892  -0.950  -1.017  1.00  0.00    -0.339 N 
HETATM   18  H10 UNL     1       2.842  -1.243  -2.033  1.00  0.00     0.167 HD
BRANCH  17  19
HETATM   19  C11 UNL     1       4.012  -0.127  -0.676  1.00  0.00     0.033 A 
HETATM   20  C12 UNL     1       4.217   0.337   0.601  1.00  0.00     0.029 A 
HETATM   21  C13 UNL     1       5.289   1.122   0.986  1.00  0.00     0.002 A 
HETATM   22  C14 UNL     1       6.225   1.473   0.040  1.00  0.00     0.000 A 
HETATM   23  C15 UNL     1       6.085   1.044  -1.260  1.00  0.00     0.002 A 
HETATM   24  C16 UNL     1       4.984   0.254  -1.597  1.00  0.00     0.029 A 
ENDBRANCH  17  19
ENDBRANCH  10  17
BRANCH   5  25
HETATM   25  S1  UNL     1      -2.879   1.625  -2.754  1.00  0.00     0.026 SA
BRANCH  25  26
HETATM   26  O2  UNL     1      -2.798   0.331  -3.898  1.00  0.00    -0.325 OA
HETATM   27  H5  UNL     1      -3.691  -0.124  -3.965  1.00  0.00     0.228 HD
ENDBRANCH  25  26
ENDBRANCH   5  25
BRANCH   1  28
HETATM   28  O1  UNL     1      -5.775  -0.370   1.087  1.00  0.00    -0.356 OA
HETATM   29  C1  UNL     1      -7.006  -0.117   0.468  1.00  0.00     0.210 C 
ENDBRANCH   1  28
TORSDOF 5
