REMARK  2 active torsions:
REMARK  status: ('A' for Active; 'I' for Inactive)
REMARK    1  A    between atoms: N1_6  and  C6_7 
REMARK    2  A    between atoms: C10_14  and  C11_15 
ROOT
HETATM    1  C6  UNL     1      -1.047   1.551  -0.813  1.00  0.00     0.157 A 
HETATM    2  N2  UNL     1      -2.042   2.472  -0.987  1.00  0.00    -0.220 NA
HETATM    3  C7  UNL     1      -1.727   3.720  -1.384  1.00  0.00     0.258 A 
HETATM    4  N3  UNL     1      -0.434   4.019  -1.595  1.00  0.00    -0.161 NA
HETATM    5  N4  UNL     1       0.541   3.151  -1.434  1.00  0.00    -0.240 N 
HETATM    6  C8  UNL     1       1.873   3.235  -1.574  1.00  0.00     0.119 A 
HETATM    7  C9  UNL     1       2.370   1.995  -1.251  1.00  0.00     0.029 A 
HETATM    8  C10 UNL     1       1.333   1.131  -0.906  1.00  0.00    -0.018 A 
HETATM    9  C16 UNL     1       0.235   1.915  -1.042  1.00  0.00     0.110 A 
ENDROOT
BRANCH   1  10
HETATM   10  N1  UNL     1      -1.645   0.318  -0.431  1.00  0.00    -0.360 N 
HETATM   11  C5  UNL     1      -1.980  -1.006  -0.957  1.00  0.00     0.151 C 
HETATM   12  C4  UNL     1      -1.729  -2.090   0.024  1.00  0.00    -0.011 C 
HETATM   13  C3  UNL     1      -2.118  -2.008   1.290  1.00  0.00    -0.023 C 
HETATM   14  C2  UNL     1      -2.805  -0.705   1.512  1.00  0.00     0.022 C 
HETATM   15  C1  UNL     1      -4.233  -0.813   1.064  1.00  0.00     0.016 C 
HETATM   16  C17 UNL     1      -2.054   0.451   0.958  1.00  0.00     0.133 C 
ENDBRANCH   1  10
BRANCH   8  17
HETATM   17  C11 UNL     1       1.471  -0.270  -0.506  1.00  0.00     0.049 C 
HETATM   18  C12 UNL     1       1.473  -0.381   1.010  1.00  0.00     0.013 C 
HETATM   19  C13 UNL     1       2.704  -1.065   1.544  1.00  0.00     0.031 C 
HETATM   20  C14 UNL     1       3.069  -2.301   0.767  1.00  0.00     0.269 C 
HETATM   21  N5  UNL     1       2.988  -2.113  -0.663  1.00  0.00     0.084 N 
HETATM   22  C15 UNL     1       2.856  -0.716  -1.023  1.00  0.00     0.279 C 
HETATM   23  H19 UNL     1       3.872  -2.460  -1.139  1.00  0.00     0.315 HD
ENDBRANCH   8  17
TORSDOF 2
