REMARK  2 active torsions:
REMARK  status: ('A' for Active; 'I' for Inactive)
REMARK    1  A    between atoms: C4_4  and  C5_5 
REMARK    2  A    between atoms: C12_16  and  N5_17 
ROOT
HETATM    1  C5  UNL     1       1.212   0.518   0.489  1.00  0.00     0.101 C 
HETATM    2  N1  UNL     1       1.527   0.960   1.701  1.00  0.00    -0.158 NA
HETATM    3  N2  UNL     1       0.834   1.738   2.609  1.00  0.00    -0.220 N 
HETATM    4  N3  UNL     1       0.010   2.819   2.254  1.00  0.00    -0.295 N 
HETATM    5  C6  UNL     1      -0.905   2.927   1.146  1.00  0.00     0.116 C 
HETATM    6  C7  UNL     1      -1.002   2.088   0.088  1.00  0.00    -0.027 C 
HETATM    7  C8  UNL     1      -2.022   2.379  -0.952  1.00  0.00     0.071 C 
HETATM    8  C9  UNL     1      -3.012   1.296  -1.202  1.00  0.00     0.277 C 
HETATM    9  N4  UNL     1      -2.645  -0.054  -1.180  1.00  0.00     0.092 N 
HETATM   10  C10 UNL     1      -2.730  -0.716   0.100  1.00  0.00     0.275 C 
HETATM   11  C11 UNL     1      -1.814  -1.920   0.262  1.00  0.00     0.070 C 
HETATM   12  C12 UNL     1      -0.307  -1.474   0.208  1.00  0.00     0.251 C 
HETATM   13  C13 UNL     1      -0.502  -0.192  -0.505  1.00  0.00    -0.006 C 
HETATM   14  C14 UNL     1      -0.087   0.911   0.043  1.00  0.00     0.009 C 
HETATM   15  C15 UNL     1      -1.331  -0.329  -1.773  1.00  0.00     0.309 C 
HETATM   16  H4  UNL     1       0.883   1.574   3.611  1.00  0.00     0.210 HD
HETATM   17  H5  UNL     1      -0.038   3.698   2.778  1.00  0.00     0.187 HD
ENDROOT
BRANCH   1  18
HETATM   18  C4  UNL     1       2.108  -0.293  -0.295  1.00  0.00     0.020 A 
HETATM   19  C3  UNL     1       2.215  -0.873  -1.464  1.00  0.00     0.028 A 
HETATM   20  C2  UNL     1       3.452  -1.608  -1.679  1.00  0.00    -0.021 A 
HETATM   21  C1  UNL     1       3.734  -2.253  -2.795  1.00  0.00     0.025 C 
HETATM   22  C17 UNL     1       4.129  -1.385  -0.398  1.00  0.00     0.066 A 
HETATM   23  C16 UNL     1       3.369  -0.642   0.384  1.00  0.00     0.069 A 
HETATM   24 CL2  UNL     1       5.718  -2.103  -0.158  1.00  0.00    -0.082 Cl
HETATM   25 CL1  UNL     1       4.011  -0.261   1.977  1.00  0.00    -0.082 Cl
ENDBRANCH   1  18
BRANCH  12  26
HETATM   26  N5  UNL     1       0.062  -1.304   1.592  1.00  0.00     0.087 N 
HETATM   27  H16 UNL     1       0.523  -2.173   1.902  1.00  0.00     0.313 HD
HETATM   28  H17 UNL     1      -0.744  -1.092   2.186  1.00  0.00     0.313 HD
ENDBRANCH  12  26
TORSDOF 2
