REMARK  4 active torsions:
REMARK  status: ('A' for Active; 'I' for Inactive)
REMARK    1  A    between atoms: O1_2  and  C2_3 
REMARK    2  A    between atoms: C8_13  and  N4_14 
REMARK    3  A    between atoms: N4_14  and  C9_15 
REMARK    4  A    between atoms: C18_26  and  O3_27 
ROOT
HETATM    1  C2  UNL     1      -4.766   0.820   1.110  1.00  0.00     0.148 C 
HETATM    2  C3  UNL     1      -3.625   0.211   0.822  1.00  0.00     0.021 A 
HETATM    3  C4  UNL     1      -2.440   0.551   1.592  1.00  0.00     0.051 A 
HETATM    4  C5  UNL     1      -1.326  -0.085   1.266  1.00  0.00     0.081 A 
HETATM    5  O2  UNL     1      -0.197   0.243   2.002  1.00  0.00    -0.306 OA
HETATM    6  C6  UNL     1      -0.207   0.819   3.243  1.00  0.00     0.254 C 
HETATM    7  N1  UNL     1       0.922   1.379   3.488  1.00  0.00    -0.255 NA
HETATM    8  C7  UNL     1       2.029   1.381   2.557  1.00  0.00     0.324 C 
HETATM    9  N2  UNL     1       1.633   1.988   1.316  1.00  0.00    -0.169 NA
HETATM   10  N3  UNL     1       1.666   1.417   0.185  1.00  0.00    -0.134 NA
HETATM   11  C8  UNL     1       2.105   0.086   0.006  1.00  0.00     0.165 C 
HETATM   12  C15 UNL     1       1.188  -0.772  -0.435  1.00  0.00     0.136 C 
HETATM   13  N5  UNL     1      -0.190  -0.736  -0.800  1.00  0.00    -0.382 N 
HETATM   14  C16 UNL     1      -1.160  -1.104   0.203  1.00  0.00     0.164 A 
HETATM   15  C17 UNL     1      -2.450  -1.345  -0.492  1.00  0.00     0.042 A 
HETATM   16  C18 UNL     1      -3.611  -0.770  -0.249  1.00  0.00     0.079 A 
HETATM   17  H15 UNL     1      -0.429  -0.441  -1.786  1.00  0.00     0.160 HD
ENDROOT
BRANCH  11  18
HETATM   18  N4  UNL     1       3.356  -0.562   0.200  1.00  0.00    -0.338 N 
HETATM   19  H9  UNL     1       3.437  -1.306   0.953  1.00  0.00     0.167 HD
BRANCH  18  20
HETATM   20  C9  UNL     1       4.550  -0.296  -0.549  1.00  0.00     0.035 A 
HETATM   21  C10 UNL     1       5.741  -0.957  -0.318  1.00  0.00     0.029 A 
HETATM   22  C11 UNL     1       6.859  -0.680  -1.048  1.00  0.00     0.004 A 
HETATM   23  C12 UNL     1       6.858   0.271  -2.051  1.00  0.00     0.019 A 
HETATM   24  C13 UNL     1       5.672   0.950  -2.304  1.00  0.00     0.013 A 
HETATM   25 BR1  UNL     1       5.584   2.285  -3.678  1.00  0.00    -0.051 Br
HETATM   26  C14 UNL     1       4.539   0.657  -1.550  1.00  0.00     0.048 A 
ENDBRANCH  18  20
ENDBRANCH  11  18
BRANCH  16  27
HETATM   27  O3  UNL     1      -4.735  -1.106  -0.993  1.00  0.00    -0.355 OA
HETATM   28  C19 UNL     1      -4.800  -2.331  -1.693  1.00  0.00     0.210 C 
ENDBRANCH  16  27
BRANCH   1  29
HETATM   29  O1  UNL     1      -6.021   0.701   0.561  1.00  0.00    -0.367 OA
HETATM   30  C1  UNL     1      -6.462   1.714  -0.325  1.00  0.00     0.208 C 
ENDBRANCH   1  29
TORSDOF 4
