REMARK  6 active torsions:
REMARK  status: ('A' for Active; 'I' for Inactive)
REMARK    1  A    between atoms: O1_2  and  C2_3 
REMARK    2  A    between atoms: C5_6  and  N1_7 
REMARK    3  A    between atoms: N1_7  and  C6_8 
REMARK    4  A    between atoms: C10_15  and  C11_16 
REMARK    5  A    between atoms: C11_16  and  N5_17 
REMARK    6  A    between atoms: C15_21  and  N6_22 
ROOT
HETATM    1  C6  UNL     1       0.442  -1.521   0.595  1.00  0.00     0.159 A 
HETATM    2  N2  UNL     1       1.409  -1.877   1.455  1.00  0.00    -0.220 NA
HETATM    3  C7  UNL     1       1.237  -2.722   2.457  1.00  0.00     0.258 A 
HETATM    4  N3  UNL     1       0.011  -3.232   2.590  1.00  0.00    -0.161 NA
HETATM    5  N4  UNL     1      -0.996  -2.933   1.786  1.00  0.00    -0.240 N 
HETATM    6  C8  UNL     1      -2.267  -3.355   1.788  1.00  0.00     0.119 A 
HETATM    7  C9  UNL     1      -2.879  -2.715   0.718  1.00  0.00     0.030 A 
HETATM    8  C10 UNL     1      -1.966  -1.887   0.049  1.00  0.00     0.004 A 
HETATM    9  C16 UNL     1      -0.810  -2.060   0.755  1.00  0.00     0.112 A 
ENDROOT
BRANCH   1  10
HETATM   10  N1  UNL     1       0.801  -0.604  -0.424  1.00  0.00    -0.339 N 
HETATM   11  H6  UNL     1       0.360  -0.164  -1.252  1.00  0.00     0.167 HD
BRANCH  10  12
HETATM   12  C5  UNL     1       2.107  -0.020  -0.465  1.00  0.00     0.035 A 
HETATM   13  C4  UNL     1       2.632   0.331   0.771  1.00  0.00     0.032 A 
HETATM   14  C3  UNL     1       3.892   0.882   0.881  1.00  0.00     0.041 A 
HETATM   15  C2  UNL     1       4.696   1.114  -0.208  1.00  0.00     0.090 A 
HETATM   16  C18 UNL     1       4.166   0.760  -1.455  1.00  0.00     0.069 A 
HETATM   17  C17 UNL     1       2.905   0.209  -1.573  1.00  0.00     0.056 A 
HETATM   18 CL1  UNL     1       5.013   0.964  -2.987  1.00  0.00    -0.081 Cl
BRANCH  15  19
HETATM   19  O1  UNL     1       5.966   1.649  -0.286  1.00  0.00    -0.354 OA
HETATM   20  C1  UNL     1       6.752   2.094   0.776  1.00  0.00     0.210 C 
ENDBRANCH  15  19
ENDBRANCH  10  12
ENDBRANCH   1  10
BRANCH   8  21
HETATM   21  C11 UNL     1      -2.202  -1.037  -1.122  1.00  0.00     0.316 C 
BRANCH  21  22
HETATM   22  N5  UNL     1      -2.300   0.357  -0.708  1.00  0.00     0.126 N 
HETATM   23  C12 UNL     1      -2.531   1.186  -1.877  1.00  0.00     0.276 C 
HETATM   24  C13 UNL     1      -2.827   2.518  -1.209  1.00  0.00     0.034 C 
HETATM   25  C14 UNL     1      -3.622   2.087   0.022  1.00  0.00     0.070 C 
HETATM   26  C15 UNL     1      -3.560   0.574   0.003  1.00  0.00     0.451 C 
BRANCH  26  27
HETATM   27  N6  UNL     1      -4.676   0.074  -0.775  1.00  0.00     0.112 N 
HETATM   28  H19 UNL     1      -5.231  -0.662  -0.301  1.00  0.00     0.315 HD
HETATM   29  H20 UNL     1      -5.260   0.844  -1.176  1.00  0.00     0.315 HD
ENDBRANCH  26  27
ENDBRANCH  21  22
ENDBRANCH   8  21
TORSDOF 6
