REMARK  7 active torsions:
REMARK  status: ('A' for Active; 'I' for Inactive)
REMARK    1  A    between atoms: C1_2  and  C2_3 
REMARK    2  A    between atoms: C2_3  and  C3_4 
REMARK    3  A    between atoms: C3_4  and  N1_5 
REMARK    4  A    between atoms: N1_5  and  C4_6 
REMARK    5  A    between atoms: C4_6  and  C5_7 
REMARK    6  A    between atoms: C9_14  and  N5_15 
REMARK    7  A    between atoms: N5_15  and  C10_16 
ROOT
HETATM    1  C5  UNL     1      -0.074  -1.394   0.150  1.00  0.00     0.004 A 
HETATM    2  C6  UNL     1       0.193  -2.698   0.583  1.00  0.00     0.030 A 
HETATM    3  C7  UNL     1      -1.044  -3.296   0.596  1.00  0.00     0.119 A 
HETATM    4  N2  UNL     1      -1.969  -2.425   0.205  1.00  0.00    -0.240 N 
HETATM    5  N3  UNL     1      -3.239  -2.699   0.116  1.00  0.00    -0.161 NA
HETATM    6  C8  UNL     1      -4.184  -1.849  -0.270  1.00  0.00     0.258 A 
HETATM    7  N4  UNL     1      -3.671  -0.664  -0.561  1.00  0.00    -0.221 NA
HETATM    8  C9  UNL     1      -2.367  -0.369  -0.474  1.00  0.00     0.155 A 
HETATM    9  C15 UNL     1      -1.403  -1.248  -0.076  1.00  0.00     0.111 A 
ENDROOT
BRANCH   8  10
HETATM   10  N5  UNL     1      -1.885   0.895  -0.791  1.00  0.00    -0.363 N 
HETATM   11  H13 UNL     1      -0.933   1.298  -0.815  1.00  0.00     0.162 HD
BRANCH  10  12
HETATM   12  C10 UNL     1      -1.940   2.390  -1.245  1.00  0.00     0.127 A 
HETATM   13  C11 UNL     1      -2.566   2.998  -0.606  1.00  0.00    -0.039 A 
HETATM   14  C12 UNL     1      -3.055   3.443  -0.125  1.00  0.00    -0.036 A 
HETATM   15  C14 UNL     1      -3.902   2.396  -0.426  1.00  0.00     0.090 A 
HETATM   16  C13 UNL     1      -3.695   3.993   0.484  1.00  0.00     0.100 A 
HETATM   17 CL1  UNL     1      -5.323   3.658   0.952  1.00  0.00    -0.111 Cl
ENDBRANCH  10  12
ENDBRANCH   8  10
BRANCH   1  18
HETATM   18  C4  UNL     1       0.887  -0.285  -0.056  1.00  0.00     0.310 C 
BRANCH  18  19
HETATM   19  N1  UNL     1       2.208  -0.851   0.300  1.00  0.00     0.087 N 
HETATM   20  H7  UNL     1       2.401  -1.717  -0.211  1.00  0.00     0.316 HD
BRANCH  19  21
HETATM   21  C3  UNL     1       3.198   0.197   0.119  1.00  0.00     0.272 C 
BRANCH  21  22
HETATM   22  C2  UNL     1       4.563  -0.325   0.467  1.00  0.00     0.061 C 
BRANCH  22  23
HETATM   23  C1  UNL     1       5.564   0.782   0.269  1.00  0.00     0.223 C 
HETATM   24  F1  UNL     1       5.549   1.200  -1.039  1.00  0.00    -0.255 F 
ENDBRANCH  22  23
ENDBRANCH  21  22
ENDBRANCH  19  21
ENDBRANCH  18  19
ENDBRANCH   1  18
TORSDOF 7
