REMARK  5 active torsions:
REMARK  status: ('A' for Active; 'I' for Inactive)
REMARK    1  A    between atoms: N1_1  and  C1_2 
REMARK    2  A    between atoms: N2_5  and  C4_6 
REMARK    3  A    between atoms: C4_6  and  C5_7 
REMARK    4  A    between atoms: C9_14  and  N6_15 
REMARK    5  A    between atoms: N6_15  and  C10_16 
ROOT
HETATM    1  C5  UNL     1      -0.551  -1.541  -1.101  1.00  0.00     0.004 A 
HETATM    2  C6  UNL     1      -1.220  -2.231  -2.125  1.00  0.00     0.030 A 
HETATM    3  C7  UNL     1      -0.381  -2.480  -3.193  1.00  0.00     0.119 A 
HETATM    4  N3  UNL     1       0.797  -1.946  -2.827  1.00  0.00    -0.240 N 
HETATM    5  N4  UNL     1       1.906  -1.952  -3.550  1.00  0.00    -0.161 NA
HETATM    6  C8  UNL     1       3.017  -1.375  -3.044  1.00  0.00     0.258 A 
HETATM    7  N5  UNL     1       2.972  -0.812  -1.827  1.00  0.00    -0.220 NA
HETATM    8  C9  UNL     1       1.858  -0.807  -1.104  1.00  0.00     0.159 A 
HETATM    9  C16 UNL     1       0.720  -1.390  -1.605  1.00  0.00     0.112 A 
ENDROOT
BRANCH   1  10
HETATM   10  C4  UNL     1      -1.125  -1.118   0.169  1.00  0.00     0.313 C 
BRANCH  10  11
HETATM   11  N2  UNL     1      -1.445   0.275   0.290  1.00  0.00     0.092 N 
HETATM   12  C3  UNL     1      -2.012   0.537   1.595  1.00  0.00     0.275 C 
HETATM   13  C2  UNL     1      -3.018   1.661   1.559  1.00  0.00     0.065 C 
HETATM   14  C1  UNL     1      -4.202   1.250   0.739  1.00  0.00     0.221 C 
HETATM   15  C18 UNL     1      -3.727   0.408  -0.425  1.00  0.00     0.065 C 
HETATM   16  C17 UNL     1      -2.308   0.790  -0.722  1.00  0.00     0.275 C 
BRANCH  14  17
HETATM   17  N1  UNL     1      -5.131   0.524   1.582  1.00  0.00     0.083 N 
HETATM   18  H1  UNL     1      -5.780   1.212   2.003  1.00  0.00     0.313 HD
HETATM   19  H2  UNL     1      -5.686  -0.104   0.959  1.00  0.00     0.313 HD
ENDBRANCH  14  17
ENDBRANCH  10  11
ENDBRANCH   1  10
BRANCH   8  20
HETATM   20  N6  UNL     1       1.886  -0.190   0.173  1.00  0.00    -0.339 N 
HETATM   21  H13 UNL     1       1.199   0.017   0.917  1.00  0.00     0.167 HD
BRANCH  20  22
HETATM   22  C10 UNL     1       3.090   0.335   0.732  1.00  0.00     0.036 A 
HETATM   23  C11 UNL     1       3.237   1.442   1.548  1.00  0.00     0.053 A 
HETATM   24  C12 UNL     1       4.408   1.913   2.089  1.00  0.00     0.037 A 
HETATM   25 CL1  UNL     1       4.351   3.356   3.107  1.00  0.00    -0.084 Cl
HETATM   26  C13 UNL     1       5.568   1.235   1.807  1.00  0.00     0.048 A 
HETATM   27  C14 UNL     1       5.515   0.119   1.000  1.00  0.00     0.037 A 
HETATM   28 CL2  UNL     1       7.048  -0.673   0.705  1.00  0.00    -0.084 Cl
HETATM   29  C15 UNL     1       4.308  -0.306   0.486  1.00  0.00     0.053 A 
ENDBRANCH  20  22
ENDBRANCH   8  20
TORSDOF 5
