REMARK  5 active torsions:
REMARK  status: ('A' for Active; 'I' for Inactive)
REMARK    1  A    between atoms: C3_4  and  N1_5 
REMARK    2  A    between atoms: N1_5  and  C4_6 
REMARK    3  A    between atoms: C8_13  and  C9_14 
REMARK    4  A    between atoms: C9_14  and  N5_15 
REMARK    5  A    between atoms: C12_18  and  N6_19 
ROOT
HETATM    1  C4  UNL     1      -2.860  -0.196  -0.753  1.00  0.00     0.311 C 
HETATM    2  N2  UNL     1      -3.214  -0.463  -2.039  1.00  0.00    -0.202 NA
HETATM    3  C5  UNL     1      -2.366   0.137  -3.142  1.00  0.00     0.233 C 
HETATM    4  N3  UNL     1      -0.981   0.621  -3.047  1.00  0.00    -0.238 NA
HETATM    5  C6  UNL     1      -0.539   0.499  -1.624  1.00  0.00     0.295 A 
HETATM    6  C7  UNL     1      -0.221  -0.707  -0.986  1.00  0.00     0.302 A 
HETATM    7  N4  UNL     1      -1.464   0.026  -0.534  1.00  0.00     0.049 N 
HETATM    8  C8  UNL     1      -0.402   0.986  -0.155  1.00  0.00     0.294 A 
ENDROOT
BRANCH   8   9
HETATM    9  C9  UNL     1       0.771   0.628   0.567  1.00  0.00     0.311 C 
BRANCH   9  10
HETATM   10  N5  UNL     1       2.055   1.065   0.119  1.00  0.00     0.090 N 
HETATM   11  C10 UNL     1       2.988   0.959   1.254  1.00  0.00     0.274 C 
HETATM   12  C11 UNL     1       3.692  -0.360   1.331  1.00  0.00     0.065 C 
HETATM   13  C12 UNL     1       4.750  -0.365   0.221  1.00  0.00     0.221 C 
HETATM   14  C13 UNL     1       4.154   0.411  -0.949  1.00  0.00     0.065 C 
HETATM   15  C14 UNL     1       2.620   0.251  -0.910  1.00  0.00     0.274 C 
BRANCH  13  16
HETATM   16  N6  UNL     1       5.929   0.310   0.748  1.00  0.00     0.083 N 
HETATM   17  H16 UNL     1       6.040  -0.008   1.737  1.00  0.00     0.313 HD
HETATM   18  H17 UNL     1       5.727   1.335   0.716  1.00  0.00     0.313 HD
ENDBRANCH  13  16
ENDBRANCH   9  10
ENDBRANCH   8   9
BRANCH   1  19
HETATM   19  N1  UNL     1      -3.581  -0.034   0.439  1.00  0.00    -0.329 N 
HETATM   20  H5  UNL     1      -3.063   0.111   1.324  1.00  0.00     0.168 HD
BRANCH  19  21
HETATM   21  C3  UNL     1      -4.960  -0.091   0.178  1.00  0.00     0.110 C 
HETATM   22  C2  UNL     1      -5.622   0.687   1.046  1.00  0.00     0.023 C 
HETATM   23  C1  UNL     1      -7.106   0.763   0.931  1.00  0.00     0.063 C 
HETATM   24 CL1  UNL     1      -4.903   1.644   2.337  1.00  0.00    -0.088 Cl
ENDBRANCH  19  21
ENDBRANCH   1  19
TORSDOF 5
