REMARK  10 active torsions:
REMARK  status: ('A' for Active; 'I' for Inactive)
REMARK    1  A    between atoms: C2_2  and  N1_3 
REMARK    2  A    between atoms: N1_3  and  C3_4 
REMARK    3  A    between atoms: N1_3  and  C15_22 
REMARK    4  A    between atoms: C3_4  and  C4_5 
REMARK    5  A    between atoms: C5_6  and  N2_7 
REMARK    6  A    between atoms: C7_9  and  N3_10 
REMARK    7  A    between atoms: N3_10  and  C8_11 
REMARK    8  A    between atoms: C15_22  and  C16_23 
REMARK    9  A    between atoms: C16_23  and  C17_24 
REMARK   10  A    between atoms: C17_24  and  N6_25 
ROOT
HETATM    1  N2  UNL     1      -0.848  -0.560  -0.730  1.00  0.00    -0.273 N 
HETATM    2  C6  UNL     1      -1.775  -0.782   0.356  1.00  0.00     0.228 A 
HETATM    3  C7  UNL     1      -3.175  -0.515  -0.082  1.00  0.00     0.125 A 
HETATM    4  N4  UNL     1      -3.481  -0.195  -1.299  1.00  0.00    -0.225 NA
HETATM    5  C14 UNL     1      -2.512  -0.056  -2.321  1.00  0.00     0.257 A 
HETATM    6  N5  UNL     1      -1.258  -0.236  -2.050  1.00  0.00    -0.166 NA
ENDROOT
BRANCH   1   7
HETATM    7  C5  UNL     1       0.575  -0.560  -0.662  1.00  0.00     0.110 C 
HETATM    8  C4  UNL     1       1.032   0.143   0.398  1.00  0.00     0.012 C 
BRANCH   8   9
HETATM    9  C3  UNL     1       2.302   0.532   1.024  1.00  0.00     0.151 C 
BRANCH   9  10
HETATM   10  N1  UNL     1       3.481   0.066   0.328  1.00  0.00    -0.387 N 
BRANCH  10  11
HETATM   11  C2  UNL     1       3.889  -1.284   0.268  1.00  0.00     0.075 C 
HETATM   12  C1  UNL     1       3.544  -2.118   1.201  1.00  0.00     0.029 C 
ENDBRANCH  10  11
BRANCH  10  13
HETATM   13  C15 UNL     1       4.165   1.153  -0.350  1.00  0.00     0.124 C 
BRANCH  13  14
HETATM   14  C16 UNL     1       5.543   0.677  -0.764  1.00  0.00     0.049 C 
BRANCH  14  15
HETATM   15  C17 UNL     1       6.333   0.356   0.491  1.00  0.00     0.268 C 
BRANCH  15  16
HETATM   16  N6  UNL     1       7.644  -0.093   0.109  1.00  0.00     0.078 N 
HETATM   17  H21 UNL     1       7.622  -0.481  -0.854  1.00  0.00     0.312 HD
HETATM   18  H22 UNL     1       8.245   0.784   0.076  1.00  0.00     0.312 HD
ENDBRANCH  15  16
ENDBRANCH  14  15
ENDBRANCH  13  14
ENDBRANCH  10  13
ENDBRANCH   9  10
ENDBRANCH   8   9
ENDBRANCH   1   7
BRANCH   3  19
HETATM   19  N3  UNL     1      -4.201  -0.602   0.934  1.00  0.00    -0.343 N 
HETATM   20  H10 UNL     1      -3.973  -0.921   1.898  1.00  0.00     0.167 HD
BRANCH  19  21
HETATM   21  C8  UNL     1      -5.511  -0.203   0.473  1.00  0.00     0.036 A 
HETATM   22  C9  UNL     1      -5.561   1.198   0.419  1.00  0.00     0.053 A 
HETATM   23  C10 UNL     1      -6.712   1.862   0.011  1.00  0.00     0.037 A 
HETATM   24 CL1  UNL     1      -6.894   3.592  -0.099  1.00  0.00    -0.084 Cl
HETATM   25  C11 UNL     1      -7.824   1.104  -0.346  1.00  0.00     0.048 A 
HETATM   26  C12 UNL     1      -7.752  -0.266  -0.285  1.00  0.00     0.037 A 
HETATM   27 CL2  UNL     1      -9.100  -1.305  -0.715  1.00  0.00    -0.084 Cl
HETATM   28  C13 UNL     1      -6.620  -0.932   0.116  1.00  0.00     0.053 A 
ENDBRANCH  19  21
ENDBRANCH   3  19
TORSDOF 10
