REMARK  6 active torsions:
REMARK  status: ('A' for Active; 'I' for Inactive)
REMARK    1  A    between atoms: O1_2  and  C2_3 
REMARK    2  A    between atoms: C5_6  and  N1_7 
REMARK    3  A    between atoms: N1_7  and  C6_8 
REMARK    4  A    between atoms: C10_15  and  C11_16 
REMARK    5  A    between atoms: C11_16  and  N5_17 
REMARK    6  A    between atoms: C14_20  and  O2_21 
ROOT
HETATM    1  C6  UNL     1       0.753   1.942  -0.209  1.00  0.00     0.159 A 
HETATM    2  N2  UNL     1       1.570   2.763  -0.877  1.00  0.00    -0.220 NA
HETATM    3  C7  UNL     1       1.297   4.001  -1.274  1.00  0.00     0.258 A 
HETATM    4  N3  UNL     1       0.046   4.440  -0.947  1.00  0.00    -0.161 NA
HETATM    5  N4  UNL     1      -0.795   3.664  -0.287  1.00  0.00    -0.240 N 
HETATM    6  C8  UNL     1      -2.044   3.978   0.089  1.00  0.00     0.119 A 
HETATM    7  C9  UNL     1      -2.557   2.881   0.747  1.00  0.00     0.030 A 
HETATM    8  C10 UNL     1      -1.575   1.877   0.762  1.00  0.00     0.004 A 
HETATM    9  C17 UNL     1      -0.493   2.413   0.104  1.00  0.00     0.112 A 
ENDROOT
BRANCH   1  10
HETATM   10  N1  UNL     1       1.170   0.640   0.144  1.00  0.00    -0.339 N 
HETATM   11  H6  UNL     1       0.764  -0.154   0.650  1.00  0.00     0.167 HD
BRANCH  10  12
HETATM   12  C5  UNL     1       2.436   0.084  -0.201  1.00  0.00     0.035 A 
HETATM   13  C4  UNL     1       3.200  -0.867   0.491  1.00  0.00     0.032 A 
HETATM   14  C3  UNL     1       4.394  -1.374   0.102  1.00  0.00     0.041 A 
HETATM   15  C2  UNL     1       4.948  -0.951  -1.068  1.00  0.00     0.090 A 
HETATM   16  C19 UNL     1       4.240  -0.004  -1.809  1.00  0.00     0.069 A 
HETATM   17  C18 UNL     1       3.036   0.482  -1.379  1.00  0.00     0.056 A 
HETATM   18 CL1  UNL     1       5.052   0.470  -3.302  1.00  0.00    -0.081 Cl
BRANCH  15  19
HETATM   19  O1  UNL     1       6.164  -1.469  -1.463  1.00  0.00    -0.354 OA
HETATM   20  C1  UNL     1       6.830  -2.417  -0.682  1.00  0.00     0.210 C 
ENDBRANCH  15  19
ENDBRANCH  10  12
ENDBRANCH   1  10
BRANCH   8  21
HETATM   21  C11 UNL     1      -1.747   0.564   1.388  1.00  0.00     0.313 C 
BRANCH  21  22
HETATM   22  N5  UNL     1      -1.932  -0.515   0.440  1.00  0.00     0.092 N 
HETATM   23  C12 UNL     1      -2.072  -1.742   1.157  1.00  0.00     0.275 C 
HETATM   24  C13 UNL     1      -3.483  -1.894   1.679  1.00  0.00     0.062 C 
HETATM   25  C14 UNL     1      -4.392  -2.122   0.516  1.00  0.00     0.121 C 
HETATM   26  C15 UNL     1      -3.943  -1.394  -0.703  1.00  0.00     0.062 C 
HETATM   27  C16 UNL     1      -3.008  -0.257  -0.480  1.00  0.00     0.275 C 
BRANCH  25  28
HETATM   28  O2  UNL     1      -5.736  -1.850   0.842  1.00  0.00    -0.395 OA
HETATM   29  H17 UNL     1      -6.285  -2.358   0.190  1.00  0.00     0.210 HD
ENDBRANCH  25  28
ENDBRANCH  21  22
ENDBRANCH   8  21
TORSDOF 6
