REMARK  5 active torsions:
REMARK  status: ('A' for Active; 'I' for Inactive)
REMARK    1  A    between atoms: O1_2  and  C2_3 
REMARK    2  A    between atoms: C5_6  and  N1_7 
REMARK    3  A    between atoms: C9_14  and  C10_15 
REMARK    4  A    between atoms: C10_15  and  N5_16 
REMARK    5  A    between atoms: C13_19  and  N6_20 
ROOT
HETATM    1  N1  UNL     1       1.309   1.974   0.251  1.00  0.00    -0.237 N 
HETATM    2  N2  UNL     1       2.043   3.115  -0.175  1.00  0.00    -0.284 N 
HETATM    3  C6  UNL     1       1.768   4.411   0.366  1.00  0.00     0.246 A 
HETATM    4  N3  UNL     1       0.834   4.536   1.257  1.00  0.00    -0.160 NA
HETATM    5  N4  UNL     1       0.089   3.448   1.705  1.00  0.00    -0.225 N 
HETATM    6  C7  UNL     1      -0.910   3.278   2.614  1.00  0.00     0.121 A 
HETATM    7  C8  UNL     1      -1.283   1.938   2.676  1.00  0.00     0.032 A 
HETATM    8  C9  UNL     1      -0.490   1.244   1.773  1.00  0.00     0.019 A 
HETATM    9  C16 UNL     1       0.307   2.211   1.229  1.00  0.00     0.158 A 
HETATM   10  H6  UNL     1       2.816   3.101  -0.892  1.00  0.00     0.188 HD
ENDROOT
BRANCH   8  11
HETATM   11  C10 UNL     1      -0.632  -0.210   1.554  1.00  0.00     0.315 C 
BRANCH  11  12
HETATM   12  N5  UNL     1      -1.447  -0.427   0.386  1.00  0.00     0.092 N 
HETATM   13  C11 UNL     1      -2.732   0.185   0.457  1.00  0.00     0.275 C 
HETATM   14  C12 UNL     1      -3.688  -0.163  -0.610  1.00  0.00     0.065 C 
HETATM   15  C13 UNL     1      -3.622  -1.581  -1.096  1.00  0.00     0.221 C 
HETATM   16  C14 UNL     1      -2.199  -2.026  -1.316  1.00  0.00     0.065 C 
HETATM   17  C15 UNL     1      -1.437  -1.781  -0.068  1.00  0.00     0.275 C 
BRANCH  15  18
HETATM   18  N6  UNL     1      -4.373  -2.457  -0.240  1.00  0.00     0.083 N 
HETATM   19  H17 UNL     1      -5.259  -2.771  -0.688  1.00  0.00     0.313 HD
HETATM   20  H18 UNL     1      -4.637  -1.917   0.614  1.00  0.00     0.313 HD
ENDBRANCH  15  18
ENDBRANCH  11  12
ENDBRANCH   8  11
BRANCH   1  21
HETATM   21  C5  UNL     1       1.743   0.783  -0.385  1.00  0.00     0.060 A 
HETATM   22  C4  UNL     1       3.003   0.457   0.145  1.00  0.00     0.034 A 
HETATM   23  C3  UNL     1       3.713  -0.667  -0.299  1.00  0.00     0.041 A 
HETATM   24  C2  UNL     1       3.181  -1.492  -1.284  1.00  0.00     0.090 A 
HETATM   25  C18 UNL     1       1.945  -1.150  -1.787  1.00  0.00     0.069 A 
HETATM   26  C17 UNL     1       1.239  -0.051  -1.360  1.00  0.00     0.058 A 
HETATM   27 CL1  UNL     1       1.126  -2.082  -3.036  1.00  0.00    -0.081 Cl
BRANCH  24  28
HETATM   28  O1  UNL     1       3.817  -2.621  -1.780  1.00  0.00    -0.354 OA
HETATM   29  C1  UNL     1       5.107  -3.002  -1.273  1.00  0.00     0.210 C 
ENDBRANCH  24  28
ENDBRANCH   1  21
TORSDOF 5
