REMARK  7 active torsions:
REMARK  status: ('A' for Active; 'I' for Inactive)
REMARK    1  A    between atoms: C2_2  and  N1_3 
REMARK    2  A    between atoms: C6_7  and  C7_8 
REMARK    3  A    between atoms: C8_9  and  N2_10 
REMARK    4  A    between atoms: N2_10  and  C9_11 
REMARK    5  A    between atoms: C9_11  and  C10_12 
REMARK    6  A    between atoms: C12_17  and  C13_18 
REMARK    7  A    between atoms: C13_18  and  C14_19 
ROOT
HETATM    1  C10 UNL     1       1.940   0.405  -0.319  1.00  0.00     0.118 C 
HETATM    2  N3  UNL     1       2.465   1.295  -1.163  1.00  0.00    -0.234 NA
HETATM    3  C11 UNL     1       2.552   0.884  -2.523  1.00  0.00     0.194 C 
HETATM    4  N4  UNL     1       3.700   0.305  -2.443  1.00  0.00    -0.206 NA
HETATM    5  N5  UNL     1       4.500   0.196  -1.305  1.00  0.00    -0.233 NA
HETATM    6  C12 UNL     1       5.511   0.128  -0.244  1.00  0.00     0.038 C 
HETATM    7  C15 UNL     1       4.656   0.710   0.526  1.00  0.00     0.105 C 
HETATM    8  C16 UNL     1       4.843   1.117   1.969  1.00  0.00    -0.021 C 
HETATM    9  C17 UNL     1       3.712   1.678   2.482  1.00  0.00    -0.011 C 
HETATM   10  C18 UNL     1       2.320   1.979   1.970  1.00  0.00     0.148 C 
HETATM   11  N6  UNL     1       2.129   1.178   0.809  1.00  0.00    -0.373 N 
HETATM   12  H19 UNL     1       4.881   0.455  -2.283  1.00  0.00     0.259 HD
HETATM   13  H27 UNL     1       2.639   0.266   1.070  1.00  0.00     0.161 HD
ENDROOT
BRANCH   1  14
HETATM   14  C9  UNL     1       1.553  -0.816  -0.981  1.00  0.00     0.197 C 
BRANCH  14  15
HETATM   15  N2  UNL     1       0.418  -0.695  -1.830  1.00  0.00    -0.392 N 
HETATM   16  H15 UNL     1       0.650  -0.582  -2.820  1.00  0.00     0.159 HD
BRANCH  15  17
HETATM   17  C8  UNL     1      -1.000  -0.710  -1.631  1.00  0.00     0.079 C 
HETATM   18  C7  UNL     1      -1.782  -0.915  -0.555  1.00  0.00    -0.004 C 
BRANCH  18  19
HETATM   19  C6  UNL     1      -3.257  -0.924  -0.454  1.00  0.00     0.038 C 
HETATM   20  C5  UNL     1      -3.661  -2.350  -0.018  1.00  0.00     0.012 C 
HETATM   21  C4  UNL     1      -4.690  -2.290   1.082  1.00  0.00     0.031 C 
HETATM   22  C3  UNL     1      -5.733  -1.248   0.797  1.00  0.00     0.272 C 
HETATM   23  N1  UNL     1      -5.203   0.110   0.689  1.00  0.00     0.088 N 
HETATM   24  C19 UNL     1      -3.747   0.112   0.482  1.00  0.00     0.280 C 
BRANCH  23  25
HETATM   25  C2  UNL     1      -5.858   0.785  -0.431  1.00  0.00     0.268 C 
HETATM   26  C1  UNL     1      -5.584   2.252  -0.434  1.00  0.00     0.037 C 
ENDBRANCH  23  25
ENDBRANCH  18  19
ENDBRANCH  15  17
ENDBRANCH  14  15
ENDBRANCH   1  14
BRANCH   6  27
HETATM   27  C13 UNL     1       6.660  -0.516  -0.911  1.00  0.00     0.007 C 
BRANCH  27  28
HETATM   28  C14 UNL     1       7.655  -0.513  -0.002  1.00  0.00     0.215 C 
HETATM   29 CL1  UNL     1       8.703  -0.363   1.338  1.00  0.00    -0.230 Cl
ENDBRANCH  27  28
ENDBRANCH   6  27
TORSDOF 7
