REMARK  4 active torsions:
REMARK  status: ('A' for Active; 'I' for Inactive)
REMARK    1  A    between atoms: B1_1  and  O1_2 
REMARK    2  A    between atoms: O1_2  and  C1_3 
REMARK    3  A    between atoms: C4_6  and  C5_7 
REMARK    4  A    between atoms: C16_23  and  S1_24 
ROOT
HETATM    1  C5  UNL     1      -0.446  -0.625   0.504  1.00  0.00     0.051 C 
HETATM    2  N1  UNL     1       0.253  -1.292   1.437  1.00  0.00    -0.244 NA
HETATM    3  C6  UNL     1      -0.105  -1.357   2.859  1.00  0.00     0.255 C 
HETATM    4  N2  UNL     1      -1.318  -1.015   3.387  1.00  0.00    -0.165 NA
HETATM    5  N3  UNL     1      -2.321  -0.461   2.502  1.00  0.00    -0.262 N 
HETATM    6  C7  UNL     1      -2.958   0.846   2.622  1.00  0.00     0.223 C 
HETATM    7  N4  UNL     1      -3.015   1.481   1.466  1.00  0.00    -0.271 NA
HETATM    8  C8  UNL     1      -2.625   0.780   0.258  1.00  0.00     0.069 C 
HETATM    9  C9  UNL     1      -4.072   0.453  -0.230  1.00  0.00     0.042 C 
HETATM   10  C10 UNL     1      -2.238   1.783  -0.828  1.00  0.00     0.053 C 
HETATM   11  C11 UNL     1      -2.504   1.060  -2.094  1.00  0.00     0.116 C 
HETATM   12  N5  UNL     1      -2.144  -0.296  -2.182  1.00  0.00    -0.420 N 
HETATM   13  C12 UNL     1      -2.121  -1.150  -1.074  1.00  0.00     0.134 C 
HETATM   14  C13 UNL     1      -1.876  -0.461   0.271  1.00  0.00     0.065 C 
HETATM   15  C14 UNL     1      -2.659  -1.319   1.319  1.00  0.00     0.172 C 
HETATM   16  H14 UNL     1      -1.709  -0.629  -3.052  1.00  0.00     0.153 HD
ENDROOT
BRANCH   1  17
HETATM   17  C4  UNL     1       0.541  -0.037  -0.395  1.00  0.00     0.039 C 
HETATM   18  C3  UNL     1       1.844  -0.030  -0.453  1.00  0.00    -0.031 A 
HETATM   19  C2  UNL     1       2.776  -0.672   0.453  1.00  0.00     0.042 A 
HETATM   20  C15 UNL     1       2.501   0.686  -1.528  1.00  0.00     0.026 A 
HETATM   21  C1  UNL     1       4.083  -0.654   0.378  1.00  0.00     0.031 A 
HETATM   22  C17 UNL     1       4.703   0.079  -0.721  1.00  0.00     0.108 A 
HETATM   23  C16 UNL     1       3.808   0.741  -1.657  1.00  0.00    -0.018 A 
BRANCH  21  24
HETATM   24  O1  UNL     1       4.950  -1.269   1.248  1.00  0.00    -0.431 OA
BRANCH  24  25
HETATM   25  B1  UNL     1       5.780  -0.507   2.222  1.00  0.00     0.299 B 
HETATM   26  H1  UNL     1       6.861  -0.201   1.811  1.00  0.00     0.002 HD
HETATM   27  H2  UNL     1       5.257   0.277   2.957  1.00  0.00     0.002 HD
ENDBRANCH  24  25
ENDBRANCH  21  24
BRANCH  23  28
HETATM   28  S1  UNL     1       4.583   1.628  -2.988  1.00  0.00    -0.147 SA
HETATM   29  H20 UNL     1       4.871   0.832  -4.084  1.00  0.00     0.107 HD
ENDBRANCH  23  28
ENDBRANCH   1  17
TORSDOF 4
