REMARK  1 active torsions:
REMARK  status: ('A' for Active; 'I' for Inactive)
REMARK    1  A    between atoms: C15_21  and  O2_22 
ROOT
HETATM    1  C1  UNL     1      -3.211   3.295  -1.380  1.00  0.00     0.000 C 
HETATM    2  O1  UNL     1      -2.464   2.232  -0.797  1.00  0.00     0.000 OA
HETATM    3  C2  UNL     1      -2.989   0.966  -0.668  1.00  0.00    -0.042 A 
HETATM    4  C3  UNL     1      -1.767   1.302  -0.206  1.00  0.00     0.057 A 
HETATM    5  C4  UNL     1      -0.459   1.814   0.241  1.00  0.00     0.280 C 
HETATM    6  N1  UNL     1       0.676   1.048  -0.314  1.00  0.00     0.088 N 
HETATM    7  C5  UNL     1       1.818   1.550   0.362  1.00  0.00     0.310 C 
HETATM    8  C6  UNL     1       3.055   0.804   0.148  1.00  0.00    -0.004 A 
HETATM    9  C7  UNL     1       4.195   1.546   0.354  1.00  0.00     0.012 A 
HETATM   10  C8  UNL     1       5.481   1.083   0.229  1.00  0.00     0.020 A 
HETATM   11  C9  UNL     1       5.736  -0.221  -0.130  1.00  0.00     0.013 A 
HETATM   12 BR1  UNL     1       7.498  -0.843  -0.301  1.00  0.00    -0.051 Br
HETATM   13  C10 UNL     1       4.555  -0.962  -0.337  1.00  0.00     0.049 A 
HETATM   14  C11 UNL     1       3.229  -0.495  -0.209  1.00  0.00     0.038 A 
HETATM   15  N2  UNL     1       2.423  -1.614  -0.503  1.00  0.00    -0.371 N 
HETATM   16  C12 UNL     1       1.681  -2.762  -0.096  1.00  0.00     0.272 C 
HETATM   17  N3  UNL     1       0.474  -2.493   0.533  1.00  0.00    -0.267 NA
HETATM   18  C13 UNL     1       0.165  -1.659   1.402  1.00  0.00     0.188 C 
HETATM   19  N4  UNL     1      -1.022  -2.372   1.116  1.00  0.00    -0.397 NA
HETATM   20  C14 UNL     1      -2.019  -1.868   0.544  1.00  0.00     0.363 C 
HETATM   21  C15 UNL     1      -3.251  -1.472  -0.095  1.00  0.00     0.073 C 
HETATM   22  C17 UNL     1      -3.573  -0.339  -0.554  1.00  0.00     0.042 C 
HETATM   23  H7  UNL     1       0.696   1.104  -1.333  1.00  0.00     0.316 HD
HETATM   24  H13 UNL     1       2.403  -1.465  -1.562  1.00  0.00     0.161 HD
ENDROOT
BRANCH  21  25
HETATM   25  O2  UNL     1      -4.375  -2.237  -0.355  1.00  0.00    -0.358 OA
HETATM   26  C16 UNL     1      -5.634  -2.031   0.251  1.00  0.00     0.209 C 
ENDBRANCH  21  25
TORSDOF 1
