REMARK  6 active torsions:
REMARK  status: ('A' for Active; 'I' for Inactive)
REMARK    1  A    between atoms: N1_2  and  C2_3 
REMARK    2  A    between atoms: C7_8  and  N2_9 
REMARK    3  A    between atoms: N2_9  and  C8_10 
REMARK    4  A    between atoms: C12_17  and  C13_18 
REMARK    5  A    between atoms: C13_18  and  N6_19 
REMARK    6  A    between atoms: C16_22  and  N7_23 
ROOT
HETATM    1  C8  UNL     1      -2.019  -1.655   0.611  1.00  0.00     0.159 A 
HETATM    2  N3  UNL     1      -2.933  -2.565   0.871  1.00  0.00    -0.220 NA
HETATM    3  C9  UNL     1      -2.727  -3.819   1.254  1.00  0.00     0.258 A 
HETATM    4  N4  UNL     1      -1.443  -4.188   1.387  1.00  0.00    -0.161 NA
HETATM    5  N5  UNL     1      -0.449  -3.322   1.142  1.00  0.00    -0.240 N 
HETATM    6  C10 UNL     1       0.864  -3.571   1.242  1.00  0.00     0.119 A 
HETATM    7  C11 UNL     1       1.500  -2.396   0.897  1.00  0.00     0.030 A 
HETATM    8  C12 UNL     1       0.511  -1.452   0.591  1.00  0.00    -0.007 A 
HETATM    9  C19 UNL     1      -0.713  -2.059   0.754  1.00  0.00     0.112 A 
ENDROOT
BRANCH   1  10
HETATM   10  N2  UNL     1      -2.283  -0.329   0.218  1.00  0.00    -0.337 N 
HETATM   11  H9  UNL     1      -1.548   0.352   0.043  1.00  0.00     0.167 HD
BRANCH  10  12
HETATM   12  C7  UNL     1      -3.519   0.317   0.004  1.00  0.00     0.060 A 
HETATM   13  C2  UNL     1      -3.705   1.624  -0.380  1.00  0.00     0.054 A 
HETATM   14  C3  UNL     1      -4.938   2.190  -0.569  1.00  0.00     0.031 A 
HETATM   15  C4  UNL     1      -6.099   1.475  -0.384  1.00  0.00     0.002 A 
HETATM   16  C5  UNL     1      -5.951   0.153   0.003  1.00  0.00     0.002 A 
HETATM   17  C6  UNL     1      -4.692  -0.374   0.181  1.00  0.00     0.032 A 
BRANCH  13  18
HETATM   18  N1  UNL     1      -2.550   2.458  -0.600  1.00  0.00    -0.392 N 
HETATM   19  C1  UNL     1      -2.454   3.845  -1.001  1.00  0.00     0.146 C 
HETATM   20  H4  UNL     1      -1.550   2.210  -0.509  1.00  0.00     0.159 HD
ENDBRANCH  13  18
ENDBRANCH  10  12
ENDBRANCH   1  10
BRANCH   8  21
HETATM   21  C13 UNL     1       0.863  -0.097   0.181  1.00  0.00     0.158 C 
BRANCH  21  22
HETATM   22  N6  UNL     1       2.277   0.115   0.025  1.00  0.00    -0.408 N 
HETATM   23  C14 UNL     1       2.957  -0.577  -0.973  1.00  0.00     0.119 C 
HETATM   24  C15 UNL     1       4.403  -0.852  -0.737  1.00  0.00     0.055 C 
HETATM   25  C16 UNL     1       5.096   0.201   0.086  1.00  0.00     0.221 C 
HETATM   26  C17 UNL     1       4.215   1.420   0.302  1.00  0.00     0.055 C 
HETATM   27  C18 UNL     1       2.947   0.881   0.980  1.00  0.00     0.119 C 
BRANCH  25  28
HETATM   28  N7  UNL     1       6.373   0.597  -0.480  1.00  0.00     0.083 N 
HETATM   29  H20 UNL     1       6.255   0.680  -1.530  1.00  0.00     0.313 HD
HETATM   30  H21 UNL     1       6.659   1.511  -0.065  1.00  0.00     0.313 HD
ENDBRANCH  25  28
ENDBRANCH  21  22
ENDBRANCH   8  21
TORSDOF 6
