REMARK  3 active torsions:
REMARK  status: ('A' for Active; 'I' for Inactive)
REMARK    1  A    between atoms: N1_1  and  C1_2 
REMARK    2  A    between atoms: C8_13  and  N6_14 
REMARK    3  A    between atoms: N6_14  and  C9_15 
ROOT
HETATM    1  C1  UNL     1       1.490   1.017  -2.449  1.00  0.00     0.220 C 
HETATM    2  C2  UNL     1       2.799   0.299  -1.956  1.00  0.00     0.065 C 
HETATM    3  C3  UNL     1       2.809   0.699  -0.621  1.00  0.00     0.272 C 
HETATM    4  N2  UNL     1       3.284   0.750   0.662  1.00  0.00     0.087 N 
HETATM    5  C4  UNL     1       2.281   1.705   1.236  1.00  0.00     0.306 C 
HETATM    6  C5  UNL     1       0.879   1.210   0.919  1.00  0.00    -0.020 C 
HETATM    7  C6  UNL     1       0.587   0.251   1.746  1.00  0.00     0.100 A 
HETATM    8  N3  UNL     1       1.594  -0.121   2.706  1.00  0.00    -0.273 N 
HETATM    9  N4  UNL     1       1.292  -1.141   3.584  1.00  0.00    -0.167 NA
HETATM   10  C7  UNL     1       0.200  -1.789   3.626  1.00  0.00     0.257 A 
HETATM   11  N5  UNL     1      -0.855  -1.487   2.715  1.00  0.00    -0.220 NA
HETATM   12  C8  UNL     1      -0.620  -0.537   1.872  1.00  0.00     0.158 A 
HETATM   13  C15 UNL     1       0.236   1.788  -0.267  1.00  0.00     0.040 C 
HETATM   14  C16 UNL     1       0.343   0.950  -1.503  1.00  0.00     0.040 C 
HETATM   15  H8  UNL     1       4.218   1.095   0.872  1.00  0.00     0.316 HD
HETATM   16  H11 UNL     1       2.544   0.179   2.908  1.00  0.00     0.189 HD
ENDROOT
BRANCH  12  17
HETATM   17  N6  UNL     1      -1.705  -0.253   1.029  1.00  0.00    -0.339 N 
HETATM   18  H13 UNL     1      -1.809   0.770   0.887  1.00  0.00     0.167 HD
BRANCH  17  19
HETATM   19  C9  UNL     1      -2.616  -1.063   0.388  1.00  0.00     0.033 A 
HETATM   20  C10 UNL     1      -3.675  -1.599   1.143  1.00  0.00     0.029 A 
HETATM   21  C11 UNL     1      -4.670  -2.413   0.664  1.00  0.00     0.002 A 
HETATM   22  C12 UNL     1      -4.711  -2.787  -0.643  1.00  0.00     0.000 A 
HETATM   23  C13 UNL     1      -3.700  -2.297  -1.449  1.00  0.00     0.002 A 
HETATM   24  C14 UNL     1      -2.707  -1.469  -0.922  1.00  0.00     0.029 A 
ENDBRANCH  17  19
ENDBRANCH  12  17
BRANCH   1  25
HETATM   25  N1  UNL     1       1.773   2.315  -2.928  1.00  0.00     0.083 N 
HETATM   26  H1  UNL     1       2.799   2.490  -2.848  1.00  0.00     0.313 HD
HETATM   27  H2  UNL     1       1.525   2.413  -3.931  1.00  0.00     0.313 HD
ENDBRANCH   1  25
TORSDOF 3
