REMARK  5 active torsions:
REMARK  status: ('A' for Active; 'I' for Inactive)
REMARK    1  A    between atoms: C7_7  and  N1_8 
REMARK    2  A    between atoms: N1_8  and  C8_9 
REMARK    3  A    between atoms: C12_15  and  C13_16 
REMARK    4  A    between atoms: C13_16  and  N4_17 
REMARK    5  A    between atoms: C16_20  and  N5_21 
ROOT
HETATM    1  C8  UNL     1      -1.398   1.181   0.502  1.00  0.00     0.152 A 
HETATM    2  N2  UNL     1      -2.168   2.016   1.130  1.00  0.00    -0.251 NA
HETATM    3  C9  UNL     1      -1.712   3.371   0.897  1.00  0.00     0.280 A 
HETATM    4  N3  UNL     1      -0.572   3.220   0.004  1.00  0.00    -0.335 N 
HETATM    5  C10 UNL     1       0.369   3.859  -0.696  1.00  0.00     0.094 A 
HETATM    6  C11 UNL     1       1.135   2.911  -1.342  1.00  0.00     0.028 A 
HETATM    7  C12 UNL     1       0.659   1.627  -1.036  1.00  0.00     0.002 A 
HETATM    8  C19 UNL     1      -0.382   1.900  -0.215  1.00  0.00     0.090 A 
ENDROOT
BRANCH   7   9
HETATM    9  C13 UNL     1       1.380   0.486  -1.577  1.00  0.00     0.313 C 
BRANCH   9  10
HETATM   10  N4  UNL     1       2.430  -0.019  -0.747  1.00  0.00     0.092 N 
HETATM   11  C14 UNL     1       1.916  -0.521   0.487  1.00  0.00     0.275 C 
HETATM   12  C15 UNL     1       3.011  -1.065   1.386  1.00  0.00     0.065 C 
HETATM   13  C16 UNL     1       4.329  -0.863   0.640  1.00  0.00     0.221 C 
HETATM   14  C17 UNL     1       4.223  -1.685  -0.638  1.00  0.00     0.065 C 
HETATM   15  C18 UNL     1       3.110  -1.077  -1.466  1.00  0.00     0.275 C 
BRANCH  13  16
HETATM   16  N5  UNL     1       5.399  -1.314   1.479  1.00  0.00     0.083 N 
HETATM   17  H20 UNL     1       6.013  -0.536   1.825  1.00  0.00     0.313 HD
HETATM   18  H21 UNL     1       5.936  -2.081   1.036  1.00  0.00     0.313 HD
ENDBRANCH  13  16
ENDBRANCH   9  10
ENDBRANCH   7   9
BRANCH   1  19
HETATM   19  N1  UNL     1      -1.689  -0.193   0.613  1.00  0.00    -0.339 N 
HETATM   20  H8  UNL     1      -0.859  -0.776   0.818  1.00  0.00     0.167 HD
BRANCH  19  21
HETATM   21  C7  UNL     1      -2.921  -0.874   0.465  1.00  0.00     0.039 A 
HETATM   22  C2  UNL     1      -4.110  -0.464  -0.073  1.00  0.00    -0.035 A 
HETATM   23  C1  UNL     1      -4.175   0.879  -0.691  1.00  0.00     0.050 C 
HETATM   24  C3  UNL     1      -5.262  -1.211  -0.125  1.00  0.00     0.009 A 
HETATM   25  C4  UNL     1      -5.269  -2.484   0.394  1.00  0.00     0.001 A 
HETATM   26  C5  UNL     1      -4.115  -2.976   0.952  1.00  0.00     0.002 A 
HETATM   27  C6  UNL     1      -2.999  -2.176   0.972  1.00  0.00     0.030 A 
ENDBRANCH  19  21
ENDBRANCH   1  19
TORSDOF 5
