REMARK  6 active torsions:
REMARK  status: ('A' for Active; 'I' for Inactive)
REMARK    1  A    between atoms: O1_2  and  C2_3 
REMARK    2  A    between atoms: C11_12  and  N1_13 
REMARK    3  A    between atoms: C11_12  and  N3_16 
REMARK    4  A    between atoms: N1_13  and  C12_14 
REMARK    5  A    between atoms: C12_14  and  N2_15 
REMARK    6  A    between atoms: N3_16  and  C13_17 
ROOT
HETATM    1  C2  UNL     1      -3.849   1.003  -0.141  1.00  0.00     0.069 A 
HETATM    2  C3  UNL     1      -4.373  -0.191   0.316  1.00  0.00     0.044 A 
HETATM    3  C4  UNL     1      -3.525  -1.283   0.507  1.00  0.00    -0.051 A 
HETATM    4  C5  UNL     1      -4.262  -2.485   1.002  1.00  0.00     0.049 C 
HETATM    5  C6  UNL     1      -2.177  -1.188   0.247  1.00  0.00    -0.028 A 
HETATM    6  C7  UNL     1      -1.640  -0.021  -0.203  1.00  0.00    -0.041 A 
HETATM    7  C8  UNL     1      -2.489   1.056  -0.389  1.00  0.00     0.044 A 
HETATM    8  C9  UNL     1      -0.209   0.116  -0.489  1.00  0.00     0.100 C 
HETATM    9  C10 UNL     1       0.621  -0.911   0.178  1.00  0.00     0.057 C 
HETATM   10  C11 UNL     1       1.850  -0.751   0.654  1.00  0.00     0.162 C 
HETATM   11  N4  UNL     1       0.028  -2.202   0.319  1.00  0.00    -0.386 N 
HETATM   12  C19 UNL     1      -1.400  -2.400   0.488  1.00  0.00     0.159 C 
HETATM   13  H17 UNL     1       0.605  -3.095   0.307  1.00  0.00     0.159 HD
ENDROOT
BRANCH  10  14
HETATM   14  N1  UNL     1       2.593  -1.807   1.293  1.00  0.00    -0.168 NA
BRANCH  14  15
HETATM   15  C12 UNL     1       2.111  -2.141   2.442  1.00  0.00     0.095 C 
BRANCH  15  16
HETATM   16  N2  UNL     1       1.842  -2.317   3.691  1.00  0.00    -0.241 NA
HETATM   17  H11 UNL     1       2.111  -1.606   4.411  1.00  0.00     0.199 HD
ENDBRANCH  15  16
ENDBRANCH  14  15
ENDBRANCH  10  14
BRANCH  10  18
HETATM   18  N3  UNL     1       2.529   0.497   0.564  1.00  0.00    -0.339 N 
HETATM   19  H12 UNL     1       2.161   1.152   1.285  1.00  0.00     0.167 HD
BRANCH  18  20
HETATM   20  C13 UNL     1       3.555   0.804  -0.372  1.00  0.00     0.035 A 
HETATM   21  C14 UNL     1       3.914  -0.192  -1.256  1.00  0.00     0.029 A 
HETATM   22  C15 UNL     1       4.925   0.175  -2.144  1.00  0.00     0.004 A 
HETATM   23  C16 UNL     1       5.517   1.419  -2.145  1.00  0.00     0.019 A 
HETATM   24  C17 UNL     1       5.092   2.372  -1.212  1.00  0.00     0.013 A 
HETATM   25 BR1  UNL     1       5.871   4.111  -1.160  1.00  0.00    -0.051 Br
HETATM   26  C18 UNL     1       4.082   2.074  -0.290  1.00  0.00     0.048 A 
ENDBRANCH  18  20
ENDBRANCH  10  18
BRANCH   1  27
HETATM   27  O1  UNL     1      -4.578   2.168  -0.375  1.00  0.00    -0.356 OA
HETATM   28  C1  UNL     1      -4.012   3.371  -0.841  1.00  0.00     0.210 C 
ENDBRANCH   1  27
TORSDOF 6
