REMARK  3 active torsions:
REMARK  status: ('A' for Active; 'I' for Inactive)
REMARK    1  A    between atoms: C2_3  and  C3_4 
REMARK    2  A    between atoms: C3_4  and  N1_5 
REMARK    3  A    between atoms: N1_5  and  C4_6 
ROOT
HETATM    1  C4  UNL     1       1.492  -0.601  -0.854  1.00  0.00     0.156 A 
HETATM    2  N2  UNL     1       2.101  -1.231  -1.881  1.00  0.00    -0.222 NA
HETATM    3  C5  UNL     1       1.232  -1.738  -2.808  1.00  0.00     0.238 A 
HETATM    4  N3  UNL     1      -0.112  -1.616  -2.702  1.00  0.00    -0.215 NA
HETATM    5  C6  UNL     1      -0.723  -0.981  -1.667  1.00  0.00     0.201 A 
HETATM    6  C7  UNL     1       0.133  -0.461  -0.720  1.00  0.00     0.128 A 
HETATM    7  N4  UNL     1      -0.500   0.209   0.361  1.00  0.00    -0.382 N 
HETATM    8  C8  UNL     1      -1.155   1.420  -0.086  1.00  0.00     0.139 C 
HETATM    9  C9  UNL     1      -2.101   1.970   0.947  1.00  0.00     0.089 C 
HETATM   10  C10 UNL     1      -2.104   1.198   2.224  1.00  0.00     0.014 C 
HETATM   11  C11 UNL     1      -2.510  -0.073   2.404  1.00  0.00     0.138 C 
HETATM   12  O1  UNL     1      -2.940  -1.154   1.599  1.00  0.00    -0.333 OA
HETATM   13  C12 UNL     1      -2.765  -1.427   0.224  1.00  0.00     0.174 C 
HETATM   14  C13 UNL     1      -2.936  -0.625  -0.845  1.00  0.00     0.087 C 
HETATM   15  C14 UNL     1      -3.826   0.543  -1.046  1.00  0.00     0.141 C 
HETATM   16  S1  UNL     1      -3.771   1.785   0.235  1.00  0.00    -0.152 SA
HETATM   17  O2  UNL     1      -2.085  -1.051  -1.887  1.00  0.00    -0.292 OA
HETATM   18  H7  UNL     1      -0.223  -0.469   1.095  1.00  0.00     0.160 HD
ENDROOT
BRANCH   1  19
HETATM   19  N1  UNL     1       2.191  -0.008   0.234  1.00  0.00    -0.369 N 
HETATM   20  H5  UNL     1       1.815   0.478   1.052  1.00  0.00     0.161 HD
BRANCH  19  21
HETATM   21  C3  UNL     1       3.648  -0.106   0.180  1.00  0.00     0.149 C 
BRANCH  21  22
HETATM   22  C2  UNL     1       4.309   0.532   1.340  1.00  0.00    -0.000 C 
HETATM   23  C1  UNL     1       5.082  -0.142   2.165  1.00  0.00     0.053 C 
HETATM   24 BR1  UNL     1       5.422  -2.000   1.942  1.00  0.00    -0.064 Br
ENDBRANCH  21  22
ENDBRANCH  19  21
ENDBRANCH   1  19
TORSDOF 3
