REMARK  7 active torsions:
REMARK  status: ('A' for Active; 'I' for Inactive)
REMARK    1  A    between atoms: C6_6  and  N1_7 
REMARK    2  A    between atoms: N1_7  and  C7_8 
REMARK    3  A    between atoms: N4_12  and  C9_13 
REMARK    4  A    between atoms: C10_14  and  C11_15 
REMARK    5  A    between atoms: C12_16  and  C13_17 
REMARK    6  A    between atoms: C13_17  and  O1_18 
REMARK    7  A    between atoms: O1_18  and  C14_19 
ROOT
HETATM    1  C7  UNL     1      -2.425  -0.865   0.327  1.00  0.00     0.125 A 
HETATM    2  N2  UNL     1      -2.627  -1.250   1.564  1.00  0.00    -0.225 NA
HETATM    3  C8  UNL     1      -1.737  -2.183   2.139  1.00  0.00     0.257 A 
HETATM    4  N3  UNL     1      -0.734  -2.682   1.519  1.00  0.00    -0.166 NA
HETATM    5  N4  UNL     1      -0.521  -2.271   0.202  1.00  0.00    -0.272 N 
HETATM    6  C18 UNL     1      -1.315  -1.324  -0.548  1.00  0.00     0.229 A 
ENDROOT
BRANCH   5   7
HETATM    7  C9  UNL     1       0.583  -2.829  -0.495  1.00  0.00     0.121 C 
HETATM    8  C10 UNL     1       1.841  -2.520  -0.633  1.00  0.00     0.083 C 
BRANCH   8   9
HETATM    9  C11 UNL     1       2.362  -1.359   0.027  1.00  0.00    -0.075 C 
HETATM   10  C12 UNL     1       2.804  -0.381   0.569  1.00  0.00    -0.076 C 
BRANCH  10  11
HETATM   11  C13 UNL     1       3.333   0.807   1.246  1.00  0.00     0.265 C 
BRANCH  11  12
HETATM   12  O1  UNL     1       4.697   0.879   1.093  1.00  0.00    -0.349 OA
BRANCH  12  13
HETATM   13  C14 UNL     1       5.061   0.954  -0.255  1.00  0.00     0.264 C 
HETATM   14  C15 UNL     1       5.699   2.273  -0.614  1.00  0.00     0.091 C 
HETATM   15  C16 UNL     1       7.164   1.995  -0.908  1.00  0.00     0.277 C 
HETATM   16  N5  UNL     1       7.609   1.080   0.140  1.00  0.00     0.106 N 
HETATM   17  C17 UNL     1       7.058  -0.210  -0.201  1.00  0.00     0.440 C 
HETATM   18  H18 UNL     1       7.295   1.439   1.058  1.00  0.00     0.318 HD
HETATM   19  O2  UNL     1       5.774  -0.150  -0.680  1.00  0.00    -0.332 OA
ENDBRANCH  12  13
ENDBRANCH  11  12
ENDBRANCH  10  11
ENDBRANCH   8   9
ENDBRANCH   5   7
BRANCH   1  20
HETATM   20  N1  UNL     1      -3.361   0.069  -0.169  1.00  0.00    -0.343 N 
HETATM   21  H7  UNL     1      -3.007   0.881  -0.751  1.00  0.00     0.167 HD
BRANCH  20  22
HETATM   22  C6  UNL     1      -4.749   0.002   0.049  1.00  0.00     0.033 A 
HETATM   23  C5  UNL     1      -5.421  -0.979   0.736  1.00  0.00     0.029 A 
HETATM   24  C4  UNL     1      -6.779  -1.021   0.937  1.00  0.00     0.003 A 
HETATM   25  C3  UNL     1      -7.563  -0.022   0.427  1.00  0.00     0.007 A 
HETATM   26  C2  UNL     1      -6.968   0.991  -0.271  1.00  0.00    -0.060 A 
HETATM   27  C1  UNL     1      -7.777   2.095  -0.843  1.00  0.00     0.048 C 
HETATM   28  C19 UNL     1      -5.602   0.987  -0.445  1.00  0.00     0.036 A 
ENDBRANCH  20  22
ENDBRANCH   1  20
TORSDOF 7
