REMARK  7 active torsions:
REMARK  status: ('A' for Active; 'I' for Inactive)
REMARK    1  A    between atoms: C1_1  and  N1_8 
REMARK    2  A    between atoms: C2_2  and  C3_3 
REMARK    3  A    between atoms: N1_8  and  C8_9 
REMARK    4  A    between atoms: C12_16  and  C13_17 
REMARK    5  A    between atoms: C13_17  and  O1_18 
REMARK    6  A    between atoms: O1_18  and  C14_19 
REMARK    7  A    between atoms: C14_19  and  C15_20 
ROOT
HETATM    1  C8  UNL     1       1.220  -0.865  -1.550  1.00  0.00     0.166 A 
HETATM    2  N2  UNL     1       1.796  -1.688  -2.464  1.00  0.00    -0.220 NA
HETATM    3  C9  UNL     1       1.749  -1.326  -3.776  1.00  0.00     0.258 A 
HETATM    4  N3  UNL     1       1.162  -0.199  -4.198  1.00  0.00    -0.161 NA
HETATM    5  N4  UNL     1       0.603   0.596  -3.294  1.00  0.00    -0.240 N 
HETATM    6  C10 UNL     1      -0.057   1.775  -3.388  1.00  0.00     0.119 A 
HETATM    7  C11 UNL     1      -0.450   2.193  -2.118  1.00  0.00     0.031 A 
HETATM    8  C12 UNL     1      -0.020   1.246  -1.220  1.00  0.00    -0.001 A 
HETATM    9  C19 UNL     1       0.615   0.294  -1.981  1.00  0.00     0.113 A 
ENDROOT
BRANCH   8  10
HETATM   10  C13 UNL     1      -0.240   1.299   0.224  1.00  0.00     0.208 C 
BRANCH  10  11
HETATM   11  O1  UNL     1      -1.285   0.406   0.561  1.00  0.00    -0.384 OA
BRANCH  11  12
HETATM   12  C14 UNL     1      -2.454   0.742  -0.072  1.00  0.00     0.201 C 
BRANCH  12  13
HETATM   13  C15 UNL     1      -3.613  -0.185   0.250  1.00  0.00     0.173 C 
HETATM   14  C16 UNL     1      -3.831  -0.200   1.727  1.00  0.00     0.303 C 
HETATM   15  N5  UNL     1      -5.077  -0.815   2.133  1.00  0.00     0.088 N 
HETATM   16  C17 UNL     1      -5.682  -1.426   0.969  1.00  0.00     0.295 C 
HETATM   17  H17 UNL     1      -4.936  -1.534   2.851  1.00  0.00     0.316 HD
HETATM   18  C18 UNL     1      -5.889  -0.352  -0.076  1.00  0.00     0.198 C 
HETATM   19  O2  UNL     1      -4.717   0.262  -0.441  1.00  0.00    -0.380 OA
ENDBRANCH  12  13
ENDBRANCH  11  12
ENDBRANCH  10  11
ENDBRANCH   8  10
BRANCH   1  20
HETATM   20  N1  UNL     1       1.330  -1.339  -0.194  1.00  0.00    -0.297 N 
HETATM   21  H6  UNL     1       0.625  -1.873   0.364  1.00  0.00     0.178 HD
BRANCH  20  22
HETATM   22  C1  UNL     1       2.579  -1.001   0.395  1.00  0.00     0.017 C 
HETATM   23  C2  UNL     1       3.648  -0.698   0.917  1.00  0.00    -0.048 C 
BRANCH  23  24
HETATM   24  C3  UNL     1       4.891  -0.320   1.524  1.00  0.00     0.000 A 
HETATM   25  C4  UNL     1       5.268  -0.346   2.773  1.00  0.00     0.016 A 
HETATM   26  C5  UNL     1       6.638   0.149   2.848  1.00  0.00    -0.002 A 
HETATM   27  C6  UNL     1       7.094   0.473   1.650  1.00  0.00    -0.021 A 
HETATM   28  C7  UNL     1       6.017   0.204   0.680  1.00  0.00     0.075 A 
ENDBRANCH  23  24
ENDBRANCH  20  22
ENDBRANCH   1  20
TORSDOF 7
