REMARK  5 active torsions:
REMARK  status: ('A' for Active; 'I' for Inactive)
REMARK    1  A    between atoms: C5_7  and  N3_8 
REMARK    2  A    between atoms: N3_8  and  C6_9 
REMARK    3  A    between atoms: C6_9  and  C7_10 
REMARK    4  A    between atoms: C12_19  and  N8_20 
REMARK    5  A    between atoms: C15_23  and  N9_24 
ROOT
HETATM    1  C7  UNL     1       0.104   2.461   0.605  1.00  0.00     0.038 C 
HETATM    2  C8  UNL     1      -0.947   1.709   0.301  1.00  0.00     0.011 C 
HETATM    3  C9  UNL     1      -2.169   1.479   1.159  1.00  0.00     0.032 C 
HETATM    4  C10 UNL     1      -3.141   1.919   0.220  1.00  0.00     0.115 C 
HETATM    5  N4  UNL     1      -2.344   2.277  -0.999  1.00  0.00    -0.259 N 
HETATM    6  N5  UNL     1      -2.272   3.483  -1.770  1.00  0.00    -0.215 N 
HETATM    7  N6  UNL     1      -0.977   4.009  -2.227  1.00  0.00    -0.154 NA
HETATM    8  C11 UNL     1       0.121   4.200  -1.452  1.00  0.00     0.231 C 
HETATM    9  N7  UNL     1       0.742   3.467  -0.290  1.00  0.00    -0.351 N 
HETATM   10  C12 UNL     1      -1.443   1.030  -1.014  1.00  0.00     0.240 C 
HETATM   11  H11 UNL     1      -3.291   3.650  -1.743  1.00  0.00     0.211 HD
HETATM   12  H13 UNL     1       1.675   3.541   0.093  1.00  0.00     0.166 HD
ENDROOT
BRANCH   1  13
HETATM   13  C6  UNL     1       0.436   2.160   1.992  1.00  0.00     0.177 C 
BRANCH  13  14
HETATM   14  N3  UNL     1       1.830   1.689   1.997  1.00  0.00    -0.384 N 
HETATM   15  H6  UNL     1       2.439   2.351   2.524  1.00  0.00     0.160 HD
BRANCH  14  16
HETATM   16  C5  UNL     1       2.546   0.580   1.480  1.00  0.00     0.029 A 
HETATM   17  C4  UNL     1       3.929   0.462   1.658  1.00  0.00     0.046 A 
HETATM   18  C3  UNL     1       4.514  -0.657   1.124  1.00  0.00     0.038 A 
HETATM   19  C2  UNL     1       5.802  -1.314   0.978  1.00  0.00     0.135 A 
HETATM   20  C20 UNL     1       3.864  -1.658   0.438  1.00  0.00     0.049 A 
HETATM   21  N1  UNL     1       5.123  -2.333   0.276  1.00  0.00    -0.335 N 
HETATM   22  N2  UNL     1       7.019  -1.135   1.296  1.00  0.00    -0.283 NA
HETATM   23  C1  UNL     1       5.534  -3.578  -0.361  1.00  0.00     0.158 C 
HETATM   24  H4  UNL     1       7.386  -0.318   1.827  1.00  0.00     0.188 HD
HETATM   25  C19 UNL     1       2.503  -1.535   0.266  1.00  0.00     0.033 A 
HETATM   26  C18 UNL     1       1.891  -0.418   0.795  1.00  0.00     0.031 A 
ENDBRANCH  14  16
ENDBRANCH  13  14
ENDBRANCH   1  13
BRANCH  10  27
HETATM   27  N8  UNL     1      -2.180  -0.086  -0.921  1.00  0.00    -0.387 N 
HETATM   28  C13 UNL     1      -2.648  -0.724  -2.130  1.00  0.00     0.121 C 
HETATM   29  C14 UNL     1      -4.047  -1.264  -1.851  1.00  0.00     0.055 C 
HETATM   30  C15 UNL     1      -3.864  -2.423  -0.873  1.00  0.00     0.221 C 
HETATM   31  C16 UNL     1      -2.495  -2.322  -0.235  1.00  0.00     0.055 C 
HETATM   32  C17 UNL     1      -2.317  -0.872   0.243  1.00  0.00     0.121 C 
BRANCH  30  33
HETATM   33  N9  UNL     1      -4.907  -2.319   0.110  1.00  0.00     0.083 N 
HETATM   34  H20 UNL     1      -4.748  -2.877   0.960  1.00  0.00     0.313 HD
HETATM   35  H21 UNL     1      -5.216  -1.337   0.282  1.00  0.00     0.313 HD
ENDBRANCH  30  33
ENDBRANCH  10  27
TORSDOF 5
