REMARK  4 active torsions:
REMARK  status: ('A' for Active; 'I' for Inactive)
REMARK    1  A    between atoms: C5_7  and  C6_8 
REMARK    2  A    between atoms: C10_14  and  C11_15 
REMARK    3  A    between atoms: C11_15  and  N5_16 
REMARK    4  A    between atoms: C14_19  and  N6_20 
ROOT
HETATM    1  C6  UNL     1       1.526  -2.242  -1.049  1.00  0.00     0.036 C 
HETATM    2  C7  UNL     1       1.765  -3.278  -1.839  1.00  0.00     0.122 C 
HETATM    3  N3  UNL     1       1.124  -4.330  -1.453  1.00  0.00    -0.165 NA
HETATM    4  N4  UNL     1       0.035  -3.909  -0.654  1.00  0.00    -0.243 N 
HETATM    5  C8  UNL     1      -1.126  -4.296  -0.063  1.00  0.00     0.119 A 
HETATM    6  C9  UNL     1      -1.596  -3.170   0.575  1.00  0.00     0.030 A 
HETATM    7  C10 UNL     1      -0.736  -2.093   0.384  1.00  0.00     0.001 A 
HETATM    8  C17 UNL     1       0.274  -2.610  -0.396  1.00  0.00     0.079 A 
ENDROOT
BRANCH   1   9
HETATM    9  C5  UNL     1       2.258  -1.003  -0.813  1.00  0.00    -0.020 A 
HETATM   10  C4  UNL     1       2.890  -0.966   0.432  1.00  0.00     0.027 A 
HETATM   11  C3  UNL     1       3.628   0.134   0.818  1.00  0.00     0.012 A 
HETATM   12  C2  UNL     1       4.364   0.484   1.956  1.00  0.00     0.152 A 
HETATM   13  C20 UNL     1       3.774   1.253  -0.012  1.00  0.00     0.064 A 
HETATM   14  N2  UNL     1       4.900   1.726   1.791  1.00  0.00    -0.184 NA
HETATM   15  N1  UNL     1       4.535   2.186   0.589  1.00  0.00    -0.274 N 
HETATM   16  C1  UNL     1       4.891   3.484   0.004  1.00  0.00     0.180 C 
HETATM   17  C19 UNL     1       3.130   1.183  -1.246  1.00  0.00     0.033 A 
HETATM   18  C18 UNL     1       2.390   0.090  -1.645  1.00  0.00     0.015 A 
ENDBRANCH   1   9
BRANCH   7  19
HETATM   19  C11 UNL     1      -0.948  -0.732   0.937  1.00  0.00     0.313 C 
BRANCH  19  20
HETATM   20  N5  UNL     1      -1.401   0.192  -0.067  1.00  0.00     0.092 N 
HETATM   21  C12 UNL     1      -1.617   1.490   0.490  1.00  0.00     0.275 C 
HETATM   22  C13 UNL     1      -2.987   1.992   0.100  1.00  0.00     0.065 C 
HETATM   23  C14 UNL     1      -4.007   0.977   0.572  1.00  0.00     0.221 C 
HETATM   24  C15 UNL     1      -3.799  -0.291  -0.231  1.00  0.00     0.065 C 
HETATM   25  C16 UNL     1      -2.448  -0.301  -0.913  1.00  0.00     0.275 C 
BRANCH  23  26
HETATM   26  N6  UNL     1      -5.373   1.408   0.337  1.00  0.00     0.083 N 
HETATM   27  H15 UNL     1      -5.696   1.285  -0.639  1.00  0.00     0.313 HD
HETATM   28  H16 UNL     1      -5.563   2.364   0.697  1.00  0.00     0.313 HD
ENDBRANCH  23  26
ENDBRANCH  19  20
ENDBRANCH   7  19
TORSDOF 4
