REMARK  3 active torsions:
REMARK  status: ('A' for Active; 'I' for Inactive)
REMARK    1  A    between atoms: C4_4  and  C5_5 
REMARK    2  A    between atoms: C5_5  and  N1_6 
REMARK    3  A    between atoms: C8_9  and  N2_10 
ROOT
HETATM    1  C1  UNL     1       1.657   1.083  -3.186  1.00  0.00     0.070 C 
HETATM    2  C2  UNL     1       0.918   0.571  -2.007  1.00  0.00     0.033 A 
HETATM    3  C3  UNL     1      -0.307   0.186  -1.515  1.00  0.00     0.038 A 
HETATM    4  C4  UNL     1      -0.203  -0.235  -0.216  1.00  0.00    -0.006 A 
HETATM    5  C11 UNL     1       1.145  -0.084   0.054  1.00  0.00     0.111 A 
HETATM    6  N3  UNL     1       1.839   0.421  -1.065  1.00  0.00    -0.235 N 
HETATM    7  N4  UNL     1       2.873   0.306  -0.158  1.00  0.00    -0.183 NA
HETATM    8  C12 UNL     1       3.636   1.265   0.147  1.00  0.00     0.117 C 
HETATM    9  C13 UNL     1       4.628   1.025   1.080  1.00  0.00     0.041 A 
HETATM   10  C14 UNL     1       6.131   0.507   0.715  1.00  0.00     0.035 A 
HETATM   11  C15 UNL     1       5.443  -0.941   1.869  1.00  0.00     0.005 A 
HETATM   12  C16 UNL     1       4.649  -1.690   2.647  1.00  0.00     0.035 A 
HETATM   13  C17 UNL     1       3.982  -0.480   2.203  1.00  0.00     0.055 A 
HETATM   14  C18 UNL     1       5.080  -0.062   1.516  1.00  0.00     0.006 A 
HETATM   15  N5  UNL     1       2.593  -0.105   2.424  1.00  0.00    -0.362 N 
HETATM   16  C19 UNL     1       1.642  -0.526   1.415  1.00  0.00     0.146 C 
HETATM   17  N6  UNL     1       1.217  -1.573   1.959  1.00  0.00    -0.282 NA
HETATM   18  H23 UNL     1       2.553   0.408   3.312  1.00  0.00     0.162 HD
HETATM   19  H24 UNL     1       1.349  -2.084   2.796  1.00  0.00     0.188 HD
ENDROOT
BRANCH   4  20
HETATM   20  C5  UNL     1      -1.303  -0.754   0.608  1.00  0.00     0.158 C 
BRANCH  20  21
HETATM   21  N1  UNL     1      -2.563  -0.316   0.127  1.00  0.00    -0.408 N 
HETATM   22  C6  UNL     1      -3.017   0.965   0.428  1.00  0.00     0.119 C 
HETATM   23  C7  UNL     1      -4.126   1.386  -0.510  1.00  0.00     0.055 C 
HETATM   24  C8  UNL     1      -5.165   0.322  -0.720  1.00  0.00     0.221 C 
HETATM   25  C9  UNL     1      -4.430  -0.939  -1.190  1.00  0.00     0.055 C 
HETATM   26  C10 UNL     1      -3.549  -1.318  -0.003  1.00  0.00     0.119 C 
BRANCH  24  27
HETATM   27  N2  UNL     1      -6.089   0.739  -1.736  1.00  0.00     0.083 N 
HETATM   28  H12 UNL     1      -6.114   0.101  -2.557  1.00  0.00     0.313 HD
HETATM   29  H13 UNL     1      -7.088   0.776  -1.356  1.00  0.00     0.313 HD
ENDBRANCH  24  27
ENDBRANCH  20  21
ENDBRANCH   4  20
TORSDOF 3
