REMARK  5 active torsions:
REMARK  status: ('A' for Active; 'I' for Inactive)
REMARK    1  A    between atoms: C5_7  and  N3_8 
REMARK    2  A    between atoms: N3_8  and  C6_9 
REMARK    3  A    between atoms: C10_16  and  C11_17 
REMARK    4  A    between atoms: C11_17  and  N7_18 
REMARK    5  A    between atoms: C14_21  and  N8_22 
ROOT
HETATM    1  C6  UNL     1      -0.024  -1.191   1.541  1.00  0.00     0.159 A 
HETATM    2  N4  UNL     1       0.280  -1.928   2.633  1.00  0.00    -0.220 NA
HETATM    3  C7  UNL     1      -0.179  -3.191   2.697  1.00  0.00     0.258 A 
HETATM    4  N5  UNL     1      -0.925  -3.738   1.715  1.00  0.00    -0.161 NA
HETATM    5  N6  UNL     1      -1.234  -3.019   0.627  1.00  0.00    -0.240 N 
HETATM    6  C8  UNL     1      -1.930  -3.277  -0.494  1.00  0.00     0.119 A 
HETATM    7  C9  UNL     1      -1.890  -2.128  -1.255  1.00  0.00     0.030 A 
HETATM    8  C10 UNL     1      -1.166  -1.139  -0.612  1.00  0.00    -0.007 A 
HETATM    9  C17 UNL     1      -0.788  -1.764   0.548  1.00  0.00     0.112 A 
ENDROOT
BRANCH   1  10
HETATM   10  N3  UNL     1       0.542   0.114   1.574  1.00  0.00    -0.339 N 
HETATM   11  H6  UNL     1       0.232   1.059   1.876  1.00  0.00     0.167 HD
BRANCH  10  12
HETATM   12  C5  UNL     1       1.894   0.102   1.062  1.00  0.00     0.034 A 
HETATM   13  C4  UNL     1       2.533  -1.052   0.619  1.00  0.00     0.044 A 
HETATM   14  C3  UNL     1       3.824  -1.027   0.135  1.00  0.00     0.013 A 
HETATM   15  C2  UNL     1       4.650  -2.022  -0.350  1.00  0.00     0.152 A 
HETATM   16  C20 UNL     1       4.536   0.150   0.070  1.00  0.00     0.064 A 
HETATM   17  N2  UNL     1       5.839  -1.450  -0.701  1.00  0.00    -0.184 NA
HETATM   18  N1  UNL     1       5.755  -0.138  -0.441  1.00  0.00    -0.274 N 
HETATM   19  C1  UNL     1       6.839   0.816  -0.687  1.00  0.00     0.180 C 
HETATM   20  C19 UNL     1       3.961   1.329   0.493  1.00  0.00     0.034 A 
HETATM   21  C18 UNL     1       2.673   1.249   0.967  1.00  0.00     0.032 A 
ENDBRANCH  10  12
ENDBRANCH   1  10
BRANCH   8  22
HETATM   22  C11 UNL     1      -1.045   0.203  -1.221  1.00  0.00     0.158 C 
BRANCH  22  23
HETATM   23  N7  UNL     1      -1.990   1.163  -0.838  1.00  0.00    -0.408 N 
HETATM   24  C12 UNL     1      -2.208   1.534   0.477  1.00  0.00     0.119 C 
HETATM   25  C13 UNL     1      -3.593   2.183   0.606  1.00  0.00     0.055 C 
HETATM   26  C14 UNL     1      -4.535   1.601  -0.435  1.00  0.00     0.221 C 
HETATM   27  C15 UNL     1      -4.058   1.854  -1.829  1.00  0.00     0.055 C 
HETATM   28  C16 UNL     1      -2.550   1.975  -1.863  1.00  0.00     0.119 C 
BRANCH  26  29
HETATM   29  N8  UNL     1      -4.667   0.171  -0.233  1.00  0.00     0.083 N 
HETATM   30  H17 UNL     1      -3.888  -0.132   0.387  1.00  0.00     0.313 HD
HETATM   31  H18 UNL     1      -5.571  -0.095   0.244  1.00  0.00     0.313 HD
ENDBRANCH  26  29
ENDBRANCH  22  23
ENDBRANCH   8  22
TORSDOF 5
