REMARK  4 active torsions:
REMARK  status: ('A' for Active; 'I' for Inactive)
REMARK    1  A    between atoms: C11_15  and  C12_16 
REMARK    2  A    between atoms: C12_16  and  O1_17 
REMARK    3  A    between atoms: O1_17  and  C13_18 
REMARK    4  A    between atoms: C13_18  and  C14_19 
ROOT
HETATM    1  C1  UNL     1      -4.312  -3.699   0.713  1.00  0.00     0.017 C 
HETATM    2  C2  UNL     1      -4.590  -2.596   0.249  1.00  0.00    -0.089 C 
HETATM    3  C3  UNL     1      -4.898  -1.278  -0.290  1.00  0.00     0.070 C 
HETATM    4  C4  UNL     1      -4.062  -0.217  -0.101  1.00  0.00    -0.047 C 
HETATM    5  C5  UNL     1      -2.901  -0.621   0.677  1.00  0.00     0.025 C 
HETATM    6  C6  UNL     1      -1.776  -0.189   1.215  1.00  0.00     0.090 C 
HETATM    7  N1  UNL     1      -0.919   0.975   1.409  1.00  0.00    -0.354 N 
HETATM    8  C7  UNL     1      -0.401   2.031   0.587  1.00  0.00     0.115 C 
HETATM    9  N2  UNL     1      -1.023   3.158   0.967  1.00  0.00    -0.226 NA
HETATM   10  C8  UNL     1      -2.287   3.603   0.378  1.00  0.00     0.257 C 
HETATM   11  N3  UNL     1      -3.027   3.139  -0.618  1.00  0.00    -0.166 NA
HETATM   12  N4  UNL     1      -2.663   2.101  -1.535  1.00  0.00    -0.280 N 
HETATM   13  C9  UNL     1      -1.425   1.587  -2.089  1.00  0.00     0.109 C 
HETATM   14  C10 UNL     1      -0.129   1.868  -1.844  1.00  0.00     0.006 C 
HETATM   15  C11 UNL     1       0.583   2.075  -0.527  1.00  0.00     0.103 C 
HETATM   16  C18 UNL     1      -3.923   1.533  -1.914  1.00  0.00     0.155 C 
HETATM   17  C19 UNL     1      -4.695   0.946  -0.768  1.00  0.00     0.061 C 
HETATM   18  H5  UNL     1      -0.530   1.189   2.383  1.00  0.00     0.166 HD
ENDROOT
BRANCH  15  19
HETATM   19  C12 UNL     1       1.674   1.007  -0.389  1.00  0.00     0.184 C 
BRANCH  19  20
HETATM   20  O1  UNL     1       2.369   1.154   0.743  1.00  0.00    -0.387 OA
BRANCH  20  21
HETATM   21  C13 UNL     1       3.412   0.416   1.114  1.00  0.00     0.201 C 
BRANCH  21  22
HETATM   22  C14 UNL     1       3.289  -1.056   1.310  1.00  0.00     0.173 C 
HETATM   23  C15 UNL     1       2.917  -1.746   0.029  1.00  0.00     0.303 C 
HETATM   24  N5  UNL     1       3.723  -2.974  -0.108  1.00  0.00     0.088 N 
HETATM   25  C16 UNL     1       5.120  -2.583  -0.307  1.00  0.00     0.295 C 
HETATM   26  H17 UNL     1       3.649  -3.535   0.746  1.00  0.00     0.316 HD
HETATM   27  C17 UNL     1       5.484  -1.649   0.833  1.00  0.00     0.198 C 
HETATM   28  O2  UNL     1       4.515  -1.597   1.798  1.00  0.00    -0.380 OA
ENDBRANCH  21  22
ENDBRANCH  20  21
ENDBRANCH  19  20
ENDBRANCH  15  19
TORSDOF 4
