REMARK  6 active torsions:
REMARK  status: ('A' for Active; 'I' for Inactive)
REMARK    1  A    between atoms: C7_7  and  N1_8 
REMARK    2  A    between atoms: N1_8  and  C8_9 
REMARK    3  A    between atoms: C12_16  and  C13_17 
REMARK    4  A    between atoms: C13_17  and  O1_18 
REMARK    5  A    between atoms: O1_18  and  C14_19 
REMARK    6  A    between atoms: C16_21  and  O2_22 
ROOT
HETATM    1  C1  UNL     1      -3.015   4.682  -1.990  1.00  0.00     0.018 C 
HETATM    2  C2  UNL     1      -2.937   3.589  -1.505  1.00  0.00    -0.078 C 
HETATM    3  C3  UNL     1      -2.821   2.264  -0.933  1.00  0.00     0.019 A 
HETATM    4  C4  UNL     1      -3.966   1.505  -0.977  1.00  0.00     0.021 A 
HETATM    5  C5  UNL     1      -3.900   0.231  -0.456  1.00  0.00     0.004 A 
HETATM    6  C6  UNL     1      -2.723  -0.236   0.080  1.00  0.00     0.029 A 
HETATM    7  C7  UNL     1      -1.558   0.500   0.139  1.00  0.00     0.035 A 
HETATM    8  C18 UNL     1      -1.684   1.758  -0.393  1.00  0.00     0.050 A 
ENDROOT
BRANCH   7   9
HETATM    9  N1  UNL     1      -0.320   0.043   0.663  1.00  0.00    -0.339 N 
HETATM   10  H5  UNL     1       0.455   0.704   0.753  1.00  0.00     0.167 HD
BRANCH   9  11
HETATM   11  C8  UNL     1      -0.057  -1.267   1.120  1.00  0.00     0.159 A 
HETATM   12  N2  UNL     1      -1.006  -1.935   1.805  1.00  0.00    -0.220 NA
HETATM   13  C9  UNL     1      -0.829  -3.193   2.240  1.00  0.00     0.258 A 
HETATM   14  N3  UNL     1       0.342  -3.819   1.983  1.00  0.00    -0.161 NA
HETATM   15  N4  UNL     1       1.284  -3.183   1.312  1.00  0.00    -0.240 N 
HETATM   16  C10 UNL     1       2.495  -3.634   0.940  1.00  0.00     0.119 A 
HETATM   17  C17 UNL     1       1.118  -1.933   0.877  1.00  0.00     0.112 A 
HETATM   18  C11 UNL     1       3.061  -2.593   0.253  1.00  0.00     0.031 A 
HETATM   19  C12 UNL     1       2.200  -1.482   0.195  1.00  0.00    -0.001 A 
BRANCH  19  20
HETATM   20  C13 UNL     1       2.658  -0.239  -0.481  1.00  0.00     0.210 C 
BRANCH  20  21
HETATM   21  O1  UNL     1       3.170   0.626   0.467  1.00  0.00    -0.372 OA
BRANCH  21  22
HETATM   22  C14 UNL     1       3.705   1.765  -0.638  1.00  0.00     0.190 A 
HETATM   23  C15 UNL     1       2.921   2.211  -0.492  1.00  0.00    -0.005 A 
HETATM   24  C16 UNL     1       2.330   2.529  -0.382  1.00  0.00    -0.005 A 
HETATM   25  O2  UNL     1       1.824   2.788  -0.286  1.00  0.00     0.000 OA
ENDBRANCH  21  22
ENDBRANCH  20  21
ENDBRANCH  19  20
ENDBRANCH   9  11
ENDBRANCH   7   9
TORSDOF 6
