REMARK  3 active torsions:
REMARK  status: ('A' for Active; 'I' for Inactive)
REMARK    1  A    between atoms: C5_7  and  N3_8 
REMARK    2  A    between atoms: N3_8  and  C6_9 
REMARK    3  A    between atoms: C14_21  and  N8_22 
ROOT
HETATM    1  C6  UNL     1       0.354   1.022   0.340  1.00  0.00     0.159 A 
HETATM    2  N4  UNL     1      -0.146   2.230   0.547  1.00  0.00    -0.220 NA
HETATM    3  C7  UNL     1       0.642   3.299   0.710  1.00  0.00     0.258 A 
HETATM    4  N5  UNL     1       1.982   3.195   0.672  1.00  0.00    -0.161 NA
HETATM    5  N6  UNL     1       2.516   2.013   0.468  1.00  0.00    -0.239 N 
HETATM    6  C8  UNL     1       3.808   1.654   0.389  1.00  0.00     0.129 A 
HETATM    7  C9  UNL     1       3.809   0.283   0.161  1.00  0.00     0.004 A 
HETATM    8  C10 UNL     1       2.487  -0.182   0.104  1.00  0.00     0.012 A 
HETATM    9  C11 UNL     1       1.722   0.943   0.304  1.00  0.00     0.112 A 
HETATM   10  C12 UNL     1       2.561  -1.621  -0.146  1.00  0.00     0.311 C 
HETATM   11  N7  UNL     1       3.388  -1.906  -1.332  1.00  0.00     0.090 N 
HETATM   12  C13 UNL     1       4.730  -1.442  -1.226  1.00  0.00     0.310 C 
HETATM   13  C14 UNL     1       4.991  -0.615   0.006  1.00  0.00     0.280 C 
HETATM   14  H11 UNL     1       2.882  -1.458  -2.130  1.00  0.00     0.316 HD
ENDROOT
BRANCH   1  15
HETATM   15  N3  UNL     1      -0.429  -0.110   0.182  1.00  0.00    -0.339 N 
HETATM   16  H6  UNL     1      -0.053  -1.052   0.056  1.00  0.00     0.167 HD
BRANCH  15  17
HETATM   17  C5  UNL     1      -1.830  -0.271   0.157  1.00  0.00     0.034 A 
HETATM   18  C4  UNL     1      -2.619   0.839  -0.014  1.00  0.00     0.044 A 
HETATM   19  C3  UNL     1      -3.992   0.781  -0.033  1.00  0.00     0.013 A 
HETATM   20  C2  UNL     1      -5.030   1.687  -0.179  1.00  0.00     0.152 A 
HETATM   21  C17 UNL     1      -4.670  -0.414   0.121  1.00  0.00     0.064 A 
HETATM   22  N2  UNL     1      -6.240   1.059  -0.113  1.00  0.00    -0.184 NA
HETATM   23  N1  UNL     1      -6.003  -0.248   0.074  1.00  0.00    -0.274 N 
HETATM   24  C1  UNL     1      -7.028  -1.279   0.200  1.00  0.00     0.180 C 
HETATM   25  C16 UNL     1      -3.911  -1.550   0.296  1.00  0.00     0.034 A 
HETATM   26  C15 UNL     1      -2.541  -1.441   0.308  1.00  0.00     0.032 A 
ENDBRANCH  15  17
ENDBRANCH   1  15
BRANCH  13  27
HETATM   27  N8  UNL     1       6.195   0.145  -0.235  1.00  0.00     0.089 N 
HETATM   28  H15 UNL     1       6.870   0.104   0.551  1.00  0.00     0.313 HD
HETATM   29  H16 UNL     1       5.954   1.141  -0.511  1.00  0.00     0.313 HD
ENDBRANCH  13  27
TORSDOF 3
