REMARK  6 active torsions:
REMARK  status: ('A' for Active; 'I' for Inactive)
REMARK    1  A    between atoms: C2_2  and  N1_3 
REMARK    2  A    between atoms: C2_2  and  C3_4 
REMARK    3  A    between atoms: C3_4  and  N2_5 
REMARK    4  A    between atoms: N2_5  and  C4_6 
REMARK    5  A    between atoms: C4_6  and  C5_7 
REMARK    6  A    between atoms: N3_10  and  C8_11 
ROOT
HETATM    1  C5  UNL     1      -1.588  -0.906   0.381  1.00  0.00    -0.030 C 
HETATM    2  C6  UNL     1      -0.678  -1.825  -0.012  1.00  0.00     0.004 C 
HETATM    3  C7  UNL     1       0.687  -1.693  -0.573  1.00  0.00     0.179 C 
HETATM    4  N3  UNL     1       1.202  -0.376  -0.664  1.00  0.00    -0.266 N 
HETATM    5  N6  UNL     1       0.399   0.720  -0.979  1.00  0.00    -0.170 NA
HETATM    6  C16 UNL     1      -0.776   1.086  -0.677  1.00  0.00     0.108 C 
HETATM    7  C17 UNL     1      -1.408   0.537   0.352  1.00  0.00     0.044 C 
ENDROOT
BRANCH   4   8
HETATM    8  C8  UNL     1       2.565  -0.022  -0.449  1.00  0.00     0.054 A 
HETATM    9  C9  UNL     1       3.045   1.261  -0.691  1.00  0.00     0.033 A 
HETATM   10  C10 UNL     1       4.343   1.636  -0.491  1.00  0.00     0.034 A 
HETATM   11  C11 UNL     1       5.277   0.756  -0.030  1.00  0.00     0.064 A 
HETATM   12  C12 UNL     1       4.859  -0.531   0.228  1.00  0.00     0.014 A 
HETATM   13  N5  UNL     1       6.574   0.880   0.241  1.00  0.00    -0.274 N 
HETATM   14  C13 UNL     1       5.988  -1.185   0.674  1.00  0.00     0.152 A 
HETATM   15  C15 UNL     1       3.543  -0.875   0.014  1.00  0.00     0.046 A 
HETATM   16  N4  UNL     1       7.007  -0.278   0.662  1.00  0.00    -0.184 NA
HETATM   17  C14 UNL     1       7.391   2.080   0.101  1.00  0.00     0.180 C 
ENDBRANCH   4   8
BRANCH   1  18
HETATM   18  C4  UNL     1      -2.838  -1.507   0.886  1.00  0.00     0.308 C 
BRANCH  18  19
HETATM   19  N2  UNL     1      -4.013  -1.166   0.164  1.00  0.00     0.089 N 
HETATM   20  H9  UNL     1      -4.797  -1.783   0.449  1.00  0.00     0.316 HD
BRANCH  19  21
HETATM   21  C3  UNL     1      -4.397   0.198   0.302  1.00  0.00     0.304 C 
BRANCH  21  22
HETATM   22  C2  UNL     1      -5.730   0.415  -0.454  1.00  0.00     0.241 C 
HETATM   23  C1  UNL     1      -6.783  -0.479   0.136  1.00  0.00     0.044 C 
BRANCH  22  24
HETATM   24  N1  UNL     1      -6.109   1.800  -0.134  1.00  0.00     0.084 N 
HETATM   25  H5  UNL     1      -5.261   2.375  -0.395  1.00  0.00     0.313 HD
HETATM   26  H6  UNL     1      -6.200   1.888   0.905  1.00  0.00     0.313 HD
ENDBRANCH  22  24
ENDBRANCH  21  22
ENDBRANCH  19  21
ENDBRANCH  18  19
ENDBRANCH   1  18
TORSDOF 6
