REMARK  3 active torsions:
REMARK  status: ('A' for Active; 'I' for Inactive)
REMARK    1  A    between atoms: C2_2  and  C3_3 
REMARK    2  A    between atoms: N1_6  and  C6_7 
REMARK    3  A    between atoms: N4_13  and  C10_14 
ROOT
HETATM    1  C6  UNL     1      -0.327  -0.716   0.277  1.00  0.00     0.134 C 
HETATM    2  C7  UNL     1       0.234  -1.881   0.442  1.00  0.00     0.126 A 
HETATM    3  N2  UNL     1      -0.508  -3.085   0.591  1.00  0.00    -0.357 N 
HETATM    4  C8  UNL     1       0.023  -4.407   0.777  1.00  0.00     0.273 A 
HETATM    5  N3  UNL     1       1.473  -4.399   0.800  1.00  0.00    -0.265 NA
HETATM    6  C9  UNL     1       2.174  -3.323   0.668  1.00  0.00     0.212 A 
HETATM    7  N4  UNL     1       1.631  -2.020   0.484  1.00  0.00    -0.291 N 
HETATM    8  H10 UNL     1      -1.551  -3.078   0.573  1.00  0.00     0.162 HD
ENDROOT
BRANCH   7   9
HETATM    9  C10 UNL     1       2.449  -0.861   0.342  1.00  0.00     0.043 A 
HETATM   10  C11 UNL     1       2.878  -0.438  -0.899  1.00  0.00     0.032 A 
HETATM   11  C12 UNL     1       3.661   0.675  -1.015  1.00  0.00     0.033 A 
HETATM   12  C13 UNL     1       4.041   1.398   0.085  1.00  0.00     0.044 A 
HETATM   13  C14 UNL     1       3.639   1.009   1.303  1.00  0.00    -0.004 A 
HETATM   14  N5  UNL     1       4.830   2.517  -0.036  1.00  0.00    -0.351 N 
HETATM   15  C15 UNL     1       4.065   1.799   2.414  1.00  0.00     0.048 A 
HETATM   16  C17 UNL     1       2.851  -0.112   1.410  1.00  0.00     0.044 A 
HETATM   17  P1  UNL     1       5.029   3.086   1.748  1.00  0.00     0.063 P 
HETATM   18  C16 UNL     1       5.419   3.183  -1.158  1.00  0.00     0.155 C 
ENDBRANCH   7   9
BRANCH   1  19
HETATM   19  N1  UNL     1      -1.738  -0.540   0.229  1.00  0.00    -0.387 N 
HETATM   20  C5  UNL     1      -2.649  -1.150  -0.734  1.00  0.00     0.123 C 
HETATM   21  C4  UNL     1      -3.270   0.009  -1.509  1.00  0.00     0.028 C 
HETATM   22  C3  UNL     1      -4.144   0.756  -0.517  1.00  0.00     0.010 C 
HETATM   23  C19 UNL     1      -3.219   1.380   0.508  1.00  0.00     0.028 C 
HETATM   24  C18 UNL     1      -2.391   0.325   1.217  1.00  0.00     0.123 C 
BRANCH  22  25
HETATM   25  C2  UNL     1      -4.898   1.856  -1.159  1.00  0.00    -0.032 C 
HETATM   26  C1  UNL     1      -6.226   1.930  -1.113  1.00  0.00     0.007 C 
ENDBRANCH  22  25
ENDBRANCH   1  19
TORSDOF 3
