REMARK  2 active torsions:
REMARK  status: ('A' for Active; 'I' for Inactive)
REMARK    1  A    between atoms: C3_3  and  N1_4 
REMARK    2  A    between atoms: C6_8  and  C7_9 
ROOT
HETATM    1  C7  UNL     1       0.223   0.058  -0.280  1.00  0.00    -0.009 C 
HETATM    2  C8  UNL     1       0.992  -0.996  -0.058  1.00  0.00     0.034 C 
HETATM    3  C9  UNL     1       1.345  -0.942  -1.467  1.00  0.00     0.074 C 
HETATM    4  C10 UNL     1       1.311   0.531  -1.190  1.00  0.00     0.077 C 
HETATM    5  C11 UNL     1       2.427   0.992  -0.364  1.00  0.00     0.047 A 
HETATM    6  C12 UNL     1       2.511   2.298   0.073  1.00  0.00     0.049 A 
HETATM    7  C13 UNL     1       3.662   2.422   0.821  1.00  0.00     0.141 A 
HETATM    8  N3  UNL     1       4.218   1.199   0.804  1.00  0.00    -0.179 NA
HETATM    9  N4  UNL     1       3.483   0.357   0.101  1.00  0.00    -0.231 N 
HETATM   10  C14 UNL     1       3.870  -0.991  -0.057  1.00  0.00     0.236 C 
HETATM   11  N5  UNL     1       3.183  -1.729   0.750  1.00  0.00    -0.233 NA
HETATM   12  C15 UNL     1       3.442  -3.125   0.727  1.00  0.00     0.256 C 
HETATM   13  N6  UNL     1       2.186  -3.017   0.856  1.00  0.00    -0.168 NA
HETATM   14  N7  UNL     1       1.418  -1.884   0.933  1.00  0.00    -0.281 N 
HETATM   15  H19 UNL     1       1.169  -1.763   1.937  1.00  0.00     0.189 HD
ENDROOT
BRANCH   1  16
HETATM   16  C6  UNL     1      -1.101   0.568   0.149  1.00  0.00     0.282 C 
HETATM   17  C2  UNL     1      -2.055   0.760  -0.978  1.00  0.00    -0.020 C 
HETATM   18  C1  UNL     1      -1.693   1.300  -2.137  1.00  0.00     0.019 C 
HETATM   19  C3  UNL     1      -3.471   0.299  -0.723  1.00  0.00     0.250 C 
HETATM   20  C4  UNL     1      -3.815   0.896   0.643  1.00  0.00     0.070 C 
HETATM   21  C5  UNL     1      -2.904   0.262   1.666  1.00  0.00     0.273 C 
HETATM   22  N2  UNL     1      -1.706  -0.299   1.128  1.00  0.00     0.096 N 
HETATM   23  H10 UNL     1      -1.761  -1.291   0.876  1.00  0.00     0.317 HD
BRANCH  19  24
HETATM   24  N1  UNL     1      -3.562  -1.140  -0.670  1.00  0.00     0.087 N 
HETATM   25  H4  UNL     1      -4.106  -1.421   0.161  1.00  0.00     0.313 HD
HETATM   26  H5  UNL     1      -3.928  -1.548  -1.545  1.00  0.00     0.313 HD
ENDBRANCH  19  24
ENDBRANCH   1  16
TORSDOF 2
