REMARK  6 active torsions:
REMARK  status: ('A' for Active; 'I' for Inactive)
REMARK    1  A    between atoms: C5_7  and  N3_8 
REMARK    2  A    between atoms: N3_8  and  C6_9 
REMARK    3  A    between atoms: C6_9  and  C7_10 
REMARK    4  A    between atoms: C11_17  and  C12_18 
REMARK    5  A    between atoms: C12_18  and  N7_19 
REMARK    6  A    between atoms: C15_22  and  N8_23 
ROOT
HETATM    1  C7  UNL     1       0.390  -2.288   0.211  1.00  0.00     0.082 A 
HETATM    2  N4  UNL     1       1.128  -3.435   0.332  1.00  0.00    -0.241 NA
HETATM    3  C8  UNL     1       0.537  -4.611   0.504  1.00  0.00     0.255 A 
HETATM    4  N5  UNL     1      -0.780  -4.759   0.570  1.00  0.00    -0.161 NA
HETATM    5  N6  UNL     1      -1.526  -3.673   0.457  1.00  0.00    -0.241 N 
HETATM    6  C9  UNL     1      -2.863  -3.599   0.491  1.00  0.00     0.119 A 
HETATM    7  C10 UNL     1      -3.161  -2.267   0.325  1.00  0.00     0.030 A 
HETATM    8  C11 UNL     1      -2.014  -1.482   0.185  1.00  0.00    -0.009 A 
HETATM    9  C18 UNL     1      -0.990  -2.431   0.278  1.00  0.00     0.092 A 
ENDROOT
BRANCH   1  10
HETATM   10  C6  UNL     1       1.047  -0.948   0.050  1.00  0.00     0.181 C 
BRANCH  10  11
HETATM   11  N3  UNL     1       2.480  -1.215  -0.142  1.00  0.00    -0.384 N 
HETATM   12  H6  UNL     1       2.805  -2.220  -0.294  1.00  0.00     0.160 HD
BRANCH  11  13
HETATM   13  C5  UNL     1       3.489  -0.243  -0.139  1.00  0.00     0.029 A 
HETATM   14  C4  UNL     1       4.808  -0.568  -0.353  1.00  0.00     0.046 A 
HETATM   15  C3  UNL     1       5.796   0.388  -0.316  1.00  0.00     0.038 A 
HETATM   16  C2  UNL     1       7.215   0.729  -0.429  1.00  0.00     0.135 A 
HETATM   17  C21 UNL     1       5.580   1.731  -0.069  1.00  0.00     0.049 A 
HETATM   18  N1  UNL     1       6.955   2.113  -0.169  1.00  0.00    -0.335 N 
HETATM   19  N2  UNL     1       8.334   0.110  -0.667  1.00  0.00    -0.283 NA
HETATM   20  C1  UNL     1       7.743   3.315  -0.053  1.00  0.00     0.158 C 
HETATM   21  H4  UNL     1       8.324  -0.922  -0.835  1.00  0.00     0.188 HD
HETATM   22  C20 UNL     1       4.263   2.062   0.145  1.00  0.00     0.033 A 
HETATM   23  C19 UNL     1       3.257   1.092   0.108  1.00  0.00     0.031 A 
ENDBRANCH  11  13
ENDBRANCH  10  11
ENDBRANCH   1  10
BRANCH   8  24
HETATM   24  C12 UNL     1      -1.905  -0.049  -0.038  1.00  0.00     0.158 C 
BRANCH  24  25
HETATM   25  N7  UNL     1      -3.203   0.548   0.060  1.00  0.00    -0.408 N 
HETATM   26  C13 UNL     1      -3.826   0.627   1.304  1.00  0.00     0.119 C 
HETATM   27  C14 UNL     1      -5.321   0.593   1.159  1.00  0.00     0.044 C 
HETATM   28  C15 UNL     1      -5.891   1.094  -0.106  1.00  0.00     0.077 C 
HETATM   29  C16 UNL     1      -5.037   0.933  -1.330  1.00  0.00     0.044 C 
HETATM   30  C17 UNL     1      -3.609   1.397  -0.991  1.00  0.00     0.119 C 
BRANCH  28  31
HETATM   31  N8  UNL     1      -6.324   2.480  -0.063  1.00  0.00    -0.426 N 
HETATM   32  H19 UNL     1      -7.250   2.613   0.392  1.00  0.00     0.150 HD
HETATM   33  H20 UNL     1      -5.592   3.155   0.186  1.00  0.00     0.150 HD
ENDBRANCH  28  31
ENDBRANCH  24  25
ENDBRANCH   8  24
TORSDOF 6
