REMARK  3 active torsions:
REMARK  status: ('A' for Active; 'I' for Inactive)
REMARK    1  A    between atoms: C5_7  and  N3_8 
REMARK    2  A    between atoms: C9_15  and  C10_16 
REMARK    3  A    between atoms: C10_16  and  N7_17 
ROOT
HETATM    1  N3  UNL     1       1.339   1.516   0.731  1.00  0.00    -0.324 N 
HETATM    2  C6  UNL     1       1.176   1.447   2.140  1.00  0.00     0.233 C 
HETATM    3  N4  UNL     1       0.867   0.422   2.839  1.00  0.00    -0.170 NA
HETATM    4  N5  UNL     1       0.618  -0.848   2.410  1.00  0.00    -0.287 N 
HETATM    5  C7  UNL     1       0.843  -1.861   1.451  1.00  0.00     0.126 C 
HETATM    6  C8  UNL     1       0.091  -1.586   0.411  1.00  0.00     0.103 C 
HETATM    7  N6  UNL     1      -0.796  -0.501   0.220  1.00  0.00    -0.376 N 
HETATM    8  C9  UNL     1      -1.123   0.489  -0.749  1.00  0.00     0.206 C 
HETATM    9  N8  UNL     1      -0.041   1.291  -1.172  1.00  0.00    -0.384 N 
HETATM   10  C16 UNL     1       0.571   2.174  -0.261  1.00  0.00     0.249 C 
HETATM   11  H7  UNL     1      -0.030  -1.409   3.010  1.00  0.00     0.188 HD
HETATM   12  H10 UNL     1      -1.314  -0.550   1.122  1.00  0.00     0.161 HD
HETATM   13  H24 UNL     1      -0.109   1.615  -2.153  1.00  0.00     0.157 HD
ENDROOT
BRANCH   1  14
HETATM   14  C5  UNL     1       2.506   0.774   0.424  1.00  0.00     0.037 A 
HETATM   15  C4  UNL     1       2.784   0.567  -0.936  1.00  0.00     0.045 A 
HETATM   16  C3  UNL     1       3.893  -0.124  -1.376  1.00  0.00     0.013 A 
HETATM   17  C2  UNL     1       4.441  -0.493  -2.601  1.00  0.00     0.152 A 
HETATM   18  C19 UNL     1       4.795  -0.653  -0.477  1.00  0.00     0.064 A 
HETATM   19  N2  UNL     1       5.593  -1.194  -2.390  1.00  0.00    -0.184 NA
HETATM   20  N1  UNL     1       5.808  -1.290  -1.089  1.00  0.00    -0.274 N 
HETATM   21  C1  UNL     1       6.947  -1.972  -0.503  1.00  0.00     0.180 C 
HETATM   22  C18 UNL     1       4.580  -0.485   0.874  1.00  0.00     0.034 A 
HETATM   23  C17 UNL     1       3.457   0.213   1.241  1.00  0.00     0.032 A 
ENDBRANCH   1  14
BRANCH   8  24
HETATM   24  C10 UNL     1      -2.280   1.347  -0.192  1.00  0.00     0.318 C 
BRANCH  24  25
HETATM   25  N7  UNL     1      -3.378   0.415   0.031  1.00  0.00     0.092 N 
HETATM   26  C11 UNL     1      -3.911  -0.105  -1.187  1.00  0.00     0.272 C 
HETATM   27  C12 UNL     1      -5.417  -0.071  -1.126  1.00  0.00     0.030 C 
HETATM   28  C13 UNL     1      -5.841  -0.848   0.118  1.00  0.00     0.003 C 
HETATM   29  C14 UNL     1      -5.340  -0.095   1.335  1.00  0.00     0.030 C 
HETATM   30  C15 UNL     1      -4.367   0.968   0.933  1.00  0.00     0.272 C 
ENDBRANCH  24  25
ENDBRANCH   8  24
TORSDOF 3
