REMARK  5 active torsions:
REMARK  status: ('A' for Active; 'I' for Inactive)
REMARK    1  A    between atoms: C1_2  and  N2_3 
REMARK    2  A    between atoms: N4_8  and  C5_9 
REMARK    3  A    between atoms: C9_15  and  C10_16 
REMARK    4  A    between atoms: C10_16  and  N7_17 
REMARK    5  A    between atoms: C13_20  and  N8_21 
ROOT
HETATM    1  C5  UNL     1       0.536  -1.344  -0.440  1.00  0.00     0.317 A 
HETATM    2  C6  UNL     1       1.119  -2.702  -0.166  1.00  0.00     0.154 A 
HETATM    3  N5  UNL     1       0.792  -3.104   1.012  1.00  0.00    -0.182 NA
HETATM    4  N6  UNL     1      -0.003  -2.134   1.645  1.00  0.00    -0.247 N 
HETATM    5  C7  UNL     1      -0.610  -1.977   2.837  1.00  0.00     0.119 A 
HETATM    6  C8  UNL     1      -1.198  -0.728   2.718  1.00  0.00     0.030 A 
HETATM    7  C9  UNL     1      -0.940  -0.153   1.462  1.00  0.00    -0.012 A 
HETATM    8  C16 UNL     1      -0.173  -1.083   0.805  1.00  0.00     0.082 A 
ENDROOT
BRANCH   1   9
HETATM    9  N4  UNL     1       1.596  -0.373  -0.639  1.00  0.00     0.108 N 
HETATM   10  C4  UNL     1       2.424  -0.770  -1.766  1.00  0.00     0.290 C 
HETATM   11  C3  UNL     1       3.845  -0.967  -1.368  1.00  0.00     0.108 A 
HETATM   12  C2  UNL     1       4.793  -1.200  -2.464  1.00  0.00     0.124 A 
HETATM   13  C19 UNL     1       4.418   0.257  -0.718  1.00  0.00     0.046 A 
HETATM   14  N3  UNL     1       5.778  -0.335  -2.518  1.00  0.00    -0.182 NA
HETATM   15  N2  UNL     1       5.592   0.589  -1.452  1.00  0.00    -0.232 N 
HETATM   16  C18 UNL     1       3.633   0.594   0.297  1.00  0.00     0.031 C 
HETATM   17  C17 UNL     1       2.445  -0.272   0.537  1.00  0.00     0.303 C 
BRANCH  15  18
HETATM   18  C1  UNL     1       6.334   1.713  -1.026  1.00  0.00     0.225 C 
HETATM   19  N1  UNL     1       6.215   2.984  -1.176  1.00  0.00    -0.293 NA
HETATM   20  H1  UNL     1       5.441   3.398  -1.711  1.00  0.00     0.187 HD
ENDBRANCH  15  18
ENDBRANCH   1   9
BRANCH   7  21
HETATM   21  C10 UNL     1      -1.537   1.164   1.203  1.00  0.00     0.157 C 
BRANCH  21  22
HETATM   22  N7  UNL     1      -2.773   1.076   0.537  1.00  0.00    -0.408 N 
HETATM   23  C11 UNL     1      -2.862   0.507  -0.742  1.00  0.00     0.119 C 
HETATM   24  C12 UNL     1      -4.164  -0.288  -0.844  1.00  0.00     0.055 C 
HETATM   25  C13 UNL     1      -5.198   0.417  -0.036  1.00  0.00     0.221 C 
HETATM   26  C14 UNL     1      -4.938   1.920   0.057  1.00  0.00     0.055 C 
HETATM   27  C15 UNL     1      -3.645   2.213   0.753  1.00  0.00     0.119 C 
BRANCH  25  28
HETATM   28  N8  UNL     1      -5.285  -0.104   1.328  1.00  0.00     0.083 N 
HETATM   29  H18 UNL     1      -4.332  -0.334   1.722  1.00  0.00     0.313 HD
HETATM   30  H19 UNL     1      -5.765   0.596   1.937  1.00  0.00     0.313 HD
ENDBRANCH  25  28
ENDBRANCH  21  22
ENDBRANCH   7  21
TORSDOF 5
