REMARK  6 active torsions:
REMARK  status: ('A' for Active; 'I' for Inactive)
REMARK    1  A    between atoms: C2_2  and  N1_3 
REMARK    2  A    between atoms: C6_8  and  N3_9 
REMARK    3  A    between atoms: N3_9  and  C7_10 
REMARK    4  A    between atoms: C11_16  and  O1_17 
REMARK    5  A    between atoms: O1_17  and  C12_18 
REMARK    6  A    between atoms: C12_18  and  C13_19 
ROOT
HETATM    1  C7  UNL     1      -0.104  -2.481   0.109  1.00  0.00     0.144 A 
HETATM    2  N4  UNL     1       0.881  -3.376   0.165  1.00  0.00    -0.223 NA
HETATM    3  C8  UNL     1       0.702  -4.694   0.188  1.00  0.00     0.236 A 
HETATM    4  N5  UNL     1      -0.530  -5.227   0.155  1.00  0.00    -0.241 NA
HETATM    5  C9  UNL     1      -1.577  -4.359   0.098  1.00  0.00     0.071 A 
HETATM    6  C10 UNL     1      -1.372  -3.019   0.076  1.00  0.00     0.068 A 
HETATM    7  C11 UNL     1      -2.561  -2.406   0.019  1.00  0.00     0.066 A 
HETATM    8  C16 UNL     1      -3.614  -3.445   0.005  1.00  0.00     0.095 A 
HETATM    9  C17 UNL     1      -2.840  -4.726   0.061  1.00  0.00     0.012 A 
ENDROOT
BRANCH   1  10
HETATM   10  N3  UNL     1       0.031  -1.073   0.083  1.00  0.00    -0.340 N 
HETATM   11  H8  UNL     1      -0.812  -0.465   0.043  1.00  0.00     0.167 HD
BRANCH  10  12
HETATM   12  C6  UNL     1       1.224  -0.313   0.103  1.00  0.00     0.034 A 
HETATM   13  C5  UNL     1       2.484  -0.863   0.111  1.00  0.00     0.044 A 
HETATM   14  C4  UNL     1       3.667  -0.157   0.133  1.00  0.00     0.014 A 
HETATM   15  C3  UNL     1       5.013  -0.454   0.146  1.00  0.00     0.152 A 
HETATM   16  C20 UNL     1       3.621   1.220   0.148  1.00  0.00     0.064 A 
HETATM   17  N2  UNL     1       5.696   0.703   0.166  1.00  0.00    -0.184 NA
HETATM   18  N1  UNL     1       4.856   1.722   0.168  1.00  0.00    -0.270 N 
HETATM   19  C19 UNL     1       2.384   1.822   0.139  1.00  0.00     0.034 A 
HETATM   20  C18 UNL     1       1.246   1.052   0.118  1.00  0.00     0.032 A 
BRANCH  18  21
HETATM   21  C2  UNL     1       5.186   3.127   0.187  1.00  0.00     0.147 C 
HETATM   22  C1  UNL     1       5.328   3.675  -1.213  1.00  0.00     0.028 C 
ENDBRANCH  18  21
ENDBRANCH  10  12
ENDBRANCH   1  10
BRANCH   7  23
HETATM   23  O1  UNL     1      -2.983  -1.093  -0.025  1.00  0.00    -0.350 OA
BRANCH  23  24
HETATM   24  C12 UNL     1      -3.536  -0.363   1.026  1.00  0.00     0.239 C 
BRANCH  24  25
HETATM   25  C13 UNL     1      -3.916   1.054   0.662  1.00  0.00     0.380 C 
HETATM   26  N6  UNL     1      -2.760   1.790   0.216  1.00  0.00     0.116 N 
HETATM   27  C14 UNL     1      -3.378   2.964  -0.395  1.00  0.00     0.299 C 
HETATM   28  H13 UNL     1      -2.369   1.241  -0.603  1.00  0.00     0.319 HD
HETATM   29  C15 UNL     1      -4.664   2.392  -0.941  1.00  0.00     0.201 C 
HETATM   30  O2  UNL     1      -4.835   1.133  -0.367  1.00  0.00    -0.354 OA
ENDBRANCH  24  25
ENDBRANCH  23  24
ENDBRANCH   7  23
TORSDOF 6
