REMARK  5 active torsions:
REMARK  status: ('A' for Active; 'I' for Inactive)
REMARK    1  A    between atoms: N3_9  and  C6_10 
REMARK    2  A    between atoms: C10_17  and  C11_18 
REMARK    3  A    between atoms: C11_18  and  O1_19 
REMARK    4  A    between atoms: O1_19  and  C12_20 
REMARK    5  A    between atoms: C12_20  and  C13_21 
ROOT
HETATM    1  C6  UNL     1      -2.034  -1.288  -0.818  1.00  0.00     0.158 A 
HETATM    2  N4  UNL     1      -3.369  -1.572  -0.722  1.00  0.00    -0.220 NA
HETATM    3  C7  UNL     1      -3.933  -2.556  -1.485  1.00  0.00     0.258 A 
HETATM    4  N5  UNL     1      -3.133  -3.226  -2.325  1.00  0.00    -0.161 NA
HETATM    5  N6  UNL     1      -1.841  -2.979  -2.443  1.00  0.00    -0.240 N 
HETATM    6  C8  UNL     1      -0.828  -3.480  -3.170  1.00  0.00     0.119 A 
HETATM    7  C9  UNL     1       0.334  -2.811  -2.851  1.00  0.00     0.031 A 
HETATM    8  C10 UNL     1       0.044  -1.843  -1.878  1.00  0.00    -0.001 A 
HETATM    9  C17 UNL     1      -1.290  -2.016  -1.694  1.00  0.00     0.112 A 
ENDROOT
BRANCH   1  10
HETATM   10  N3  UNL     1      -1.788  -0.198   0.047  1.00  0.00    -0.336 N 
HETATM   11  C5  UNL     1      -1.586   1.266  -0.021  1.00  0.00     0.204 C 
HETATM   12  N1  UNL     1      -2.946   1.961  -0.134  1.00  0.00    -0.302 N 
HETATM   13  C4  UNL     1      -0.711   1.807   1.021  1.00  0.00     0.076 C 
HETATM   14  C1  UNL     1      -3.536   2.642  -1.337  1.00  0.00     0.170 C 
HETATM   15  N2  UNL     1      -3.953   2.098   0.945  1.00  0.00    -0.076 NA
HETATM   16  S1  UNL     1      -3.527   1.267   2.393  1.00  0.00    -0.088 SA
HETATM   17  C2  UNL     1      -1.772   0.577   2.228  1.00  0.00    -0.003 C 
HETATM   18  H4  UNL     1      -4.206   1.704   3.553  1.00  0.00     0.116 HD
HETATM   19  C3  UNL     1      -0.598   1.162   2.404  1.00  0.00    -0.007 C 
HETATM   20  C18 UNL     1      -1.720  -0.753   1.481  1.00  0.00     0.172 C 
ENDBRANCH   1  10
BRANCH   8  21
HETATM   21  C11 UNL     1       1.067  -0.938  -1.251  1.00  0.00     0.208 C 
BRANCH  21  22
HETATM   22  O1  UNL     1       1.369  -1.474  -0.048  1.00  0.00    -0.384 OA
BRANCH  22  23
HETATM   23  C12 UNL     1       2.215  -0.962   0.837  1.00  0.00     0.201 C 
BRANCH  23  24
HETATM   24  C13 UNL     1       3.648  -0.788   0.475  1.00  0.00     0.162 C 
HETATM   25  C14 UNL     1       3.949   0.345  -0.483  1.00  0.00     0.147 C 
HETATM   26  N7  UNL     1       3.204   1.475  -0.052  1.00  0.00    -0.417 N 
HETATM   27  C15 UNL     1       3.380   1.858   1.295  1.00  0.00     0.140 C 
HETATM   28  H19 UNL     1       2.360   1.729  -0.548  1.00  0.00     0.153 HD
HETATM   29  C16 UNL     1       3.740   0.738   2.233  1.00  0.00     0.187 C 
HETATM   30  O2  UNL     1       4.344  -0.346   1.654  1.00  0.00    -0.381 OA
ENDBRANCH  23  24
ENDBRANCH  22  23
ENDBRANCH  21  22
ENDBRANCH   8  21
TORSDOF 5
