REMARK  5 active torsions:
REMARK  status: ('A' for Active; 'I' for Inactive)
REMARK    1  A    between atoms: C5_7  and  N3_8 
REMARK    2  A    between atoms: N3_8  and  C6_9 
REMARK    3  A    between atoms: C10_16  and  C11_17 
REMARK    4  A    between atoms: C11_17  and  N7_18 
REMARK    5  A    between atoms: C14_21  and  N8_22 
ROOT
HETATM    1  C6  UNL     1       0.269   0.601   1.247  1.00  0.00     0.159 A 
HETATM    2  N4  UNL     1       0.846   1.410   2.184  1.00  0.00    -0.220 NA
HETATM    3  C7  UNL     1       0.500   1.180   3.484  1.00  0.00     0.258 A 
HETATM    4  N5  UNL     1      -0.362   0.209   3.822  1.00  0.00    -0.161 NA
HETATM    5  N6  UNL     1      -0.916  -0.566   2.908  1.00  0.00    -0.240 N 
HETATM    6  C8  UNL     1      -1.780  -1.611   2.901  1.00  0.00     0.119 A 
HETATM    7  C9  UNL     1      -1.994  -2.053   1.592  1.00  0.00     0.030 A 
HETATM    8  C10 UNL     1      -1.227  -1.240   0.752  1.00  0.00    -0.007 A 
HETATM    9  C17 UNL     1      -0.613  -0.383   1.622  1.00  0.00     0.112 A 
ENDROOT
BRANCH   1  10
HETATM   10  N3  UNL     1       0.794   0.964  -0.041  1.00  0.00    -0.339 N 
HETATM   11  H6  UNL     1       0.464   1.367  -0.940  1.00  0.00     0.167 HD
BRANCH  10  12
HETATM   12  C5  UNL     1       2.214   0.711  -0.163  1.00  0.00     0.034 A 
HETATM   13  C4  UNL     1       2.984   1.074  -1.273  1.00  0.00     0.044 A 
HETATM   14  C3  UNL     1       4.337   0.860  -1.391  1.00  0.00     0.013 A 
HETATM   15  C2  UNL     1       5.275   1.128  -2.361  1.00  0.00     0.152 A 
HETATM   16  C20 UNL     1       5.001   0.246  -0.355  1.00  0.00     0.064 A 
HETATM   17  N2  UNL     1       6.444   0.681  -1.892  1.00  0.00    -0.184 NA
HETATM   18  N1  UNL     1       6.307   0.143  -0.682  1.00  0.00    -0.274 N 
HETATM   19  C1  UNL     1       7.339  -0.452   0.167  1.00  0.00     0.180 C 
HETATM   20  C19 UNL     1       4.330  -0.144   0.768  1.00  0.00     0.034 A 
HETATM   21  C18 UNL     1       2.976   0.105   0.813  1.00  0.00     0.032 A 
ENDBRANCH  10  12
ENDBRANCH   1  10
BRANCH   8  22
HETATM   22  C11 UNL     1      -1.304  -1.357  -0.701  1.00  0.00     0.158 C 
BRANCH  22  23
HETATM   23  N7  UNL     1      -2.345  -0.662  -1.353  1.00  0.00    -0.408 N 
HETATM   24  C12 UNL     1      -2.596   0.694  -1.156  1.00  0.00     0.119 C 
HETATM   25  C13 UNL     1      -3.582   0.983  -0.027  1.00  0.00     0.055 C 
HETATM   26  C14 UNL     1      -4.846   0.258  -0.310  1.00  0.00     0.221 C 
HETATM   27  C15 UNL     1      -4.799  -0.718  -1.441  1.00  0.00     0.055 C 
HETATM   28  C16 UNL     1      -3.506  -1.485  -1.556  1.00  0.00     0.119 C 
BRANCH  26  29
HETATM   29  N8  UNL     1      -5.882   1.253  -0.625  1.00  0.00     0.083 N 
HETATM   30  H17 UNL     1      -5.718   2.124  -0.044  1.00  0.00     0.313 HD
HETATM   31  H18 UNL     1      -5.737   1.549  -1.615  1.00  0.00     0.313 HD
ENDBRANCH  26  29
ENDBRANCH  22  23
ENDBRANCH   8  22
TORSDOF 5
