REMARK  6 active torsions:
REMARK  status: ('A' for Active; 'I' for Inactive)
REMARK    1  A    between atoms: C2_3  and  C3_4 
REMARK    2  A    between atoms: C3_4  and  C4_5 
REMARK    3  A    between atoms: C4_5  and  C5_7 
REMARK    4  A    between atoms: C13_19  and  C14_20 
REMARK    5  A    between atoms: C14_20  and  C15_21 
REMARK    6  A    between atoms: C15_21  and  O3_23 
ROOT
HETATM    1  B1  UNL     1      -6.612   0.050   2.406  1.00  0.00     0.114 B 
HETATM    2  C1  UNL     1      -5.179   1.047   1.675  1.00  0.00    -0.169 C 
HETATM    3  C2  UNL     1      -3.991   1.889   1.027  1.00  0.00     0.052 C 
ENDROOT
BRANCH   3   4
HETATM    4  C3  UNL     1      -3.765   0.689   0.367  1.00  0.00     0.016 C 
BRANCH   4   5
HETATM    5  C4  UNL     1      -2.604   0.848  -0.552  1.00  0.00     0.096 C 
HETATM    6 BR1  UNL     1      -2.944  -0.160  -2.128  1.00  0.00    -0.088 Br
BRANCH   5   7
HETATM    7  C5  UNL     1      -1.291   0.561   0.141  1.00  0.00     0.244 C 
HETATM    8  C6  UNL     1      -1.295  -0.869   0.671  1.00  0.00     0.105 C 
HETATM    9  C7  UNL     1      -0.500  -2.077   0.577  1.00  0.00     0.227 A 
HETATM   10  C17 UNL     1      -0.066  -1.373  -0.290  1.00  0.00     0.391 C 
HETATM   11  N1  UNL     1      -0.317  -3.360   0.916  1.00  0.00    -0.252 NA
HETATM   12  N4  UNL     1       0.918  -2.284  -0.093  1.00  0.00     0.088 N 
HETATM   13  C8  UNL     1       0.814  -3.972   0.521  1.00  0.00     0.209 A 
HETATM   14  N2  UNL     1       1.805  -3.355  -0.202  1.00  0.00    -0.026 NA
HETATM   15  C9  UNL     1       2.275  -2.526  -0.718  1.00  0.00     0.420 A 
HETATM   16  O1  UNL     1       3.014  -1.476  -1.446  1.00  0.00    -0.323 OA
HETATM   17  C10 UNL     1       2.219  -0.211  -1.647  1.00  0.00     0.076 C 
HETATM   18  C11 UNL     1       1.532   0.950  -1.921  1.00  0.00     0.139 C 
HETATM   19  C13 UNL     1       1.668   0.132  -0.217  1.00  0.00    -0.043 C 
HETATM   20  C12 UNL     1       0.458   1.898  -1.327  1.00  0.00     0.278 C 
HETATM   21  N3  UNL     1      -0.314   1.484  -0.200  1.00  0.00     0.090 N 
HETATM   22  H10 UNL     1      -0.797   2.382   0.046  1.00  0.00     0.316 HD
HETATM   23  C16 UNL     1       0.793  -0.506   0.660  1.00  0.00     0.008 C 
BRANCH  19  24
HETATM   24  C14 UNL     1       2.300   1.381   0.239  1.00  0.00     0.146 C 
BRANCH  24  25
HETATM   25  C15 UNL     1       3.803   1.124   0.359  1.00  0.00     0.143 C 
HETATM   26  O2  UNL     1       4.341   0.002   0.129  1.00  0.00    -0.650 OA
BRANCH  25  27
HETATM   27  O3  UNL     1       4.841   1.980   0.715  1.00  0.00    -0.776 OA
HETATM   28  H13 UNL     1       5.709   1.710   1.138  1.00  0.00     0.167 HD
ENDBRANCH  25  27
ENDBRANCH  24  25
ENDBRANCH  19  24
ENDBRANCH   5   7
ENDBRANCH   4   5
ENDBRANCH   3   4
TORSDOF 6
