REMARK  3 active torsions:
REMARK  status: ('A' for Active; 'I' for Inactive)
REMARK    1  A    between atoms: C8_13  and  C9_14 
REMARK    2  A    between atoms: C9_14  and  N6_15 
REMARK    3  A    between atoms: C12_18  and  N7_19 
ROOT
HETATM    1  C1  UNL     1       6.766  -0.055  -2.238  1.00  0.00     0.150 C 
HETATM    2  N1  UNL     1       5.362  -0.396  -2.334  1.00  0.00    -0.376 N 
HETATM    3  C2  UNL     1       4.534  -0.485  -1.198  1.00  0.00     0.088 C 
HETATM    4  C3  UNL     1       3.839  -0.810  -0.142  1.00  0.00     0.036 C 
HETATM    5  C4  UNL     1       2.933  -0.513   0.932  1.00  0.00     0.120 C 
HETATM    6  N2  UNL     1       2.322   0.587   1.263  1.00  0.00    -0.239 NA
HETATM    7  C5  UNL     1       1.473   0.491   2.425  1.00  0.00     0.179 A 
HETATM    8  N3  UNL     1       1.729   0.825   3.615  1.00  0.00    -0.218 NA
HETATM    9  C6  UNL     1       0.814   0.683   4.723  1.00  0.00     0.257 A 
HETATM   10  N4  UNL     1      -0.365   0.165   4.457  1.00  0.00    -0.167 NA
HETATM   11  N5  UNL     1      -0.605  -0.198   3.094  1.00  0.00    -0.273 N 
HETATM   12  C7  UNL     1       0.232  -0.092   1.947  1.00  0.00     0.102 A 
HETATM   13  C8  UNL     1      -0.526  -0.490   0.946  1.00  0.00    -0.015 C 
HETATM   14  C15 UNL     1       0.303  -0.032  -0.208  1.00  0.00     0.055 C 
HETATM   15  C16 UNL     1       0.415   0.024  -1.585  1.00  0.00    -0.014 C 
HETATM   16  C17 UNL     1       1.622   0.710  -2.107  1.00  0.00     0.047 C 
HETATM   17  C18 UNL     1       2.427  -0.268  -2.878  1.00  0.00     0.085 C 
HETATM   18  N8  UNL     1       3.319  -0.935  -3.475  1.00  0.00    -0.286 NA
HETATM   19  C19 UNL     1       4.700  -0.676  -3.603  1.00  0.00     0.271 C 
HETATM   20  H8  UNL     1      -1.603  -0.556   3.232  1.00  0.00     0.189 HD
ENDROOT
BRANCH  13  21
HETATM   21  C9  UNL     1      -1.870  -1.110   0.886  1.00  0.00     0.309 C 
BRANCH  21  22
HETATM   22  N6  UNL     1      -2.827  -0.291   0.174  1.00  0.00     0.092 N 
HETATM   23  C10 UNL     1      -4.033  -1.116   0.157  1.00  0.00     0.275 C 
HETATM   24  C11 UNL     1      -5.264  -0.330  -0.209  1.00  0.00     0.065 C 
HETATM   25  C12 UNL     1      -5.558   0.759   0.807  1.00  0.00     0.221 C 
HETATM   26  C13 UNL     1      -4.334   0.933   1.689  1.00  0.00     0.065 C 
HETATM   27  C14 UNL     1      -3.069   0.972   0.828  1.00  0.00     0.275 C 
BRANCH  25  28
HETATM   28  N7  UNL     1      -5.895   1.949   0.092  1.00  0.00     0.083 N 
HETATM   29  H16 UNL     1      -6.909   2.231   0.182  1.00  0.00     0.313 HD
HETATM   30  H17 UNL     1      -5.272   2.733   0.388  1.00  0.00     0.313 HD
ENDBRANCH  25  28
ENDBRANCH  21  22
ENDBRANCH  13  21
TORSDOF 3
