REMARK  6 active torsions:
REMARK  status: ('A' for Active; 'I' for Inactive)
REMARK    1  A    between atoms: N2_8  and  C7_9 
REMARK    2  A    between atoms: C9_13  and  C10_14 
REMARK    3  A    between atoms: C10_14  and  C11_15 
REMARK    4  A    between atoms: C11_15  and  O1_16 
REMARK    5  A    between atoms: O1_16  and  C12_17 
REMARK    6  A    between atoms: C12_17  and  C13_18 
ROOT
HETATM    1  C7  UNL     1       2.345   0.753  -0.154  1.00  0.00     0.107 A 
HETATM    2  N3  UNL     1       2.597   1.838  -0.758  1.00  0.00    -0.229 NA
HETATM    3  C8  UNL     1       1.678   2.832  -1.087  1.00  0.00     0.229 A 
HETATM    4  N4  UNL     1       0.472   2.700  -0.792  1.00  0.00    -0.277 NA
HETATM    5  C9  UNL     1      -0.048   1.546  -0.114  1.00  0.00     0.118 A 
HETATM    6  C17 UNL     1       0.948   0.532   0.312  1.00  0.00     0.105 A 
ENDROOT
BRANCH   5   7
HETATM    7  C10 UNL     1      -0.836   2.088   1.065  1.00  0.00     0.054 C 
BRANCH   7   8
HETATM    8  C11 UNL     1      -1.496   1.038   1.899  1.00  0.00     0.169 C 
BRANCH   8   9
HETATM    9  O1  UNL     1      -2.378   0.264   1.179  1.00  0.00    -0.388 OA
BRANCH   9  10
HETATM   10  C12 UNL     1      -3.394   1.030   0.652  1.00  0.00     0.201 C 
BRANCH  10  11
HETATM   11  C13 UNL     1      -4.380   0.142  -0.123  1.00  0.00     0.173 C 
HETATM   12  C14 UNL     1      -4.967  -0.880   0.821  1.00  0.00     0.303 C 
HETATM   13  N5  UNL     1      -5.762  -1.826   0.079  1.00  0.00     0.088 N 
HETATM   14  C15 UNL     1      -5.847  -1.479  -1.327  1.00  0.00     0.295 C 
HETATM   15  H23 UNL     1      -6.736  -1.895   0.444  1.00  0.00     0.316 HD
HETATM   16  C16 UNL     1      -4.446  -1.325  -1.899  1.00  0.00     0.198 C 
HETATM   17  O2  UNL     1      -3.664  -0.480  -1.149  1.00  0.00    -0.380 OA
ENDBRANCH  10  11
ENDBRANCH   9  10
ENDBRANCH   8   9
ENDBRANCH   7   8
ENDBRANCH   5   7
BRANCH   1  18
HETATM   18  N2  UNL     1       3.117  -0.368   0.265  1.00  0.00    -0.336 N 
HETATM   19  C2  UNL     1       3.433  -1.590  -0.475  1.00  0.00     0.319 C 
HETATM   20  C1  UNL     1       2.777  -1.664  -1.800  1.00  0.00     0.066 C 
HETATM   21  N1  UNL     1       4.882  -1.796  -0.508  1.00  0.00     0.109 N 
HETATM   22  C3  UNL     1       5.613  -0.583  -0.788  1.00  0.00     0.299 C 
HETATM   23  H5  UNL     1       5.073  -2.508  -1.238  1.00  0.00     0.318 HD
HETATM   24  C4  UNL     1       5.869   0.226   0.433  1.00  0.00     0.000 C 
HETATM   25  C5  UNL     1       5.002   0.382   1.437  1.00  0.00    -0.009 C 
HETATM   26  C6  UNL     1       3.611  -0.169   1.629  1.00  0.00     0.153 C 
ENDBRANCH   1  18
TORSDOF 6
