REMARK  8 active torsions:
REMARK  status: ('A' for Active; 'I' for Inactive)
REMARK    1  A    between atoms: C3_4  and  N2_5 
REMARK    2  A    between atoms: C5_7  and  C6_8 
REMARK    3  A    between atoms: C6_8  and  C7_9 
REMARK    4  A    between atoms: C7_9  and  N3_10 
REMARK    5  A    between atoms: N3_10  and  C8_11 
REMARK    6  A    between atoms: C11_18  and  C12_19 
REMARK    7  A    between atoms: C12_19  and  N7_20 
REMARK    8  A    between atoms: C15_23  and  N8_24 
ROOT
HETATM    1  C8  UNL     1       0.359  -1.821  -1.255  1.00  0.00     0.157 A 
HETATM    2  N4  UNL     1       1.383  -2.215  -2.042  1.00  0.00    -0.220 NA
HETATM    3  C9  UNL     1       1.101  -2.902  -3.196  1.00  0.00     0.257 A 
HETATM    4  N5  UNL     1      -0.187  -3.083  -3.366  1.00  0.00    -0.162 NA
HETATM    5  N6  UNL     1      -1.206  -2.720  -2.633  1.00  0.00    -0.256 N 
HETATM    6  C10 UNL     1      -2.451  -3.013  -3.025  1.00  0.00     0.033 C 
HETATM    7  B1  UNL     1      -2.966  -3.096  -0.488  1.00  0.00     0.235 B 
HETATM    8  C11 UNL     1      -1.955  -1.607  -0.641  1.00  0.00    -0.061 C 
HETATM    9  C18 UNL     1      -0.963  -2.061  -1.527  1.00  0.00     0.095 A 
ENDROOT
BRANCH   1  10
HETATM   10  N3  UNL     1       1.073  -1.187  -0.210  1.00  0.00    -0.349 N 
HETATM   11  H10 UNL     1       0.309  -1.150   0.477  1.00  0.00     0.167 HD
BRANCH  10  12
HETATM   12  C7  UNL     1       1.689  -0.593   0.792  1.00  0.00     0.092 C 
BRANCH  12  13
HETATM   13  C6  UNL     1       2.975  -0.609   0.448  1.00  0.00     0.043 C 
BRANCH  13  14
HETATM   14  C5  UNL     1       4.173  -0.109   1.135  1.00  0.00     0.023 A 
HETATM   15  N1  UNL     1       5.544   0.118   1.313  1.00  0.00    -0.355 N 
HETATM   16  C1  UNL     1       6.466  -0.338   0.250  1.00  0.00     0.156 C 
HETATM   17  C2  UNL     1       5.116   0.712   2.582  1.00  0.00     0.037 A 
HETATM   18  C3  UNL     1       6.210   1.171   3.248  1.00  0.00     0.106 C 
HETATM   19  C4  UNL     1       3.648   0.398   2.249  1.00  0.00     0.103 A 
BRANCH  18  20
HETATM   20  N2  UNL     1       7.521   1.075   2.775  1.00  0.00    -0.406 N 
HETATM   21  H5  UNL     1       8.498   0.949   2.458  1.00  0.00     0.155 HD
HETATM   22  H6  UNL     1       8.085   1.670   2.143  1.00  0.00     0.155 HD
ENDBRANCH  18  20
ENDBRANCH  13  14
ENDBRANCH  12  13
ENDBRANCH  10  12
ENDBRANCH   1  10
BRANCH   8  23
HETATM   23  C12 UNL     1      -2.166  -0.294  -0.038  1.00  0.00     0.297 C 
BRANCH  23  24
HETATM   24  N7  UNL     1      -2.766   0.658  -0.947  1.00  0.00     0.091 N 
HETATM   25  C13 UNL     1      -2.888   1.919  -0.290  1.00  0.00     0.275 C 
HETATM   26  C14 UNL     1      -4.045   2.130   0.613  1.00  0.00     0.065 C 
HETATM   27  C15 UNL     1      -5.271   1.457   0.096  1.00  0.00     0.221 C 
HETATM   28  C16 UNL     1      -5.117   1.272  -1.409  1.00  0.00     0.065 C 
HETATM   29  C17 UNL     1      -3.978   0.253  -1.557  1.00  0.00     0.275 C 
BRANCH  27  30
HETATM   30  N8  UNL     1      -6.457   2.180   0.466  1.00  0.00     0.083 N 
HETATM   31  H20 UNL     1      -7.283   1.580   0.418  1.00  0.00     0.313 HD
HETATM   32  H21 UNL     1      -6.550   3.106  -0.002  1.00  0.00     0.313 HD
ENDBRANCH  27  30
ENDBRANCH  23  24
ENDBRANCH   8  23
TORSDOF 8
