REMARK  8 active torsions:
REMARK  status: ('A' for Active; 'I' for Inactive)
REMARK    1  A    between atoms: N1_2  and  C2_3 
REMARK    2  A    between atoms: C2_3  and  C3_4 
REMARK    3  A    between atoms: C3_4  and  O1_5 
REMARK    4  A    between atoms: O1_5  and  C4_6 
REMARK    5  A    between atoms: C4_6  and  C5_7 
REMARK    6  A    between atoms: C5_7  and  O2_8 
REMARK    7  A    between atoms: O2_8  and  C6_9 
REMARK    8  A    between atoms: C6_9  and  C7_10 
ROOT
HETATM    1  C7  UNL     1      -1.447  -1.161   0.028  1.00  0.00     0.069 C 
HETATM    2  C8  UNL     1      -0.820  -1.073  -1.299  1.00  0.00     0.003 C 
HETATM    3  C9  UNL     1      -1.468  -1.630  -2.334  1.00  0.00     0.106 C 
HETATM    4  N2  UNL     1      -2.715  -2.238  -1.925  1.00  0.00    -0.289 N 
HETATM    5  N3  UNL     1      -4.007  -1.696  -1.942  1.00  0.00    -0.167 NA
HETATM    6  C10 UNL     1      -4.808  -1.691  -0.932  1.00  0.00     0.279 C 
HETATM    7  N4  UNL     1      -4.568  -2.217   0.382  1.00  0.00    -0.141 NA
HETATM    8  N5  UNL     1      -3.966  -1.520   1.277  1.00  0.00    -0.149 NA
HETATM    9  C11 UNL     1      -3.570  -0.212   0.852  1.00  0.00     0.087 A 
HETATM   10  C12 UNL     1      -4.487   0.789   1.097  1.00  0.00     0.050 A 
HETATM   11  C13 UNL     1      -4.196   2.086   0.722  1.00  0.00     0.022 A 
HETATM   12  C14 UNL     1      -4.890   3.281   0.827  1.00  0.00     0.161 A 
HETATM   13  N6  UNL     1      -4.067   4.190   0.275  1.00  0.00    -0.140 NA
HETATM   14  O3  UNL     1      -2.975   3.616  -0.131  1.00  0.00    -0.213 OA
HETATM   15  C15 UNL     1      -2.972   2.331   0.104  1.00  0.00     0.113 A 
HETATM   16  C16 UNL     1      -2.072   1.317  -0.132  1.00  0.00     0.050 A 
HETATM   17  C17 UNL     1      -2.355   0.021   0.240  1.00  0.00    -0.015 A 
HETATM   18  H18 UNL     1      -2.835  -3.204  -1.542  1.00  0.00     0.188 HD
ENDROOT
BRANCH   1  19
HETATM   19  C6  UNL     1      -0.543  -1.390   1.176  1.00  0.00     0.181 C 
BRANCH  19  20
HETATM   20  O2  UNL     1       0.426  -0.506   1.482  1.00  0.00    -0.388 OA
BRANCH  20  21
HETATM   21  C5  UNL     1       1.373  -0.274   0.506  1.00  0.00     0.193 C 
BRANCH  21  22
HETATM   22  C4  UNL     1       2.450   0.678   1.006  1.00  0.00     0.193 C 
BRANCH  22  23
HETATM   23  O1  UNL     1       3.412   0.949   0.073  1.00  0.00    -0.387 OA
BRANCH  23  24
HETATM   24  C3  UNL     1       4.110  -0.153  -0.363  1.00  0.00     0.197 C 
BRANCH  24  25
HETATM   25  C2  UNL     1       5.171   0.318  -1.372  1.00  0.00     0.295 C 
BRANCH  25  26
HETATM   26  N1  UNL     1       6.047   1.242  -0.701  1.00  0.00     0.081 N 
HETATM   27  C1  UNL     1       6.798   0.449   0.286  1.00  0.00     0.306 C 
HETATM   28  H4  UNL     1       5.472   1.920  -0.171  1.00  0.00     0.315 HD
ENDBRANCH  25  26
ENDBRANCH  24  25
ENDBRANCH  23  24
ENDBRANCH  22  23
ENDBRANCH  21  22
ENDBRANCH  20  21
ENDBRANCH  19  20
ENDBRANCH   1  19
TORSDOF 8
