REMARK  3 active torsions:
REMARK  status: ('A' for Active; 'I' for Inactive)
REMARK    1  A    between atoms: N1_2  and  C2_3 
REMARK    2  A    between atoms: C6_10  and  N5_11 
REMARK    3  A    between atoms: C12_17  and  N6_18 
ROOT
HETATM    1  C2  UNL     1       3.134   0.146   0.021  1.00  0.00     0.128 C 
HETATM    2  N2  UNL     1       4.304   0.297  -0.535  1.00  0.00    -0.225 NA
HETATM    3  C3  UNL     1       4.746  -0.597  -1.552  1.00  0.00     0.257 C 
HETATM    4  N3  UNL     1       3.960  -1.573  -1.931  1.00  0.00    -0.165 NA
HETATM    5  N4  UNL     1       2.697  -1.738  -1.356  1.00  0.00    -0.266 N 
HETATM    6  C4  UNL     1       1.521  -2.567  -1.553  1.00  0.00     0.111 C 
HETATM    7  C5  UNL     1       0.389  -1.913  -1.167  1.00  0.00     0.019 C 
HETATM    8  C6  UNL     1       0.805  -0.578  -0.682  1.00  0.00     0.136 C 
HETATM    9  C15 UNL     1       2.210  -0.909  -0.241  1.00  0.00     0.204 C 
ENDROOT
BRANCH   8  10
HETATM   10  N5  UNL     1      -0.020  -0.051   0.288  1.00  0.00    -0.402 N 
HETATM   11  C7  UNL     1      -0.284  -0.690   1.517  1.00  0.00     0.117 C 
HETATM   12  C8  UNL     1      -1.248  -1.858   1.340  1.00  0.00     0.019 C 
HETATM   13  C9  UNL     1      -2.451  -1.382   0.535  1.00  0.00     0.002 C 
HETATM   14  C10 UNL     1      -3.074  -0.176   1.108  1.00  0.00     0.002 C 
HETATM   15  C11 UNL     1      -3.723   0.688   0.031  1.00  0.00     0.035 C 
HETATM   16  C12 UNL     1      -2.752   0.953  -1.081  1.00  0.00     0.219 C 
HETATM   17  C13 UNL     1      -1.500   1.657  -0.828  1.00  0.00     0.054 C 
HETATM   18  C14 UNL     1      -0.526   1.272   0.189  1.00  0.00     0.119 C 
BRANCH  16  19
HETATM   19  N6  UNL     1      -3.522   1.846  -2.004  1.00  0.00     0.083 N 
HETATM   20  H20 UNL     1      -2.954   2.007  -2.874  1.00  0.00     0.313 HD
HETATM   21  H21 UNL     1      -4.384   1.335  -2.304  1.00  0.00     0.313 HD
ENDBRANCH  16  19
ENDBRANCH   8  10
BRANCH   1  22
HETATM   22  N1  UNL     1       2.932   1.159   0.987  1.00  0.00    -0.381 N 
HETATM   23  C1  UNL     1       3.857   2.224   1.349  1.00  0.00     0.147 C 
HETATM   24  H4  UNL     1       2.033   1.210   1.551  1.00  0.00     0.160 HD
ENDBRANCH   1  22
TORSDOF 3
