REMARK  6 active torsions:
REMARK  status: ('A' for Active; 'I' for Inactive)
REMARK    1  A    between atoms: C5_6  and  N2_7 
REMARK    2  A    between atoms: N2_7  and  C6_8 
REMARK    3  A    between atoms: C10_15  and  C11_16 
REMARK    4  A    between atoms: C11_16  and  O1_17 
REMARK    5  A    between atoms: O1_17  and  C12_18 
REMARK    6  A    between atoms: C12_18  and  C13_19 
ROOT
HETATM    1  C6  UNL     1      -1.310  -2.297   0.819  1.00  0.00     0.159 A 
HETATM    2  N3  UNL     1      -2.210  -3.282   0.669  1.00  0.00    -0.220 NA
HETATM    3  C7  UNL     1      -1.814  -4.499   0.202  1.00  0.00     0.258 A 
HETATM    4  N4  UNL     1      -0.515  -4.674  -0.097  1.00  0.00    -0.161 NA
HETATM    5  N5  UNL     1       0.338  -3.664   0.070  1.00  0.00    -0.240 N 
HETATM    6  C8  UNL     1       1.652  -3.745  -0.189  1.00  0.00     0.119 A 
HETATM    7  C9  UNL     1       2.138  -2.494   0.132  1.00  0.00     0.031 A 
HETATM    8  C10 UNL     1       1.145  -1.650   0.582  1.00  0.00    -0.001 A 
HETATM    9  C17 UNL     1       0.013  -2.442   0.526  1.00  0.00     0.112 A 
ENDROOT
BRANCH   1  10
HETATM   10  N2  UNL     1      -1.861  -1.115   1.325  1.00  0.00    -0.332 N 
HETATM   11  H7  UNL     1      -1.898  -0.494   2.162  1.00  0.00     0.168 HD
BRANCH  10  12
HETATM   12  C5  UNL     1      -2.722  -0.272   0.626  1.00  0.00     0.088 C 
HETATM   13  C4  UNL     1      -2.825   1.000   0.171  1.00  0.00     0.040 C 
HETATM   14  C3  UNL     1      -3.814   1.942   0.054  1.00  0.00     0.022 C 
HETATM   15  C2  UNL     1      -5.096   1.548  -0.351  1.00  0.00     0.112 C 
HETATM   16  N1  UNL     1      -6.402   1.159  -0.441  1.00  0.00    -0.285 N 
HETATM   17  C1  UNL     1      -7.252   2.266  -0.834  1.00  0.00     0.179 C 
HETATM   18  N7  UNL     1      -6.760  -0.082  -0.184  1.00  0.00    -0.177 NA
HETATM   19  C20 UNL     1      -6.149  -1.140  -0.703  1.00  0.00     0.203 C 
HETATM   20  C19 UNL     1      -4.948  -0.860  -0.245  1.00  0.00    -0.051 C 
HETATM   21  C18 UNL     1      -3.911  -0.597   0.158  1.00  0.00    -0.043 C 
ENDBRANCH  10  12
ENDBRANCH   1  10
BRANCH   8  22
HETATM   22  C11 UNL     1       1.077  -0.269   1.054  1.00  0.00     0.208 C 
BRANCH  22  23
HETATM   23  O1  UNL     1       2.227   0.455   0.963  1.00  0.00    -0.384 OA
BRANCH  23  24
HETATM   24  C12 UNL     1       2.744   0.684  -0.280  1.00  0.00     0.201 C 
BRANCH  24  25
HETATM   25  C13 UNL     1       4.025   1.494  -0.131  1.00  0.00     0.173 C 
HETATM   26  C14 UNL     1       4.959   0.738   0.797  1.00  0.00     0.303 C 
HETATM   27  N6  UNL     1       6.177   1.493   1.034  1.00  0.00     0.088 N 
HETATM   28  C15 UNL     1       6.793   1.684  -0.265  1.00  0.00     0.295 C 
HETATM   29  H18 UNL     1       5.867   2.396   1.457  1.00  0.00     0.316 HD
HETATM   30  C16 UNL     1       5.808   2.420  -1.143  1.00  0.00     0.198 C 
HETATM   31  O2  UNL     1       4.618   1.760  -1.345  1.00  0.00    -0.380 OA
ENDBRANCH  24  25
ENDBRANCH  23  24
ENDBRANCH  22  23
ENDBRANCH   8  22
TORSDOF 6
