REMARK  6 active torsions:
REMARK  status: ('A' for Active; 'I' for Inactive)
REMARK    1  A    between atoms: P1_1  and  C1_2 
REMARK    2  A    between atoms: C4_7  and  P2_8 
REMARK    3  A    between atoms: P2_8  and  C5_9 
REMARK    4  A    between atoms: C9_16  and  C10_17 
REMARK    5  A    between atoms: C10_17  and  C11_18 
REMARK    6  A    between atoms: C11_18  and  C12_19 
ROOT
HETATM    1  C5  UNL     1      -0.139  -1.228  -0.938  1.00  0.00     0.092 A 
HETATM    2  N3  UNL     1       0.348  -1.813  -2.058  1.00  0.00    -0.237 NA
HETATM    3  C6  UNL     1      -0.075  -3.063  -2.410  1.00  0.00     0.256 A 
HETATM    4  N4  UNL     1      -0.972  -3.693  -1.632  1.00  0.00    -0.161 NA
HETATM    5  N5  UNL     1      -1.411  -3.073  -0.554  1.00  0.00    -0.241 N 
HETATM    6  C7  UNL     1      -2.289  -3.598   0.314  1.00  0.00     0.119 A 
HETATM    7  C8  UNL     1      -2.461  -2.650   1.284  1.00  0.00     0.029 A 
HETATM    8  C9  UNL     1      -1.694  -1.493   1.058  1.00  0.00    -0.025 A 
HETATM    9  C16 UNL     1      -1.061  -1.849  -0.123  1.00  0.00     0.093 A 
ENDROOT
BRANCH   1  10
HETATM   10  P2  UNL     1       0.523   0.396  -0.519  1.00  0.00    -0.042 P 
HETATM   11  H6  UNL     1      -0.004   1.459  -1.333  1.00  0.00     0.068 HD
BRANCH  10  12
HETATM   12  C4  UNL     1       2.325   0.438  -0.321  1.00  0.00    -0.044 A 
HETATM   13  C3  UNL     1       2.904   1.616  -0.283  1.00  0.00     0.042 A 
HETATM   14  C2  UNL     1       4.354   1.640  -0.123  1.00  0.00     0.085 A 
HETATM   15  N2  UNL     1       5.142   2.663  -0.058  1.00  0.00    -0.178 NA
HETATM   16  C19 UNL     1       5.174   0.423  -0.007  1.00  0.00    -0.003 A 
HETATM   17  N1  UNL     1       6.475   2.275   0.097  1.00  0.00    -0.300 N 
HETATM   18  C1  UNL     1       6.595   0.810   0.141  1.00  0.00     0.158 A 
HETATM   19  H4  UNL     1       7.229   3.008   0.164  1.00  0.00     0.183 HD
HETATM   20  C18 UNL     1       4.436  -0.674  -0.065  1.00  0.00    -0.010 A 
HETATM   21  C17 UNL     1       2.973  -0.872  -0.221  1.00  0.00     0.067 A 
BRANCH  18  22
HETATM   22  P1  UNL     1       7.540   0.327  -1.393  1.00  0.00    -0.110 P 
HETATM   23  H1  UNL     1       8.601   1.309  -1.604  1.00  0.00     0.057 HD
HETATM   24  H2  UNL     1       6.598   0.477  -2.507  1.00  0.00     0.057 HD
ENDBRANCH  18  22
ENDBRANCH  10  12
ENDBRANCH   1  10
BRANCH   8  25
HETATM   25  C10 UNL     1      -1.588  -0.248   1.820  1.00  0.00     0.043 C 
BRANCH  25  26
HETATM   26  C11 UNL     1      -2.357   0.944   1.436  1.00  0.00     0.038 C 
BRANCH  26  27
HETATM   27  C12 UNL     1      -3.856   0.814   1.464  1.00  0.00     0.149 C 
HETATM   28  C13 UNL     1      -4.390  -0.213   0.512  1.00  0.00     0.301 C 
HETATM   29  N6  UNL     1      -5.524   0.397  -0.200  1.00  0.00     0.087 N 
HETATM   30  C14 UNL     1      -4.957   1.521  -0.956  1.00  0.00     0.295 C 
HETATM   31  H17 UNL     1      -6.141   0.800   0.552  1.00  0.00     0.316 HD
HETATM   32  C15 UNL     1      -4.405   2.550   0.014  1.00  0.00     0.198 C 
HETATM   33  O1  UNL     1      -4.467   2.074   1.326  1.00  0.00    -0.382 OA
ENDBRANCH  26  27
ENDBRANCH  25  26
ENDBRANCH   8  25
TORSDOF 6
