REMARK  6 active torsions:
REMARK  status: ('A' for Active; 'I' for Inactive)
REMARK    1  A    between atoms: C5_7  and  N3_8 
REMARK    2  A    between atoms: N3_8  and  C6_9 
REMARK    3  A    between atoms: C9_14  and  P1_15 
REMARK    4  A    between atoms: P1_15  and  O1_16 
REMARK    5  A    between atoms: O1_16  and  C10_17 
REMARK    6  A    between atoms: C10_17  and  C11_18 
ROOT
HETATM    1  C6  UNL     1       1.948  -0.239   0.029  1.00  0.00     0.048 C 
HETATM    2  C7  UNL     1       2.373   0.931   0.448  1.00  0.00     0.132 C 
HETATM    3  N4  UNL     1       1.839   1.943  -0.106  1.00  0.00    -0.170 NA
HETATM    4  N5  UNL     1       0.475   1.851  -0.408  1.00  0.00    -0.281 N 
HETATM    5  C8  UNL     1      -0.255   0.677   0.010  1.00  0.00     0.036 C 
HETATM    6  C9  UNL     1      -1.586   0.565  -0.106  1.00  0.00     0.059 C 
HETATM    7  C15 UNL     1       0.584  -0.433   0.590  1.00  0.00     0.118 C 
HETATM    8  H7  UNL     1      -0.057   2.584  -0.922  1.00  0.00     0.189 HD
ENDROOT
BRANCH   1   9
HETATM    9  N3  UNL     1       2.858  -0.979  -0.815  1.00  0.00    -0.357 N 
HETATM   10  H6  UNL     1       2.170  -1.374  -1.494  1.00  0.00     0.166 HD
BRANCH   9  11
HETATM   11  C5  UNL     1       4.248  -0.911  -0.453  1.00  0.00     0.033 A 
HETATM   12  C4  UNL     1       4.874   0.187  -1.005  1.00  0.00     0.044 A 
HETATM   13  C3  UNL     1       6.232   0.351  -0.719  1.00  0.00     0.013 A 
HETATM   14  C2  UNL     1       7.210   1.277  -1.052  1.00  0.00     0.152 A 
HETATM   15  C18 UNL     1       6.846  -0.581   0.082  1.00  0.00     0.064 A 
HETATM   16  N2  UNL     1       8.369   0.882  -0.450  1.00  0.00    -0.184 NA
HETATM   17  N1  UNL     1       8.142  -0.237   0.230  1.00  0.00    -0.274 N 
HETATM   18  C1  UNL     1       9.158  -0.942   0.999  1.00  0.00     0.180 C 
HETATM   19  C17 UNL     1       6.208  -1.659   0.617  1.00  0.00     0.034 A 
HETATM   20  C16 UNL     1       4.878  -1.845   0.354  1.00  0.00     0.032 A 
ENDBRANCH   9  11
ENDBRANCH   1   9
BRANCH   6  21
HETATM   21  P1  UNL     1      -2.583  -0.868   0.392  1.00  0.00     0.037 P 
HETATM   22  H9  UNL     1      -2.145  -2.103  -0.179  1.00  0.00     0.092 HD
BRANCH  21  23
HETATM   23  O1  UNL     1      -4.250  -0.507   0.109  1.00  0.00    -0.360 OA
BRANCH  23  24
HETATM   24  C10 UNL     1      -4.562   0.691   0.749  1.00  0.00     0.206 C 
BRANCH  24  25
HETATM   25  C11 UNL     1      -6.046   0.942   0.486  1.00  0.00     0.173 C 
HETATM   26  C12 UNL     1      -6.778  -0.245   1.101  1.00  0.00     0.303 C 
HETATM   27  N6  UNL     1      -8.173  -0.242   0.769  1.00  0.00     0.088 N 
HETATM   28  C13 UNL     1      -8.492   0.643  -0.333  1.00  0.00     0.295 C 
HETATM   29  H15 UNL     1      -8.471  -1.212   0.531  1.00  0.00     0.316 HD
HETATM   30  C14 UNL     1      -7.396   0.489  -1.356  1.00  0.00     0.198 C 
HETATM   31  O2  UNL     1      -6.230   1.029  -0.870  1.00  0.00    -0.380 OA
ENDBRANCH  24  25
ENDBRANCH  23  24
ENDBRANCH  21  23
ENDBRANCH   6  21
TORSDOF 6
