REMARK  5 active torsions:
REMARK  status: ('A' for Active; 'I' for Inactive)
REMARK    1  A    between atoms: N3_9  and  C7_10 
REMARK    2  A    between atoms: C11_17  and  C12_18 
REMARK    3  A    between atoms: C12_18  and  O1_19 
REMARK    4  A    between atoms: O1_19  and  C13_20 
REMARK    5  A    between atoms: C13_20  and  C14_21 
ROOT
HETATM    1  C7  UNL     1       2.397   1.694   0.062  1.00  0.00     0.158 A 
HETATM    2  N4  UNL     1       3.665   2.176  -0.111  1.00  0.00    -0.220 NA
HETATM    3  C8  UNL     1       3.819   3.474  -0.500  1.00  0.00     0.258 A 
HETATM    4  N5  UNL     1       2.765   4.287  -0.716  1.00  0.00    -0.161 NA
HETATM    5  N6  UNL     1       1.543   3.817  -0.549  1.00  0.00    -0.240 N 
HETATM    6  C9  UNL     1       0.292   4.290  -0.666  1.00  0.00     0.119 A 
HETATM    7  C10 UNL     1      -0.630   3.312  -0.360  1.00  0.00     0.031 A 
HETATM    8  C11 UNL     1       0.067   2.137  -0.026  1.00  0.00    -0.001 A 
HETATM    9  C18 UNL     1       1.357   2.549  -0.170  1.00  0.00     0.112 A 
ENDROOT
BRANCH   1  10
HETATM   10  N3  UNL     1       2.583   0.361   0.513  1.00  0.00    -0.337 N 
HETATM   11  C2  UNL     1       2.981  -0.597  -0.514  1.00  0.00     0.207 C 
HETATM   12  N2  UNL     1       4.443  -0.921  -0.418  1.00  0.00    -0.290 N 
HETATM   13  C3  UNL     1       2.194  -1.862  -0.370  1.00  0.00     0.076 C 
HETATM   14  N1  UNL     1       4.923  -1.747   0.651  1.00  0.00    -0.189 NA
HETATM   15  H2  UNL     1       5.175  -0.571  -1.116  1.00  0.00     0.184 HD
HETATM   16  C1  UNL     1       4.257  -2.245   1.688  1.00  0.00     0.146 C 
HETATM   17  C5  UNL     1       2.863  -1.687   1.552  1.00  0.00    -0.025 C 
HETATM   18  C4  UNL     1       1.891  -2.374   0.991  1.00  0.00    -0.013 C 
HETATM   19  C6  UNL     1       2.490  -0.251   1.877  1.00  0.00     0.166 C 
ENDBRANCH   1  10
BRANCH   8  20
HETATM   20  C12 UNL     1      -0.624   0.888   0.313  1.00  0.00     0.208 C 
BRANCH  20  21
HETATM   21  O1  UNL     1      -0.679   0.025  -0.778  1.00  0.00    -0.385 OA
BRANCH  21  22
HETATM   22  C13 UNL     1      -1.362  -1.116  -0.419  1.00  0.00     0.183 C 
BRANCH  22  23
HETATM   23  C14 UNL     1      -2.771  -0.933   0.025  1.00  0.00     0.074 C 
HETATM   24  C15 UNL     1      -3.626  -0.294  -1.050  1.00  0.00     0.047 C 
HETATM   25  C16 UNL     1      -5.030  -0.221  -0.498  1.00  0.00     0.272 C 
HETATM   26  N7  UNL     1      -5.738  -1.472  -0.655  1.00  0.00     0.092 N 
HETATM   27  C17 UNL     1      -5.246  -2.539   0.162  1.00  0.00     0.343 C 
HETATM   28  H21 UNL     1      -5.756  -1.796  -1.649  1.00  0.00     0.316 HD
HETATM   29  S1  UNL     1      -3.455  -2.626   0.248  1.00  0.00    -0.133 SA
ENDBRANCH  22  23
ENDBRANCH  21  22
ENDBRANCH  20  21
ENDBRANCH   8  20
TORSDOF 5
