REMARK  6 active torsions:
REMARK  status: ('A' for Active; 'I' for Inactive)
REMARK    1  A    between atoms: N1_2  and  N2_3 
REMARK    2  A    between atoms: N1_2  and  C3_5 
REMARK    3  A    between atoms: C9_11  and  C10_12 
REMARK    4  A    between atoms: C10_12  and  O1_13 
REMARK    5  A    between atoms: O1_13  and  C11_14 
REMARK    6  A    between atoms: C11_14  and  C12_15 
ROOT
HETATM    1  C3  UNL     1      -2.058   3.126  -0.220  1.00  0.00     0.060 C 
HETATM    2  C4  UNL     1      -3.305   3.256   0.257  1.00  0.00     0.034 C 
HETATM    3  C5  UNL     1      -3.927   1.912   0.558  1.00  0.00     0.131 C 
HETATM    4  C6  UNL     1      -2.986   1.056  -0.202  1.00  0.00     0.016 C 
HETATM    5  C7  UNL     1      -1.894   1.691  -0.505  1.00  0.00    -0.009 C 
HETATM    6  C8  UNL     1      -0.601   1.577  -1.097  1.00  0.00     0.023 C 
HETATM    7  C9  UNL     1      -0.005   0.407  -1.604  1.00  0.00    -0.033 C 
HETATM    8  C16 UNL     1      -0.471  -0.411  -0.402  1.00  0.00     0.025 C 
HETATM    9  C17 UNL     1      -0.972  -0.883   0.753  1.00  0.00     0.074 C 
HETATM   10  N4  UNL     1      -1.356  -1.788   1.826  1.00  0.00    -0.398 NA
HETATM   11  C18 UNL     1      -2.419  -1.558   2.472  1.00  0.00     0.445 C 
HETATM   12  N5  UNL     1      -3.047  -0.420   1.991  1.00  0.00    -0.253 NA
HETATM   13  C19 UNL     1      -3.095   0.718   2.594  1.00  0.00     0.199 C 
HETATM   14  N6  UNL     1      -3.778   1.779   1.991  1.00  0.00    -0.374 N 
HETATM   15  H26 UNL     1      -4.223   2.590   2.528  1.00  0.00     0.161 HD
ENDROOT
BRANCH   7  16
HETATM   16  C10 UNL     1       0.893  -0.551  -2.215  1.00  0.00     0.206 C 
BRANCH  16  17
HETATM   17  O1  UNL     1       1.402  -1.542  -1.674  1.00  0.00    -0.384 OA
BRANCH  17  18
HETATM   18  C11 UNL     1       1.492  -2.615  -1.085  1.00  0.00     0.201 C 
BRANCH  18  19
HETATM   19  C12 UNL     1       2.894  -3.286  -1.000  1.00  0.00     0.173 C 
HETATM   20  C13 UNL     1       3.930  -2.409  -0.416  1.00  0.00     0.303 C 
HETATM   21  N3  UNL     1       4.741  -3.155   0.516  1.00  0.00     0.088 N 
HETATM   22  C14 UNL     1       4.981  -4.484   0.017  1.00  0.00     0.295 C 
HETATM   23  H17 UNL     1       5.631  -2.703   0.766  1.00  0.00     0.316 HD
HETATM   24  C15 UNL     1       3.696  -5.246  -0.181  1.00  0.00     0.198 C 
HETATM   25  O2  UNL     1       2.618  -4.435  -0.218  1.00  0.00    -0.380 OA
ENDBRANCH  18  19
ENDBRANCH  17  18
ENDBRANCH  16  17
ENDBRANCH   7  16
BRANCH   1  26
HETATM   26  N1  UNL     1      -1.421   4.407  -0.261  1.00  0.00    -0.275 N 
HETATM   27  C1  UNL     1      -1.010   5.053  -1.486  1.00  0.00     0.180 C 
BRANCH  26  28
HETATM   28  N2  UNL     1      -1.194   5.112   0.962  1.00  0.00    -0.196 NA
HETATM   29  C2  UNL     1      -2.256   5.579   1.571  1.00  0.00     0.173 C 
ENDBRANCH  26  28
ENDBRANCH   1  26
TORSDOF 6
