REMARK  3 active torsions:
REMARK  status: ('A' for Active; 'I' for Inactive)
REMARK    1  A    between atoms: C16_22  and  O2_23 
REMARK    2  A    between atoms: O2_23  and  C17_24 
REMARK    3  A    between atoms: C17_24  and  C18_25 
ROOT
HETATM    1  C1  UNL     1      -1.190   1.634   1.960  1.00  0.00     0.068 C 
HETATM    2  C2  UNL     1      -1.123   0.591   0.899  1.00  0.00     0.038 C 
HETATM    3  N1  UNL     1      -0.232  -0.229   1.226  1.00  0.00    -0.249 NA
HETATM    4  C3  UNL     1       0.652  -0.369   2.282  1.00  0.00     0.233 C 
HETATM    5  N2  UNL     1       1.168  -1.362   1.536  1.00  0.00    -0.240 NA
HETATM    6  C4  UNL     1       0.417  -1.515   0.266  1.00  0.00     0.090 C 
HETATM    7  C5  UNL     1      -0.111  -2.534   0.922  1.00  0.00     0.054 C 
HETATM    8  C6  UNL     1      -1.151  -3.459   0.378  1.00  0.00     0.287 C 
HETATM    9  F1  UNL     1      -0.835  -3.761  -0.923  1.00  0.00    -0.235 F 
HETATM   10  C7  UNL     1      -2.464  -2.714   0.373  1.00  0.00     0.255 C 
HETATM   11  O1  UNL     1      -3.238  -2.348  -0.522  1.00  0.00    -0.270 OA
HETATM   12  N3  UNL     1      -3.246  -2.173   1.420  1.00  0.00    -0.357 N 
HETATM   13  C8  UNL     1      -4.446  -1.369   1.143  1.00  0.00     0.142 C 
HETATM   14  C9  UNL     1      -4.032  -0.022   0.582  1.00  0.00     0.137 C 
HETATM   15  N4  UNL     1      -3.160   0.086  -0.469  1.00  0.00    -0.397 N 
HETATM   16  C10 UNL     1      -3.727   0.608  -1.703  1.00  0.00     0.118 C 
HETATM   17  C11 UNL     1      -2.958   1.836  -2.044  1.00  0.00     0.022 C 
HETATM   18  C12 UNL     1      -1.939   1.921  -0.926  1.00  0.00     0.039 C 
HETATM   19  C13 UNL     1      -1.844   0.478  -0.379  1.00  0.00     0.071 C 
HETATM   20  C14 UNL     1      -0.969  -0.208  -1.428  1.00  0.00     0.067 C 
HETATM   21  C15 UNL     1       0.439   0.296  -1.273  1.00  0.00     0.015 C 
HETATM   22  C16 UNL     1       1.085  -0.426  -0.382  1.00  0.00     0.094 C 
HETATM   23  H7  UNL     1      -2.745  -2.501   2.255  1.00  0.00     0.162 HD
ENDROOT
BRANCH  22  24
HETATM   24  O2  UNL     1       2.368   0.093  -0.285  1.00  0.00    -0.345 OA
BRANCH  24  25
HETATM   25  C17 UNL     1       3.244  -0.145  -1.372  1.00  0.00     0.214 C 
BRANCH  25  26
HETATM   26  C18 UNL     1       4.570   0.465  -1.134  1.00  0.00    -0.031 A 
HETATM   27  C19 UNL     1       4.895   1.759  -1.516  1.00  0.00     0.009 A 
HETATM   28  C20 UNL     1       6.134   2.328  -1.293  1.00  0.00     0.004 A 
HETATM   29  C21 UNL     1       7.113   1.592  -0.662  1.00  0.00     0.042 A 
HETATM   30  C22 UNL     1       6.836   0.303  -0.266  1.00  0.00     0.117 A 
HETATM   31  F2  UNL     1       7.735  -0.485   0.358  1.00  0.00    -0.206 F 
HETATM   32  C23 UNL     1       5.580  -0.232  -0.507  1.00  0.00     0.051 A 
ENDBRANCH  25  26
ENDBRANCH  24  25
ENDBRANCH  22  24
TORSDOF 3
