REMARK  5 active torsions:
REMARK  status: ('A' for Active; 'I' for Inactive)
REMARK    1  A    between atoms: C11_16  and  O2_17 
REMARK    2  A    between atoms: O2_17  and  C12_18 
REMARK    3  A    between atoms: C12_18  and  C13_19 
REMARK    4  A    between atoms: C13_19  and  C14_20 
REMARK    5  A    between atoms: C15_21  and  C16_22 
ROOT
HETATM    1  C1  UNL     1      -5.312  -2.046  -1.596  1.00  0.00     0.071 C 
HETATM    2  C2  UNL     1      -5.064  -1.306  -0.270  1.00  0.00     0.047 A 
HETATM    3  N1  UNL     1      -5.778  -1.629   0.803  1.00  0.00    -0.234 NA
HETATM    4  C3  UNL     1      -5.630  -1.027   1.978  1.00  0.00     0.301 A 
HETATM    5  N2  UNL     1      -4.728  -0.232   1.637  1.00  0.00    -0.386 NA
HETATM    6  C4  UNL     1      -3.883   0.388   0.987  1.00  0.00     0.172 A 
HETATM    7  C5  UNL     1      -4.107  -0.297  -0.196  1.00  0.00     0.042 A 
HETATM    8  C6  UNL     1      -3.448  -0.102  -1.450  1.00  0.00     0.030 C 
HETATM    9  C7  UNL     1      -2.185  -0.337  -1.470  1.00  0.00     0.014 C 
HETATM   10  C8  UNL     1      -1.411  -0.151  -2.758  1.00  0.00     0.065 C 
HETATM   11  C9  UNL     1       0.044   0.078  -2.351  1.00  0.00     0.145 C 
HETATM   12  N3  UNL     1       0.416  -0.664  -1.215  1.00  0.00    -0.325 N 
HETATM   13  N4  UNL     1      -0.119  -0.247   0.001  1.00  0.00    -0.202 N 
HETATM   14  C10 UNL     1      -1.365  -0.790  -0.365  1.00  0.00     0.274 C 
HETATM   15  O1  UNL     1      -1.129  -1.558   0.641  1.00  0.00    -0.266 OA
HETATM   16  C11 UNL     1       1.108   0.308   0.406  1.00  0.00     0.166 C 
HETATM   17  C17 UNL     1       0.769   1.402   1.097  1.00  0.00     0.059 C 
HETATM   18  C18 UNL     1      -0.446   2.081   1.492  1.00  0.00     0.016 C 
HETATM   19  C19 UNL     1      -1.766   2.049   1.438  1.00  0.00     0.065 C 
HETATM   20  N5  UNL     1      -2.929   1.404   1.008  1.00  0.00    -0.243 NA
HETATM   21  H10 UNL     1       0.734  -1.615  -1.294  1.00  0.00     0.180 HD
HETATM   22  H22 UNL     1      -2.470   0.753   1.739  1.00  0.00     0.135 HD
ENDROOT
BRANCH  16  23
HETATM   23  O2  UNL     1       2.429  -0.057   0.225  1.00  0.00    -0.334 OA
BRANCH  23  24
HETATM   24  C12 UNL     1       3.158  -0.883   1.093  1.00  0.00     0.181 C 
BRANCH  24  25
HETATM   25  C13 UNL     1       4.543  -1.075   0.500  1.00  0.00     0.053 C 
BRANCH  25  26
HETATM   26  C14 UNL     1       5.222   0.244   0.363  1.00  0.00    -0.026 C 
HETATM   27  C15 UNL     1       6.363   0.646   0.925  1.00  0.00     0.000 C 
BRANCH  27  28
HETATM   28  C16 UNL     1       7.183   1.875   0.917  1.00  0.00     0.249 C 
HETATM   29  F1  UNL     1       7.324   2.407   2.185  1.00  0.00    -0.251 F 
ENDBRANCH  27  28
ENDBRANCH  25  26
ENDBRANCH  24  25
ENDBRANCH  23  24
ENDBRANCH  16  23
TORSDOF 5
