REMARK  4 active torsions:
REMARK  status: ('A' for Active; 'I' for Inactive)
REMARK    1  A    between atoms: C1_2  and  O2_3 
REMARK    2  A    between atoms: C1_2  and  C2_4 
REMARK    3  A    between atoms: N1_11  and  C9_12 
REMARK    4  A    between atoms: C10_13  and  C11_14 
ROOT
HETATM    1  C2  UNL     1       3.251  -1.429  -0.520  1.00  0.00     0.038 A 
HETATM    2  C3  UNL     1       4.147  -0.433  -0.932  1.00  0.00     0.021 A 
HETATM    3  C4  UNL     1       3.890   0.888  -0.529  1.00  0.00     0.038 A 
HETATM    4  C5  UNL     1       2.815   1.269   0.245  1.00  0.00     0.075 A 
HETATM    5  C6  UNL     1       1.879   0.303   0.689  1.00  0.00    -0.004 A 
HETATM    6  C7  UNL     1       2.204  -0.965   0.250  1.00  0.00     0.030 A 
HETATM    7  C8  UNL     1       0.690   0.487   1.510  1.00  0.00     0.191 C 
HETATM    8  N1  UNL     1      -0.552   0.781   0.767  1.00  0.00    -0.276 N 
HETATM    9  N2  UNL     1      -0.906   2.093   0.727  1.00  0.00    -0.166 NA
HETATM   10  C16 UNL     1      -0.793   3.073   1.505  1.00  0.00     0.254 C 
HETATM   11  N3  UNL     1      -1.069   4.483   1.669  1.00  0.00    -0.257 NA
HETATM   12  C17 UNL     1      -0.372   5.231   0.871  1.00  0.00    -0.003 C 
HETATM   13  B1  UNL     1       1.467   4.888   0.784  1.00  0.00     0.241 B 
HETATM   14  C18 UNL     1       1.815   3.330   0.590  1.00  0.00     0.120 C 
HETATM   15  O3  UNL     1       3.039   2.695   0.349  1.00  0.00    -0.360 OA
ENDROOT
BRANCH   8  16
HETATM   16  C9  UNL     1      -1.397  -0.102   0.036  1.00  0.00     0.113 C 
HETATM   17  C10 UNL     1      -2.629  -0.362   0.501  1.00  0.00     0.027 C 
BRANCH  17  18
HETATM   18  C11 UNL     1      -3.579  -1.251  -0.166  1.00  0.00    -0.039 A 
HETATM   19  C12 UNL     1      -4.823  -1.564   0.226  1.00  0.00     0.008 A 
HETATM   20  C13 UNL     1      -5.368  -2.482  -0.763  1.00  0.00    -0.002 A 
HETATM   21  C14 UNL     1      -4.477  -2.709  -1.716  1.00  0.00    -0.006 A 
HETATM   22  C15 UNL     1      -3.228  -1.949  -1.448  1.00  0.00     0.113 A 
HETATM   23 BR1  UNL     1      -3.006  -0.587  -2.797  1.00  0.00    -0.082 Br
ENDBRANCH  17  18
ENDBRANCH   8  16
BRANCH   1  24
HETATM   24  C1  UNL     1       3.407  -2.834  -0.873  1.00  0.00     0.176 C 
HETATM   25  O1  UNL     1       2.635  -3.767  -0.532  1.00  0.00    -0.646 OA
BRANCH  24  26
HETATM   26  O2  UNL     1       4.503  -3.159  -1.651  1.00  0.00    -0.773 OA
HETATM   27  H1  UNL     1       4.545  -3.955  -2.259  1.00  0.00     0.167 HD
ENDBRANCH  24  26
ENDBRANCH   1  24
TORSDOF 4
