REMARK  7 active torsions:
REMARK  status: ('A' for Active; 'I' for Inactive)
REMARK    1  A    between atoms: C2_2  and  C3_3 
REMARK    2  A    between atoms: C3_3  and  N1_4 
REMARK    3  A    between atoms: C3_3  and  N2_5 
REMARK    4  A    between atoms: N2_5  and  C4_6 
REMARK    5  A    between atoms: C8_13  and  C9_14 
REMARK    6  A    between atoms: C9_14  and  N6_15 
REMARK    7  A    between atoms: C12_18  and  N7_19 
ROOT
HETATM    1  C4  UNL     1      -2.043  -0.573   0.676  1.00  0.00     0.156 A 
HETATM    2  N3  UNL     1      -3.329  -0.927   0.536  1.00  0.00    -0.221 NA
HETATM    3  C5  UNL     1      -3.780  -2.164   0.371  1.00  0.00     0.258 A 
HETATM    4  N4  UNL     1      -2.835  -3.139   0.345  1.00  0.00    -0.161 NA
HETATM    5  N5  UNL     1      -1.542  -2.830   0.482  1.00  0.00    -0.240 N 
HETATM    6  C6  UNL     1      -0.526  -3.707   0.472  1.00  0.00     0.119 A 
HETATM    7  C7  UNL     1       0.594  -2.923   0.644  1.00  0.00     0.030 A 
HETATM    8  C8  UNL     1       0.262  -1.565   0.759  1.00  0.00     0.004 A 
HETATM    9  C15 UNL     1      -1.112  -1.589   0.646  1.00  0.00     0.111 A 
ENDROOT
BRANCH   8  10
HETATM   10  C9  UNL     1       1.212  -0.471   0.950  1.00  0.00     0.313 C 
BRANCH  10  11
HETATM   11  N6  UNL     1       1.471   0.320  -0.232  1.00  0.00     0.092 N 
HETATM   12  C10 UNL     1       2.422   1.350   0.112  1.00  0.00     0.275 C 
HETATM   13  C11 UNL     1       3.828   0.821   0.245  1.00  0.00     0.065 C 
HETATM   14  C12 UNL     1       4.212  -0.082  -0.900  1.00  0.00     0.221 C 
HETATM   15  C13 UNL     1       3.144   0.105  -1.966  1.00  0.00     0.065 C 
HETATM   16  C14 UNL     1       1.860  -0.470  -1.361  1.00  0.00     0.275 C 
BRANCH  14  17
HETATM   17  N7  UNL     1       5.488   0.221  -1.472  1.00  0.00     0.083 N 
HETATM   18  H20 UNL     1       5.460   1.081  -2.064  1.00  0.00     0.313 HD
HETATM   19  H21 UNL     1       5.739  -0.570  -2.108  1.00  0.00     0.313 HD
ENDBRANCH  14  17
ENDBRANCH  10  11
ENDBRANCH   8  10
BRANCH   1  20
HETATM   20  N2  UNL     1      -1.723   0.799   0.866  1.00  0.00    -0.344 N 
HETATM   21  H9  UNL     1      -0.768   1.162   1.002  1.00  0.00     0.163 HD
BRANCH  20  22
HETATM   22  C3  UNL     1      -2.653   1.876   0.892  1.00  0.00     0.317 C 
BRANCH  22  23
HETATM   23  C2  UNL     1      -3.252   2.296  -0.406  1.00  0.00     0.052 C 
HETATM   24  C1  UNL     1      -4.218   1.378  -1.054  1.00  0.00     0.009 C 
ENDBRANCH  22  23
BRANCH  22  25
HETATM   25  N1  UNL     1      -3.702   1.660   1.899  1.00  0.00     0.101 N 
HETATM   26  H7  UNL     1      -4.428   1.003   1.583  1.00  0.00     0.315 HD
HETATM   27  H8  UNL     1      -4.096   2.603   2.191  1.00  0.00     0.315 HD
ENDBRANCH  22  25
ENDBRANCH  20  22
ENDBRANCH   1  20
TORSDOF 7
