REMARK  5 active torsions:
REMARK  status: ('A' for Active; 'I' for Inactive)
REMARK    1  A    between atoms: C7_9  and  N3_10 
REMARK    2  A    between atoms: N3_10  and  C8_11 
REMARK    3  A    between atoms: C11_14  and  O1_15 
REMARK    4  A    between atoms: O1_15  and  C12_16 
REMARK    5  A    between atoms: C12_16  and  C13_17 
ROOT
HETATM    1  C1  UNL     1      -4.784   2.224  -1.743  1.00  0.00     0.018 C 
HETATM    2  C2  UNL     1      -4.704   1.527  -0.744  1.00  0.00    -0.072 C 
HETATM    3  C3  UNL     1      -4.585   0.689   0.442  1.00  0.00     0.087 A 
HETATM    4  C4  UNL     1      -5.712   0.631   1.201  1.00  0.00     0.054 A 
HETATM    5  C5  UNL     1      -6.959   1.355   0.858  1.00  0.00     0.072 C 
HETATM    6  N1  UNL     1      -5.654  -0.134   2.314  1.00  0.00    -0.245 NA
HETATM    7  C6  UNL     1      -4.521  -0.790   2.624  1.00  0.00     0.235 A 
HETATM    8  N2  UNL     1      -3.458  -0.677   1.821  1.00  0.00    -0.223 NA
HETATM    9  C7  UNL     1      -3.396   0.046   0.698  1.00  0.00     0.150 A 
ENDROOT
BRANCH   9  10
HETATM   10  N3  UNL     1      -2.296   0.195  -0.181  1.00  0.00    -0.340 N 
HETATM   11  H6  UNL     1      -2.471   0.825  -1.021  1.00  0.00     0.167 HD
BRANCH  10  12
HETATM   12  C8  UNL     1      -1.024  -0.378  -0.077  1.00  0.00     0.035 A 
HETATM   13  C9  UNL     1      -0.071  -0.099  -1.065  1.00  0.00     0.032 A 
HETATM   14  C10 UNL     1       1.181  -0.605  -1.051  1.00  0.00     0.041 A 
HETATM   15  C11 UNL     1       1.607  -1.431  -0.064  1.00  0.00     0.091 A 
HETATM   16  C19 UNL     1       0.691  -1.744   0.950  1.00  0.00     0.069 A 
HETATM   17 CL1  UNL     1       1.056  -2.804   2.324  1.00  0.00    -0.081 Cl
HETATM   18  C20 UNL     1      -0.602  -1.217   0.930  1.00  0.00     0.056 A 
BRANCH  15  19
HETATM   19  O1  UNL     1       2.787  -2.044   0.152  1.00  0.00    -0.345 OA
BRANCH  19  20
HETATM   20  C12 UNL     1       3.986  -2.078  -0.503  1.00  0.00     0.214 C 
BRANCH  20  21
HETATM   21  C13 UNL     1       4.680  -0.794  -0.648  1.00  0.00    -0.031 A 
HETATM   22  C14 UNL     1       4.713   0.129  -1.663  1.00  0.00     0.009 A 
HETATM   23  C15 UNL     1       5.404   1.295  -1.637  1.00  0.00     0.004 A 
HETATM   24  C16 UNL     1       6.156   1.651  -0.538  1.00  0.00     0.042 A 
HETATM   25  C17 UNL     1       6.179   0.779   0.530  1.00  0.00     0.117 A 
HETATM   26  F1  UNL     1       6.904   1.087   1.630  1.00  0.00    -0.206 F 
HETATM   27  C18 UNL     1       5.458  -0.392   0.448  1.00  0.00     0.051 A 
ENDBRANCH  20  21
ENDBRANCH  19  20
ENDBRANCH  15  19
ENDBRANCH  10  12
ENDBRANCH   9  10
TORSDOF 5
