REMARK  9 active torsions:
REMARK  status: ('A' for Active; 'I' for Inactive)
REMARK    1  A    between atoms: N1_2  and  C2_3 
REMARK    2  A    between atoms: C2_3  and  C3_4 
REMARK    3  A    between atoms: C3_4  and  C4_5 
REMARK    4  A    between atoms: C4_5  and  C5_6 
REMARK    5  A    between atoms: C8_11  and  N4_12 
REMARK    6  A    between atoms: N4_12  and  C9_13 
REMARK    7  A    between atoms: C12_16  and  O1_17 
REMARK    8  A    between atoms: O1_17  and  C13_18 
REMARK    9  A    between atoms: C13_18  and  C14_19 
ROOT
HETATM    1  C9  UNL     1      -0.241  -0.921   0.926  1.00  0.00     0.033 A 
HETATM    2  C10 UNL     1       0.499   0.028   1.657  1.00  0.00     0.032 A 
HETATM    3  C11 UNL     1       1.755   0.335   1.212  1.00  0.00     0.039 A 
HETATM    4  C12 UNL     1       2.257  -0.253   0.116  1.00  0.00     0.069 A 
HETATM    5  C20 UNL     1       1.625  -1.195  -0.684  1.00  0.00     0.039 A 
HETATM    6  C21 UNL     1       0.333  -1.504  -0.218  1.00  0.00     0.032 A 
ENDROOT
BRANCH   1   7
HETATM    7  N4  UNL     1      -1.460  -1.576   0.993  1.00  0.00    -0.341 N 
HETATM    8  H13 UNL     1      -1.583  -1.236   2.011  1.00  0.00     0.167 HD
BRANCH   7   9
HETATM    9  C8  UNL     1      -2.690  -2.189   1.189  1.00  0.00     0.137 A 
HETATM   10  C5  UNL     1      -3.973  -1.689   1.261  1.00  0.00     0.005 A 
HETATM   11  C6  UNL     1      -5.050  -2.500   1.478  1.00  0.00     0.129 A 
HETATM   12  N2  UNL     1      -4.790  -3.801   1.616  1.00  0.00    -0.253 NA
HETATM   13  C7  UNL     1      -3.586  -4.370   1.561  1.00  0.00     0.234 A 
HETATM   14  N3  UNL     1      -2.544  -3.541   1.346  1.00  0.00    -0.224 NA
BRANCH  10  15
HETATM   15  C4  UNL     1      -4.113  -0.184   1.013  1.00  0.00     0.045 C 
BRANCH  15  16
HETATM   16  C3  UNL     1      -4.310  -0.012  -0.461  1.00  0.00     0.024 C 
BRANCH  16  17
HETATM   17  C2  UNL     1      -4.422   1.387  -0.970  1.00  0.00     0.113 C 
BRANCH  17  18
HETATM   18  N1  UNL     1      -5.480   2.167  -0.467  1.00  0.00    -0.425 N 
HETATM   19  C1  UNL     1      -5.322   2.584   0.880  1.00  0.00     0.139 C 
HETATM   20  H4  UNL     1      -5.879   2.861  -1.119  1.00  0.00     0.152 HD
ENDBRANCH  17  18
ENDBRANCH  16  17
ENDBRANCH  15  16
ENDBRANCH  10  15
ENDBRANCH   7   9
ENDBRANCH   1   7
BRANCH   4  21
HETATM   21  O1  UNL     1       3.522   0.234  -0.098  1.00  0.00    -0.347 OA
BRANCH  21  22
HETATM   22  C13 UNL     1       4.421  -0.095  -1.106  1.00  0.00     0.214 C 
BRANCH  22  23
HETATM   23  C14 UNL     1       5.689   0.656  -0.984  1.00  0.00    -0.031 A 
HETATM   24  C15 UNL     1       6.108   1.764  -1.678  1.00  0.00     0.009 A 
HETATM   25  C16 UNL     1       7.286   2.422  -1.448  1.00  0.00     0.004 A 
HETATM   26  C17 UNL     1       8.087   1.925  -0.455  1.00  0.00     0.042 A 
HETATM   27  C18 UNL     1       7.728   0.833   0.264  1.00  0.00     0.117 A 
HETATM   28  F1  UNL     1       8.562   0.369   1.255  1.00  0.00    -0.206 F 
HETATM   29  C19 UNL     1       6.531   0.198   0.002  1.00  0.00     0.051 A 
ENDBRANCH  22  23
ENDBRANCH  21  22
ENDBRANCH   4  21
TORSDOF 9
