REMARK  4 active torsions:
REMARK  status: ('A' for Active; 'I' for Inactive)
REMARK    1  A    between atoms: C5_6  and  C6_7 
REMARK    2  A    between atoms: C7_8  and  C8_9 
REMARK    3  A    between atoms: C8_9  and  C9_10 
REMARK    4  A    between atoms: C9_10  and  N2_11 
ROOT
HETATM    1  C1  UNL     1       5.574  -2.134   0.076  1.00  0.00     0.038 C 
HETATM    2  C2  UNL     1       5.230  -1.170  -0.966  1.00  0.00     0.001 C 
HETATM    3  C3  UNL     1       4.073  -0.550  -1.125  1.00  0.00     0.054 C 
HETATM    4  N1  UNL     1       3.009  -0.802  -0.223  1.00  0.00    -0.339 N 
HETATM    5  C4  UNL     1       1.931   0.093   0.107  1.00  0.00     0.137 C 
HETATM    6  C5  UNL     1       0.966  -0.381   0.876  1.00  0.00     0.115 C 
HETATM    7  N3  UNL     1       1.808   1.466  -0.328  1.00  0.00    -0.224 NA
HETATM    8  C14 UNL     1       2.381   2.032  -1.362  1.00  0.00     0.235 C 
HETATM    9  N4  UNL     1       3.261   1.446  -2.311  1.00  0.00    -0.245 NA
HETATM   10  C15 UNL     1       3.987   0.379  -2.269  1.00  0.00     0.058 C 
HETATM   11  C16 UNL     1       4.809   0.039  -3.471  1.00  0.00     0.073 C 
HETATM   12  H5  UNL     1       3.025  -1.722   0.234  1.00  0.00     0.167 HD
ENDROOT
BRANCH   6  13
HETATM   13  C6  UNL     1      -0.111   0.510   1.206  1.00  0.00    -0.075 C 
HETATM   14  C7  UNL     1      -1.001   1.274   1.484  1.00  0.00    -0.100 C 
BRANCH  14  15
HETATM   15  C8  UNL     1      -2.063   2.217   1.818  1.00  0.00     0.124 C 
BRANCH  15  16
HETATM   16  C9  UNL     1      -3.423   1.814   1.335  1.00  0.00     0.284 C 
BRANCH  16  17
HETATM   17  N2  UNL     1      -3.935   0.589   1.850  1.00  0.00     0.093 N 
HETATM   18  C10 UNL     1      -3.234  -0.571   1.400  1.00  0.00     0.298 C 
HETATM   19  C11 UNL     1      -4.160  -1.788   1.336  1.00  0.00     0.198 C 
HETATM   20  O1  UNL     1      -5.173  -1.647   0.417  1.00  0.00    -0.388 OA
HETATM   21  C12 UNL     1      -5.435  -0.302   0.123  1.00  0.00     0.198 C 
HETATM   22  C13 UNL     1      -5.316   0.484   1.404  1.00  0.00     0.298 C 
ENDBRANCH  16  17
ENDBRANCH  15  16
ENDBRANCH  14  15
ENDBRANCH   6  13
TORSDOF 4
