REMARK  7 active torsions:
REMARK  status: ('A' for Active; 'I' for Inactive)
REMARK    1  A    between atoms: C2_2  and  C3_4 
REMARK    2  A    between atoms: C4_5  and  C5_6 
REMARK    3  A    between atoms: C6_7  and  C7_8 
REMARK    4  A    between atoms: C7_8  and  O1_9 
REMARK    5  A    between atoms: O1_9  and  C8_10 
REMARK    6  A    between atoms: C11_13  and  N1_14 
REMARK    7  A    between atoms: N1_14  and  C12_15 
ROOT
HETATM    1  C8  UNL     1      -0.106  -1.252  -0.615  1.00  0.00     0.090 A 
HETATM    2  C9  UNL     1      -0.780  -0.971   0.552  1.00  0.00     0.041 A 
HETATM    3  C10 UNL     1      -2.113  -0.633   0.590  1.00  0.00     0.032 A 
HETATM    4  C11 UNL     1      -2.885  -0.549  -0.542  1.00  0.00     0.032 A 
HETATM    5  C16 UNL     1      -2.245  -0.823  -1.723  1.00  0.00     0.056 A 
HETATM    6  C17 UNL     1      -0.888  -1.169  -1.782  1.00  0.00     0.069 A 
HETATM    7 CL1  UNL     1      -0.324  -1.469  -3.431  1.00  0.00    -0.081 Cl
ENDROOT
BRANCH   1   8
HETATM    8  O1  UNL     1       1.150  -1.602  -0.961  1.00  0.00    -0.346 OA
BRANCH   8   9
HETATM    9  C7  UNL     1       2.198  -1.761  -0.051  1.00  0.00     0.203 C 
BRANCH   9  10
HETATM   10  C6  UNL     1       2.497  -0.481   0.636  1.00  0.00    -0.000 C 
HETATM   11  C5  UNL     1       3.717   0.069   0.526  1.00  0.00    -0.002 C 
BRANCH  11  12
HETATM   12  C4  UNL     1       4.823  -0.495  -0.234  1.00  0.00     0.003 C 
HETATM   13  C3  UNL     1       5.991   0.105  -0.293  1.00  0.00     0.041 C 
BRANCH  13  14
HETATM   14  C2  UNL     1       6.414   1.356   0.330  1.00  0.00     0.107 C 
HETATM   15  C1  UNL     1       7.491   2.143   0.422  1.00  0.00     0.056 C 
HETATM   16  F1  UNL     1       5.861   2.299   1.123  1.00  0.00    -0.207 F 
ENDBRANCH  13  14
ENDBRANCH  11  12
ENDBRANCH   9  10
ENDBRANCH   8   9
ENDBRANCH   1   8
BRANCH   4  17
HETATM   17  N1  UNL     1      -4.262  -0.207  -0.509  1.00  0.00    -0.354 N 
HETATM   18  H11 UNL     1      -4.772  -0.148  -1.421  1.00  0.00     0.162 HD
BRANCH  17  19
HETATM   19  C12 UNL     1      -4.836   0.039   0.929  1.00  0.00     0.217 A 
HETATM   20  N2  UNL     1      -4.679  -1.284   1.509  1.00  0.00    -0.245 NA
HETATM   21  C13 UNL     1      -5.945  -0.927   1.305  1.00  0.00     0.247 A 
HETATM   22  N3  UNL     1      -7.086  -0.163   0.935  1.00  0.00    -0.251 NA
HETATM   23  C14 UNL     1      -6.169   0.724   0.620  1.00  0.00     0.061 A 
HETATM   24  C15 UNL     1      -6.377   2.089   0.085  1.00  0.00     0.070 C 
ENDBRANCH  17  19
ENDBRANCH   4  17
TORSDOF 7
