REMARK  8 active torsions:
REMARK  status: ('A' for Active; 'I' for Inactive)
REMARK    1  A    between atoms: C4_6  and  N3_7 
REMARK    2  A    between atoms: N3_7  and  C5_8 
REMARK    3  A    between atoms: C8_11  and  O1_12 
REMARK    4  A    between atoms: O1_12  and  C9_13 
REMARK    5  A    between atoms: C9_13  and  C10_14 
REMARK    6  A    between atoms: C18_24  and  C19_25 
REMARK    7  A    between atoms: C20_26  and  C21_27 
REMARK    8  A    between atoms: C21_27  and  N4_28 
ROOT
HETATM    1  N3  UNL     1      -0.919   0.769   0.494  1.00  0.00    -0.340 N 
HETATM    2  H5  UNL     1      -1.617  -0.013   0.486  1.00  0.00     0.167 HD
ENDROOT
BRANCH   1   3
HETATM    3  C4  UNL     1      -1.418   2.088   0.616  1.00  0.00     0.150 A 
HETATM    4  N2  UNL     1      -0.742   3.229   0.648  1.00  0.00    -0.223 NA
HETATM    5  C3  UNL     1      -1.261   4.458   0.765  1.00  0.00     0.235 A 
HETATM    6  N1  UNL     1      -2.581   4.581   0.862  1.00  0.00    -0.245 NA
HETATM    7  C2  UNL     1      -3.391   3.506   0.843  1.00  0.00     0.054 A 
HETATM    8  C1  UNL     1      -4.857   3.658   0.952  1.00  0.00     0.072 C 
HETATM    9  C18 UNL     1      -2.776   2.283   0.720  1.00  0.00     0.088 A 
BRANCH   9  10
HETATM   10  C19 UNL     1      -3.678   1.139   0.703  1.00  0.00    -0.059 C 
HETATM   11  C20 UNL     1      -4.448   0.192   0.684  1.00  0.00    -0.070 C 
BRANCH  11  12
HETATM   12  C21 UNL     1      -5.358  -0.941   0.663  1.00  0.00     0.368 C 
BRANCH  12  13
HETATM   13  N4  UNL     1      -6.214  -0.942  -0.486  1.00  0.00     0.124 N 
HETATM   14  C22 UNL     1      -7.124  -2.082  -0.497  1.00  0.00     0.302 C 
HETATM   15  C23 UNL     1      -6.610  -2.875  -1.686  1.00  0.00     0.200 C 
HETATM   16  O2  UNL     1      -6.226  -1.865  -2.555  1.00  0.00    -0.361 OA
HETATM   17  C24 UNL     1      -5.513  -0.980  -1.733  1.00  0.00     0.441 C 
ENDBRANCH  12  13
ENDBRANCH  11  12
ENDBRANCH   9  10
ENDBRANCH   1   3
BRANCH   1  18
HETATM   18  C5  UNL     1       0.439   0.383   0.380  1.00  0.00     0.035 A 
HETATM   19  C6  UNL     1       1.524   1.228   0.366  1.00  0.00     0.032 A 
HETATM   20  C7  UNL     1       2.832   0.845   0.256  1.00  0.00     0.041 A 
HETATM   21  C8  UNL     1       3.126  -0.496   0.148  1.00  0.00     0.091 A 
HETATM   22  C16 UNL     1       2.079  -1.391   0.156  1.00  0.00     0.069 A 
HETATM   23 CL1  UNL     1       2.391  -3.121   0.021  1.00  0.00    -0.081 Cl
HETATM   24  C17 UNL     1       0.783  -0.947   0.270  1.00  0.00     0.056 A 
BRANCH  21  25
HETATM   25  O1  UNL     1       4.404  -1.024   0.030  1.00  0.00    -0.345 OA
BRANCH  25  26
HETATM   26  C9  UNL     1       5.469  -0.095   0.023  1.00  0.00     0.214 C 
BRANCH  26  27
HETATM   27  C10 UNL     1       6.793  -0.715  -0.104  1.00  0.00    -0.031 A 
HETATM   28  C11 UNL     1       7.509  -1.092   1.005  1.00  0.00     0.009 A 
HETATM   29  C12 UNL     1       8.762  -1.684   1.040  1.00  0.00     0.004 A 
HETATM   30  C13 UNL     1       9.329  -1.906  -0.203  1.00  0.00     0.042 A 
HETATM   31  C14 UNL     1       8.677  -1.557  -1.373  1.00  0.00     0.117 A 
HETATM   32  F1  UNL     1       9.248  -1.783  -2.576  1.00  0.00    -0.206 F 
HETATM   33  C15 UNL     1       7.413  -0.964  -1.316  1.00  0.00     0.051 A 
ENDBRANCH  26  27
ENDBRANCH  25  26
ENDBRANCH  21  25
ENDBRANCH   1  18
TORSDOF 8
