REMARK  1 active torsions:
REMARK  status: ('A' for Active; 'I' for Inactive)
REMARK    1  A    between atoms: C11_12  and  O2_14 
ROOT
HETATM    1  C1  UNL     1       5.414   0.344   0.364  1.00  0.00     0.044 C 
HETATM    2  C2  UNL     1       4.020   0.008   0.104  1.00  0.00    -0.077 A 
HETATM    3  C3  UNL     1       3.320  -0.238   1.191  1.00  0.00     0.016 A 
HETATM    4  C4  UNL     1       1.946  -0.568   0.921  1.00  0.00    -0.012 A 
HETATM    5  C5  UNL     1       1.853  -0.501  -0.435  1.00  0.00     0.023 A 
HETATM    6  C6  UNL     1       3.157  -0.138  -1.063  1.00  0.00     0.091 A 
HETATM    7  N1  UNL     1       0.730  -0.669  -1.232  1.00  0.00    -0.368 N 
HETATM    8  C7  UNL     1      -0.370  -0.848  -2.019  1.00  0.00     0.088 C 
HETATM    9  C8  UNL     1      -1.543  -0.411  -2.299  1.00  0.00     0.018 C 
HETATM   10  C9  UNL     1      -2.654   0.456  -2.150  1.00  0.00     0.015 C 
HETATM   11  C10 UNL     1      -2.881   1.418  -1.333  1.00  0.00     0.021 A 
HETATM   12  C11 UNL     1      -3.488   2.567  -0.594  1.00  0.00     0.211 A 
HETATM   13  O1  UNL     1      -3.489   3.471   0.315  1.00  0.00    -0.270 OA
HETATM   14  C12 UNL     1      -2.774   1.125   0.149  1.00  0.00     0.124 A 
HETATM   15  C13 UNL     1      -2.535   0.020   0.906  1.00  0.00     0.028 C 
HETATM   16  C14 UNL     1      -2.310  -0.923   2.079  1.00  0.00     0.125 C 
HETATM   17  N2  UNL     1      -1.140  -1.634   1.932  1.00  0.00    -0.398 N 
HETATM   18  C15 UNL     1       0.124  -2.167   1.808  1.00  0.00     0.083 C 
HETATM   19  C16 UNL     1       0.589  -0.977   1.359  1.00  0.00     0.030 C 
HETATM   20  H7  UNL     1       0.388   0.289  -0.900  1.00  0.00     0.165 HD
HETATM   21  H16 UNL     1      -1.296  -2.679   1.792  1.00  0.00     0.158 HD
ENDROOT
BRANCH  12  22
HETATM   22  O2  UNL     1      -4.719   3.145  -0.857  1.00  0.00    -0.335 OA
HETATM   23  H11 UNL     1      -4.854   3.840  -1.572  1.00  0.00     0.220 HD
ENDBRANCH  12  22
TORSDOF 1
