REMARK  1 active torsions:
REMARK  status: ('A' for Active; 'I' for Inactive)
REMARK    1  A    between atoms: C7_9  and  N3_10 
ROOT
HETATM    1  C1  UNL     1       3.541  -2.672  -0.192  1.00  0.00     0.018 C 
HETATM    2  C2  UNL     1       3.387  -1.465  -0.063  1.00  0.00    -0.072 C 
HETATM    3  C3  UNL     1       3.227  -0.055   0.074  1.00  0.00     0.087 A 
HETATM    4  C4  UNL     1       4.253   0.885  -0.061  1.00  0.00     0.054 A 
HETATM    5  C5  UNL     1       5.615   0.365  -0.350  1.00  0.00     0.072 C 
HETATM    6  N1  UNL     1       4.015   2.193   0.066  1.00  0.00    -0.245 NA
HETATM    7  C6  UNL     1       2.799   2.686   0.328  1.00  0.00     0.235 A 
HETATM    8  N2  UNL     1       1.754   1.803   0.472  1.00  0.00    -0.222 NA
HETATM    9  C7  UNL     1       2.005   0.491   0.342  1.00  0.00     0.155 A 
ENDROOT
BRANCH   9  10
HETATM   10  N3  UNL     1       0.929  -0.379   0.506  1.00  0.00    -0.313 N 
HETATM   11  C8  UNL     1       0.712  -1.779   0.583  1.00  0.00     0.122 C 
HETATM   12  C9  UNL     1      -0.015  -2.693  -0.065  1.00  0.00     0.155 C 
HETATM   13  O1  UNL     1      -0.866  -2.377  -1.153  1.00  0.00    -0.336 OA
HETATM   14  C10 UNL     1      -2.201  -1.922  -0.826  1.00  0.00     0.350 C 
HETATM   15  O2  UNL     1      -2.291  -0.622  -1.339  1.00  0.00    -0.325 OA
HETATM   16  C11 UNL     1      -3.329   0.237  -1.117  1.00  0.00     0.086 A 
HETATM   17  C12 UNL     1      -4.510   0.748  -1.587  1.00  0.00     0.038 A 
HETATM   18  C16 UNL     1      -2.881   0.743   0.140  1.00  0.00     0.059 A 
HETATM   19  C13 UNL     1      -5.164   1.688  -0.834  1.00  0.00     0.006 A 
HETATM   20  C14 UNL     1      -4.726   2.162   0.363  1.00  0.00     0.043 A 
HETATM   21  C15 UNL     1      -3.524   1.683   0.905  1.00  0.00     0.131 A 
HETATM   22  F1  UNL     1      -3.052   2.117   2.098  1.00  0.00    -0.205 F 
HETATM   23  C17 UNL     1      -1.651   0.298   0.821  1.00  0.00     0.066 C 
HETATM   24 CL1  UNL     1      -1.412   0.031   2.507  1.00  0.00    -0.082 Cl
HETATM   25  C18 UNL     1      -0.424  -0.014   0.605  1.00  0.00     0.123 C 
ENDBRANCH   9  10
TORSDOF 1
