REMARK  0 active torsions:
REMARK  status: ('A' for Active; 'I' for Inactive)
ROOT
HETATM    1  F1  UNL     1      -3.468   1.902   1.006  1.00  0.00    -0.219 F 
HETATM    2  C1  UNL     1      -3.897   0.682   0.465  1.00  0.00     0.332 A 
HETATM    3  N1  UNL     1      -4.443  -0.162   1.496  1.00  0.00    -0.241 NA
HETATM    4  C2  UNL     1      -4.069  -1.354   1.777  1.00  0.00     0.232 A 
HETATM    5  N2  UNL     1      -3.026  -2.008   1.077  1.00  0.00    -0.224 NA
HETATM    6  C3  UNL     1      -2.409  -1.434   0.139  1.00  0.00     0.142 A 
HETATM    7  N3  UNL     1      -1.550  -2.566  -0.128  1.00  0.00    -0.340 N 
HETATM    8  C4  UNL     1      -0.187  -2.331   0.343  1.00  0.00     0.035 A 
HETATM    9  C5  UNL     1       0.290  -2.176   1.617  1.00  0.00     0.032 A 
HETATM   10  C6  UNL     1       1.594  -1.762   1.670  1.00  0.00     0.041 A 
HETATM   11  C7  UNL     1       2.265  -1.553   0.507  1.00  0.00     0.090 A 
HETATM   12  C8  UNL     1       1.900  -1.683  -0.817  1.00  0.00     0.069 A 
HETATM   13 CL1  UNL     1       2.737  -1.434  -2.333  1.00  0.00    -0.081 Cl
HETATM   14  C9  UNL     1       0.587  -2.098  -0.807  1.00  0.00     0.056 A 
HETATM   15  O1  UNL     1       3.588  -1.106   0.304  1.00  0.00    -0.346 OA
HETATM   16  C10 UNL     1       3.966   0.173   0.815  1.00  0.00     0.203 C 
HETATM   17  C11 UNL     1       3.042   1.192   0.288  1.00  0.00    -0.000 C 
HETATM   18  C12 UNL     1       2.179   2.021  -0.226  1.00  0.00    -0.002 C 
HETATM   19  C13 UNL     1       1.426   3.184  -0.602  1.00  0.00    -0.002 C 
HETATM   20  C14 UNL     1       0.374   3.170  -1.380  1.00  0.00    -0.001 C 
HETATM   21  C15 UNL     1      -0.305   2.049  -2.048  1.00  0.00     0.202 C 
HETATM   22  O2  UNL     1      -1.679   1.910  -1.645  1.00  0.00    -0.359 OA
HETATM   23  C16 UNL     1      -2.068   0.794  -0.985  1.00  0.00     0.150 C 
HETATM   24  C17 UNL     1      -2.774  -0.020  -0.175  1.00  0.00     0.064 A 
HETATM   25  H3  UNL     1      -1.828  -3.447  -0.608  1.00  0.00     0.167 HD
ENDROOT
TORSDOF 0
