REMARK  5 active torsions:
REMARK  status: ('A' for Active; 'I' for Inactive)
REMARK    1  A    between atoms: C2_2  and  N1_3 
REMARK    2  A    between atoms: N2_6  and  C5_7 
REMARK    3  A    between atoms: C5_7  and  C6_8 
REMARK    4  A    between atoms: C6_8  and  C7_9 
REMARK    5  A    between atoms: C7_9  and  C8_10 
ROOT
HETATM    1  C8  UNL     1      -2.114   0.822  -0.373  1.00  0.00     0.073 A 
HETATM    2  C9  UNL     1      -2.467   0.107   0.828  1.00  0.00     0.049 A 
HETATM    3  C10 UNL     1      -2.122  -0.670   1.849  1.00  0.00     0.055 C 
HETATM    4  C11 UNL     1      -0.733  -1.113   1.976  1.00  0.00     0.072 C 
HETATM    5  N3  UNL     1      -2.920  -1.200   2.905  1.00  0.00    -0.248 NA
HETATM    6  C12 UNL     1      -4.192  -1.064   2.897  1.00  0.00     0.103 C 
HETATM    7  C13 UNL     1      -4.708  -0.102   2.160  1.00  0.00     0.131 C 
HETATM    8  N4  UNL     1      -3.881   0.377   1.068  1.00  0.00    -0.320 N 
HETATM    9  C14 UNL     1      -4.476   1.276   0.139  1.00  0.00     0.046 A 
HETATM   10  C15 UNL     1      -5.654   1.913  -0.161  1.00  0.00     0.032 A 
HETATM   11  C16 UNL     1      -5.795   2.790  -1.210  1.00  0.00     0.026 A 
HETATM   12  C17 UNL     1      -4.698   3.045  -2.001  1.00  0.00     0.034 A 
HETATM   13 CL1  UNL     1      -4.867   4.163  -3.340  1.00  0.00    -0.084 Cl
HETATM   14  C18 UNL     1      -3.489   2.437  -1.752  1.00  0.00     0.034 A 
HETATM   15  C19 UNL     1      -3.409   1.560  -0.679  1.00  0.00    -0.019 A 
ENDROOT
BRANCH   1  16
HETATM   16  C7  UNL     1      -1.634   0.172  -1.582  1.00  0.00     0.017 C 
BRANCH  16  17
HETATM   17  C6  UNL     1      -0.338  -0.564  -1.497  1.00  0.00     0.031 C 
BRANCH  17  18
HETATM   18  C5  UNL     1       0.783   0.383  -1.175  1.00  0.00     0.272 C 
BRANCH  18  19
HETATM   19  N2  UNL     1       2.030  -0.273  -1.146  1.00  0.00     0.091 N 
HETATM   20  C4  UNL     1       3.075   0.740  -1.000  1.00  0.00     0.302 C 
HETATM   21  C3  UNL     1       4.378   0.091  -0.567  1.00  0.00     0.302 C 
HETATM   22  N1  UNL     1       4.261  -0.456   0.768  1.00  0.00     0.091 N 
HETATM   23  C21 UNL     1       2.979  -1.068   0.998  1.00  0.00     0.302 C 
HETATM   24  C20 UNL     1       2.209  -1.367  -0.278  1.00  0.00     0.302 C 
BRANCH  22  25
HETATM   25  C2  UNL     1       5.394  -1.240   1.112  1.00  0.00     0.268 C 
HETATM   26  C1  UNL     1       5.566  -2.523   0.378  1.00  0.00     0.037 C 
ENDBRANCH  22  25
ENDBRANCH  18  19
ENDBRANCH  17  18
ENDBRANCH  16  17
ENDBRANCH   1  16
TORSDOF 5
