REMARK  3 active torsions:
REMARK  status: ('A' for Active; 'I' for Inactive)
REMARK    1  A    between atoms: C2_2  and  C3_4 
REMARK    2  A    between atoms: N4_17  and  C13_18 
REMARK    3  A    between atoms: C13_18  and  C14_19 
ROOT
HETATM    1  C3  UNL     1      -0.174  -0.561   0.657  1.00  0.00     0.224 C 
HETATM    2  N1  UNL     1       0.351   0.529  -0.044  1.00  0.00    -0.348 N 
HETATM    3  C4  UNL     1       0.938   1.695  -0.602  1.00  0.00     0.147 A 
HETATM    4  N2  UNL     1       0.469   2.951  -0.561  1.00  0.00    -0.223 NA
HETATM    5  C5  UNL     1       1.231   3.916  -1.153  1.00  0.00     0.235 A 
HETATM    6  N3  UNL     1       2.379   3.702  -1.755  1.00  0.00    -0.245 NA
HETATM    7  C6  UNL     1       2.976   2.533  -1.882  1.00  0.00     0.054 A 
HETATM    8  C7  UNL     1       4.170   1.984  -2.503  1.00  0.00     0.072 C 
HETATM    9  C8  UNL     1       2.199   1.651  -1.296  1.00  0.00     0.087 A 
HETATM   10  C9  UNL     1       2.108   0.303  -1.087  1.00  0.00    -0.061 C 
HETATM   11  C10 UNL     1       2.016  -0.797  -0.905  1.00  0.00    -0.099 C 
HETATM   12  C11 UNL     1       1.876  -2.181  -0.664  1.00  0.00     0.113 C 
HETATM   13  C12 UNL     1       0.369  -2.530  -0.753  1.00  0.00     0.131 C 
HETATM   14  N4  UNL     1      -0.499  -1.752  -0.011  1.00  0.00    -0.383 N 
HETATM   15  H4  UNL     1      -0.008   0.335  -1.017  1.00  0.00     0.163 HD
ENDROOT
BRANCH  14  16
HETATM   16  C13 UNL     1      -1.903  -2.056  -0.110  1.00  0.00     0.158 C 
BRANCH  16  17
HETATM   17  C14 UNL     1      -2.746  -1.142   0.702  1.00  0.00    -0.041 A 
HETATM   18  C15 UNL     1      -3.109  -1.355   2.016  1.00  0.00     0.009 A 
HETATM   19  C16 UNL     1      -3.890  -0.443   2.692  1.00  0.00     0.001 A 
HETATM   20  C17 UNL     1      -4.342   0.716   2.090  1.00  0.00     0.000 A 
HETATM   21  C18 UNL     1      -4.000   0.970   0.771  1.00  0.00     0.001 A 
HETATM   22  C19 UNL     1      -3.211   0.037   0.107  1.00  0.00     0.009 A 
ENDBRANCH  16  17
ENDBRANCH  14  16
BRANCH   1  23
HETATM   23  C2  UNL     1       0.812  -0.950   1.771  1.00  0.00     0.019 C 
HETATM   24  C1  UNL     1       1.725  -0.166   2.363  1.00  0.00     0.201 C 
HETATM   25 CL1  UNL     1       1.791  -1.673   3.051  1.00  0.00    -0.224 Cl
ENDBRANCH   1  23
TORSDOF 3
