REMARK  6 active torsions:
REMARK  status: ('A' for Active; 'I' for Inactive)
REMARK    1  A    between atoms: C7_7  and  N1_8 
REMARK    2  A    between atoms: N1_8  and  C8_9 
REMARK    3  A    between atoms: C9_10  and  C10_11 
REMARK    4  A    between atoms: C10_11  and  C11_12 
REMARK    5  A    between atoms: C11_12  and  O1_13 
REMARK    6  A    between atoms: C22_28  and  O4_29 
ROOT
HETATM    1  C1  UNL     1       6.687  -2.985   0.325  1.00  0.00     0.018 C 
HETATM    2  C2  UNL     1       5.648  -2.574  -0.178  1.00  0.00    -0.075 C 
HETATM    3  C3  UNL     1       4.418  -2.082  -0.750  1.00  0.00     0.052 A 
HETATM    4  C4  UNL     1       4.127  -2.271  -2.083  1.00  0.00     0.023 A 
HETATM    5  C5  UNL     1       2.938  -1.805  -2.658  1.00  0.00     0.004 A 
HETATM    6  C6  UNL     1       2.037  -1.137  -1.844  1.00  0.00     0.032 A 
HETATM    7  C7  UNL     1       2.345  -0.956  -0.505  1.00  0.00     0.067 A 
HETATM    8  C22 UNL     1       3.512  -1.410   0.070  1.00  0.00     0.111 A 
ENDROOT
BRANCH   8   9
HETATM    9  O4  UNL     1       3.766  -1.195   1.432  1.00  0.00    -0.357 OA
HETATM   10  H25 UNL     1       3.171  -1.558   2.154  1.00  0.00     0.217 HD
ENDBRANCH   8   9
BRANCH   7  11
HETATM   11  N1  UNL     1       1.438  -0.277   0.321  1.00  0.00    -0.357 N 
HETATM   12  H5  UNL     1       1.603  -0.099   1.342  1.00  0.00     0.166 HD
BRANCH  11  13
HETATM   13  C8  UNL     1       0.186   0.311   0.100  1.00  0.00     0.018 C 
HETATM   14  C9  UNL     1       0.111   1.547  -0.365  1.00  0.00    -0.032 C 
HETATM   15  C13 UNL     1      -0.966   2.467  -0.668  1.00  0.00     0.028 C 
HETATM   16  C14 UNL     1      -2.247   2.363  -0.565  1.00  0.00     0.118 C 
HETATM   17  N2  UNL     1      -3.638   2.385  -0.506  1.00  0.00    -0.254 NA
HETATM   18  C15 UNL     1      -4.339   1.423  -0.082  1.00  0.00     0.234 C 
HETATM   19  N3  UNL     1      -4.897   0.230   0.427  1.00  0.00    -0.230 NA
HETATM   20  C16 UNL     1      -6.038  -0.252   0.156  1.00  0.00     0.258 C 
HETATM   21  O2  UNL     1      -5.473  -1.164   1.054  1.00  0.00    -0.316 OA
HETATM   22  C17 UNL     1      -5.059  -2.451   0.622  1.00  0.00     0.141 C 
HETATM   23  C18 UNL     1      -4.100  -3.191   0.008  1.00  0.00     0.024 C 
HETATM   24  C19 UNL     1      -2.921  -2.445  -0.465  1.00  0.00     0.196 C 
HETATM   25  O3  UNL     1      -1.735  -2.879   0.117  1.00  0.00    -0.387 OA
HETATM   26  C20 UNL     1      -0.671  -2.027  -0.230  1.00  0.00     0.174 C 
HETATM   27  C21 UNL     1      -0.869  -0.715   0.437  1.00  0.00     0.083 C 
BRANCH  14  28
HETATM   28  C10 UNL     1       1.447   2.152  -0.600  1.00  0.00     0.067 C 
BRANCH  28  29
HETATM   29  C11 UNL     1       1.641   3.387   0.251  1.00  0.00     0.171 C 
BRANCH  29  30
HETATM   30  O1  UNL     1       1.560   3.147   1.602  1.00  0.00    -0.396 OA
HETATM   31  C12 UNL     1       1.759   4.357   2.269  1.00  0.00     0.201 C 
ENDBRANCH  29  30
ENDBRANCH  28  29
ENDBRANCH  14  28
ENDBRANCH  11  13
ENDBRANCH   7  11
TORSDOF 6
