REMARK  7 active torsions:
REMARK  status: ('A' for Active; 'I' for Inactive)
REMARK    1  A    between atoms: C7_7  and  N1_8 
REMARK    2  A    between atoms: N1_8  and  C8_9 
REMARK    3  A    between atoms: C12_15  and  O1_16 
REMARK    4  A    between atoms: C14_18  and  O2_19 
REMARK    5  A    between atoms: O2_19  and  C15_20 
REMARK    6  A    between atoms: C15_20  and  C16_21 
REMARK    7  A    between atoms: C16_21  and  O3_22 
ROOT
HETATM    1  C1  UNL     1       7.102   1.267  -2.445  1.00  0.00     0.018 C 
HETATM    2  C2  UNL     1       6.101   1.643  -1.900  1.00  0.00    -0.078 C 
HETATM    3  C3  UNL     1       4.890   2.074  -1.230  1.00  0.00     0.019 A 
HETATM    4  C4  UNL     1       4.842   3.394  -0.864  1.00  0.00     0.021 A 
HETATM    5  C5  UNL     1       3.723   3.829  -0.234  1.00  0.00     0.004 A 
HETATM    6  C6  UNL     1       2.694   2.985   0.019  1.00  0.00     0.029 A 
HETATM    7  C7  UNL     1       2.674   1.630  -0.324  1.00  0.00     0.035 A 
HETATM    8  C20 UNL     1       3.831   1.245  -0.958  1.00  0.00     0.050 A 
ENDROOT
BRANCH   7   9
HETATM    9  N1  UNL     1       1.608   0.726  -0.073  1.00  0.00    -0.340 N 
HETATM   10  H5  UNL     1       0.839   1.253   0.327  1.00  0.00     0.167 HD
BRANCH   9  11
HETATM   11  C8  UNL     1       1.526  -0.648  -0.296  1.00  0.00     0.142 A 
HETATM   12  N2  UNL     1       2.515  -1.395  -0.798  1.00  0.00    -0.224 NA
HETATM   13  C9  UNL     1       2.466  -2.710  -1.024  1.00  0.00     0.236 A 
HETATM   14  N3  UNL     1       1.324  -3.351  -0.724  1.00  0.00    -0.241 NA
HETATM   15  C10 UNL     1       0.267  -2.682  -0.213  1.00  0.00     0.075 A 
HETATM   16  C11 UNL     1      -0.873  -3.399   0.071  1.00  0.00     0.072 A 
HETATM   17  C19 UNL     1       0.374  -1.327  -0.000  1.00  0.00     0.042 A 
HETATM   18  C12 UNL     1      -1.980  -2.728   0.601  1.00  0.00     0.103 A 
HETATM   19  C14 UNL     1      -1.941  -1.347   0.842  1.00  0.00     0.103 A 
HETATM   20  C18 UNL     1      -0.751  -0.742   0.520  1.00  0.00     0.057 A 
BRANCH  18  21
HETATM   21  O1  UNL     1      -3.079  -3.516   0.857  1.00  0.00    -0.353 OA
HETATM   22  C13 UNL     1      -3.161  -4.895   0.633  1.00  0.00     0.210 C 
ENDBRANCH  18  21
BRANCH  19  23
HETATM   23  O2  UNL     1      -3.117  -0.913   1.349  1.00  0.00    -0.346 OA
BRANCH  23  24
HETATM   24  C15 UNL     1      -3.489   0.376   1.693  1.00  0.00     0.201 C 
BRANCH  24  25
HETATM   25  C16 UNL     1      -3.538   1.386   0.598  1.00  0.00     0.193 C 
BRANCH  25  26
HETATM   26  O3  UNL     1      -3.914   2.667   1.006  1.00  0.00    -0.394 OA
HETATM   27  C17 UNL     1      -5.157   2.752   1.572  1.00  0.00     0.201 C 
ENDBRANCH  25  26
ENDBRANCH  24  25
ENDBRANCH  23  24
ENDBRANCH  19  23
ENDBRANCH   9  11
ENDBRANCH   7   9
TORSDOF 7
