REMARK  3 active torsions:
REMARK  status: ('A' for Active; 'I' for Inactive)
REMARK    1  A    between atoms: N1_8  and  N2_9 
REMARK    2  A    between atoms: C13_19  and  C14_20 
REMARK    3  A    between atoms: C16_24  and  O3_25 
ROOT
HETATM    1  C1  UNL     1      -0.789  -3.722   0.274  1.00  0.00     0.028 C 
HETATM    2  C2  UNL     1      -0.312  -2.477   0.117  1.00  0.00     0.045 A 
HETATM    3  C3  UNL     1       0.967  -2.895  -0.426  1.00  0.00     0.041 A 
HETATM    4  C4  UNL     1       2.234  -2.930  -0.925  1.00  0.00     0.055 A 
HETATM    5 BR1  UNL     1       0.732  -2.041  -0.236  1.00  0.00    -0.136 Br
HETATM    6  C5  UNL     1       2.815  -1.595  -0.654  1.00  0.00     0.015 C 
HETATM    7  C6  UNL     1       3.076  -0.382  -0.298  1.00  0.00     0.110 C 
HETATM    8  N1  UNL     1       3.455   0.908   0.039  1.00  0.00    -0.272 N 
HETATM    9  C7  UNL     1       2.404   1.771  -0.419  1.00  0.00     0.168 A 
HETATM   10  N3  UNL     1       3.104   2.646  -1.164  1.00  0.00    -0.221 NA
HETATM   11  C8  UNL     1       2.557   3.693  -1.825  1.00  0.00     0.235 A 
HETATM   12  N4  UNL     1       1.209   3.970  -1.799  1.00  0.00    -0.252 NA
HETATM   13  C9  UNL     1       0.533   3.018  -1.013  1.00  0.00     0.145 A 
HETATM   14  C10 UNL     1       1.020   1.892  -0.289  1.00  0.00     0.078 A 
HETATM   15  N5  UNL     1       0.076   1.143   0.419  1.00  0.00    -0.256 NA
HETATM   16  C11 UNL     1      -0.866   0.109   0.492  1.00  0.00     0.032 A 
HETATM   17  C12 UNL     1      -1.017  -1.239   0.380  1.00  0.00    -0.006 A 
HETATM   18  C13 UNL     1      -2.418  -1.400   0.595  1.00  0.00     0.012 A 
HETATM   19  C15 UNL     1      -3.092  -0.333   0.834  1.00  0.00     0.025 A 
HETATM   20  C16 UNL     1      -2.112   0.822   0.819  1.00  0.00     0.189 A 
HETATM   21  H10 UNL     1       0.105   0.727  -0.577  1.00  0.00     0.134 HD
ENDROOT
BRANCH  18  22
HETATM   22  C14 UNL     1      -3.365  -2.465   0.583  1.00  0.00     0.155 A 
HETATM   23  O1  UNL     1      -4.620  -2.405   0.780  1.00  0.00    -0.188 OA
HETATM   24  O2  UNL     1      -4.175  -3.512   0.552  1.00  0.00     0.000 OA
HETATM   25  H11 UNL     1      -3.947  -4.474   0.244  1.00  0.00     0.000 HD
ENDBRANCH  18  22
BRANCH  20  26
HETATM   26  O3  UNL     1      -2.547   1.782  -0.082  1.00  0.00    -0.381 OA
HETATM   27  C17 UNL     1      -2.872   2.907   0.679  1.00  0.00     0.202 C 
ENDBRANCH  20  26
BRANCH   8  28
HETATM   28  N2  UNL     1       4.606   1.330   0.708  1.00  0.00    -0.242 NA
HETATM   29  H6  UNL     1       5.420   1.258   0.029  1.00  0.00     0.143 HD
HETATM   30  H7  UNL     1       4.871   0.701   1.487  1.00  0.00     0.143 HD
ENDBRANCH   8  28
TORSDOF 3
