REMARK  7 active torsions:
REMARK  status: ('A' for Active; 'I' for Inactive)
REMARK    1  A    between atoms: O1_2  and  C2_3 
REMARK    2  A    between atoms: C7_8  and  O2_9 
REMARK    3  A    between atoms: O2_9  and  C8_10 
REMARK    4  A    between atoms: C8_10  and  C9_11 
REMARK    5  A    between atoms: C9_11  and  C10_12 
REMARK    6  A    between atoms: C10_12  and  N1_13 
REMARK    7  A    between atoms: N4_22  and  C16_23 
ROOT
HETATM    1  C2  UNL     1      -1.784  -2.346   1.593  1.00  0.00     0.097 A 
HETATM    2  C3  UNL     1      -3.070  -2.489   1.288  1.00  0.00     0.017 A 
HETATM    3  C4  UNL     1      -4.011  -2.072   0.218  1.00  0.00     0.090 A 
HETATM    4  C5  UNL     1      -3.260  -1.259  -0.791  1.00  0.00     0.153 A 
HETATM    5  C6  UNL     1      -1.853  -1.132  -0.407  1.00  0.00     0.068 A 
HETATM    6  C7  UNL     1      -1.079  -1.538   0.576  1.00  0.00     0.102 A 
HETATM    7  N2  UNL     1      -3.284  -1.902  -2.111  1.00  0.00    -0.352 N 
HETATM    8  C15 UNL     1      -4.004  -1.099  -3.037  1.00  0.00     0.227 C 
HETATM    9  N3  UNL     1      -4.311  -0.016  -2.446  1.00  0.00    -0.165 NA
HETATM   10  N4  UNL     1      -3.839   0.007  -1.109  1.00  0.00    -0.235 N 
HETATM   11  H22 UNL     1      -2.845  -2.815  -2.366  1.00  0.00     0.163 HD
ENDROOT
BRANCH  10  12
HETATM   12  C16 UNL     1      -3.977   1.156  -0.317  1.00  0.00     0.058 A 
HETATM   13  C17 UNL     1      -3.526   1.234   0.984  1.00  0.00     0.034 A 
HETATM   14  C18 UNL     1      -3.639   2.341   1.804  1.00  0.00     0.046 A 
HETATM   15  C19 UNL     1      -4.245   3.477   1.315  1.00  0.00     0.138 A 
HETATM   16  F1  UNL     1      -4.396   4.588   2.039  1.00  0.00    -0.204 F 
HETATM   17  C20 UNL     1      -4.707   3.449   0.037  1.00  0.00     0.074 A 
HETATM   18 CL1  UNL     1      -5.491   4.890  -0.619  1.00  0.00    -0.081 Cl
HETATM   19  C21 UNL     1      -4.573   2.330  -0.738  1.00  0.00     0.058 A 
ENDBRANCH  10  12
BRANCH   6  20
HETATM   20  O2  UNL     1       0.251  -1.236   0.644  1.00  0.00    -0.348 OA
BRANCH  20  21
HETATM   21  C8  UNL     1       0.872  -0.115   0.098  1.00  0.00     0.177 C 
BRANCH  21  22
HETATM   22  C9  UNL     1       2.355  -0.236   0.438  1.00  0.00     0.046 C 
BRANCH  22  23
HETATM   23  C10 UNL     1       3.107   0.938  -0.117  1.00  0.00     0.119 C 
BRANCH  23  24
HETATM   24  N1  UNL     1       4.520   0.850   0.189  1.00  0.00    -0.408 N 
HETATM   25  C11 UNL     1       5.189  -0.202  -0.483  1.00  0.00     0.143 C 
HETATM   26  C12 UNL     1       6.200   0.325  -1.478  1.00  0.00     0.187 C 
HETATM   27  O3  UNL     1       7.111   1.059  -0.730  1.00  0.00    -0.388 OA
HETATM   28  C13 UNL     1       6.531   2.220  -0.252  1.00  0.00     0.187 C 
HETATM   29  C14 UNL     1       5.162   2.098   0.299  1.00  0.00     0.143 C 
ENDBRANCH  23  24
ENDBRANCH  22  23
ENDBRANCH  21  22
ENDBRANCH  20  21
ENDBRANCH   6  20
BRANCH   1  30
HETATM   30  O1  UNL     1      -1.082  -2.830   2.672  1.00  0.00    -0.353 OA
HETATM   31  C1  UNL     1      -0.353  -4.042   2.677  1.00  0.00     0.210 C 
ENDBRANCH   1  30
TORSDOF 7
