REMARK  9 active torsions:
REMARK  status: ('A' for Active; 'I' for Inactive)
REMARK    1  A    between atoms: O1_2  and  C2_3 
REMARK    2  A    between atoms: C2_3  and  C3_4 
REMARK    3  A    between atoms: C7_10  and  N3_11 
REMARK    4  A    between atoms: N3_11  and  C8_12 
REMARK    5  A    between atoms: C15_21  and  O2_22 
REMARK    6  A    between atoms: O2_22  and  C16_23 
REMARK    7  A    between atoms: C16_23  and  C17_24 
REMARK    8  A    between atoms: C17_24  and  C18_25 
REMARK    9  A    between atoms: C18_25  and  N4_26 
ROOT
HETATM    1  C3  UNL     1      -1.715  -3.290   0.120  1.00  0.00    -0.021 A 
HETATM    2  C4  UNL     1      -2.456  -3.483   1.195  1.00  0.00     0.040 A 
HETATM    3  C5  UNL     1      -2.875  -2.156   1.615  1.00  0.00     0.071 A 
HETATM    4  N1  UNL     1      -3.665  -1.927   2.701  1.00  0.00    -0.241 NA
HETATM    5  C6  UNL     1      -3.994  -0.659   2.998  1.00  0.00     0.235 A 
HETATM    6  N2  UNL     1      -3.527   0.310   2.207  1.00  0.00    -0.224 NA
HETATM    7  C7  UNL     1      -2.750   0.135   1.132  1.00  0.00     0.141 A 
HETATM    8  C14 UNL     1      -2.387  -1.164   0.793  1.00  0.00     0.050 A 
HETATM    9  C15 UNL     1      -1.590  -1.826  -0.243  1.00  0.00     0.192 A 
ENDROOT
BRANCH   7  10
HETATM   10  N3  UNL     1      -2.279   1.197   0.322  1.00  0.00    -0.340 N 
HETATM   11  H8  UNL     1      -1.682   0.941  -0.498  1.00  0.00     0.167 HD
BRANCH  10  12
HETATM   12  C8  UNL     1      -2.512   2.567   0.477  1.00  0.00     0.035 A 
HETATM   13  C9  UNL     1      -3.247   3.182   1.466  1.00  0.00     0.032 A 
HETATM   14  C10 UNL     1      -3.462   4.536   1.595  1.00  0.00     0.046 A 
HETATM   15  C11 UNL     1      -2.900   5.377   0.659  1.00  0.00     0.138 A 
HETATM   16  F1  UNL     1      -3.065   6.708   0.718  1.00  0.00    -0.204 F 
HETATM   17  C12 UNL     1      -2.151   4.840  -0.363  1.00  0.00     0.074 A 
HETATM   18 CL1  UNL     1      -1.443   5.905  -1.543  1.00  0.00    -0.081 Cl
HETATM   19  C13 UNL     1      -1.980   3.490  -0.428  1.00  0.00     0.056 A 
ENDBRANCH  10  12
ENDBRANCH   7  10
BRANCH   9  20
HETATM   20  O2  UNL     1      -0.236  -1.566  -0.209  1.00  0.00    -0.376 OA
BRANCH  20  21
HETATM   21  C16 UNL     1       0.341  -1.213  -1.397  1.00  0.00     0.170 C 
BRANCH  21  22
HETATM   22  C17 UNL     1       1.822  -0.940  -1.284  1.00  0.00     0.056 C 
BRANCH  22  23
HETATM   23  C18 UNL     1       2.005   0.193  -0.305  1.00  0.00     0.274 C 
BRANCH  23  24
HETATM   24  N4  UNL     1       3.406   0.530  -0.129  1.00  0.00     0.092 N 
HETATM   25  C19 UNL     1       3.448   1.609   0.814  1.00  0.00     0.298 C 
HETATM   26  C20 UNL     1       4.699   2.431   0.758  1.00  0.00     0.198 C 
HETATM   27  O3  UNL     1       4.891   2.844  -0.573  1.00  0.00    -0.388 OA
HETATM   28  C21 UNL     1       5.275   1.665  -1.253  1.00  0.00     0.198 C 
HETATM   29  C22 UNL     1       4.044   0.807  -1.383  1.00  0.00     0.298 C 
ENDBRANCH  23  24
ENDBRANCH  22  23
ENDBRANCH  21  22
ENDBRANCH  20  21
ENDBRANCH   9  20
BRANCH   1  30
HETATM   30  C2  UNL     1      -0.994  -4.227  -0.778  1.00  0.00     0.204 C 
BRANCH  30  31
HETATM   31  O1  UNL     1      -1.163  -5.548  -0.365  1.00  0.00    -0.392 OA
HETATM   32  C1  UNL     1      -0.510  -6.446  -1.172  1.00  0.00     0.201 C 
ENDBRANCH  30  31
ENDBRANCH   1  30
TORSDOF 9
