REMARK  7 active torsions:
REMARK  status: ('A' for Active; 'I' for Inactive)
REMARK    1  A    between atoms: O1_2  and  C2_3 
REMARK    2  A    between atoms: C6_9  and  N3_10 
REMARK    3  A    between atoms: C14_20  and  O2_21 
REMARK    4  A    between atoms: O2_21  and  C15_22 
REMARK    5  A    between atoms: C15_22  and  C16_23 
REMARK    6  A    between atoms: C16_23  and  C17_24 
REMARK    7  A    between atoms: C17_24  and  N4_25 
ROOT
HETATM    1  C2  UNL     1      -0.055  -0.846  -0.873  1.00  0.00     0.140 C 
HETATM    2  C3  UNL     1      -0.689  -1.975  -1.373  1.00  0.00     0.092 C 
HETATM    3  C4  UNL     1      -1.031  -3.304  -1.966  1.00  0.00     0.165 C 
HETATM    4  N1  UNL     1      -2.200  -3.061  -1.679  1.00  0.00    -0.415 NA
HETATM    5  C5  UNL     1      -3.448  -2.859  -1.399  1.00  0.00     0.294 C 
HETATM    6  N2  UNL     1      -4.117  -1.694  -1.159  1.00  0.00    -0.245 NA
HETATM    7  C6  UNL     1      -3.457  -0.392  -1.182  1.00  0.00     0.218 C 
HETATM    8  C13 UNL     1      -1.959  -0.616  -1.031  1.00  0.00     0.082 C 
HETATM    9  C14 UNL     1      -1.222   0.219  -0.499  1.00  0.00     0.138 C 
ENDROOT
BRANCH   9  10
HETATM   10  O2  UNL     1      -0.212   0.788  -0.065  1.00  0.00    -0.373 OA
BRANCH  10  11
HETATM   11  C15 UNL     1       1.128   1.066   0.071  1.00  0.00     0.170 C 
BRANCH  11  12
HETATM   12  C16 UNL     1       1.626   0.782   1.485  1.00  0.00     0.056 C 
BRANCH  12  13
HETATM   13  C17 UNL     1       3.076   1.060   1.694  1.00  0.00     0.274 C 
BRANCH  13  14
HETATM   14  N4  UNL     1       3.925   0.244   0.859  1.00  0.00     0.092 N 
HETATM   15  C18 UNL     1       5.327   0.654   1.003  1.00  0.00     0.298 C 
HETATM   16  C19 UNL     1       6.061  -0.140   2.020  1.00  0.00     0.198 C 
HETATM   17  O3  UNL     1       5.139  -0.385   3.070  1.00  0.00    -0.388 OA
HETATM   18  C20 UNL     1       4.380  -1.480   2.565  1.00  0.00     0.198 C 
HETATM   19  C21 UNL     1       3.760  -1.138   1.227  1.00  0.00     0.298 C 
ENDBRANCH  13  14
ENDBRANCH  12  13
ENDBRANCH  11  12
ENDBRANCH  10  11
ENDBRANCH   9  10
BRANCH   1  20
HETATM   20  O1  UNL     1       1.339  -1.202  -0.989  1.00  0.00    -0.378 OA
HETATM   21  C1  UNL     1       1.570  -1.508  -2.450  1.00  0.00     0.202 C 
ENDBRANCH   1  20
BRANCH   7  22
HETATM   22  N3  UNL     1      -3.994   0.578  -0.358  1.00  0.00    -0.356 N 
HETATM   23  C7  UNL     1      -4.368   0.506   1.113  1.00  0.00     0.155 A 
HETATM   24  C8  UNL     1      -4.593   2.022   1.427  1.00  0.00     0.037 A 
HETATM   25  C9  UNL     1      -4.663   3.209   1.100  1.00  0.00     0.137 A 
HETATM   26  F1  UNL     1      -4.946   3.854   2.199  1.00  0.00    -0.204 F 
HETATM   27  C10 UNL     1      -4.364   2.845  -0.211  1.00  0.00     0.094 A 
HETATM   28 CL1  UNL     1      -4.324   4.542  -0.899  1.00  0.00    -0.079 Cl
HETATM   29  C11 UNL     1      -4.058   1.917  -1.163  1.00  0.00     0.030 A 
HETATM   30  C12 UNL     1      -3.985   2.225  -2.558  1.00  0.00     0.070 C 
ENDBRANCH   7  22
TORSDOF 7
