REMARK  7 active torsions:
REMARK  status: ('A' for Active; 'I' for Inactive)
REMARK    1  A    between atoms: O1_2  and  C2_3 
REMARK    2  A    between atoms: C5_9  and  N3_10 
REMARK    3  A    between atoms: N3_10  and  C6_11 
REMARK    4  A    between atoms: C14_20  and  O2_21 
REMARK    5  A    between atoms: O2_21  and  C15_22 
REMARK    6  A    between atoms: C15_22  and  C16_23 
REMARK    7  A    between atoms: C16_23  and  N4_24 
ROOT
HETATM    1  C2  UNL     1      -0.872  -0.007  -3.105  1.00  0.00     0.033 A 
HETATM    2  B1  UNL     1       0.443   0.715  -4.118  1.00  0.00     0.287 B 
HETATM    3  C3  UNL     1       1.989   0.678  -2.849  1.00  0.00     0.006 A 
HETATM    4  N1  UNL     1       3.066   1.167  -3.396  1.00  0.00    -0.258 NA
HETATM    5  C4  UNL     1       4.181   1.186  -2.607  1.00  0.00     0.234 A 
HETATM    6  N2  UNL     1       4.064   0.701  -1.348  1.00  0.00    -0.224 NA
HETATM    7  C5  UNL     1       2.900   0.217  -0.881  1.00  0.00     0.140 A 
HETATM    8  C12 UNL     1       1.744   0.166  -1.613  1.00  0.00     0.025 A 
HETATM    9  C13 UNL     1       0.567  -0.308  -1.184  1.00  0.00     0.054 A 
HETATM   10  C14 UNL     1      -0.611  -0.388  -1.849  1.00  0.00     0.086 A 
ENDROOT
BRANCH   7  11
HETATM   11  N3  UNL     1       2.886  -0.268   0.455  1.00  0.00    -0.338 N 
HETATM   12  H5  UNL     1       2.124  -0.680   1.024  1.00  0.00     0.167 HD
BRANCH  11  13
HETATM   13  C6  UNL     1       4.092  -0.208   1.197  1.00  0.00     0.069 A 
HETATM   14  C7  UNL     1       4.742  -1.134   1.908  1.00  0.00     0.124 A 
HETATM   15  F1  UNL     1       4.446  -2.420   2.137  1.00  0.00    -0.208 F 
HETATM   16  C8  UNL     1       5.980  -0.554   2.502  1.00  0.00     0.106 A 
HETATM   17  C9  UNL     1       5.911   0.855   2.002  1.00  0.00    -0.075 A 
HETATM   18  C10 UNL     1       7.023   1.775   2.406  1.00  0.00     0.044 C 
HETATM   19  C11 UNL     1       4.829   1.053   1.254  1.00  0.00     0.035 A 
ENDBRANCH  11  13
ENDBRANCH   7  11
BRANCH  10  20
HETATM   20  O2  UNL     1      -1.816  -0.882  -1.387  1.00  0.00    -0.348 OA
BRANCH  20  21
HETATM   21  C15 UNL     1      -1.899  -1.386  -0.050  1.00  0.00     0.206 C 
BRANCH  21  22
HETATM   22  C16 UNL     1      -3.264  -1.877   0.281  1.00  0.00     0.299 C 
BRANCH  22  23
HETATM   23  N4  UNL     1      -4.209  -0.819   0.155  1.00  0.00     0.094 N 
HETATM   24  C17 UNL     1      -5.567  -1.158   0.423  1.00  0.00     0.298 C 
HETATM   25  C18 UNL     1      -6.011  -1.034   1.839  1.00  0.00     0.198 C 
HETATM   26  O3  UNL     1      -5.558   0.089   2.492  1.00  0.00    -0.388 OA
HETATM   27  C19 UNL     1      -5.074   0.992   1.553  1.00  0.00     0.198 C 
HETATM   28  C20 UNL     1      -3.856   0.408   0.837  1.00  0.00     0.298 C 
ENDBRANCH  22  23
ENDBRANCH  21  22
ENDBRANCH  20  21
ENDBRANCH  10  20
BRANCH   1  29
HETATM   29  O1  UNL     1      -1.803   0.085  -4.063  1.00  0.00    -0.370 OA
HETATM   30  C1  UNL     1      -3.142  -0.358  -3.845  1.00  0.00     0.208 C 
ENDBRANCH   1  29
TORSDOF 7
