REMARK  9 active torsions:
REMARK  status: ('A' for Active; 'I' for Inactive)
REMARK    1  A    between atoms: O1_2  and  C2_3 
REMARK    2  A    between atoms: C6_9  and  N3_10 
REMARK    3  A    between atoms: N3_10  and  C7_11 
REMARK    4  A    between atoms: C7_11  and  C8_12 
REMARK    5  A    between atoms: C15_22  and  O3_23 
REMARK    6  A    between atoms: O3_23  and  C16_24 
REMARK    7  A    between atoms: C16_24  and  C17_25 
REMARK    8  A    between atoms: C17_25  and  C18_26 
REMARK    9  A    between atoms: C18_26  and  N4_27 
ROOT
HETATM    1  C2  UNL     1       0.853   3.910   0.627  1.00  0.00     0.103 A 
HETATM    2  C3  UNL     1      -0.198   4.435  -0.096  1.00  0.00     0.072 A 
HETATM    3  C4  UNL     1      -1.258   3.680  -0.541  1.00  0.00     0.075 A 
HETATM    4  N1  UNL     1      -2.270   4.215  -1.245  1.00  0.00    -0.241 NA
HETATM    5  C5  UNL     1      -3.302   3.470  -1.677  1.00  0.00     0.235 A 
HETATM    6  N2  UNL     1      -3.340   2.157  -1.408  1.00  0.00    -0.224 NA
HETATM    7  C6  UNL     1      -2.376   1.535  -0.712  1.00  0.00     0.137 A 
HETATM    8  C13 UNL     1      -1.337   2.331  -0.287  1.00  0.00     0.041 A 
HETATM    9  C14 UNL     1      -0.295   1.802   0.432  1.00  0.00     0.057 A 
HETATM   10  C15 UNL     1       0.805   2.523   0.907  1.00  0.00     0.103 A 
ENDROOT
BRANCH   7  11
HETATM   11  N3  UNL     1      -2.452   0.135  -0.450  1.00  0.00    -0.370 N 
HETATM   12  H6  UNL     1      -1.747  -0.416   0.076  1.00  0.00     0.161 HD
BRANCH  11  13
HETATM   13  C7  UNL     1      -3.608  -0.569  -0.964  1.00  0.00     0.160 C 
BRANCH  13  14
HETATM   14  C8  UNL     1      -3.506  -1.989  -0.612  1.00  0.00    -0.007 C 
HETATM   15  C9  UNL     1      -4.406  -2.626   0.130  1.00  0.00     0.042 C 
HETATM   16 CL1  UNL     1      -5.814  -1.790   0.755  1.00  0.00    -0.086 Cl
HETATM   17  C10 UNL     1      -4.215  -4.071   0.434  1.00  0.00     0.219 C 
HETATM   18  O2  UNL     1      -3.748  -4.817  -0.617  1.00  0.00    -0.383 OA
HETATM   19  C11 UNL     1      -3.098  -4.123  -1.609  1.00  0.00     0.210 C 
HETATM   20  C12 UNL     1      -2.394  -2.887  -1.037  1.00  0.00     0.226 C 
HETATM   21  F1  UNL     1      -1.546  -2.332  -1.947  1.00  0.00    -0.242 F 
ENDBRANCH  13  14
ENDBRANCH  11  13
ENDBRANCH   7  11
BRANCH  10  22
HETATM   22  O3  UNL     1       1.798   2.040   1.585  1.00  0.00    -0.348 OA
BRANCH  22  23
HETATM   23  C16 UNL     1       2.530   1.131   2.197  1.00  0.00     0.177 C 
BRANCH  23  24
HETATM   24  C17 UNL     1       3.146  -0.017   1.432  1.00  0.00     0.057 C 
BRANCH  24  25
HETATM   25  C18 UNL     1       2.153  -0.859   0.742  1.00  0.00     0.277 C 
BRANCH  25  26
HETATM   26  N4  UNL     1       2.702  -1.989   0.034  1.00  0.00     0.113 N 
HETATM   27  C19 UNL     1       3.491  -1.705  -1.102  1.00  0.00     0.301 C 
HETATM   28  C20 UNL     1       4.784  -2.421  -0.863  1.00  0.00     0.200 C 
HETATM   29  O4  UNL     1       4.432  -3.436   0.005  1.00  0.00    -0.361 OA
HETATM   30  C21 UNL     1       3.408  -2.933   0.839  1.00  0.00     0.440 C 
ENDBRANCH  25  26
ENDBRANCH  24  25
ENDBRANCH  23  24
ENDBRANCH  22  23
ENDBRANCH  10  22
BRANCH   1  31
HETATM   31  O1  UNL     1       1.937   4.599   1.101  1.00  0.00    -0.353 OA
HETATM   32  C1  UNL     1       2.122   5.961   0.909  1.00  0.00     0.210 C 
ENDBRANCH   1  31
TORSDOF 9
