REMARK  9 active torsions:
REMARK  status: ('A' for Active; 'I' for Inactive)
REMARK    1  A    between atoms: O1_2  and  C2_3 
REMARK    2  A    between atoms: C6_9  and  N3_10 
REMARK    3  A    between atoms: N3_10  and  C7_11 
REMARK    4  A    between atoms: C11_16  and  O2_17 
REMARK    5  A    between atoms: C15_21  and  O3_22 
REMARK    6  A    between atoms: O3_22  and  C16_23 
REMARK    7  A    between atoms: C16_23  and  C17_24 
REMARK    8  A    between atoms: C17_24  and  C18_25 
REMARK    9  A    between atoms: C18_25  and  N4_26 
ROOT
HETATM    1  C2  UNL     1      -0.759  -3.999   0.422  1.00  0.00     0.103 A 
HETATM    2  C3  UNL     1      -2.136  -4.020   0.485  1.00  0.00     0.072 A 
HETATM    3  C4  UNL     1      -2.792  -2.848   0.189  1.00  0.00     0.075 A 
HETATM    4  N1  UNL     1      -4.152  -2.907   0.260  1.00  0.00    -0.241 NA
HETATM    5  C5  UNL     1      -4.897  -1.811  -0.011  1.00  0.00     0.236 A 
HETATM    6  N2  UNL     1      -4.252  -0.690  -0.346  1.00  0.00    -0.224 NA
HETATM    7  C6  UNL     1      -2.930  -0.537  -0.442  1.00  0.00     0.142 A 
HETATM    8  C13 UNL     1      -2.196  -1.662  -0.162  1.00  0.00     0.042 A 
HETATM    9  C14 UNL     1      -0.827  -1.738  -0.198  1.00  0.00     0.057 A 
HETATM   10  C15 UNL     1      -0.051  -2.836   0.073  1.00  0.00     0.103 A 
ENDROOT
BRANCH   7  11
HETATM   11  N3  UNL     1      -2.273   0.649  -0.796  1.00  0.00    -0.340 N 
HETATM   12  H6  UNL     1      -1.238   0.716  -0.835  1.00  0.00     0.167 HD
BRANCH  11  13
HETATM   13  C7  UNL     1      -2.824   1.904  -1.146  1.00  0.00     0.036 A 
HETATM   14  C8  UNL     1      -2.083   3.070  -1.378  1.00  0.00     0.032 A 
HETATM   15  C9  UNL     1      -2.625   4.272  -1.719  1.00  0.00     0.047 A 
HETATM   16  C10 UNL     1      -3.983   4.402  -1.856  1.00  0.00     0.149 A 
HETATM   17  F1  UNL     1      -4.447   5.627  -2.196  1.00  0.00    -0.203 F 
HETATM   18  C11 UNL     1      -4.764   3.300  -1.642  1.00  0.00     0.106 A 
HETATM   19  C12 UNL     1      -4.175   2.097  -1.298  1.00  0.00     0.069 A 
BRANCH  18  20
HETATM   20  O2  UNL     1      -6.135   3.474  -1.790  1.00  0.00    -0.358 OA
HETATM   21  H9  UNL     1      -6.793   3.214  -1.044  1.00  0.00     0.217 HD
ENDBRANCH  18  20
ENDBRANCH  11  13
ENDBRANCH   7  11
BRANCH  10  22
HETATM   22  O3  UNL     1       1.301  -3.009   0.066  1.00  0.00    -0.348 OA
BRANCH  22  23
HETATM   23  C16 UNL     1       2.345  -2.160  -0.194  1.00  0.00     0.177 C 
BRANCH  23  24
HETATM   24  C17 UNL     1       2.513  -0.965   0.690  1.00  0.00     0.057 C 
BRANCH  24  25
HETATM   25  C18 UNL     1       3.739  -0.220   0.175  1.00  0.00     0.274 C 
BRANCH  25  26
HETATM   26  N4  UNL     1       3.961   0.956   0.962  1.00  0.00     0.092 N 
HETATM   27  C19 UNL     1       5.227   1.562   0.517  1.00  0.00     0.298 C 
HETATM   28  C20 UNL     1       5.372   2.837   1.317  1.00  0.00     0.198 C 
HETATM   29  O4  UNL     1       4.396   3.765   1.007  1.00  0.00    -0.388 OA
HETATM   30  C21 UNL     1       3.411   3.204   0.233  1.00  0.00     0.198 C 
HETATM   31  C22 UNL     1       2.868   1.896   0.757  1.00  0.00     0.298 C 
ENDBRANCH  25  26
ENDBRANCH  24  25
ENDBRANCH  23  24
ENDBRANCH  22  23
ENDBRANCH  10  22
BRANCH   1  32
HETATM   32  O1  UNL     1      -0.101  -5.187   0.722  1.00  0.00    -0.353 OA
HETATM   33  C1  UNL     1      -0.803  -6.358   1.077  1.00  0.00     0.210 C 
ENDBRANCH   1  32
TORSDOF 9
