REMARK  4 active torsions:
REMARK  status: ('A' for Active; 'I' for Inactive)
REMARK    1  A    between atoms: C4_5  and  N1_6 
REMARK    2  A    between atoms: N1_6  and  C5_7 
REMARK    3  A    between atoms: C8_10  and  O1_11 
REMARK    4  A    between atoms: O1_11  and  C9_12 
ROOT
HETATM    1  C5  UNL     1      -1.799   0.502  -0.087  1.00  0.00     0.136 C 
HETATM    2  C6  UNL     1      -0.974  -0.378  -0.870  1.00  0.00     0.015 C 
HETATM    3  C7  UNL     1       0.349  -1.308  -0.714  1.00  0.00     0.052 C 
HETATM    4  C8  UNL     1       0.999  -0.173  -0.272  1.00  0.00     0.103 C 
HETATM    5  C14 UNL     1       0.633   0.832  -1.428  1.00  0.00     0.103 C 
HETATM    6  C15 UNL     1       0.938   2.172  -1.336  1.00  0.00     0.059 C 
HETATM    7  C16 UNL     1      -0.456   2.644  -0.594  1.00  0.00     0.122 C 
HETATM    8  N3  UNL     1      -1.603   1.998  -0.168  1.00  0.00    -0.243 NA
HETATM    9  O2  UNL     1      -0.123   0.600  -2.722  1.00  0.00    -0.344 OA
HETATM   10  C17 UNL     1      -1.259  -0.308  -2.388  1.00  0.00     0.218 C 
ENDROOT
BRANCH   1  11
HETATM   11  N1  UNL     1      -2.839   0.159   0.881  1.00  0.00    -0.340 N 
HETATM   12  H3  UNL     1      -2.352   0.223   1.800  1.00  0.00     0.167 HD
BRANCH  11  13
HETATM   13  C4  UNL     1      -4.196  -0.181   0.636  1.00  0.00     0.035 A 
HETATM   14  C3  UNL     1      -4.646  -0.201  -0.652  1.00  0.00     0.032 A 
HETATM   15  C2  UNL     1      -5.982  -0.544  -0.809  1.00  0.00     0.046 A 
HETATM   16  C1  UNL     1      -6.772  -0.840   0.304  1.00  0.00     0.138 A 
HETATM   17  F1  UNL     1      -8.080  -1.174   0.139  1.00  0.00    -0.204 F 
HETATM   18  C19 UNL     1      -6.250  -0.801   1.601  1.00  0.00     0.074 A 
HETATM   19  C18 UNL     1      -4.906  -0.458   1.782  1.00  0.00     0.056 A 
HETATM   20 CL1  UNL     1      -7.237  -1.171   2.995  1.00  0.00    -0.081 Cl
ENDBRANCH  11  13
ENDBRANCH   1  11
BRANCH   4  21
HETATM   21  O1  UNL     1       1.673  -0.536   1.000  1.00  0.00    -0.343 OA
BRANCH  21  22
HETATM   22  C9  UNL     1       3.055  -0.778   0.758  1.00  0.00     0.132 C 
HETATM   23  C10 UNL     1       3.713  -0.864   2.097  1.00  0.00     0.051 C 
HETATM   24  C11 UNL     1       5.220  -0.838   2.048  1.00  0.00     0.116 C 
HETATM   25  N2  UNL     1       5.781   0.073   1.158  1.00  0.00    -0.421 N 
HETATM   26  C12 UNL     1       5.104   0.453  -0.001  1.00  0.00     0.116 C 
HETATM   27  H10 UNL     1       6.640   0.580   1.411  1.00  0.00     0.153 HD
HETATM   28  C13 UNL     1       3.597   0.445   0.050  1.00  0.00     0.051 C 
ENDBRANCH  21  22
ENDBRANCH   4  21
TORSDOF 4
