REMARK  5 active torsions:
REMARK  status: ('A' for Active; 'I' for Inactive)
REMARK    1  A    between atoms: C1_2  and  O2_3 
REMARK    2  A    between atoms: C1_2  and  C2_4 
REMARK    3  A    between atoms: C6_8  and  O3_9 
REMARK    4  A    between atoms: C9_13  and  N2_14 
REMARK    5  A    between atoms: N2_14  and  C10_15 
ROOT
HETATM    1  C2  UNL     1      -4.230   0.123   0.564  1.00  0.00     0.068 A 
HETATM    2  C3  UNL     1      -3.476  -0.034   1.635  1.00  0.00     0.010 A 
HETATM    3  C4  UNL     1      -2.382  -0.942   1.256  1.00  0.00     0.097 A 
HETATM    4  C5  UNL     1      -2.622  -1.281  -0.191  1.00  0.00    -0.015 A 
HETATM    5  C6  UNL     1      -3.733  -0.627  -0.568  1.00  0.00     0.087 A 
HETATM    6  C7  UNL     1      -1.624  -2.195  -0.784  1.00  0.00     0.158 C 
HETATM    7  N1  UNL     1      -0.310  -1.846  -0.231  1.00  0.00    -0.381 N 
HETATM    8  C8  UNL     1      -0.079  -0.605   0.469  1.00  0.00     0.101 A 
HETATM    9  C9  UNL     1       1.114   0.079   0.391  1.00  0.00     0.158 A 
HETATM   10  N3  UNL     1       1.219   1.215   1.089  1.00  0.00    -0.222 NA
HETATM   11  C16 UNL     1       0.241   1.696   1.834  1.00  0.00     0.235 A 
HETATM   12  N4  UNL     1      -0.923   1.033   1.912  1.00  0.00    -0.243 NA
HETATM   13  C17 UNL     1      -1.121  -0.130   1.238  1.00  0.00     0.078 A 
HETATM   14  H7  UNL     1       0.533  -2.486  -0.315  1.00  0.00     0.160 HD
ENDROOT
BRANCH   9  15
HETATM   15  N2  UNL     1       2.143  -0.456  -0.426  1.00  0.00    -0.339 N 
HETATM   16  H8  UNL     1       1.971  -1.326  -0.972  1.00  0.00     0.167 HD
BRANCH  15  17
HETATM   17  C10 UNL     1       3.460   0.023  -0.652  1.00  0.00     0.035 A 
HETATM   18  C11 UNL     1       4.372  -0.591  -1.517  1.00  0.00     0.029 A 
HETATM   19  C12 UNL     1       5.636  -0.127  -1.729  1.00  0.00     0.004 A 
HETATM   20  C13 UNL     1       6.091   0.992  -1.090  1.00  0.00     0.019 A 
HETATM   21  C14 UNL     1       5.243   1.647  -0.223  1.00  0.00     0.013 A 
HETATM   22 BR1  UNL     1       5.911   3.203   0.648  1.00  0.00    -0.051 Br
HETATM   23  C15 UNL     1       3.972   1.142  -0.038  1.00  0.00     0.048 A 
ENDBRANCH  15  17
ENDBRANCH   9  15
BRANCH   5  24
HETATM   24  O3  UNL     1      -4.215  -0.740  -1.860  1.00  0.00    -0.359 OA
HETATM   25  H4  UNL     1      -5.205  -0.900  -2.004  1.00  0.00     0.217 HD
ENDBRANCH   5  24
BRANCH   1  26
HETATM   26  C1  UNL     1      -5.433   0.947   0.487  1.00  0.00     0.178 C 
HETATM   27  O1  UNL     1      -6.180   1.124  -0.515  1.00  0.00    -0.646 OA
BRANCH  26  28
HETATM   28  O2  UNL     1      -5.951   1.685   1.542  1.00  0.00    -0.773 OA
HETATM   29  H1  UNL     1      -6.247   2.650   1.443  1.00  0.00     0.167 HD
ENDBRANCH  26  28
ENDBRANCH   1  26
TORSDOF 5
