REMARK  6 active torsions:
REMARK  status: ('A' for Active; 'I' for Inactive)
REMARK    1  A    between atoms: C3_4  and  C4_5 
REMARK    2  A    between atoms: C5_6  and  C6_7 
REMARK    3  A    between atoms: C6_7  and  O1_8 
REMARK    4  A    between atoms: O1_8  and  C7_9 
REMARK    5  A    between atoms: C10_12  and  N1_13 
REMARK    6  A    between atoms: N1_13  and  C11_14 
ROOT
HETATM    1  C7  UNL     1      -0.009  -1.000   0.092  1.00  0.00     0.090 A 
HETATM    2  C8  UNL     1      -0.214   0.117   0.914  1.00  0.00     0.041 A 
HETATM    3  C9  UNL     1      -1.448   0.730   1.085  1.00  0.00     0.032 A 
HETATM    4  C10 UNL     1      -2.495   0.176   0.389  1.00  0.00     0.035 A 
HETATM    5  C15 UNL     1      -2.317  -0.931  -0.432  1.00  0.00     0.056 A 
HETATM    6  C16 UNL     1      -1.108  -1.527  -0.595  1.00  0.00     0.069 A 
HETATM    7 CL1  UNL     1      -0.834  -2.910  -1.609  1.00  0.00    -0.081 Cl
ENDROOT
BRANCH   1   8
HETATM    8  O1  UNL     1       1.191  -1.420   0.066  1.00  0.00    -0.346 OA
BRANCH   8   9
HETATM    9  C6  UNL     1       2.440  -1.806   0.079  1.00  0.00     0.203 C 
BRANCH   9  10
HETATM   10  C5  UNL     1       3.463  -0.823  -0.435  1.00  0.00    -0.004 C 
HETATM   11  C4  UNL     1       4.529  -0.006  -0.436  1.00  0.00    -0.021 C 
BRANCH  11  12
HETATM   12  C3  UNL     1       5.308   0.098   0.828  1.00  0.00     0.044 A 
HETATM   13  C1  UNL     1       6.754  -0.301   0.708  1.00  0.00     0.178 A 
HETATM   14  F1  UNL     1       7.281  -0.566  -0.536  1.00  0.00    -0.249 F 
HETATM   15  C2  UNL     1       6.377   1.114   0.965  1.00  0.00     0.049 A 
ENDBRANCH  11  12
ENDBRANCH   9  10
ENDBRANCH   8   9
ENDBRANCH   1   8
BRANCH   4  16
HETATM   16  N1  UNL     1      -3.794   0.730   0.507  1.00  0.00    -0.341 N 
HETATM   17  H11 UNL     1      -3.997   1.432   1.281  1.00  0.00     0.167 HD
BRANCH  16  18
HETATM   18  C11 UNL     1      -5.001   0.587  -0.199  1.00  0.00     0.130 A 
HETATM   19  C12 UNL     1      -5.151   1.657  -1.090  1.00  0.00     0.070 A 
HETATM   20  C13 UNL     1      -6.232   1.844  -1.960  1.00  0.00     0.122 A 
HETATM   21  N2  UNL     1      -7.189   0.880  -1.894  1.00  0.00    -0.254 NA
HETATM   22  C14 UNL     1      -7.059  -0.143  -1.051  1.00  0.00     0.234 A 
HETATM   23  N3  UNL     1      -6.016  -0.324  -0.213  1.00  0.00    -0.225 NA
ENDBRANCH  16  18
ENDBRANCH   4  16
TORSDOF 6
