REMARK  7 active torsions:
REMARK  status: ('A' for Active; 'I' for Inactive)
REMARK    1  A    between atoms: C5_7  and  C6_8 
REMARK    2  A    between atoms: C6_8  and  C7_9 
REMARK    3  A    between atoms: C7_9  and  O2_10 
REMARK    4  A    between atoms: O2_10  and  C8_11 
REMARK    5  A    between atoms: C11_14  and  N2_15 
REMARK    6  A    between atoms: N2_15  and  C12_16 
REMARK    7  A    between atoms: C21_29  and  O3_30 
ROOT
HETATM    1  C8  UNL     1      -0.129  -1.213   0.681  1.00  0.00     0.102 A 
HETATM    2  C9  UNL     1       1.014  -0.804   0.022  1.00  0.00     0.057 A 
HETATM    3  C10 UNL     1       2.100  -1.644  -0.090  1.00  0.00     0.042 A 
HETATM    4  C11 UNL     1       3.173  -1.137  -0.753  1.00  0.00     0.142 A 
HETATM    5  N3  UNL     1       4.260  -1.951  -0.872  1.00  0.00    -0.224 NA
HETATM    6  C18 UNL     1       4.256  -3.192  -0.354  1.00  0.00     0.236 A 
HETATM    7  N4  UNL     1       3.197  -3.693   0.301  1.00  0.00    -0.241 NA
HETATM    8  C19 UNL     1       2.101  -2.914   0.439  1.00  0.00     0.075 A 
HETATM    9  C20 UNL     1       0.955  -3.310   1.093  1.00  0.00     0.072 A 
HETATM   10  C21 UNL     1      -0.130  -2.479   1.210  1.00  0.00     0.101 A 
ENDROOT
BRANCH   1  11
HETATM   11  O2  UNL     1      -1.263  -0.408   0.826  1.00  0.00    -0.348 OA
BRANCH  11  12
HETATM   12  C7  UNL     1      -1.250   0.884   0.276  1.00  0.00     0.178 C 
BRANCH  12  13
HETATM   13  C6  UNL     1      -2.531   1.655   0.495  1.00  0.00     0.063 C 
BRANCH  13  14
HETATM   14  C5  UNL     1      -3.642   0.857  -0.165  1.00  0.00     0.230 C 
HETATM   15  C2  UNL     1      -4.976   1.531  -0.011  1.00  0.00     0.039 C 
HETATM   16  C1  UNL     1      -5.363   1.690   1.443  1.00  0.00     0.014 C 
HETATM   17  C3  UNL     1      -6.008   0.681  -0.716  1.00  0.00     0.176 C 
HETATM   18  O1  UNL     1      -6.009  -0.636  -0.256  1.00  0.00    -0.362 OA
HETATM   19  C4  UNL     1      -4.740  -1.206  -0.342  1.00  0.00     0.438 C 
HETATM   20  N1  UNL     1      -3.723  -0.476   0.342  1.00  0.00     0.111 N 
HETATM   21  H9  UNL     1      -3.704  -0.593   1.357  1.00  0.00     0.319 HD
ENDBRANCH  13  14
ENDBRANCH  12  13
ENDBRANCH  11  12
ENDBRANCH   1  11
BRANCH  10  22
HETATM   22  O3  UNL     1      -1.232  -2.951   1.878  1.00  0.00    -0.358 OA
HETATM   23  H22 UNL     1      -2.104  -2.443   1.863  1.00  0.00     0.217 HD
ENDBRANCH  10  22
BRANCH   4  24
HETATM   24  N2  UNL     1       3.292   0.165  -1.366  1.00  0.00    -0.340 N 
HETATM   25  H16 UNL     1       2.619   0.689  -1.962  1.00  0.00     0.167 HD
BRANCH  24  26
HETATM   26  C12 UNL     1       4.547   0.837  -1.112  1.00  0.00     0.035 A 
HETATM   27  C13 UNL     1       5.319   0.424  -0.029  1.00  0.00     0.032 A 
HETATM   28  C14 UNL     1       6.538   0.963   0.334  1.00  0.00     0.046 A 
HETATM   29  C15 UNL     1       7.015   2.010  -0.467  1.00  0.00     0.138 A 
HETATM   30  F1  UNL     1       8.213   2.563  -0.136  1.00  0.00    -0.204 F 
HETATM   31  C16 UNL     1       6.281   2.435  -1.533  1.00  0.00     0.074 A 
HETATM   32 CL1  UNL     1       6.855   3.728  -2.533  1.00  0.00    -0.081 Cl
HETATM   33  C17 UNL     1       5.068   1.872  -1.865  1.00  0.00     0.056 A 
ENDBRANCH  24  26
ENDBRANCH   4  24
TORSDOF 7
