REMARK  6 active torsions:
REMARK  status: ('A' for Active; 'I' for Inactive)
REMARK    1  A    between atoms: O1_1  and  C1_2 
REMARK    2  A    between atoms: C3_4  and  N1_5 
REMARK    3  A    between atoms: N1_5  and  C4_6 
REMARK    4  A    between atoms: C10_14  and  O2_15 
REMARK    5  A    between atoms: O2_15  and  C11_16 
REMARK    6  A    between atoms: C11_16  and  C12_17 
ROOT
HETATM    1  C1  UNL     1      -0.264   1.934   1.013  1.00  0.00     0.101 A 
HETATM    2  C2  UNL     1      -1.410   1.432   1.626  1.00  0.00     0.069 A 
HETATM    3  C3  UNL     1      -1.961   0.302   1.015  1.00  0.00     0.036 A 
HETATM    4  C8  UNL     1      -1.441  -0.303  -0.110  1.00  0.00     0.032 A 
HETATM    5  C9  UNL     1      -0.304   0.242  -0.669  1.00  0.00     0.042 A 
HETATM    6  C10 UNL     1       0.309   1.364  -0.128  1.00  0.00     0.102 A 
ENDROOT
BRANCH   6   7
HETATM    7  O2  UNL     1       1.358   1.900  -0.609  1.00  0.00    -0.344 OA
BRANCH   7   8
HETATM    8  C11 UNL     1       2.415   2.205  -1.329  1.00  0.00     0.214 C 
BRANCH   8   9
HETATM    9  C12 UNL     1       3.386   1.036  -1.305  1.00  0.00    -0.031 A 
HETATM   10  C13 UNL     1       3.396   0.024  -2.240  1.00  0.00     0.009 A 
HETATM   11  C14 UNL     1       4.316  -0.998  -2.136  1.00  0.00     0.004 A 
HETATM   12  C15 UNL     1       5.249  -1.037  -1.098  1.00  0.00     0.042 A 
HETATM   13  C16 UNL     1       5.216  -0.002  -0.166  1.00  0.00     0.117 A 
HETATM   14  F1  UNL     1       6.134  -0.044   0.855  1.00  0.00    -0.206 F 
HETATM   15  C17 UNL     1       4.305   1.033  -0.249  1.00  0.00     0.051 A 
ENDBRANCH   8   9
ENDBRANCH   7   8
ENDBRANCH   6   7
BRANCH   1  16
HETATM   16  O1  UNL     1       0.249   3.066   1.663  1.00  0.00    -0.358 OA
HETATM   17  H1  UNL     1       1.173   2.909   2.096  1.00  0.00     0.217 HD
ENDBRANCH   1  16
BRANCH   3  18
HETATM   18  N1  UNL     1      -3.128  -0.299   1.561  1.00  0.00    -0.341 N 
HETATM   19  H3  UNL     1      -3.543   0.030   2.472  1.00  0.00     0.167 HD
BRANCH  18  20
HETATM   20  C4  UNL     1      -3.851  -1.368   0.977  1.00  0.00     0.130 A 
HETATM   21  C5  UNL     1      -4.885  -0.866   0.199  1.00  0.00     0.070 A 
HETATM   22  C6  UNL     1      -5.748  -1.717  -0.489  1.00  0.00     0.122 A 
HETATM   23  N2  UNL     1      -5.535  -3.048  -0.367  1.00  0.00    -0.254 NA
HETATM   24  C7  UNL     1      -4.525  -3.528   0.392  1.00  0.00     0.234 A 
HETATM   25  N3  UNL     1      -3.685  -2.712   1.062  1.00  0.00    -0.225 NA
ENDBRANCH  18  20
ENDBRANCH   3  18
TORSDOF 6
