REMARK  3 active torsions:
REMARK  status: ('A' for Active; 'I' for Inactive)
REMARK    1  A    between atoms: O1_2  and  C2_3 
REMARK    2  A    between atoms: C12_17  and  N4_18 
REMARK    3  A    between atoms: N4_18  and  C13_19 
ROOT
HETATM    1  C2  UNL     1      -2.597   1.621   0.999  1.00  0.00     0.066 C 
HETATM    2  C3  UNL     1      -3.503   1.033   1.781  1.00  0.00     0.115 C 
HETATM    3  N1  UNL     1      -4.223  -0.240   1.780  1.00  0.00    -0.397 N 
HETATM    4  C4  UNL     1      -3.633  -0.933   0.712  1.00  0.00     0.121 C 
HETATM    5  C5  UNL     1      -3.955  -2.386   0.456  1.00  0.00     0.046 C 
HETATM    6  C6  UNL     1      -3.123  -2.617  -0.835  1.00  0.00     0.170 C 
HETATM    7  O2  UNL     1      -1.770  -2.290  -0.546  1.00  0.00    -0.379 OA
HETATM    8  C7  UNL     1      -0.870  -1.727  -1.449  1.00  0.00     0.177 C 
HETATM    9  C8  UNL     1      -0.084  -0.667  -1.242  1.00  0.00     0.025 C 
HETATM   10  C9  UNL     1       0.533   0.482  -0.527  1.00  0.00     0.034 A 
HETATM   11  C10 UNL     1      -0.340   1.442  -0.066  1.00  0.00     0.056 A 
HETATM   12  N2  UNL     1       0.288   2.440   0.594  1.00  0.00    -0.245 NA
HETATM   13  C11 UNL     1       1.633   2.422   0.743  1.00  0.00     0.235 A 
HETATM   14  N3  UNL     1       2.440   1.465   0.276  1.00  0.00    -0.224 NA
HETATM   15  C12 UNL     1       1.896   0.442  -0.390  1.00  0.00     0.141 A 
HETATM   16  C19 UNL     1      -1.789   1.471  -0.228  1.00  0.00     0.126 C 
HETATM   17  H5  UNL     1      -4.965  -0.455   2.454  1.00  0.00     0.158 HD
ENDROOT
BRANCH  15  18
HETATM   18  N4  UNL     1       2.616  -0.634  -0.937  1.00  0.00    -0.340 N 
HETATM   19  H15 UNL     1       2.104  -1.396  -1.440  1.00  0.00     0.167 HD
BRANCH  18  20
HETATM   20  C13 UNL     1       4.008  -0.858  -0.912  1.00  0.00     0.035 A 
HETATM   21  C14 UNL     1       4.606  -1.972  -1.445  1.00  0.00     0.032 A 
HETATM   22  C15 UNL     1       5.932  -2.253  -1.457  1.00  0.00     0.046 A 
HETATM   23  C16 UNL     1       6.807  -1.367  -0.893  1.00  0.00     0.138 A 
HETATM   24  F1  UNL     1       8.129  -1.620  -0.891  1.00  0.00    -0.204 F 
HETATM   25  C17 UNL     1       6.295  -0.209  -0.327  1.00  0.00     0.074 A 
HETATM   26 CL1  UNL     1       7.430   0.914   0.390  1.00  0.00    -0.081 Cl
HETATM   27  C18 UNL     1       4.936   0.000  -0.357  1.00  0.00     0.056 A 
ENDBRANCH  18  20
ENDBRANCH  15  18
BRANCH   1  28
HETATM   28  O1  UNL     1      -2.211   2.909   1.473  1.00  0.00    -0.358 OA
HETATM   29  C1  UNL     1      -3.108   3.946   1.709  1.00  0.00     0.209 C 
ENDBRANCH   1  28
TORSDOF 3
