REMARK  7 active torsions:
REMARK  status: ('A' for Active; 'I' for Inactive)
REMARK    1  A    between atoms: O1_1  and  C1_2 
REMARK    2  A    between atoms: C1_2  and  C2_3 
REMARK    3  A    between atoms: C3_4  and  P1_5 
REMARK    4  A    between atoms: P1_5  and  N1_6 
REMARK    5  A    between atoms: C11_17  and  N5_18 
REMARK    6  A    between atoms: N5_18  and  C12_19 
REMARK    7  A    between atoms: C12_19  and  C13_20 
ROOT
HETATM    1  N1  UNL     1       2.032  -0.492  -0.381  1.00  0.00    -0.242 N 
HETATM    2  N2  UNL     1       2.253  -0.578  -1.709  1.00  0.00    -0.148 NA
HETATM    3  C4  UNL     1       1.217   0.062  -2.320  1.00  0.00     0.172 A 
HETATM    4  C5  UNL     1       0.384   0.539  -1.330  1.00  0.00     0.085 A 
HETATM    5  C6  UNL     1       0.905   0.171  -0.081  1.00  0.00     0.061 A 
HETATM    6  C7  UNL     1      -0.137   0.663   0.850  1.00  0.00     0.038 C 
HETATM    7  C8  UNL     1      -1.236   0.013   0.379  1.00  0.00    -0.028 A 
HETATM    8  C9  UNL     1      -1.465  -0.914  -0.697  1.00  0.00     0.140 A 
HETATM    9  N3  UNL     1      -1.436  -0.551  -2.067  1.00  0.00    -0.374 N 
HETATM   10  C10 UNL     1      -0.901   0.130  -3.264  1.00  0.00     0.205 C 
HETATM   11  N4  UNL     1       0.411   0.477  -3.477  1.00  0.00    -0.223 NA
HETATM   12  C11 UNL     1      -2.634  -0.505   0.155  1.00  0.00     0.135 A 
HETATM   13  H10 UNL     1      -2.295  -1.087  -2.400  1.00  0.00     0.161 HD
ENDROOT
BRANCH   1  14
HETATM   14  P1  UNL     1       2.741  -0.962   1.214  1.00  0.00     0.024 P 
HETATM   15  H6  UNL     1       3.497  -2.201   1.123  1.00  0.00     0.086 HD
BRANCH  14  16
HETATM   16  C3  UNL     1       3.823   0.373   1.846  1.00  0.00     0.025 C 
HETATM   17  C2  UNL     1       4.586   1.233   1.146  1.00  0.00     0.001 C 
BRANCH  17  18
HETATM   18  C1  UNL     1       5.540   2.378   1.264  1.00  0.00     0.191 C 
BRANCH  18  19
HETATM   19  O1  UNL     1       5.036   3.495   0.600  1.00  0.00    -0.397 OA
HETATM   20  H1  UNL     1       5.598   4.276   0.837  1.00  0.00     0.209 HD
ENDBRANCH  18  19
ENDBRANCH  17  18
ENDBRANCH  14  16
ENDBRANCH   1  14
BRANCH  12  21
HETATM   21  N5  UNL     1      -3.165  -1.420   1.090  1.00  0.00    -0.410 N 
HETATM   22  H13 UNL     1      -2.476  -2.013   1.567  1.00  0.00     0.154 HD
BRANCH  21  23
HETATM   23  C12 UNL     1      -4.424  -2.008   0.931  1.00  0.00     0.129 C 
BRANCH  23  24
HETATM   24  C13 UNL     1      -5.613  -1.111   1.114  1.00  0.00     0.134 C 
HETATM   25 CL1  UNL     1      -5.652   0.172  -0.066  1.00  0.00    -0.129 Cl
ENDBRANCH  23  24
ENDBRANCH  21  23
ENDBRANCH  12  21
TORSDOF 7
