REMARK  4 active torsions:
REMARK  status: ('A' for Active; 'I' for Inactive)
REMARK    1  A    between atoms: C7_7  and  O1_8 
REMARK    2  A    between atoms: O1_8  and  C8_9 
REMARK    3  A    between atoms: C11_12  and  N1_13 
REMARK    4  A    between atoms: N1_13  and  C12_14 
ROOT
HETATM    1  C8  UNL     1      -0.586   0.667   0.226  1.00  0.00     0.091 A 
HETATM    2  C9  UNL     1       0.183  -0.454   0.461  1.00  0.00     0.041 A 
HETATM    3  C10 UNL     1       1.540  -0.273   0.449  1.00  0.00     0.032 A 
HETATM    4  C11 UNL     1       2.234   0.898   0.230  1.00  0.00     0.035 A 
HETATM    5  C16 UNL     1       1.382   1.981   0.002  1.00  0.00     0.056 A 
HETATM    6  C17 UNL     1       0.018   1.887  -0.003  1.00  0.00     0.069 A 
HETATM    7 CL1  UNL     1      -0.897   3.361  -0.314  1.00  0.00    -0.081 Cl
ENDROOT
BRANCH   1   8
HETATM    8  O1  UNL     1      -1.948   0.705   0.194  1.00  0.00    -0.340 OA
BRANCH   8   9
HETATM    9  C7  UNL     1      -2.834  -0.384   0.358  1.00  0.00     0.161 A 
HETATM   10  C2  UNL     1      -3.783  -0.358  -0.769  1.00  0.00    -0.054 A 
HETATM   11  C1  UNL     1      -3.180  -0.540  -2.114  1.00  0.00     0.046 C 
HETATM   12  C3  UNL     1      -5.109  -0.205  -0.859  1.00  0.00     0.005 A 
HETATM   13  C4  UNL     1      -5.852  -0.014   0.381  1.00  0.00    -0.004 A 
HETATM   14  C5  UNL     1      -5.036  -0.026   1.423  1.00  0.00    -0.024 A 
HETATM   15  C6  UNL     1      -3.589  -0.180   1.650  1.00  0.00     0.064 A 
ENDBRANCH   8   9
ENDBRANCH   1   8
BRANCH   4  16
HETATM   16  N1  UNL     1       3.623   1.063   0.199  1.00  0.00    -0.341 N 
HETATM   17  H12 UNL     1       3.895   2.038   0.534  1.00  0.00     0.167 HD
BRANCH  16  18
HETATM   18  C12 UNL     1       4.707   0.237  -0.168  1.00  0.00     0.130 A 
HETATM   19  C13 UNL     1       4.658  -1.007  -0.739  1.00  0.00     0.070 A 
HETATM   20  C14 UNL     1       5.738  -1.787  -1.066  1.00  0.00     0.122 A 
HETATM   21  N2  UNL     1       6.977  -1.279  -0.798  1.00  0.00    -0.254 NA
HETATM   22  C15 UNL     1       7.046  -0.055  -0.236  1.00  0.00     0.234 A 
HETATM   23  N3  UNL     1       5.965   0.652   0.057  1.00  0.00    -0.225 NA
ENDBRANCH  16  18
ENDBRANCH   4  16
TORSDOF 4
