REMARK  7 active torsions:
REMARK  status: ('A' for Active; 'I' for Inactive)
REMARK    1  A    between atoms: C2_2  and  C3_3 
REMARK    2  A    between atoms: C3_3  and  C4_5 
REMARK    3  A    between atoms: C5_6  and  C6_7 
REMARK    4  A    between atoms: C6_7  and  O1_8 
REMARK    5  A    between atoms: O1_8  and  C7_9 
REMARK    6  A    between atoms: C10_12  and  N1_13 
REMARK    7  A    between atoms: C11_14  and  P1_15 
ROOT
HETATM    1  C7  UNL     1       0.713  -1.289   0.306  1.00  0.00     0.090 A 
HETATM    2  C8  UNL     1       0.050  -0.088   0.209  1.00  0.00     0.041 A 
HETATM    3  C9  UNL     1      -1.258   0.034  -0.158  1.00  0.00     0.032 A 
HETATM    4  C10 UNL     1      -2.013  -1.075  -0.463  1.00  0.00     0.033 A 
HETATM    5  C15 UNL     1      -1.356  -2.294  -0.369  1.00  0.00     0.056 A 
HETATM    6  C16 UNL     1      -0.019  -2.435   0.005  1.00  0.00     0.069 A 
HETATM    7 CL1  UNL     1       0.762  -4.004   0.108  1.00  0.00    -0.081 Cl
ENDROOT
BRANCH   4   8
HETATM    8  N1  UNL     1      -3.362  -1.216  -0.876  1.00  0.00    -0.363 N 
HETATM    9  C11 UNL     1      -3.910  -1.243   0.345  1.00  0.00     0.122 C 
HETATM   10  H11 UNL     1      -3.842  -1.289  -1.801  1.00  0.00     0.165 HD
BRANCH   9  11
HETATM   11  P1  UNL     1      -4.522   0.287   0.284  1.00  0.00     0.074 P 
HETATM   12  C12 UNL     1      -6.098   0.232   0.825  1.00  0.00     0.054 A 
HETATM   13  C13 UNL     1      -7.204   1.063   0.295  1.00  0.00     0.120 A 
HETATM   14  N2  UNL     1      -6.910   1.875  -0.648  1.00  0.00    -0.254 NA
HETATM   15  C14 UNL     1      -5.616   2.043  -1.225  1.00  0.00     0.232 A 
HETATM   16  N3  UNL     1      -4.419   1.476  -1.001  1.00  0.00    -0.245 NA
ENDBRANCH   9  11
ENDBRANCH   4   8
BRANCH   1  17
HETATM   17  O1  UNL     1       2.022  -1.454   0.671  1.00  0.00    -0.346 OA
BRANCH  17  18
HETATM   18  C6  UNL     1       2.809  -0.329   0.985  1.00  0.00     0.203 C 
BRANCH  18  19
HETATM   19  C5  UNL     1       4.161  -0.844   1.337  1.00  0.00    -0.001 C 
HETATM   20  C4  UNL     1       5.322  -0.592   0.772  1.00  0.00     0.012 C 
BRANCH  20  21
HETATM   21  C3  UNL     1       5.524   0.306  -0.393  1.00  0.00     0.215 C 
HETATM   22  F1  UNL     1       6.552  -0.217  -1.179  1.00  0.00    -0.241 F 
BRANCH  21  23
HETATM   23  C2  UNL     1       5.910   1.671   0.053  1.00  0.00     0.004 C 
HETATM   24  C1  UNL     1       5.744   2.593  -0.886  1.00  0.00     0.010 C 
ENDBRANCH  21  23
ENDBRANCH  20  21
ENDBRANCH  18  19
ENDBRANCH  17  18
ENDBRANCH   1  17
TORSDOF 7
