REMARK  5 active torsions:
REMARK  status: ('A' for Active; 'I' for Inactive)
REMARK    1  A    between atoms: C6_6  and  C7_7 
REMARK    2  A    between atoms: C7_7  and  O1_8 
REMARK    3  A    between atoms: O1_8  and  C8_9 
REMARK    4  A    between atoms: C11_12  and  N1_13 
REMARK    5  A    between atoms: N1_13  and  C12_14 
ROOT
HETATM    1  C8  UNL     1       0.061  -0.342   0.060  1.00  0.00     0.091 A 
HETATM    2  C9  UNL     1       0.957   0.051  -0.912  1.00  0.00     0.041 A 
HETATM    3  C10 UNL     1       2.281  -0.277  -0.722  1.00  0.00     0.032 A 
HETATM    4  C11 UNL     1       2.815  -0.962   0.345  1.00  0.00     0.035 A 
HETATM    5  C16 UNL     1       1.854  -1.328   1.286  1.00  0.00     0.056 A 
HETATM    6  C17 UNL     1       0.521  -1.034   1.159  1.00  0.00     0.069 A 
HETATM    7 CL1  UNL     1      -0.539  -1.572   2.441  1.00  0.00    -0.081 Cl
ENDROOT
BRANCH   1   8
HETATM    8  O1  UNL     1      -1.303  -0.109   0.054  1.00  0.00    -0.345 OA
BRANCH   8   9
HETATM    9  C7  UNL     1      -1.946   0.587  -0.999  1.00  0.00     0.214 C 
BRANCH   9  10
HETATM   10  C6  UNL     1      -3.398   0.626  -0.592  1.00  0.00    -0.034 A 
HETATM   11  C5  UNL     1      -3.718   1.754   0.172  1.00  0.00     0.009 A 
HETATM   12  C4  UNL     1      -5.007   1.938   0.629  1.00  0.00     0.001 A 
HETATM   13  C3  UNL     1      -5.945   0.980   0.305  1.00  0.00     0.007 A 
HETATM   14  C2  UNL     1      -5.607  -0.126  -0.451  1.00  0.00    -0.061 A 
HETATM   15  C1  UNL     1      -6.655  -1.140  -0.776  1.00  0.00     0.048 C 
HETATM   16  C18 UNL     1      -4.332  -0.329  -0.915  1.00  0.00     0.016 A 
ENDBRANCH   9  10
ENDBRANCH   8   9
ENDBRANCH   1   8
BRANCH   4  17
HETATM   17  N1  UNL     1       4.183  -1.246   0.494  1.00  0.00    -0.341 N 
HETATM   18  H11 UNL     1       4.275  -2.195   0.950  1.00  0.00     0.167 HD
BRANCH  17  19
HETATM   19  C12 UNL     1       5.359  -0.549   0.168  1.00  0.00     0.130 A 
HETATM   20  C13 UNL     1       5.413   0.735  -0.308  1.00  0.00     0.070 A 
HETATM   21  C14 UNL     1       6.586   1.416  -0.646  1.00  0.00     0.122 A 
HETATM   22  N2  UNL     1       7.727   0.691  -0.464  1.00  0.00    -0.254 NA
HETATM   23  C15 UNL     1       7.681  -0.567   0.004  1.00  0.00     0.234 A 
HETATM   24  N3  UNL     1       6.529  -1.192   0.319  1.00  0.00    -0.225 NA
ENDBRANCH  17  19
ENDBRANCH   4  17
TORSDOF 5
