REMARK  4 active torsions:
REMARK  status: ('A' for Active; 'I' for Inactive)
REMARK    1  A    between atoms: C5_6  and  C6_7 
REMARK    2  A    between atoms: C6_7  and  O1_8 
REMARK    3  A    between atoms: O1_8  and  C7_9 
REMARK    4  A    between atoms: C10_12  and  N1_13 
ROOT
HETATM    1  C7  UNL     1       0.482   0.044  -0.038  1.00  0.00     0.091 A 
HETATM    2  C8  UNL     1      -0.264  -0.132  -1.184  1.00  0.00     0.041 A 
HETATM    3  C9  UNL     1      -1.633  -0.108  -1.152  1.00  0.00     0.034 A 
HETATM    4  C10 UNL     1      -2.346   0.092   0.015  1.00  0.00     0.059 A 
HETATM    5  C15 UNL     1      -1.570   0.265   1.143  1.00  0.00     0.058 A 
HETATM    6  C16 UNL     1      -0.191   0.247   1.147  1.00  0.00     0.069 A 
HETATM    7 CL1  UNL     1       0.726   0.476   2.635  1.00  0.00    -0.081 Cl
ENDROOT
BRANCH   1   8
HETATM    8  O1  UNL     1       1.870   0.024  -0.043  1.00  0.00    -0.345 OA
BRANCH   8   9
HETATM    9  C6  UNL     1       2.652  -0.176  -1.203  1.00  0.00     0.214 C 
BRANCH   9  10
HETATM   10  C5  UNL     1       4.080  -0.118  -0.728  1.00  0.00    -0.031 A 
HETATM   11  C4  UNL     1       4.641  -1.325  -0.335  1.00  0.00     0.009 A 
HETATM   12  C3  UNL     1       5.945  -1.409   0.123  1.00  0.00     0.004 A 
HETATM   13  C2  UNL     1       6.686  -0.229   0.177  1.00  0.00     0.042 A 
HETATM   14  C1  UNL     1       6.115   0.954  -0.216  1.00  0.00     0.117 A 
HETATM   15  F1  UNL     1       6.851   2.106  -0.158  1.00  0.00    -0.206 F 
HETATM   16  C17 UNL     1       4.804   1.047  -0.677  1.00  0.00     0.051 A 
ENDBRANCH   9  10
ENDBRANCH   8   9
ENDBRANCH   1   8
BRANCH   4  17
HETATM   17  N1  UNL     1      -3.768   0.116   0.038  1.00  0.00    -0.246 N 
HETATM   18  C11 UNL     1      -4.563   0.316   1.198  1.00  0.00     0.115 A 
HETATM   19  C12 UNL     1      -5.872   0.336   1.209  1.00  0.00    -0.002 A 
HETATM   20  C13 UNL     1      -6.607   0.142  -0.044  1.00  0.00     0.077 A 
HETATM   21  C14 UNL     1      -5.731  -0.061  -1.219  1.00  0.00     0.116 A 
HETATM   22  N2  UNL     1      -4.441  -0.072  -1.172  1.00  0.00    -0.184 NA
ENDBRANCH   4  17
TORSDOF 4
