REMARK  4 active torsions:
REMARK  status: ('A' for Active; 'I' for Inactive)
REMARK    1  A    between atoms: C4_4  and  C5_5 
REMARK    2  A    between atoms: C5_5  and  C6_6 
REMARK    3  A    between atoms: C12_13  and  N1_14 
REMARK    4  A    between atoms: N1_14  and  C13_15 
ROOT
HETATM    1  C1  UNL     1      -0.244  -1.779  -3.450  1.00  0.00     0.048 C 
HETATM    2  C2  UNL     1       0.001  -1.252  -2.097  1.00  0.00    -0.063 A 
HETATM    3  C3  UNL     1      -0.846  -1.297  -1.054  1.00  0.00    -0.009 A 
HETATM    4  C4  UNL     1      -0.345  -0.694   0.187  1.00  0.00     0.063 A 
HETATM    5  C12 UNL     1       1.022  -0.245  -0.280  1.00  0.00     0.019 A 
HETATM    6  C17 UNL     1       1.164  -0.583  -1.567  1.00  0.00     0.032 A 
ENDROOT
BRANCH   4   7
HETATM    7  C5  UNL     1      -1.020   0.543   0.643  1.00  0.00     0.053 C 
BRANCH   7   8
HETATM    8  C6  UNL     1      -2.449   0.474   0.927  1.00  0.00    -0.054 A 
HETATM    9  C7  UNL     1      -3.079   0.170   2.136  1.00  0.00     0.007 A 
HETATM   10  C8  UNL     1      -4.435   0.159   2.203  1.00  0.00     0.003 A 
HETATM   11  C9  UNL     1      -5.225   0.443   1.098  1.00  0.00     0.042 A 
HETATM   12  C10 UNL     1      -4.661   0.750  -0.123  1.00  0.00     0.116 A 
HETATM   13  F1  UNL     1      -5.413   1.030  -1.213  1.00  0.00    -0.206 F 
HETATM   14  C11 UNL     1      -3.279   0.753  -0.159  1.00  0.00     0.049 A 
ENDBRANCH   7   8
ENDBRANCH   4   7
BRANCH   5  15
HETATM   15  N1  UNL     1       1.946   0.426   0.565  1.00  0.00    -0.344 N 
HETATM   16  H12 UNL     1       1.666   1.233   1.190  1.00  0.00     0.167 HD
BRANCH  15  17
HETATM   17  C13 UNL     1       3.324   0.355   0.894  1.00  0.00     0.130 A 
HETATM   18  C14 UNL     1       4.048   1.127  -0.015  1.00  0.00     0.070 A 
HETATM   19  C15 UNL     1       5.439   1.243   0.069  1.00  0.00     0.122 A 
HETATM   20  N2  UNL     1       6.072   0.575   1.071  1.00  0.00    -0.254 NA
HETATM   21  C16 UNL     1       5.355  -0.156   1.928  1.00  0.00     0.234 A 
HETATM   22  N3  UNL     1       4.018  -0.281   1.864  1.00  0.00    -0.225 NA
ENDBRANCH  15  17
ENDBRANCH   5  15
TORSDOF 4
