REMARK  8 active torsions:
REMARK  status: ('A' for Active; 'I' for Inactive)
REMARK    1  A    between atoms: C2_2  and  C3_3 
REMARK    2  A    between atoms: C3_3  and  C5_5 
REMARK    3  A    between atoms: C5_5  and  C6_6 
REMARK    4  A    between atoms: C6_6  and  C7_7 
REMARK    5  A    between atoms: C8_8  and  C9_9 
REMARK    6  A    between atoms: C13_16  and  C14_17 
REMARK    7  A    between atoms: C14_17  and  O3_19 
REMARK    8  A    between atoms: N3_22  and  N4_23 
ROOT
HETATM    1  C9  UNL     1       0.766   0.019   0.002  1.00  0.00     0.091 A 
HETATM    2  N1  UNL     1       0.055   1.132  -0.049  1.00  0.00    -0.240 NA
HETATM    3  C10 UNL     1       0.565   2.357  -0.144  1.00  0.00     0.236 A 
HETATM    4  N2  UNL     1       1.899   2.473  -0.191  1.00  0.00    -0.215 NA
HETATM    5  C11 UNL     1       2.690   1.398  -0.145  1.00  0.00     0.203 A 
HETATM    6  O1  UNL     1       3.965   1.578  -0.194  1.00  0.00    -0.286 OA
HETATM    7  C12 UNL     1       4.882   0.645  -0.161  1.00  0.00     0.123 A 
HETATM    8  C13 UNL     1       6.146   0.101  -0.163  1.00  0.00     0.076 A 
HETATM    9  C15 UNL     1       5.631  -1.171  -0.065  1.00  0.00     0.056 A 
HETATM   10  C16 UNL     1       4.312  -0.710  -0.056  1.00  0.00     0.092 A 
HETATM   11  N3  UNL     1       2.982  -0.871  -0.006  1.00  0.00    -0.254 N 
HETATM   12  C17 UNL     1       2.124   0.151  -0.047  1.00  0.00     0.138 A 
ENDROOT
BRANCH   1  13
HETATM   13  C8  UNL     1       0.250  -1.308   0.105  1.00  0.00     0.034 C 
HETATM   14  C7  UNL     1      -0.991  -1.724   0.174  1.00  0.00     0.002 C 
BRANCH  14  15
HETATM   15  C6  UNL     1      -2.188  -0.932   0.164  1.00  0.00    -0.004 C 
BRANCH  15  16
HETATM   16  C5  UNL     1      -3.302  -0.265   0.160  1.00  0.00    -0.023 C 
BRANCH  16  17
HETATM   17  C3  UNL     1      -4.291   0.824   0.125  1.00  0.00     0.004 C 
HETATM   18  C4  UNL     1      -5.128   0.819   1.375  1.00  0.00     0.014 C 
BRANCH  17  19
HETATM   19  C2  UNL     1      -5.120   0.681  -1.132  1.00  0.00     0.003 C 
HETATM   20  C1  UNL     1      -5.919  -0.579  -1.195  1.00  0.00     0.006 C 
ENDBRANCH  17  19
ENDBRANCH  16  17
ENDBRANCH  15  16
ENDBRANCH  14  15
ENDBRANCH   1  13
BRANCH  11  21
HETATM   21  N4  UNL     1       2.540  -2.183   0.093  1.00  0.00    -0.338 N 
HETATM   22  H17 UNL     1       2.517  -2.266   1.155  1.00  0.00     0.177 HD
HETATM   23  H18 UNL     1       2.462  -2.407  -0.936  1.00  0.00     0.177 HD
ENDBRANCH  11  21
BRANCH   8  24
HETATM   24  C14 UNL     1       7.456   0.741  -0.243  1.00  0.00     0.179 C 
HETATM   25  O2  UNL     1       7.489   2.011  -0.327  1.00  0.00    -0.646 OA
BRANCH  24  26
HETATM   26  O3  UNL     1       8.637   0.010  -0.231  1.00  0.00    -0.773 OA
HETATM   27  H15 UNL     1       9.547   0.449  -0.430  1.00  0.00     0.167 HD
ENDBRANCH  24  26
ENDBRANCH   8  24
TORSDOF 8
