REMARK  9 active torsions:
REMARK  status: ('A' for Active; 'I' for Inactive)
REMARK    1  A    between atoms: C4_4  and  N1_5 
REMARK    2  A    between atoms: N1_5  and  C5_6 
REMARK    3  A    between atoms: C5_6  and  C6_7 
REMARK    4  A    between atoms: C5_6  and  C8_10 
REMARK    5  A    between atoms: C6_7  and  C7_8 
REMARK    6  A    between atoms: C8_10  and  C9_11 
REMARK    7  A    between atoms: C9_11  and  O1_12 
REMARK    8  A    between atoms: O1_12  and  C10_13 
REMARK    9  A    between atoms: C10_13  and  C11_14 
ROOT
HETATM    1  C5  UNL     1      -1.413  -0.465  -0.117  1.00  0.00     0.132 C 
ENDROOT
BRANCH   1   2
HETATM    2  N1  UNL     1      -1.886   0.764  -0.649  1.00  0.00    -0.364 N 
HETATM    3  H5  UNL     1      -1.583   1.729  -0.929  1.00  0.00     0.162 HD
BRANCH   2   4
HETATM    4  C4  UNL     1      -3.283   0.511  -0.847  1.00  0.00     0.127 A 
HETATM    5  C3  UNL     1      -4.310   0.804   0.024  1.00  0.00     0.077 A 
HETATM    6  C2  UNL     1      -5.624   0.502  -0.267  1.00  0.00     0.035 A 
HETATM    7  C1  UNL     1      -6.604   0.885   0.783  1.00  0.00     0.070 C 
HETATM    8  N3  UNL     1      -5.917  -0.101  -1.447  1.00  0.00    -0.247 NA
HETATM    9  C17 UNL     1      -4.897  -0.390  -2.309  1.00  0.00     0.235 A 
HETATM   10  N2  UNL     1      -3.593  -0.096  -2.030  1.00  0.00    -0.225 NA
ENDBRANCH   2   4
ENDBRANCH   1   2
BRANCH   1  11
HETATM   11  C6  UNL     1      -2.069  -0.899   1.145  1.00  0.00     0.014 C 
BRANCH  11  12
HETATM   12  C7  UNL     1      -2.644  -0.868   2.307  1.00  0.00     0.083 C 
HETATM   13 CL1  UNL     1      -3.419  -1.305   3.809  1.00  0.00    -0.097 Cl
ENDBRANCH  11  12
ENDBRANCH   1  11
BRANCH   1  14
HETATM   14  C8  UNL     1       0.041  -0.347   0.171  1.00  0.00     0.026 C 
BRANCH  14  15
HETATM   15  C9  UNL     1       1.274  -0.281   0.627  1.00  0.00     0.133 C 
BRANCH  15  16
HETATM   16  O1  UNL     1       2.637  -0.102   0.489  1.00  0.00    -0.359 OA
BRANCH  16  17
HETATM   17  C10 UNL     1       3.208   0.639  -0.576  1.00  0.00     0.213 C 
BRANCH  17  18
HETATM   18  C11 UNL     1       4.667   0.510  -0.440  1.00  0.00    -0.031 A 
HETATM   19  C12 UNL     1       5.385   1.421   0.316  1.00  0.00     0.009 A 
HETATM   20  C13 UNL     1       6.753   1.343   0.477  1.00  0.00     0.004 A 
HETATM   21  C14 UNL     1       7.433   0.313  -0.141  1.00  0.00     0.042 A 
HETATM   22  C15 UNL     1       6.745  -0.611  -0.901  1.00  0.00     0.117 A 
HETATM   23  F1  UNL     1       7.418  -1.629  -1.510  1.00  0.00    -0.206 F 
HETATM   24  C16 UNL     1       5.371  -0.508  -1.046  1.00  0.00     0.051 A 
ENDBRANCH  17  18
ENDBRANCH  16  17
ENDBRANCH  15  16
ENDBRANCH  14  15
ENDBRANCH   1  14
TORSDOF 9
