REMARK  5 active torsions:
REMARK  status: ('A' for Active; 'I' for Inactive)
REMARK    1  A    between atoms: C4_4  and  N1_5 
REMARK    2  A    between atoms: N1_5  and  C5_6 
REMARK    3  A    between atoms: C7_8  and  O1_9 
REMARK    4  A    between atoms: C8_10  and  O2_11 
REMARK    5  A    between atoms: O2_11  and  C9_12 
ROOT
HETATM    1  C5  UNL     1       0.702  -0.272  -1.183  1.00  0.00     0.073 A 
HETATM    2  C6  UNL     1       0.933   0.423  -2.311  1.00  0.00     0.072 A 
HETATM    3  C7  UNL     1      -0.186   1.327  -1.962  1.00  0.00     0.104 A 
HETATM    4  C8  UNL     1      -0.399   0.630  -0.855  1.00  0.00     0.136 A 
ENDROOT
BRANCH   1   5
HETATM    5  N1  UNL     1       1.130  -1.366  -0.423  1.00  0.00    -0.339 N 
HETATM    6  H5  UNL     1       0.579  -2.239  -0.241  1.00  0.00     0.167 HD
BRANCH   5   7
HETATM    7  C4  UNL     1       2.421  -1.323   0.170  1.00  0.00     0.131 A 
HETATM    8  C3  UNL     1       3.220  -0.226  -0.008  1.00  0.00     0.077 A 
HETATM    9  C2  UNL     1       4.487  -0.101   0.531  1.00  0.00     0.035 A 
HETATM   10  C1  UNL     1       5.370   1.071   0.356  1.00  0.00     0.070 C 
HETATM   11  N3  UNL     1       4.917  -1.151   1.270  1.00  0.00    -0.247 NA
HETATM   12  C16 UNL     1       4.163  -2.258   1.474  1.00  0.00     0.235 A 
HETATM   13  N2  UNL     1       2.936  -2.320   0.922  1.00  0.00    -0.224 NA
ENDBRANCH   5   7
ENDBRANCH   1   5
BRANCH   4  14
HETATM   14  O2  UNL     1      -1.422   0.997   0.012  1.00  0.00    -0.305 OA
BRANCH  14  15
HETATM   15  C9  UNL     1      -2.568   0.264   0.137  1.00  0.00     0.085 A 
HETATM   16  C10 UNL     1      -2.827  -0.900  -0.575  1.00  0.00     0.080 A 
HETATM   17  C11 UNL     1      -3.985  -1.654  -0.458  1.00  0.00     0.119 A 
HETATM   18  F1  UNL     1      -4.069  -2.761  -1.229  1.00  0.00    -0.206 F 
HETATM   19  C12 UNL     1      -4.936  -1.201   0.431  1.00  0.00     0.043 A 
HETATM   20  C13 UNL     1      -4.741  -0.051   1.169  1.00  0.00     0.012 A 
HETATM   21  C14 UNL     1      -3.562   0.684   1.027  1.00  0.00    -0.028 A 
HETATM   22  C15 UNL     1      -3.322   1.914   1.798  1.00  0.00     0.051 C 
ENDBRANCH  14  15
ENDBRANCH   4  14
BRANCH   3  23
HETATM   23  O1  UNL     1      -0.526   2.370  -2.774  1.00  0.00    -0.358 OA
HETATM   24  H7  UNL     1      -0.847   2.347  -3.709  1.00  0.00     0.217 HD
ENDBRANCH   3  23
TORSDOF 5
