REMARK  5 active torsions:
REMARK  status: ('A' for Active; 'I' for Inactive)
REMARK    1  A    between atoms: N1_2  and  C2_3 
REMARK    2  A    between atoms: N2_4  and  C3_5 
REMARK    3  A    between atoms: C5_7  and  C6_8 
REMARK    4  A    between atoms: C6_8  and  N3_9 
REMARK    5  A    between atoms: N3_9  and  C7_10 
ROOT
HETATM    1  C7  UNL     1      -1.228   0.299   0.262  1.00  0.00     0.039 C 
HETATM    2  C8  UNL     1      -1.099  -0.891   0.841  1.00  0.00     0.032 C 
HETATM    3  C9  UNL     1      -1.931  -2.064   1.136  1.00  0.00     0.026 C 
HETATM    4  C10 UNL     1      -3.243  -2.312   0.990  1.00  0.00     0.135 C 
HETATM    5  O1  UNL     1      -4.286  -1.536   0.503  1.00  0.00    -0.359 OA
HETATM    6  C11 UNL     1      -4.624  -0.185   0.611  1.00  0.00     0.214 C 
HETATM    7  C12 UNL     1      -3.815   0.711  -0.226  1.00  0.00    -0.022 A 
HETATM    8  C13 UNL     1      -4.696   1.465  -0.984  1.00  0.00     0.010 A 
HETATM    9  C14 UNL     1      -4.207   2.402  -1.870  1.00  0.00     0.001 A 
HETATM   10  C15 UNL     1      -2.844   2.572  -1.987  1.00  0.00     0.001 A 
HETATM   11  C16 UNL     1      -1.946   1.827  -1.237  1.00  0.00     0.014 A 
HETATM   12  C17 UNL     1      -2.434   0.893  -0.353  1.00  0.00    -0.001 A 
ENDROOT
BRANCH   1  13
HETATM   13  N3  UNL     1      -0.113   1.172   0.184  1.00  0.00    -0.386 N 
HETATM   14  H12 UNL     1      -0.338   2.092   0.642  1.00  0.00     0.160 HD
BRANCH  13  15
HETATM   15  C6  UNL     1       1.190   0.945  -0.410  1.00  0.00     0.149 C 
BRANCH  15  16
HETATM   16  C5  UNL     1       2.011  -0.044   0.301  1.00  0.00     0.019 C 
HETATM   17  C3  UNL     1       2.704  -1.164   0.435  1.00  0.00     0.029 C 
HETATM   18  C4  UNL     1       2.582  -1.810  -0.920  1.00  0.00     0.070 C 
BRANCH  17  19
HETATM   19  N2  UNL     1       3.434  -1.812   1.450  1.00  0.00    -0.249 NA
HETATM   20  C2  UNL     1       4.497  -1.383   2.004  1.00  0.00     0.202 C 
BRANCH  20  21
HETATM   21  N1  UNL     1       5.211  -0.183   1.762  1.00  0.00    -0.389 N 
HETATM   22  C1  UNL     1       5.234   0.307   0.402  1.00  0.00     0.147 C 
HETATM   23  H4  UNL     1       5.670   0.262   2.585  1.00  0.00     0.159 HD
ENDBRANCH  20  21
ENDBRANCH  17  19
ENDBRANCH  15  16
ENDBRANCH  13  15
ENDBRANCH   1  13
TORSDOF 5
