REMARK  4 active torsions:
REMARK  status: ('A' for Active; 'I' for Inactive)
REMARK    1  A    between atoms: C5_5  and  O1_6 
REMARK    2  A    between atoms: O1_6  and  C6_7 
REMARK    3  A    between atoms: C9_10  and  N1_11 
REMARK    4  A    between atoms: N1_11  and  C10_12 
ROOT
HETATM    1  C6  UNL     1       0.799  -0.251  -0.487  1.00  0.00     0.097 A 
HETATM    2  C7  UNL     1       0.252  -0.202   0.748  1.00  0.00     0.041 A 
HETATM    3  C8  UNL     1      -0.991  -0.636   1.137  1.00  0.00     0.032 A 
HETATM    4  C9  UNL     1      -1.772  -1.201   0.097  1.00  0.00     0.035 A 
HETATM    5  C15 UNL     1      -1.254  -1.268  -1.153  1.00  0.00     0.056 A 
HETATM    6  C16 UNL     1       0.019  -0.821  -1.539  1.00  0.00     0.070 A 
HETATM    7 CL1  UNL     1       0.381  -1.056  -3.219  1.00  0.00    -0.081 Cl
ENDROOT
BRANCH   4   8
HETATM    8  N1  UNL     1      -3.029  -1.572   0.630  1.00  0.00    -0.341 N 
HETATM    9  H9  UNL     1      -3.257  -1.792   1.615  1.00  0.00     0.167 HD
BRANCH   8  10
HETATM   10  C10 UNL     1      -4.303  -1.757   0.051  1.00  0.00     0.131 A 
HETATM   11  C11 UNL     1      -4.883  -0.489  -0.137  1.00  0.00     0.077 A 
HETATM   12  C12 UNL     1      -6.172  -0.328  -0.680  1.00  0.00     0.035 A 
HETATM   13  C13 UNL     1      -6.777   1.017  -0.878  1.00  0.00     0.070 C 
HETATM   14  N2  UNL     1      -6.871  -1.441  -1.028  1.00  0.00    -0.247 NA
HETATM   15  C14 UNL     1      -6.286  -2.651  -0.834  1.00  0.00     0.235 A 
HETATM   16  N3  UNL     1      -5.042  -2.840  -0.313  1.00  0.00    -0.224 NA
ENDBRANCH   8  10
ENDBRANCH   4   8
BRANCH   1  17
HETATM   17  O1  UNL     1       1.986   0.114  -1.072  1.00  0.00    -0.313 OA
BRANCH  17  18
HETATM   18  C5  UNL     1       3.060   0.711  -0.434  1.00  0.00     0.053 C 
HETATM   19  C4  UNL     1       3.594   0.211   0.878  1.00  0.00     0.092 C 
HETATM   20  C3  UNL     1       5.063   0.053   0.673  1.00  0.00    -0.018 C 
HETATM   21  C2  UNL     1       5.703   1.103   0.175  1.00  0.00    -0.084 C 
HETATM   22  C1  UNL     1       7.163   1.094  -0.083  1.00  0.00     0.043 C 
HETATM   23  C18 UNL     1       4.842   2.286  -0.103  1.00  0.00     0.063 C 
HETATM   24  C17 UNL     1       3.694   1.761  -0.929  1.00  0.00     0.010 C 
ENDBRANCH  17  18
ENDBRANCH   1  17
TORSDOF 4
