REMARK  3 active torsions:
REMARK  status: ('A' for Active; 'I' for Inactive)
REMARK    1  A    between atoms: C8_12  and  O1_13 
REMARK    2  A    between atoms: O1_13  and  C9_14 
REMARK    3  A    between atoms: C9_14  and  C10_15 
ROOT
HETATM    1  C1  UNL     1      -3.242   2.233  -0.204  1.00  0.00     0.040 C 
HETATM    2  C2  UNL     1      -2.000   1.617   0.385  1.00  0.00     0.141 C 
HETATM    3  N1  UNL     1      -2.495   0.563   1.327  1.00  0.00    -0.273 NA
HETATM    4  C3  UNL     1      -2.637  -0.675   1.022  1.00  0.00     0.228 C 
HETATM    5  N2  UNL     1      -2.713  -2.007   0.448  1.00  0.00    -0.238 NA
HETATM    6  C4  UNL     1      -2.704  -2.273  -0.804  1.00  0.00     0.208 C 
HETATM    7  N3  UNL     1      -2.660  -2.086  -2.223  1.00  0.00    -0.351 N 
HETATM    8  C5  UNL     1      -1.681  -1.061  -1.917  1.00  0.00     0.035 A 
HETATM    9  C6  UNL     1      -0.354  -1.042  -2.274  1.00  0.00     0.056 A 
HETATM   10  C7  UNL     1       0.561  -0.109  -1.833  1.00  0.00     0.070 A 
HETATM   11 CL1  UNL     1       2.233  -0.101  -2.314  1.00  0.00    -0.081 Cl
HETATM   12  C8  UNL     1       0.179   0.896  -0.974  1.00  0.00     0.099 A 
HETATM   13  C16 UNL     1      -1.137   0.917  -0.592  1.00  0.00     0.004 A 
HETATM   14  C17 UNL     1      -2.014  -0.018  -1.056  1.00  0.00     0.041 A 
HETATM   15  H7  UNL     1      -2.590  -1.912  -3.207  1.00  0.00     0.166 HD
ENDROOT
BRANCH  12  16
HETATM   16  O1  UNL     1       0.859   1.922  -0.392  1.00  0.00    -0.344 OA
BRANCH  16  17
HETATM   17  C9  UNL     1       1.461   1.745   0.877  1.00  0.00     0.214 C 
BRANCH  17  18
HETATM   18  C10 UNL     1       2.467   0.656   0.865  1.00  0.00    -0.031 A 
HETATM   19  C11 UNL     1       3.807   0.935   0.585  1.00  0.00     0.009 A 
HETATM   20  C12 UNL     1       4.753  -0.091   0.572  1.00  0.00     0.004 A 
HETATM   21  C13 UNL     1       4.377  -1.409   0.836  1.00  0.00     0.042 A 
HETATM   22  C14 UNL     1       3.034  -1.689   1.116  1.00  0.00     0.117 A 
HETATM   23  F1  UNL     1       2.604  -2.942   1.380  1.00  0.00    -0.206 F 
HETATM   24  C15 UNL     1       2.113  -0.668   1.126  1.00  0.00     0.051 A 
ENDBRANCH  17  18
ENDBRANCH  16  17
ENDBRANCH  12  16
TORSDOF 3
