REMARK  7 active torsions:
REMARK  status: ('A' for Active; 'I' for Inactive)
REMARK    1  A    between atoms: C2_2  and  C3_4 
REMARK    2  A    between atoms: C3_4  and  O1_16 
REMARK    3  A    between atoms: C4_5  and  C5_6 
REMARK    4  A    between atoms: C6_7  and  N1_8 
REMARK    5  A    between atoms: N1_8  and  C7_9 
REMARK    6  A    between atoms: O1_16  and  C12_17 
REMARK    7  A    between atoms: C12_17  and  C13_18 
ROOT
HETATM    1  C3  UNL     1      -0.902   1.130   1.023  1.00  0.00     0.086 C 
HETATM    2  C4  UNL     1       0.206   0.425   1.175  1.00  0.00     0.039 C 
ENDROOT
BRANCH   1   3
HETATM    3  C2  UNL     1      -1.201   2.439   1.582  1.00  0.00     0.042 A 
HETATM    4  C1  UNL     1      -2.256   3.235   1.504  1.00  0.00     0.155 A 
HETATM    5 CL1  UNL     1      -0.673   3.791   2.558  1.00  0.00    -0.179 Cl
ENDBRANCH   1   3
BRANCH   1   6
HETATM    6  O1  UNL     1      -1.986   0.714   0.283  1.00  0.00    -0.345 OA
BRANCH   6   7
HETATM    7  C12 UNL     1      -2.420  -0.633   0.234  1.00  0.00     0.214 C 
BRANCH   7   8
HETATM    8  C13 UNL     1      -3.628  -0.796  -0.650  1.00  0.00    -0.031 A 
HETATM    9  C14 UNL     1      -3.567  -1.066  -2.002  1.00  0.00     0.009 A 
HETATM   10  C15 UNL     1      -4.769  -1.188  -2.683  1.00  0.00     0.004 A 
HETATM   11  C16 UNL     1      -6.006  -1.056  -2.087  1.00  0.00     0.042 A 
HETATM   12  C17 UNL     1      -6.067  -0.782  -0.719  1.00  0.00     0.117 A 
HETATM   13  F1  UNL     1      -7.260  -0.644  -0.090  1.00  0.00    -0.206 F 
HETATM   14  C18 UNL     1      -4.875  -0.660  -0.038  1.00  0.00     0.051 A 
ENDBRANCH   7   8
ENDBRANCH   6   7
ENDBRANCH   1   6
BRANCH   2  15
HETATM   15  C5  UNL     1       1.293   0.958   1.980  1.00  0.00     0.020 C 
HETATM   16  C6  UNL     1       2.390   0.228   2.112  1.00  0.00     0.090 C 
BRANCH  16  17
HETATM   17  N1  UNL     1       2.442  -1.037   1.459  1.00  0.00    -0.351 N 
HETATM   18  H6  UNL     1       1.843  -1.852   1.634  1.00  0.00     0.166 HD
BRANCH  17  19
HETATM   19  C7  UNL     1       3.462  -1.145   0.445  1.00  0.00     0.130 A 
HETATM   20  C8  UNL     1       4.293  -0.050   0.186  1.00  0.00     0.077 A 
HETATM   21  C9  UNL     1       5.260  -0.228  -0.810  1.00  0.00     0.035 A 
HETATM   22  C10 UNL     1       6.193   0.882  -1.158  1.00  0.00     0.070 C 
HETATM   23  N2  UNL     1       5.404  -1.377  -1.497  1.00  0.00    -0.247 NA
HETATM   24  C11 UNL     1       4.575  -2.410  -1.211  1.00  0.00     0.235 A 
HETATM   25  N3  UNL     1       3.628  -2.282  -0.257  1.00  0.00    -0.224 NA
ENDBRANCH  17  19
ENDBRANCH  16  17
ENDBRANCH   2  15
TORSDOF 7
