REMARK  4 active torsions:
REMARK  status: ('A' for Active; 'I' for Inactive)
REMARK    1  A    between atoms: C4_4  and  N1_5 
REMARK    2  A    between atoms: N1_5  and  C5_6 
REMARK    3  A    between atoms: C7_8  and  O1_9 
REMARK    4  A    between atoms: O1_9  and  C8_10 
ROOT
HETATM    1  C5  UNL     1       0.838  -0.904   0.721  1.00  0.00     0.034 A 
HETATM    2  C6  UNL     1      -0.403  -0.721   1.147  1.00  0.00     0.040 A 
HETATM    3  C7  UNL     1      -1.427  -0.837   0.077  1.00  0.00     0.198 A 
HETATM    4  C14 UNL     1      -0.554  -1.129  -1.095  1.00  0.00     0.047 A 
HETATM    5 CL1  UNL     1      -1.401  -1.340  -2.594  1.00  0.00    -0.086 Cl
HETATM    6  C15 UNL     1       0.718  -1.166  -0.728  1.00  0.00     0.051 A 
ENDROOT
BRANCH   1   7
HETATM    7  N1  UNL     1       2.085  -0.874   1.432  1.00  0.00    -0.341 N 
HETATM    8  H5  UNL     1       2.128  -1.038   2.461  1.00  0.00     0.167 HD
BRANCH   7   9
HETATM    9  C4  UNL     1       3.282  -0.615   0.712  1.00  0.00     0.131 A 
HETATM   10  C3  UNL     1       3.883   0.596   0.449  1.00  0.00     0.077 A 
HETATM   11  C2  UNL     1       5.057   0.620  -0.279  1.00  0.00     0.035 A 
HETATM   12  C1  UNL     1       5.666   1.951  -0.536  1.00  0.00     0.070 C 
HETATM   13  N3  UNL     1       5.584  -0.521  -0.711  1.00  0.00    -0.247 NA
HETATM   14  C16 UNL     1       4.998  -1.720  -0.457  1.00  0.00     0.235 A 
HETATM   15  N2  UNL     1       3.846  -1.749   0.257  1.00  0.00    -0.224 NA
ENDBRANCH   7   9
ENDBRANCH   1   7
BRANCH   3  16
HETATM   16  O1  UNL     1      -2.208   0.304  -0.097  1.00  0.00    -0.336 OA
BRANCH  16  17
HETATM   17  C8  UNL     1      -3.587   0.373  -0.050  1.00  0.00     0.073 A 
HETATM   18  C9  UNL     1      -4.050   1.653  -0.263  1.00  0.00     0.037 A 
HETATM   19  C10 UNL     1      -5.426   1.909  -0.250  1.00  0.00     0.006 A 
HETATM   20  C11 UNL     1      -6.312   0.873  -0.023  1.00  0.00     0.042 A 
HETATM   21  C12 UNL     1      -5.843  -0.416   0.192  1.00  0.00     0.119 A 
HETATM   22  F1  UNL     1      -6.665  -1.480   0.421  1.00  0.00    -0.206 F 
HETATM   23  C13 UNL     1      -4.487  -0.645   0.175  1.00  0.00     0.079 A 
ENDBRANCH  16  17
ENDBRANCH   3  16
TORSDOF 4
