REMARK  5 active torsions:
REMARK  status: ('A' for Active; 'I' for Inactive)
REMARK    1  A    between atoms: C2_2  and  C3_3 
REMARK    2  A    between atoms: C4_5  and  C5_6 
REMARK    3  A    between atoms: C4_5  and  N1_9 
REMARK    4  A    between atoms: N1_9  and  C7_10 
REMARK    5  A    between atoms: C9_12  and  C10_13 
ROOT
HETATM    1  C7  UNL     1       0.445   0.148   0.237  1.00  0.00     0.131 A 
HETATM    2  C8  UNL     1      -0.680   0.359  -0.560  1.00  0.00     0.083 A 
HETATM    3  C9  UNL     1      -1.897  -0.191  -0.217  1.00  0.00     0.072 A 
HETATM    4  N2  UNL     1      -1.935  -0.929   0.908  1.00  0.00    -0.241 NA
HETATM    5  C16 UNL     1      -0.843  -1.130   1.676  1.00  0.00     0.235 A 
HETATM    6  N3  UNL     1       0.347  -0.596   1.346  1.00  0.00    -0.224 NA
ENDROOT
BRANCH   1   7
HETATM    7  N1  UNL     1       1.698   0.727  -0.136  1.00  0.00    -0.341 N 
HETATM    8  H8  UNL     1       1.761   1.303  -1.000  1.00  0.00     0.167 HD
BRANCH   7   9
HETATM    9  C4  UNL     1       2.843   0.516   0.669  1.00  0.00     0.038 C 
HETATM   10  C2  UNL     1       3.443  -0.657   0.538  1.00  0.00    -0.029 C 
HETATM   11  C1  UNL     1       2.987  -1.718  -0.378  1.00  0.00     0.048 C 
BRANCH  10  12
HETATM   12  C3  UNL     1       4.654  -1.106   1.271  1.00  0.00     0.258 C 
HETATM   13  F1  UNL     1       4.363  -2.240   2.003  1.00  0.00    -0.251 F 
ENDBRANCH  10  12
BRANCH   9  14
HETATM   14  C5  UNL     1       3.229   1.613   1.547  1.00  0.00     0.042 C 
HETATM   15  C6  UNL     1       2.577   2.762   1.624  1.00  0.00     0.087 C 
HETATM   16 CL1  UNL     1       3.158   3.987   2.725  1.00  0.00    -0.097 Cl
ENDBRANCH   9  14
ENDBRANCH   7   9
ENDBRANCH   1   7
BRANCH   3  17
HETATM   17  C10 UNL     1      -3.129  -0.027  -0.984  1.00  0.00    -0.007 A 
HETATM   18  C11 UNL     1      -4.262  -0.646  -0.499  1.00  0.00     0.014 A 
HETATM   19  C12 UNL     1      -5.423  -0.482  -1.238  1.00  0.00     0.001 A 
HETATM   20  C13 UNL     1      -5.508   0.250  -2.406  1.00  0.00     0.000 A 
HETATM   21  C14 UNL     1      -4.349   0.873  -2.885  1.00  0.00     0.001 A 
HETATM   22  C15 UNL     1      -3.192   0.708  -2.148  1.00  0.00     0.014 A 
ENDBRANCH   3  17
TORSDOF 5
