REMARK  8 active torsions:
REMARK  status: ('A' for Active; 'I' for Inactive)
REMARK    1  A    between atoms: C1_2  and  O1_3 
REMARK    2  A    between atoms: C1_2  and  C9_11 
REMARK    3  A    between atoms: O1_3  and  C2_4 
REMARK    4  A    between atoms: C2_4  and  C3_5 
REMARK    5  A    between atoms: C10_13  and  C11_14 
REMARK    6  A    between atoms: C11_14  and  N1_15 
REMARK    7  A    between atoms: N1_15  and  C12_16 
REMARK    8  A    between atoms: C14_18  and  S1_19 
ROOT
HETATM    1  C11 UNL     1       0.524   1.253   0.980  1.00  0.00     0.150 C 
ENDROOT
BRANCH   1   2
HETATM    2  C10 UNL     1      -0.310   0.095   0.610  1.00  0.00     0.017 C 
HETATM    3  C9  UNL     1      -1.599  -0.187   0.736  1.00  0.00     0.069 C 
HETATM    4 CL1  UNL     1      -2.206  -1.723   0.155  1.00  0.00    -0.084 Cl
BRANCH   3   5
HETATM    5  C1  UNL     1      -2.693   0.626   1.330  1.00  0.00     0.352 C 
HETATM    6  F1  UNL     1      -2.316   1.861   1.755  1.00  0.00    -0.213 F 
BRANCH   5   7
HETATM    7  O1  UNL     1      -3.723   0.680   0.363  1.00  0.00    -0.347 OA
BRANCH   7   8
HETATM    8  C2  UNL     1      -4.805   0.034   0.971  1.00  0.00     0.210 C 
BRANCH   8   9
HETATM    9  C3  UNL     1      -6.008  -0.011   0.105  1.00  0.00    -0.035 A 
HETATM   10  C4  UNL     1      -6.927   1.022   0.192  1.00  0.00     0.009 A 
HETATM   11  C5  UNL     1      -8.068   1.010  -0.608  1.00  0.00     0.001 A 
HETATM   12  C6  UNL     1      -8.233  -0.057  -1.470  1.00  0.00     0.000 A 
HETATM   13  C7  UNL     1      -7.361  -1.118  -1.608  1.00  0.00     0.001 A 
HETATM   14  C8  UNL     1      -6.240  -1.042  -0.778  1.00  0.00     0.009 A 
ENDBRANCH   8   9
ENDBRANCH   7   8
ENDBRANCH   5   7
ENDBRANCH   3   5
ENDBRANCH   1   2
BRANCH   1  15
HETATM   15  N1  UNL     1       1.187   1.867  -0.152  1.00  0.00    -0.371 N 
HETATM   16  H12 UNL     1       1.248   2.785  -0.652  1.00  0.00     0.161 HD
BRANCH  15  17
HETATM   17  C12 UNL     1       1.992   0.816  -0.702  1.00  0.00     0.127 A 
HETATM   18  C13 UNL     1       3.205   0.706  -0.043  1.00  0.00     0.088 A 
HETATM   19  C14 UNL     1       4.160  -0.249  -0.409  1.00  0.00     0.093 A 
HETATM   20  N2  UNL     1       3.819  -1.055  -1.447  1.00  0.00    -0.235 NA
HETATM   21  C20 UNL     1       2.619  -0.933  -2.086  1.00  0.00     0.236 A 
HETATM   22  N3  UNL     1       1.705  -0.007  -1.723  1.00  0.00    -0.225 NA
BRANCH  19  23
HETATM   23  S1  UNL     1       5.735  -0.409   0.447  1.00  0.00    -0.129 SA
HETATM   24  C15 UNL     1       6.176  -1.942   0.724  1.00  0.00     0.013 C 
HETATM   25  C16 UNL     1       7.214  -2.316   0.017  1.00  0.00     0.019 C 
HETATM   26  C17 UNL     1       8.431  -1.477   0.007  1.00  0.00    -0.002 C 
HETATM   27  C18 UNL     1       8.320  -0.167  -0.085  1.00  0.00    -0.017 C 
HETATM   28  C19 UNL     1       7.092   0.637  -0.185  1.00  0.00     0.102 C 
ENDBRANCH  19  23
ENDBRANCH  15  17
ENDBRANCH   1  15
TORSDOF 8
