REMARK  8 active torsions:
REMARK  status: ('A' for Active; 'I' for Inactive)
REMARK    1  A    between atoms: C2_2  and  C3_4 
REMARK    2  A    between atoms: C5_6  and  C6_7 
REMARK    3  A    between atoms: C7_8  and  N1_9 
REMARK    4  A    between atoms: N1_9  and  C8_10 
REMARK    5  A    between atoms: C13_18  and  C14_19 
REMARK    6  A    between atoms: C14_19  and  O1_20 
REMARK    7  A    between atoms: C14_19  and  C16_22 
REMARK    8  A    between atoms: C16_22  and  O2_24 
ROOT
HETATM    1  C8  UNL     1       1.384   0.635  -0.353  1.00  0.00     0.159 A 
HETATM    2  N2  UNL     1       2.406   1.476  -0.135  1.00  0.00    -0.222 NA
HETATM    3  C9  UNL     1       2.207   2.773   0.252  1.00  0.00     0.238 A 
HETATM    4  N3  UNL     1       0.926   3.179   0.409  1.00  0.00    -0.215 NA
HETATM    5  C10 UNL     1      -0.109   2.323   0.186  1.00  0.00     0.201 A 
HETATM    6  C11 UNL     1       0.047   1.008  -0.206  1.00  0.00     0.129 A 
HETATM    7  N4  UNL     1      -0.911   0.026  -0.503  1.00  0.00    -0.379 N 
HETATM    8  C12 UNL     1      -2.149   0.271  -1.142  1.00  0.00     0.159 C 
HETATM    9  C13 UNL     1      -2.853   1.480  -0.701  1.00  0.00    -0.005 C 
HETATM   10  C19 UNL     1      -2.560   2.633  -0.057  1.00  0.00     0.152 C 
HETATM   11  O3  UNL     1      -1.298   3.004   0.419  1.00  0.00    -0.302 OA
HETATM   12  H11 UNL     1      -0.548  -0.929  -0.188  1.00  0.00     0.160 HD
ENDROOT
BRANCH   1  13
HETATM   13  N1  UNL     1       1.595  -0.739  -0.758  1.00  0.00    -0.349 N 
HETATM   14  H9  UNL     1       1.411  -1.095  -1.742  1.00  0.00     0.167 HD
BRANCH  13  15
HETATM   15  C7  UNL     1       2.055  -1.184   0.531  1.00  0.00     0.090 C 
HETATM   16  C6  UNL     1       3.380  -1.286   0.755  1.00  0.00     0.018 C 
BRANCH  16  17
HETATM   17  C5  UNL     1       4.652  -1.095   0.107  1.00  0.00     0.011 C 
HETATM   18  C3  UNL     1       5.945  -1.218   0.443  1.00  0.00    -0.029 C 
HETATM   19  C4  UNL     1       6.279  -1.635   1.814  1.00  0.00     0.051 C 
BRANCH  18  20
HETATM   20  C2  UNL     1       6.798  -0.877  -0.666  1.00  0.00     0.084 A 
HETATM   21  C1  UNL     1       8.054  -1.022  -0.266  1.00  0.00     0.250 A 
HETATM   22  F1  UNL     1       7.686  -0.583  -1.626  1.00  0.00    -0.366 F 
ENDBRANCH  18  20
ENDBRANCH  16  17
ENDBRANCH  13  15
ENDBRANCH   1  13
BRANCH   9  23
HETATM   23  C14 UNL     1      -4.511   1.524  -1.155  1.00  0.00     0.209 C 
BRANCH  23  24
HETATM   24  O1  UNL     1      -4.876   2.062  -0.046  1.00  0.00    -0.380 OA
HETATM   25  C15 UNL     1      -5.925   1.610   0.704  1.00  0.00     0.202 C 
ENDBRANCH  23  24
BRANCH  23  26
HETATM   26  C16 UNL     1      -4.838  -0.039  -0.551  1.00  0.00     0.069 C 
HETATM   27  C17 UNL     1      -5.819  -0.450  -1.396  1.00  0.00     0.049 C 
BRANCH  26  28
HETATM   28  O2  UNL     1      -4.561  -1.015   0.377  1.00  0.00    -0.358 OA
HETATM   29  C18 UNL     1      -4.780  -2.386   0.074  1.00  0.00     0.209 C 
ENDBRANCH  26  28
ENDBRANCH  23  26
ENDBRANCH   9  23
TORSDOF 8
