REMARK  0 active torsions:
REMARK  status: ('A' for Active; 'I' for Inactive)
ROOT
HETATM    1  F1  UNL     1      -1.407  -2.757  -1.183  1.00  0.00    -0.244 F 
HETATM    2  C1  UNL     1      -0.656  -2.009  -0.224  1.00  0.00     0.204 C 
HETATM    3  C2  UNL     1       0.297  -1.224  -1.023  1.00  0.00     0.081 C 
HETATM    4  C3  UNL     1       1.366  -0.446  -0.375  1.00  0.00    -0.043 A 
HETATM    5  C4  UNL     1       2.364  -1.332   0.065  1.00  0.00     0.008 A 
HETATM    6  C5  UNL     1       3.534  -0.945   0.689  1.00  0.00     0.001 A 
HETATM    7  C6  UNL     1       3.805   0.384   0.927  1.00  0.00     0.001 A 
HETATM    8  C7  UNL     1       2.853   1.286   0.512  1.00  0.00     0.014 A 
HETATM    9  C8  UNL     1       1.702   0.899  -0.101  1.00  0.00    -0.001 A 
HETATM   10  C9  UNL     1       0.544   1.608  -0.591  1.00  0.00     0.070 A 
HETATM   11  C10 UNL     1      -0.669   1.177  -0.128  1.00  0.00     0.060 A 
HETATM   12  C11 UNL     1      -2.012   1.273  -0.132  1.00  0.00     0.047 A 
HETATM   13  N1  UNL     1      -2.188   2.271  -1.007  1.00  0.00    -0.246 NA
HETATM   14  C12 UNL     1      -1.142   2.897  -1.628  1.00  0.00     0.234 A 
HETATM   15  N2  UNL     1       0.173   2.584  -1.434  1.00  0.00    -0.241 NA
HETATM   16  C13 UNL     1      -2.879   0.391   0.609  1.00  0.00     0.083 C 
HETATM   17  C14 UNL     1      -2.887  -0.927  -0.148  1.00  0.00    -0.007 C 
HETATM   18  C15 UNL     1      -1.728  -1.214   0.451  1.00  0.00    -0.030 C 
HETATM   19  C16 UNL     1      -2.280  -0.482   1.625  1.00  0.00     0.127 C 
HETATM   20 CL1  UNL     1      -1.170   0.178   2.797  1.00  0.00    -0.119 Cl
ENDROOT
TORSDOF 0
