REMARK  6 active torsions:
REMARK  status: ('A' for Active; 'I' for Inactive)
REMARK    1  A    between atoms: C4_6  and  C5_7 
REMARK    2  A    between atoms: C5_7  and  O1_8 
REMARK    3  A    between atoms: O1_8  and  C6_9 
REMARK    4  A    between atoms: C9_12  and  N2_13 
REMARK    5  A    between atoms: N2_13  and  C10_14 
REMARK    6  A    between atoms: C12_16  and  C13_17 
ROOT
HETATM    1  C6  UNL     1      -2.347  -0.518   0.184  1.00  0.00     0.090 A 
HETATM    2  C7  UNL     1      -1.563   0.509  -0.288  1.00  0.00     0.041 A 
HETATM    3  C8  UNL     1      -0.208   0.378  -0.181  1.00  0.00     0.032 A 
HETATM    4  C9  UNL     1       0.475  -0.681   0.353  1.00  0.00     0.035 A 
HETATM    5  C18 UNL     1      -0.373  -1.684   0.812  1.00  0.00     0.056 A 
HETATM    6  C19 UNL     1      -1.744  -1.621   0.737  1.00  0.00     0.069 A 
HETATM    7 CL1  UNL     1      -2.734  -2.932   1.340  1.00  0.00    -0.081 Cl
ENDROOT
BRANCH   4   8
HETATM    8  N2  UNL     1       1.874  -0.821   0.466  1.00  0.00    -0.341 N 
HETATM    9  H7  UNL     1       2.186  -1.731   0.917  1.00  0.00     0.167 HD
BRANCH   8  10
HETATM   10  C10 UNL     1       2.864   0.093   0.055  1.00  0.00     0.131 A 
HETATM   11  C11 UNL     1       4.194  -0.248   0.263  1.00  0.00     0.083 A 
HETATM   12  C12 UNL     1       5.261   0.538  -0.084  1.00  0.00     0.072 A 
HETATM   13  N3  UNL     1       4.945   1.707  -0.660  1.00  0.00    -0.241 NA
HETATM   14  C17 UNL     1       3.663   2.062  -0.873  1.00  0.00     0.235 A 
HETATM   15  N4  UNL     1       2.638   1.276  -0.525  1.00  0.00    -0.224 NA
BRANCH  12  16
HETATM   16  C13 UNL     1       6.641   0.153   0.147  1.00  0.00    -0.000 A 
HETATM   17  C14 UNL     1       6.989  -1.030   0.732  1.00  0.00     0.021 A 
HETATM   18  C15 UNL     1       8.274  -1.358   0.932  1.00  0.00     0.050 A 
HETATM   19  S1  UNL     1       9.198   0.048   0.281  1.00  0.00    -0.113 SA
HETATM   20  C16 UNL     1       7.732   0.997  -0.226  1.00  0.00     0.063 A 
ENDBRANCH  12  16
ENDBRANCH   8  10
ENDBRANCH   4   8
BRANCH   1  21
HETATM   21  O1  UNL     1      -3.722  -0.472   0.118  1.00  0.00    -0.345 OA
BRANCH  21  22
HETATM   22  C5  UNL     1      -4.427   0.625  -0.436  1.00  0.00     0.212 C 
BRANCH  22  23
HETATM   23  C4  UNL     1      -5.890   0.427  -0.387  1.00  0.00    -0.033 C 
HETATM   24  C3  UNL     1      -6.381   0.258   1.009  1.00  0.00     0.186 C 
HETATM   25  N1  UNL     1      -7.793  -0.109   0.913  1.00  0.00    -0.280 NA
HETATM   26  C2  UNL     1      -8.469   0.337  -0.051  1.00  0.00     0.121 C 
HETATM   27  C1  UNL     1      -8.121   0.196  -1.293  1.00  0.00     0.147 C 
HETATM   28  F1  UNL     1      -8.836  -0.093  -2.391  1.00  0.00    -0.204 F 
HETATM   29  C20 UNL     1      -6.689   0.399  -1.461  1.00  0.00     0.051 C 
ENDBRANCH  22  23
ENDBRANCH  21  22
ENDBRANCH   1  21
TORSDOF 6
