REMARK  6 active torsions:
REMARK  status: ('A' for Active; 'I' for Inactive)
REMARK    1  A    between atoms: C6_6  and  C7_7 
REMARK    2  A    between atoms: C7_7  and  O1_8 
REMARK    3  A    between atoms: O1_8  and  C8_9 
REMARK    4  A    between atoms: C10_11  and  N1_12 
REMARK    5  A    between atoms: N1_12  and  C11_13 
REMARK    6  A    between atoms: C13_15  and  C14_16 
ROOT
HETATM    1  C8  UNL     1       1.663  -0.157  -0.601  1.00  0.00     0.104 C 
HETATM    2  C9  UNL     1       0.686  -0.382   0.249  1.00  0.00     0.041 C 
HETATM    3  C10 UNL     1      -0.493   0.001  -0.162  1.00  0.00     0.049 C 
HETATM    4  C20 UNL     1      -0.281   0.266  -1.590  1.00  0.00     0.057 C 
HETATM    5  C21 UNL     1       1.010   0.175  -1.871  1.00  0.00     0.070 C 
HETATM    6 CL1  UNL     1       1.771   0.405  -3.433  1.00  0.00    -0.081 Cl
ENDROOT
BRANCH   3   7
HETATM    7  N1  UNL     1      -1.768   0.182   0.436  1.00  0.00    -0.340 N 
HETATM    8  H9  UNL     1      -1.915   0.629   1.367  1.00  0.00     0.167 HD
BRANCH   7   9
HETATM    9  C11 UNL     1      -2.934  -0.260  -0.247  1.00  0.00     0.131 A 
HETATM   10  C12 UNL     1      -4.212  -0.120   0.268  1.00  0.00     0.083 A 
HETATM   11  C13 UNL     1      -5.357  -0.541  -0.375  1.00  0.00     0.073 A 
HETATM   12  N3  UNL     1      -5.151  -1.116  -1.576  1.00  0.00    -0.241 NA
HETATM   13  C19 UNL     1      -3.945  -1.276  -2.117  1.00  0.00     0.235 A 
HETATM   14  N4  UNL     1      -2.842  -0.858  -1.471  1.00  0.00    -0.224 NA
BRANCH  11  15
HETATM   15  C14 UNL     1      -6.691  -0.381   0.188  1.00  0.00     0.010 A 
HETATM   16  C15 UNL     1      -6.969   0.197   1.407  1.00  0.00     0.017 A 
HETATM   17  C16 UNL     1      -8.285   0.303   1.859  1.00  0.00     0.020 A 
HETATM   18  C17 UNL     1      -9.344  -0.177   1.082  1.00  0.00     0.116 A 
HETATM   19  N2  UNL     1      -9.040  -0.743  -0.119  1.00  0.00    -0.272 NA
HETATM   20  C18 UNL     1      -7.761  -0.842  -0.549  1.00  0.00     0.130 A 
ENDBRANCH  11  15
ENDBRANCH   7   9
ENDBRANCH   3   7
BRANCH   1  21
HETATM   21  O1  UNL     1       3.030  -0.216  -0.373  1.00  0.00    -0.344 OA
BRANCH  21  22
HETATM   22  C7  UNL     1       3.658   0.258   0.787  1.00  0.00     0.214 C 
BRANCH  22  23
HETATM   23  C6  UNL     1       5.133   0.064   0.759  1.00  0.00    -0.034 A 
HETATM   24  C5  UNL     1       5.679  -1.114   1.263  1.00  0.00     0.009 A 
HETATM   25  C4  UNL     1       7.036  -1.341   1.261  1.00  0.00     0.001 A 
HETATM   26  C3  UNL     1       7.896  -0.374   0.743  1.00  0.00     0.007 A 
HETATM   27  C2  UNL     1       7.363   0.808   0.236  1.00  0.00    -0.061 A 
HETATM   28  C1  UNL     1       8.309   1.837  -0.318  1.00  0.00     0.048 C 
HETATM   29  C22 UNL     1       6.006   1.013   0.249  1.00  0.00     0.016 A 
ENDBRANCH  22  23
ENDBRANCH  21  22
ENDBRANCH   1  21
TORSDOF 6
