REMARK  6 active torsions:
REMARK  status: ('A' for Active; 'I' for Inactive)
REMARK    1  A    between atoms: O1_2  and  C2_3 
REMARK    2  A    between atoms: C7_8  and  O2_9 
REMARK    3  A    between atoms: C11_16  and  N3_17 
REMARK    4  A    between atoms: N3_17  and  C12_18 
REMARK    5  A    between atoms: C13_19  and  C14_20 
REMARK    6  A    between atoms: C15_21  and  C16_22 
ROOT
HETATM    1  C2  UNL     1      -4.684   0.233  -0.609  1.00  0.00     0.102 A 
HETATM    2  C3  UNL     1      -3.419   0.143  -1.184  1.00  0.00     0.051 A 
HETATM    3  C4  UNL     1      -2.260   0.032  -0.405  1.00  0.00    -0.004 A 
HETATM    4  C5  UNL     1      -2.458   0.019   0.963  1.00  0.00     0.088 A 
HETATM    5  C6  UNL     1      -3.709   0.109   1.540  1.00  0.00     0.077 A 
HETATM    6  C7  UNL     1      -4.844   0.217   0.763  1.00  0.00     0.104 A 
HETATM    7  O3  UNL     1      -1.481  -0.080   1.915  1.00  0.00    -0.289 OA
HETATM    8  C9  UNL     1      -0.117   0.121   1.780  1.00  0.00     0.202 A 
HETATM    9  N1  UNL     1       0.561   0.035   2.933  1.00  0.00    -0.215 NA
HETATM   10  C10 UNL     1       1.894   0.199   3.015  1.00  0.00     0.238 A 
HETATM   11  N2  UNL     1       2.579   0.465   1.864  1.00  0.00    -0.222 NA
HETATM   12  C11 UNL     1       1.911   0.554   0.699  1.00  0.00     0.159 A 
HETATM   13  C17 UNL     1       0.549   0.391   0.586  1.00  0.00     0.129 A 
HETATM   14  N4  UNL     1       0.111   0.537  -0.749  1.00  0.00    -0.379 N 
HETATM   15  C18 UNL     1      -1.101  -0.043  -1.295  1.00  0.00     0.161 C 
HETATM   16  H17 UNL     1       0.783   1.123  -1.291  1.00  0.00     0.160 HD
ENDROOT
BRANCH  12  17
HETATM   17  N3  UNL     1       2.748   0.831  -0.398  1.00  0.00    -0.349 N 
HETATM   18  H10 UNL     1       2.799   0.992  -1.423  1.00  0.00     0.167 HD
BRANCH  17  19
HETATM   19  C12 UNL     1       4.146   0.999  -0.263  1.00  0.00     0.090 C 
HETATM   20  C13 UNL     1       5.013  -0.024  -0.353  1.00  0.00     0.017 C 
BRANCH  20  21
HETATM   21  C14 UNL     1       6.450   0.098  -0.223  1.00  0.00    -0.000 C 
HETATM   22  C15 UNL     1       7.338  -0.848  -0.298  1.00  0.00     0.004 C 
BRANCH  22  23
HETATM   23  C16 UNL     1       7.318  -2.309  -0.525  1.00  0.00     0.249 C 
HETATM   24  F1  UNL     1       6.020  -2.725  -0.694  1.00  0.00    -0.251 F 
ENDBRANCH  22  23
ENDBRANCH  20  21
ENDBRANCH  17  19
ENDBRANCH  12  17
BRANCH   6  25
HETATM   25  O2  UNL     1      -6.078   0.305   1.365  1.00  0.00    -0.353 OA
HETATM   26  C8  UNL     1      -6.134   0.280   2.785  1.00  0.00     0.210 C 
ENDBRANCH   6  25
BRANCH   1  27
HETATM   27  O1  UNL     1      -5.836   0.343  -1.376  1.00  0.00    -0.353 OA
HETATM   28  C1  UNL     1      -5.700   0.361  -2.785  1.00  0.00     0.210 C 
ENDBRANCH   1  27
TORSDOF 6
