REMARK  3 active torsions:
REMARK  status: ('A' for Active; 'I' for Inactive)
REMARK    1  A    between atoms: N1_1  and  C1_2 
REMARK    2  A    between atoms: N3_10  and  C8_11 
REMARK    3  A    between atoms: C12_16  and  C13_17 
ROOT
HETATM    1  C1  UNL     1      -3.782   1.215   0.561  1.00  0.00     0.255 C 
HETATM    2  C2  UNL     1      -5.083   0.640   1.013  1.00  0.00     0.184 C 
HETATM    3  N2  UNL     1      -5.921   0.208  -0.042  1.00  0.00    -0.303 NA
HETATM    4  C3  UNL     1      -5.438  -0.077  -1.173  1.00  0.00     0.085 C 
HETATM    5  C4  UNL     1      -4.012  -0.019  -1.580  1.00  0.00     0.067 C 
HETATM    6  C5  UNL     1      -3.101   0.288  -0.411  1.00  0.00     0.051 A 
HETATM    7  C6  UNL     1      -2.698  -0.940   0.318  1.00  0.00     0.010 A 
HETATM    8  C7  UNL     1      -1.492  -1.462   0.478  1.00  0.00     0.115 A 
HETATM    9  N3  UNL     1      -0.445  -0.728  -0.146  1.00  0.00    -0.248 N 
HETATM   10  N4  UNL     1      -0.682   0.447  -0.867  1.00  0.00    -0.183 NA
HETATM   11  C19 UNL     1      -1.881   0.909  -0.988  1.00  0.00     0.128 A 
ENDROOT
BRANCH   9  12
HETATM   12  C8  UNL     1       0.881  -1.227  -0.019  1.00  0.00     0.057 C 
HETATM   13  C9  UNL     1       0.945  -2.449  -0.525  1.00  0.00     0.031 C 
HETATM   14  C10 UNL     1       2.157  -3.260  -0.562  1.00  0.00     0.026 C 
HETATM   15  C11 UNL     1       3.388  -2.949  -0.185  1.00  0.00     0.135 C 
HETATM   16  O1  UNL     1       3.781  -1.728   0.345  1.00  0.00    -0.351 OA
HETATM   17  C12 UNL     1       3.222  -0.459   0.061  1.00  0.00     0.181 C 
HETATM   18  C18 UNL     1       1.831  -0.283   0.627  1.00  0.00     0.167 C 
HETATM   19 CL1  UNL     1       1.292   1.353   0.106  1.00  0.00    -0.115 Cl
BRANCH  17  20
HETATM   20  C13 UNL     1       4.129   0.636   0.493  1.00  0.00    -0.043 A 
HETATM   21  C14 UNL     1       4.138   1.727   1.217  1.00  0.00     0.047 A 
HETATM   22  C15 UNL     1       5.440   2.361   1.214  1.00  0.00     0.113 A 
HETATM   23  F1  UNL     1       5.718   3.490   1.874  1.00  0.00    -0.206 F 
HETATM   24  C16 UNL     1       6.261   1.641   0.466  1.00  0.00     0.020 A 
HETATM   25  C17 UNL     1       5.513   0.479  -0.063  1.00  0.00     0.067 A 
ENDBRANCH  17  20
ENDBRANCH   9  12
BRANCH   1  26
HETATM   26  N1  UNL     1      -3.989   2.493  -0.117  1.00  0.00     0.086 N 
HETATM   27  H1  UNL     1      -4.842   2.444  -0.714  1.00  0.00     0.313 HD
HETATM   28  H2  UNL     1      -4.076   3.246   0.612  1.00  0.00     0.313 HD
ENDBRANCH   1  26
TORSDOF 3
