REMARK  6 active torsions:
REMARK  status: ('A' for Active; 'I' for Inactive)
REMARK    1  A    between atoms: C5_6  and  C6_7 
REMARK    2  A    between atoms: C6_7  and  O1_8 
REMARK    3  A    between atoms: O1_8  and  C7_9 
REMARK    4  A    between atoms: C10_12  and  N1_13 
REMARK    5  A    between atoms: N1_13  and  C11_14 
REMARK    6  A    between atoms: C13_16  and  C14_17 
ROOT
HETATM    1  C7  UNL     1      -1.906   0.397  -0.246  1.00  0.00     0.101 C 
HETATM    2  C8  UNL     1      -1.093  -0.536   0.189  1.00  0.00     0.010 C 
HETATM    3  C9  UNL     1       0.181  -0.264   0.398  1.00  0.00     0.017 C 
HETATM    4  C10 UNL     1       0.773   0.710  -0.553  1.00  0.00     0.130 C 
HETATM    5  C19 UNL     1      -0.107   1.884  -0.700  1.00  0.00     0.028 C 
HETATM    6  C20 UNL     1      -1.411   1.718  -0.548  1.00  0.00     0.066 C 
HETATM    7 CL1  UNL     1      -2.486   3.081  -0.713  1.00  0.00    -0.082 Cl
ENDROOT
BRANCH   4   8
HETATM    8  N1  UNL     1       2.105   1.114  -0.177  1.00  0.00    -0.381 N 
HETATM    9  H8  UNL     1       2.306   2.137   0.016  1.00  0.00     0.160 HD
BRANCH   8  10
HETATM   10  C11 UNL     1       3.165   0.190  -0.056  1.00  0.00     0.028 A 
HETATM   11  C12 UNL     1       4.425   0.428  -0.260  1.00  0.00     0.058 A 
HETATM   12  C13 UNL     1       5.260  -0.743  -0.049  1.00  0.00     0.064 A 
HETATM   13  N2  UNL     1       4.444  -1.672   0.285  1.00  0.00    -0.283 NA
HETATM   14  C18 UNL     1       3.076  -1.233   0.324  1.00  0.00     0.206 A 
BRANCH  12  15
HETATM   15  C14 UNL     1       6.701  -0.905  -0.169  1.00  0.00    -0.001 A 
HETATM   16  C15 UNL     1       7.452   0.173  -0.534  1.00  0.00     0.021 A 
HETATM   17  C16 UNL     1       8.909  -0.085  -0.631  1.00  0.00     0.050 A 
HETATM   18  S1  UNL     1       9.078  -1.903  -0.176  1.00  0.00    -0.113 SA
HETATM   19  C17 UNL     1       7.343  -2.150   0.083  1.00  0.00     0.063 A 
ENDBRANCH  12  15
ENDBRANCH   8  10
ENDBRANCH   4   8
BRANCH   1  20
HETATM   20  O1  UNL     1      -3.233   0.084  -0.406  1.00  0.00    -0.344 OA
BRANCH  20  21
HETATM   21  C6  UNL     1      -4.153   0.534   0.567  1.00  0.00     0.214 C 
BRANCH  21  22
HETATM   22  C5  UNL     1      -5.544   0.106   0.237  1.00  0.00    -0.031 A 
HETATM   23  C4  UNL     1      -6.047  -1.102   0.697  1.00  0.00     0.009 A 
HETATM   24  C3  UNL     1      -7.326  -1.537   0.416  1.00  0.00     0.004 A 
HETATM   25  C2  UNL     1      -8.125  -0.721  -0.358  1.00  0.00     0.042 A 
HETATM   26  C1  UNL     1      -7.652   0.480  -0.827  1.00  0.00     0.117 A 
HETATM   27  F1  UNL     1      -8.523   1.183  -1.568  1.00  0.00    -0.206 F 
HETATM   28  C21 UNL     1      -6.380   0.896  -0.539  1.00  0.00     0.051 A 
ENDBRANCH  21  22
ENDBRANCH  20  21
ENDBRANCH   1  20
TORSDOF 6
