REMARK  5 active torsions:
REMARK  status: ('A' for Active; 'I' for Inactive)
REMARK    1  A    between atoms: C5_6  and  O1_7 
REMARK    2  A    between atoms: O1_7  and  C6_8 
REMARK    3  A    between atoms: C9_11  and  N1_12 
REMARK    4  A    between atoms: N1_12  and  C10_13 
REMARK    5  A    between atoms: C12_15  and  C13_16 
ROOT
HETATM    1  C6  UNL     1      -2.884  -0.002  -0.202  1.00  0.00     0.091 A 
HETATM    2  C7  UNL     1      -2.371  -1.169   0.318  1.00  0.00     0.041 A 
HETATM    3  C8  UNL     1      -1.023  -1.339   0.480  1.00  0.00     0.032 A 
HETATM    4  C9  UNL     1      -0.075  -0.366   0.141  1.00  0.00     0.035 A 
HETATM    5  C19 UNL     1      -0.660   0.768  -0.371  1.00  0.00     0.056 A 
HETATM    6  C20 UNL     1      -1.986   1.006  -0.560  1.00  0.00     0.069 A 
HETATM    7 CL1  UNL     1      -2.592   2.508  -1.226  1.00  0.00    -0.081 Cl
ENDROOT
BRANCH   4   8
HETATM    8  N1  UNL     1       1.307  -0.585   0.326  1.00  0.00    -0.341 N 
HETATM    9  H7  UNL     1       1.525  -1.544   0.740  1.00  0.00     0.167 HD
BRANCH   8  10
HETATM   10  C10 UNL     1       2.384   0.270   0.044  1.00  0.00     0.131 A 
HETATM   11  C11 UNL     1       3.656  -0.177   0.316  1.00  0.00     0.083 A 
HETATM   12  C12 UNL     1       4.799   0.548   0.093  1.00  0.00     0.073 A 
HETATM   13  N3  UNL     1       4.627   1.776  -0.429  1.00  0.00    -0.241 NA
HETATM   14  C18 UNL     1       3.368   2.231  -0.704  1.00  0.00     0.235 A 
HETATM   15  N4  UNL     1       2.277   1.499  -0.474  1.00  0.00    -0.224 NA
BRANCH  12  16
HETATM   16  C13 UNL     1       6.152   0.100   0.372  1.00  0.00     0.010 A 
HETATM   17  C14 UNL     1       7.178   0.974   0.078  1.00  0.00     0.017 A 
HETATM   18  C15 UNL     1       8.513   0.630   0.312  1.00  0.00     0.020 A 
HETATM   19  C16 UNL     1       8.800  -0.616   0.850  1.00  0.00     0.116 A 
HETATM   20  N2  UNL     1       7.792  -1.454   1.130  1.00  0.00    -0.272 NA
HETATM   21  C17 UNL     1       6.508  -1.119   0.903  1.00  0.00     0.130 A 
ENDBRANCH  12  16
ENDBRANCH   8  10
ENDBRANCH   4   8
BRANCH   1  22
HETATM   22  O1  UNL     1      -4.221   0.259  -0.402  1.00  0.00    -0.340 OA
BRANCH  22  23
HETATM   23  C5  UNL     1      -5.316  -0.549  -0.141  1.00  0.00     0.158 A 
HETATM   24  C4  UNL     1      -6.095   0.077   0.973  1.00  0.00     0.006 A 
HETATM   25  C3  UNL     1      -7.342   0.417   1.121  1.00  0.00     0.001 A 
HETATM   26  C2  UNL     1      -8.187   0.144  -0.026  1.00  0.00     0.037 A 
HETATM   27  C1  UNL     1      -7.565  -0.405  -1.037  1.00  0.00     0.096 A 
HETATM   28  F1  UNL     1      -8.343  -0.674  -2.136  1.00  0.00    -0.211 F 
HETATM   29  C21 UNL     1      -6.177  -0.834  -1.323  1.00  0.00     0.106 A 
ENDBRANCH  22  23
ENDBRANCH   1  22
TORSDOF 5
