REMARK  9 active torsions:
REMARK  status: ('A' for Active; 'I' for Inactive)
REMARK    1  A    between atoms: C3_4  and  C4_5 
REMARK    2  A    between atoms: C5_6  and  C6_7 
REMARK    3  A    between atoms: C6_7  and  C7_8 
REMARK    4  A    between atoms: C7_8  and  C8_9 
REMARK    5  A    between atoms: C8_9  and  C20_24 
REMARK    6  A    between atoms: C9_10  and  C10_11 
REMARK    7  A    between atoms: C11_12  and  N1_13 
REMARK    8  A    between atoms: N1_13  and  C12_14 
REMARK    9  A    between atoms: C20_24  and  O1_25 
ROOT
HETATM    1  C10 UNL     1       0.321   0.067  -0.283  1.00  0.00     0.017 C 
HETATM    2  C11 UNL     1      -0.752  -0.119   0.448  1.00  0.00     0.090 C 
ENDROOT
BRANCH   1   3
HETATM    3  C9  UNL     1       0.495  -0.638  -1.543  1.00  0.00     0.006 C 
HETATM    4  C8  UNL     1       1.553  -0.520  -2.367  1.00  0.00    -0.056 C 
BRANCH   4   5
HETATM    5  C7  UNL     1       2.690   0.380  -2.051  1.00  0.00     0.040 C 
BRANCH   5   6
HETATM    6  C6  UNL     1       4.011  -0.322  -1.929  1.00  0.00     0.031 C 
BRANCH   6   7
HETATM    7  C5  UNL     1       5.035   0.729  -1.600  1.00  0.00    -0.026 C 
HETATM    8  C4  UNL     1       5.813   0.810  -0.536  1.00  0.00    -0.001 C 
BRANCH   8   9
HETATM    9  C3  UNL     1       5.791  -0.168   0.539  1.00  0.00     0.037 C 
HETATM   10  C2  UNL     1       6.582  -0.049   1.584  1.00  0.00     0.090 C 
HETATM   11  C1  UNL     1       7.590   0.988   1.915  1.00  0.00     0.082 C 
HETATM   12  F1  UNL     1       6.598  -0.935   2.612  1.00  0.00    -0.211 F 
ENDBRANCH   8   9
ENDBRANCH   6   7
ENDBRANCH   5   6
ENDBRANCH   4   5
BRANCH   4  13
HETATM   13  C20 UNL     1       1.569  -1.300  -3.618  1.00  0.00     0.198 C 
BRANCH  13  14
HETATM   14  O1  UNL     1       2.656  -2.140  -3.630  1.00  0.00    -0.397 OA
HETATM   15  H26 UNL     1       2.376  -3.023  -3.291  1.00  0.00     0.209 HD
ENDBRANCH  13  14
ENDBRANCH   4  13
ENDBRANCH   1   3
BRANCH   2  16
HETATM   16  N1  UNL     1      -1.780  -1.032   0.010  1.00  0.00    -0.351 N 
HETATM   17  H14 UNL     1      -1.775  -1.996  -0.388  1.00  0.00     0.166 HD
BRANCH  16  18
HETATM   18  C12 UNL     1      -3.155  -0.601   0.103  1.00  0.00     0.124 A 
HETATM   19  C13 UNL     1      -3.928  -0.534   1.200  1.00  0.00     0.044 A 
HETATM   20  C14 UNL     1      -5.287  -0.028   0.819  1.00  0.00     0.055 A 
HETATM   21  C15 UNL     1      -5.133   0.161  -0.607  1.00  0.00     0.111 A 
HETATM   22  C16 UNL     1      -6.390  -0.930   1.271  1.00  0.00     0.026 C 
HETATM   23  C19 UNL     1      -5.545   1.194   1.612  1.00  0.00     0.021 C 
HETATM   24  N2  UNL     1      -3.936  -0.163  -0.998  1.00  0.00    -0.246 NA
HETATM   25  C17 UNL     1      -6.555  -0.588   2.750  1.00  0.00     0.007 C 
HETATM   26  C18 UNL     1      -5.828   0.691   2.993  1.00  0.00     0.056 C 
HETATM   27  N3  UNL     1      -5.563   2.443   1.348  1.00  0.00    -0.308 NA
HETATM   28  H23 UNL     1      -5.362   2.769   0.378  1.00  0.00     0.186 HD
ENDBRANCH  16  18
ENDBRANCH   2  16
TORSDOF 9
