REMARK  7 active torsions:
REMARK  status: ('A' for Active; 'I' for Inactive)
REMARK    1  A    between atoms: N1_1  and  C1_2 
REMARK    2  A    between atoms: C3_4  and  N2_5 
REMARK    3  A    between atoms: N2_5  and  C4_6 
REMARK    4  A    between atoms: C6_8  and  N3_9 
REMARK    5  A    between atoms: C14_20  and  O1_21 
REMARK    6  A    between atoms: O1_21  and  C15_22 
REMARK    7  A    between atoms: C15_22  and  C16_23 
ROOT
HETATM    1  C1  UNL     1      -2.332  -0.637   0.336  1.00  0.00     0.063 A 
HETATM    2  C2  UNL     1      -1.024  -0.910   0.790  1.00  0.00     0.061 A 
HETATM    3  C3  UNL     1      -0.052   0.049   0.597  1.00  0.00     0.037 A 
HETATM    4  C12 UNL     1      -0.300   1.252  -0.002  1.00  0.00     0.056 A 
HETATM    5  C13 UNL     1      -1.574   1.536  -0.445  1.00  0.00     0.071 A 
HETATM    6 CL1  UNL     1      -2.149   2.990  -1.268  1.00  0.00    -0.081 Cl
HETATM    7  C14 UNL     1      -2.517   0.587  -0.260  1.00  0.00     0.117 A 
ENDROOT
BRANCH   3   8
HETATM    8  N2  UNL     1       1.246  -0.241   1.022  1.00  0.00    -0.341 N 
HETATM    9  H4  UNL     1       1.454  -0.743   0.062  1.00  0.00     0.167 HD
BRANCH   8  10
HETATM   10  C4  UNL     1       2.540  -0.527   1.453  1.00  0.00     0.133 A 
HETATM   11  C5  UNL     1       3.666   0.141   1.008  1.00  0.00     0.100 A 
HETATM   12  C6  UNL     1       4.881  -0.339   1.573  1.00  0.00     0.130 A 
HETATM   13  N4  UNL     1       4.911  -1.303   2.422  1.00  0.00    -0.224 NA
HETATM   14  C11 UNL     1       3.810  -1.956   2.856  1.00  0.00     0.237 A 
HETATM   15  N5  UNL     1       2.644  -1.560   2.358  1.00  0.00    -0.224 NA
BRANCH  12  16
HETATM   16  N3  UNL     1       5.834   0.452   0.873  1.00  0.00    -0.366 N 
HETATM   17  C7  UNL     1       5.984   1.673   0.123  1.00  0.00     0.124 C 
HETATM   18  C8  UNL     1       6.197   0.992  -1.274  1.00  0.00     0.021 C 
HETATM   19  C9  UNL     1       7.016  -0.248  -0.884  1.00  0.00     0.021 C 
HETATM   20  C10 UNL     1       7.203   0.009   0.659  1.00  0.00     0.124 C 
ENDBRANCH  12  16
ENDBRANCH   8  10
ENDBRANCH   3   8
BRANCH   1  21
HETATM   21  N1  UNL     1      -3.179  -1.783   0.627  1.00  0.00    -0.397 N 
HETATM   22  H1  UNL     1      -3.277  -2.345  -0.223  1.00  0.00     0.156 HD
HETATM   23  H2  UNL     1      -3.571  -1.932   1.572  1.00  0.00     0.156 HD
ENDBRANCH   1  21
BRANCH   7  24
HETATM   24  O1  UNL     1      -3.817   0.528  -0.577  1.00  0.00    -0.343 OA
BRANCH  24  25
HETATM   25  C15 UNL     1      -4.486   0.054  -1.699  1.00  0.00     0.214 C 
BRANCH  25  26
HETATM   26  C16 UNL     1      -5.952   0.238  -1.333  1.00  0.00    -0.031 A 
HETATM   27  C17 UNL     1      -6.734   1.356  -1.653  1.00  0.00     0.009 A 
HETATM   28  C18 UNL     1      -8.025   1.328  -1.168  1.00  0.00     0.004 A 
HETATM   29  C19 UNL     1      -8.472   0.254  -0.423  1.00  0.00     0.042 A 
HETATM   30  C20 UNL     1      -7.668  -0.861  -0.117  1.00  0.00     0.117 A 
HETATM   31  F1  UNL     1      -8.160  -1.882   0.621  1.00  0.00    -0.206 F 
HETATM   32  C21 UNL     1      -6.387  -0.866  -0.577  1.00  0.00     0.051 A 
ENDBRANCH  25  26
ENDBRANCH  24  25
ENDBRANCH   7  24
TORSDOF 7
