REMARK  0 active torsions:
REMARK  status: ('A' for Active; 'I' for Inactive)
ROOT
HETATM    1 CL1  UNL     1       3.726  -2.912   1.001  1.00  0.00    -0.084 Cl
HETATM    2  C1  UNL     1       3.852  -1.187   0.881  1.00  0.00     0.042 A 
HETATM    3  C2  UNL     1       4.653  -0.340   1.585  1.00  0.00     0.024 A 
HETATM    4  C3  UNL     1       4.656   1.017   1.393  1.00  0.00     0.002 A 
HETATM    5  C4  UNL     1       3.782   1.473   0.428  1.00  0.00     0.008 A 
HETATM    6  C5  UNL     1       2.890   0.731  -0.382  1.00  0.00    -0.049 A 
HETATM    7  C6  UNL     1       3.005  -0.720  -0.057  1.00  0.00    -0.017 A 
HETATM    8  C7  UNL     1       2.077  -1.540  -0.934  1.00  0.00     0.095 C 
HETATM    9  C8  UNL     1       1.390  -0.305  -1.412  1.00  0.00    -0.015 C 
HETATM   10  C9  UNL     1       0.550  -0.085  -0.343  1.00  0.00    -0.023 C 
HETATM   11  C10 UNL     1      -0.089   1.109  -0.833  1.00  0.00     0.031 A 
HETATM   12  C11 UNL     1      -0.227   2.137  -1.617  1.00  0.00     0.010 A 
HETATM   13  C12 UNL     1      -1.546   2.438  -0.943  1.00  0.00    -0.016 C 
HETATM   14  C13 UNL     1      -2.092   1.614  -0.055  1.00  0.00    -0.005 C 
HETATM   15  C14 UNL     1      -2.516   0.596   0.875  1.00  0.00     0.108 C 
HETATM   16  C15 UNL     1      -4.038   0.757   1.108  1.00  0.00     0.031 C 
HETATM   17  C16 UNL     1      -4.527   0.391  -0.284  1.00  0.00     0.022 C 
HETATM   18  C17 UNL     1      -3.808  -0.934  -0.501  1.00  0.00     0.125 C 
HETATM   19  N1  UNL     1      -2.592  -0.793   0.246  1.00  0.00    -0.358 N 
HETATM   20  C18 UNL     1      -1.709  -1.992   0.256  1.00  0.00     0.129 C 
HETATM   21  C19 UNL     1      -0.378  -2.163  -0.058  1.00  0.00     0.078 C 
HETATM   22  C20 UNL     1       0.974  -2.337  -0.377  1.00  0.00     0.051 C 
HETATM   23  N2  UNL     1       0.782  -3.544   0.127  1.00  0.00    -0.233 NA
HETATM   24  P1  UNL     1      -0.597  -4.229   0.771  1.00  0.00     0.210 P 
HETATM   25  N3  UNL     1      -1.940  -3.198   0.768  1.00  0.00    -0.212 NA
HETATM   26  O1  UNL     1       1.007   1.506  -1.930  1.00  0.00     0.000 OA
HETATM   27  C21 UNL     1       2.204   1.745  -1.208  1.00  0.00     0.043 C 
ENDROOT
TORSDOF 0
