REMARK  9 active torsions:
REMARK  status: ('A' for Active; 'I' for Inactive)
REMARK    1  A    between atoms: C4_4  and  C5_5 
REMARK    2  A    between atoms: C6_7  and  N1_8 
REMARK    3  A    between atoms: N1_8  and  C7_9 
REMARK    4  A    between atoms: C7_9  and  C8_10 
REMARK    5  A    between atoms: C11_13  and  C12_14 
REMARK    6  A    between atoms: C12_14  and  O1_15 
REMARK    7  A    between atoms: C14_17  and  O2_18 
REMARK    8  A    between atoms: O2_18  and  O3_19 
REMARK    9  A    between atoms: O3_19  and  O4_20 
ROOT
HETATM    1  C8  UNL     1      -1.159  -0.590   0.013  1.00  0.00    -0.004 A 
HETATM    2  C9  UNL     1      -1.061   0.631   0.666  1.00  0.00     0.012 A 
HETATM    3  C10 UNL     1      -2.068   1.569   0.711  1.00  0.00     0.010 A 
HETATM    4  C11 UNL     1      -3.284   1.305   0.067  1.00  0.00    -0.032 A 
HETATM    5  C13 UNL     1      -3.403   0.088  -0.593  1.00  0.00     0.050 A 
HETATM    6  C14 UNL     1      -2.372  -0.861  -0.634  1.00  0.00     0.118 A 
ENDROOT
BRANCH   1   7
HETATM    7  C7  UNL     1      -0.209  -1.684  -0.107  1.00  0.00     0.156 C 
BRANCH   7   8
HETATM    8  N1  UNL     1       1.120  -1.482   0.315  1.00  0.00    -0.405 N 
HETATM    9  H7  UNL     1       1.225  -1.278   1.339  1.00  0.00     0.154 HD
BRANCH   8  10
HETATM   10  C6  UNL     1       2.013  -0.762  -0.513  1.00  0.00     0.149 A 
HETATM   11  C4  UNL     1       3.354  -0.562   0.158  1.00  0.00    -0.022 A 
HETATM   12  C3  UNL     1       3.973   0.635   0.162  1.00  0.00     0.038 A 
HETATM   13  C2  UNL     1       3.341   1.770  -0.506  1.00  0.00     0.047 A 
HETATM   14  C1  UNL     1       3.973   2.927  -0.485  1.00  0.00     0.045 C 
HETATM   15  N2  UNL     1       2.085   1.620  -1.156  1.00  0.00    -0.264 NA
HETATM   16  C15 UNL     1       1.529   0.474  -1.135  1.00  0.00     0.119 A 
BRANCH  11  17
HETATM   17  C5  UNL     1       3.990  -1.729   0.835  1.00  0.00     0.259 C 
HETATM   18  F1  UNL     1       3.209  -2.244   1.842  1.00  0.00    -0.251 F 
ENDBRANCH  11  17
ENDBRANCH   8  10
ENDBRANCH   7   8
ENDBRANCH   1   7
BRANCH   6  19
HETATM   19  O2  UNL     1      -2.823  -1.944  -1.365  1.00  0.00    -0.167 OA
BRANCH  19  20
HETATM   20  O3  UNL     1      -2.165  -3.056  -1.638  1.00  0.00    -0.064 OA
BRANCH  20  21
HETATM   21  O4  UNL     1      -2.767  -4.067  -1.081  1.00  0.00    -0.220 OA
HETATM   22  H16 UNL     1      -3.079  -3.836  -0.167  1.00  0.00     0.256 HD
ENDBRANCH  20  21
ENDBRANCH  19  20
ENDBRANCH   6  19
BRANCH   4  23
HETATM   23  C12 UNL     1      -4.293   2.354   0.169  1.00  0.00     0.203 C 
BRANCH  23  24
HETATM   24  O1  UNL     1      -5.106   2.236   1.297  1.00  0.00    -0.396 OA
HETATM   25  H14 UNL     1      -5.761   1.516   1.092  1.00  0.00     0.209 HD
ENDBRANCH  23  24
ENDBRANCH   4  23
TORSDOF 9
