REMARK  5 active torsions:
REMARK  status: ('A' for Active; 'I' for Inactive)
REMARK    1  A    between atoms: N1_1  and  C1_2 
REMARK    2  A    between atoms: C6_8  and  C7_9 
REMARK    3  A    between atoms: C7_9  and  O1_10 
REMARK    4  A    between atoms: O1_10  and  C8_11 
REMARK    5  A    between atoms: N2_14  and  C11_15 
ROOT
HETATM    1  C8  UNL     1       1.809   0.003  -0.033  1.00  0.00     0.090 A 
HETATM    2  C9  UNL     1       1.067  -1.082   0.124  1.00  0.00     0.032 A 
HETATM    3  C10 UNL     1      -0.394  -1.057   0.212  1.00  0.00     0.158 A 
HETATM    4  N2  UNL     1      -0.939   0.285   0.110  1.00  0.00    -0.351 N 
HETATM    5  C19 UNL     1      -0.128   1.454  -0.061  1.00  0.00     0.118 A 
HETATM    6  C20 UNL     1       1.184   1.318  -0.129  1.00  0.00     0.082 A 
HETATM    7 CL1  UNL     1       2.110   2.799  -0.338  1.00  0.00    -0.080 Cl
ENDROOT
BRANCH   1   8
HETATM    8  O1  UNL     1       3.210   0.032  -0.123  1.00  0.00    -0.345 OA
BRANCH   8   9
HETATM    9  C7  UNL     1       4.008  -0.874   0.646  1.00  0.00     0.216 C 
BRANCH   9  10
HETATM   10  C6  UNL     1       5.431  -0.524   0.360  1.00  0.00    -0.005 A 
HETATM   11  C1  UNL     1       6.062  -0.872  -0.807  1.00  0.00     0.034 A 
HETATM   12  C2  UNL     1       7.393  -0.497  -0.975  1.00  0.00     0.032 A 
HETATM   13  C3  UNL     1       8.086   0.207  -0.010  1.00  0.00     0.044 A 
HETATM   14  C4  UNL     1       7.461   0.563   1.170  1.00  0.00     0.117 A 
HETATM   15  F1  UNL     1       8.111   1.259   2.149  1.00  0.00    -0.206 F 
HETATM   16  C5  UNL     1       6.144   0.187   1.325  1.00  0.00     0.053 A 
BRANCH  11  17
HETATM   17  N1  UNL     1       5.341  -1.604  -1.810  1.00  0.00    -0.399 N 
HETATM   18  H1  UNL     1       5.845  -2.533  -1.744  1.00  0.00     0.156 HD
HETATM   19  H2  UNL     1       4.547  -1.299  -2.425  1.00  0.00     0.156 HD
ENDBRANCH  11  17
ENDBRANCH   9  10
ENDBRANCH   8   9
ENDBRANCH   1   8
BRANCH   4  20
HETATM   20  C11 UNL     1      -2.348   0.481   0.180  1.00  0.00     0.068 C 
HETATM   21  C12 UNL     1      -3.116   0.032  -0.831  1.00  0.00     0.056 C 
HETATM   22  C13 UNL     1      -4.298   0.923  -0.875  1.00  0.00     0.033 C 
HETATM   23  N3  UNL     1      -4.173   1.820   0.076  1.00  0.00    -0.253 NA
HETATM   24  C18 UNL     1      -5.424   0.782  -1.849  1.00  0.00     0.059 C 
HETATM   25  C14 UNL     1      -3.390   1.077   1.079  1.00  0.00     0.392 C 
HETATM   26  N4  UNL     1      -4.309   0.054   1.571  1.00  0.00     0.114 N 
HETATM   27  C15 UNL     1      -5.690   0.368   1.260  1.00  0.00     0.273 C 
HETATM   28  H13 UNL     1      -4.109  -0.851   1.054  1.00  0.00     0.319 HD
HETATM   29  C16 UNL     1      -6.257  -0.481   0.145  1.00  0.00     0.030 C 
HETATM   30  C17 UNL     1      -6.654   0.357  -1.065  1.00  0.00     0.008 C 
ENDBRANCH   4  20
TORSDOF 5
