REMARK  7 active torsions:
REMARK  status: ('A' for Active; 'I' for Inactive)
REMARK    1  A    between atoms: C5_6  and  C6_7 
REMARK    2  A    between atoms: C6_7  and  O1_8 
REMARK    3  A    between atoms: O1_8  and  C7_9 
REMARK    4  A    between atoms: C10_12  and  N1_13 
REMARK    5  A    between atoms: N1_13  and  C11_14 
REMARK    6  A    between atoms: C14_20  and  O2_21 
REMARK    7  A    between atoms: O2_21  and  C15_22 
ROOT
HETATM    1  N1  UNL     1       0.859   1.255   1.815  1.00  0.00    -0.363 N 
HETATM    2  H8  UNL     1       0.779   1.958   2.579  1.00  0.00     0.165 HD
ENDROOT
BRANCH   1   3
HETATM    3  C10 UNL     1      -0.553   0.977   1.708  1.00  0.00     0.033 A 
HETATM    4  C9  UNL     1      -1.011   1.668   0.573  1.00  0.00     0.032 A 
HETATM    5  C8  UNL     1      -2.357   1.572   0.244  1.00  0.00     0.041 A 
HETATM    6  C7  UNL     1      -3.232   0.834   0.984  1.00  0.00     0.091 A 
HETATM    7  C22 UNL     1      -2.747   0.152   2.114  1.00  0.00     0.069 A 
HETATM    8  C21 UNL     1      -1.401   0.203   2.508  1.00  0.00     0.056 A 
HETATM    9 CL1  UNL     1      -3.664  -0.856   3.220  1.00  0.00    -0.081 Cl
BRANCH   6  10
HETATM   10  O1  UNL     1      -4.472   0.613   0.864  1.00  0.00    -0.345 OA
BRANCH  10  11
HETATM   11  C6  UNL     1      -5.751   0.400   0.722  1.00  0.00     0.214 C 
BRANCH  11  12
HETATM   12  C5  UNL     1      -6.133  -0.247  -0.583  1.00  0.00    -0.031 A 
HETATM   13  C4  UNL     1      -6.451   0.544  -1.682  1.00  0.00     0.009 A 
HETATM   14  C3  UNL     1      -6.785  -0.066  -2.869  1.00  0.00     0.004 A 
HETATM   15  C2  UNL     1      -6.789  -1.435  -2.907  1.00  0.00     0.042 A 
HETATM   16  C1  UNL     1      -6.477  -2.208  -1.825  1.00  0.00     0.117 A 
HETATM   17  F1  UNL     1      -6.465  -3.583  -1.808  1.00  0.00    -0.206 F 
HETATM   18  C23 UNL     1      -6.132  -1.648  -0.604  1.00  0.00     0.051 A 
ENDBRANCH  11  12
ENDBRANCH  10  11
ENDBRANCH   6  10
ENDBRANCH   1   3
BRANCH   1  19
HETATM   19  C11 UNL     1       2.020   0.801   1.177  1.00  0.00     0.124 C 
HETATM   20  C12 UNL     1       2.354  -0.381   0.755  1.00  0.00     0.121 A 
HETATM   21  N2  UNL     1       1.484  -1.477   0.907  1.00  0.00    -0.269 NA
HETATM   22  C14 UNL     1       3.676  -0.500   0.106  1.00  0.00     0.180 A 
HETATM   23  C13 UNL     1       1.780  -2.662   0.489  1.00  0.00     0.062 A 
HETATM   24  B1  UNL     1       3.183  -2.833  -0.211  1.00  0.00     0.343 B 
HETATM   25  N3  UNL     1       4.099  -1.623  -0.357  1.00  0.00    -0.330 NA
HETATM   26  H11 UNL     1       3.522  -3.938  -0.442  1.00  0.00     0.008 HD
BRANCH  22  27
HETATM   27  O2  UNL     1       4.508   0.564  -0.037  1.00  0.00    -0.291 OA
BRANCH  27  28
HETATM   28  C15 UNL     1       5.849   0.575  -0.342  1.00  0.00     0.077 A 
HETATM   29  C16 UNL     1       6.292   1.905  -0.391  1.00  0.00     0.037 A 
HETATM   30  C17 UNL     1       7.614   2.233  -0.679  1.00  0.00     0.003 A 
HETATM   31  C18 UNL     1       8.536   1.251  -0.928  1.00  0.00     0.000 A 
HETATM   32  C19 UNL     1       8.099  -0.045  -0.878  1.00  0.00     0.003 A 
HETATM   33  C20 UNL     1       6.801  -0.384  -0.596  1.00  0.00     0.037 A 
ENDBRANCH  27  28
ENDBRANCH  22  27
ENDBRANCH   1  19
TORSDOF 7
