REMARK  7 active torsions:
REMARK  status: ('A' for Active; 'I' for Inactive)
REMARK    1  A    between atoms: C5_6  and  C6_7 
REMARK    2  A    between atoms: C6_7  and  O1_8 
REMARK    3  A    between atoms: O1_8  and  C7_9 
REMARK    4  A    between atoms: C7_9  and  C8_10 
REMARK    5  A    between atoms: C9_12  and  C10_13 
REMARK    6  A    between atoms: C16_21  and  O2_22 
REMARK    7  A    between atoms: O2_22  and  C17_23 
ROOT
HETATM    1  C10 UNL     1       0.094  -2.241  -0.593  1.00  0.00     0.030 C 
HETATM    2  C11 UNL     1      -0.388  -3.131  -1.435  1.00  0.00    -0.007 C 
HETATM    3  C12 UNL     1      -1.424  -3.696  -2.302  1.00  0.00    -0.016 C 
HETATM    4  B1  UNL     1      -2.689  -2.680  -2.528  1.00  0.00     0.251 B 
HETATM    5  C13 UNL     1      -3.140  -1.473  -1.729  1.00  0.00     0.172 A 
HETATM    6  N1  UNL     1      -2.804  -0.761  -0.832  1.00  0.00     0.134 N 
HETATM    7  C14 UNL     1      -1.788  -0.594  -0.080  1.00  0.00     0.242 A 
HETATM    8  C15 UNL     1      -2.563   0.365   0.421  1.00  0.00     0.124 A 
HETATM    9  C16 UNL     1      -3.753   0.278  -0.349  1.00  0.00     0.380 A 
HETATM   10  N2  UNL     1      -4.022  -0.613  -1.389  1.00  0.00    -0.014 NA
HETATM   11  N3  UNL     1      -0.551  -1.179   0.078  1.00  0.00    -0.335 N 
HETATM   12  H12 UNL     1      -3.781  -3.302  -2.481  1.00  0.00    -0.018 HD
HETATM   13  H19 UNL     1      -0.371  -0.514   0.848  1.00  0.00     0.167 HD
ENDROOT
BRANCH   1  14
HETATM   14  C9  UNL     1       1.422  -2.113  -0.140  1.00  0.00     0.051 C 
HETATM   15  C8  UNL     1       2.648  -2.537  -0.161  1.00  0.00     0.037 C 
HETATM   16 CL1  UNL     1       2.892  -3.930  -1.238  1.00  0.00    -0.087 Cl
BRANCH  15  17
HETATM   17  C7  UNL     1       4.044  -2.379   0.332  1.00  0.00     0.219 C 
BRANCH  17  18
HETATM   18  O1  UNL     1       4.974  -2.149  -0.635  1.00  0.00    -0.381 OA
BRANCH  18  19
HETATM   19  C6  UNL     1       4.808  -1.003  -1.361  1.00  0.00     0.206 C 
BRANCH  19  20
HETATM   20  C5  UNL     1       4.896   0.198  -0.503  1.00  0.00    -0.032 A 
HETATM   21  C4  UNL     1       6.193   0.688  -0.303  1.00  0.00     0.009 A 
HETATM   22  C3  UNL     1       6.525   1.782   0.439  1.00  0.00     0.004 A 
HETATM   23  C2  UNL     1       5.497   2.486   1.061  1.00  0.00     0.042 A 
HETATM   24  C1  UNL     1       4.211   2.029   0.883  1.00  0.00     0.117 A 
HETATM   25  F1  UNL     1       3.174   2.686   1.471  1.00  0.00    -0.206 F 
HETATM   26  C23 UNL     1       3.933   0.927   0.129  1.00  0.00     0.051 A 
ENDBRANCH  19  20
ENDBRANCH  18  19
ENDBRANCH  17  18
ENDBRANCH  15  17
ENDBRANCH   1  14
BRANCH   9  27
HETATM   27  O2  UNL     1      -4.816   1.067  -0.170  1.00  0.00    -0.293 OA
BRANCH  27  28
HETATM   28  C17 UNL     1      -5.021   1.980   0.762  1.00  0.00     0.073 A 
HETATM   29  C18 UNL     1      -4.393   2.360   1.917  1.00  0.00     0.037 A 
HETATM   30  C19 UNL     1      -4.843   3.379   2.719  1.00  0.00     0.003 A 
HETATM   31  C20 UNL     1      -5.986   3.989   2.259  1.00  0.00     0.000 A 
HETATM   32  C21 UNL     1      -6.725   3.722   1.126  1.00  0.00     0.003 A 
HETATM   33  C22 UNL     1      -6.184   2.665   0.375  1.00  0.00     0.037 A 
ENDBRANCH  27  28
ENDBRANCH   9  27
TORSDOF 7
