REMARK  5 active torsions:
REMARK  status: ('A' for Active; 'I' for Inactive)
REMARK    1  A    between atoms: O1_2  and  C2_3 
REMARK    2  A    between atoms: C2_3  and  O2_4 
REMARK    3  A    between atoms: O2_4  and  N1_5 
REMARK    4  A    between atoms: C10_16  and  N4_17 
REMARK    5  A    between atoms: N4_17  and  C11_18 
ROOT
HETATM    1  N1  UNL     1       4.191  -0.776   0.433  1.00  0.00    -0.261 N 
HETATM    2  C3  UNL     1       3.660  -1.232   1.670  1.00  0.00     0.118 A 
HETATM    3  C4  UNL     1       2.378  -1.486   1.805  1.00  0.00     0.030 A 
HETATM    4  C5  UNL     1       1.418  -1.320   0.692  1.00  0.00    -0.008 A 
HETATM    5  C6  UNL     1       1.939  -0.900  -0.461  1.00  0.00     0.083 A 
HETATM    6  C7  UNL     1       3.355  -0.597  -0.715  1.00  0.00     0.221 A 
HETATM    7  O3  UNL     1       1.120  -0.698  -1.601  1.00  0.00    -0.292 OA
HETATM    8  C8  UNL     1      -0.197  -0.175  -1.567  1.00  0.00     0.201 A 
HETATM    9  N2  UNL     1      -0.496   0.688  -2.583  1.00  0.00    -0.215 NA
HETATM   10  C9  UNL     1      -1.731   1.234  -2.621  1.00  0.00     0.238 A 
HETATM   11  N3  UNL     1      -2.642   0.950  -1.701  1.00  0.00    -0.222 NA
HETATM   12  C10 UNL     1      -2.441   0.127  -0.682  1.00  0.00     0.160 A 
HETATM   13  C17 UNL     1      -1.200  -0.432  -0.633  1.00  0.00     0.129 A 
HETATM   14  N5  UNL     1      -1.020  -1.347   0.455  1.00  0.00    -0.379 N 
HETATM   15  C18 UNL     1       0.108  -1.695   1.270  1.00  0.00     0.161 C 
HETATM   16  H15 UNL     1      -1.923  -1.869   0.677  1.00  0.00     0.160 HD
ENDROOT
BRANCH  12  17
HETATM   17  N4  UNL     1      -3.412  -0.161   0.291  1.00  0.00    -0.339 N 
HETATM   18  H11 UNL     1      -3.255  -0.725   1.148  1.00  0.00     0.167 HD
BRANCH  17  19
HETATM   19  C11 UNL     1      -4.759   0.277   0.306  1.00  0.00     0.035 A 
HETATM   20  C12 UNL     1      -5.330   0.977  -0.727  1.00  0.00     0.032 A 
HETATM   21  C13 UNL     1      -6.629   1.426  -0.759  1.00  0.00     0.046 A 
HETATM   22  C14 UNL     1      -7.470   1.183   0.305  1.00  0.00     0.138 A 
HETATM   23  F1  UNL     1      -8.759   1.592   0.352  1.00  0.00    -0.204 F 
HETATM   24  C15 UNL     1      -6.952   0.484   1.372  1.00  0.00     0.074 A 
HETATM   25 CL1  UNL     1      -7.958   0.136   2.757  1.00  0.00    -0.081 Cl
HETATM   26  C16 UNL     1      -5.647   0.068   1.333  1.00  0.00     0.056 A 
ENDBRANCH  17  19
ENDBRANCH  12  17
BRANCH   1  27
HETATM   27  O2  UNL     1       5.511  -0.480   0.294  1.00  0.00    -0.252 OA
BRANCH  27  28
HETATM   28  C2  UNL     1       5.731   0.427  -0.722  1.00  0.00     0.369 C 
BRANCH  28  29
HETATM   29  O1  UNL     1       7.099   0.684  -0.793  1.00  0.00    -0.369 OA
HETATM   30  C1  UNL     1       7.494   1.214   0.443  1.00  0.00     0.204 C 
ENDBRANCH  28  29
ENDBRANCH  27  28
ENDBRANCH   1  27
TORSDOF 5
