REMARK  6 active torsions:
REMARK  status: ('A' for Active; 'I' for Inactive)
REMARK    1  A    between atoms: C5_6  and  C6_7 
REMARK    2  A    between atoms: C6_7  and  O1_8 
REMARK    3  A    between atoms: O1_8  and  C7_9 
REMARK    4  A    between atoms: C8_10  and  N1_11 
REMARK    5  A    between atoms: N1_11  and  C9_12 
REMARK    6  A    between atoms: C11_14  and  N2_15 
ROOT
HETATM    1  C7  UNL     1       1.958  -0.384   0.718  1.00  0.00     0.117 A 
HETATM    2  C8  UNL     1       0.663  -0.056   0.662  1.00  0.00     0.070 A 
HETATM    3  C17 UNL     1       0.436  -0.745   1.922  1.00  0.00     0.059 A 
HETATM    4  C18 UNL     1       1.733  -1.088   2.003  1.00  0.00     0.071 A 
HETATM    5 CL1  UNL     1       2.378  -2.033   3.360  1.00  0.00    -0.081 Cl
ENDROOT
BRANCH   2   6
HETATM    6  N1  UNL     1      -0.013   0.688  -0.343  1.00  0.00    -0.339 N 
HETATM    7  H6  UNL     1       0.333   0.796  -1.315  1.00  0.00     0.167 HD
BRANCH   6   8
HETATM    8  C9  UNL     1      -1.219   1.272   0.126  1.00  0.00     0.133 A 
HETATM    9  C10 UNL     1      -2.339   0.486  -0.052  1.00  0.00     0.100 A 
HETATM   10  C11 UNL     1      -3.621   0.875   0.341  1.00  0.00     0.130 A 
HETATM   11  N3  UNL     1      -3.758   2.078   0.922  1.00  0.00    -0.224 NA
HETATM   12  C16 UNL     1      -2.670   2.850   1.098  1.00  0.00     0.237 A 
HETATM   13  N4  UNL     1      -1.433   2.479   0.720  1.00  0.00    -0.224 NA
BRANCH  10  14
HETATM   14  N2  UNL     1      -4.741   0.035   0.136  1.00  0.00    -0.366 N 
HETATM   15  C12 UNL     1      -6.119   0.352   0.531  1.00  0.00     0.124 C 
HETATM   16  C13 UNL     1      -6.920  -0.849   0.076  1.00  0.00     0.021 C 
HETATM   17  C14 UNL     1      -6.101  -1.288  -1.138  1.00  0.00     0.021 C 
HETATM   18  C15 UNL     1      -4.706  -1.276  -0.500  1.00  0.00     0.124 C 
ENDBRANCH  10  14
ENDBRANCH   6   8
ENDBRANCH   2   6
BRANCH   1  19
HETATM   19  O1  UNL     1       3.264  -0.412   0.259  1.00  0.00    -0.343 OA
BRANCH  19  20
HETATM   20  C6  UNL     1       4.022   0.743  -0.048  1.00  0.00     0.214 C 
BRANCH  20  21
HETATM   21  C5  UNL     1       5.366   0.253  -0.512  1.00  0.00    -0.031 A 
HETATM   22  C4  UNL     1       6.362   0.077   0.445  1.00  0.00     0.009 A 
HETATM   23  C3  UNL     1       7.613  -0.370   0.079  1.00  0.00     0.004 A 
HETATM   24  C2  UNL     1       7.920  -0.658  -1.240  1.00  0.00     0.042 A 
HETATM   25  C1  UNL     1       6.910  -0.477  -2.192  1.00  0.00     0.117 A 
HETATM   26  F1  UNL     1       7.184  -0.751  -3.484  1.00  0.00    -0.206 F 
HETATM   27  C19 UNL     1       5.651  -0.029  -1.837  1.00  0.00     0.051 A 
ENDBRANCH  20  21
ENDBRANCH  19  20
ENDBRANCH   1  19
TORSDOF 6
