REMARK  6 active torsions:
REMARK  status: ('A' for Active; 'I' for Inactive)
REMARK    1  A    between atoms: C4_5  and  C5_6 
REMARK    2  A    between atoms: C5_6  and  O1_7 
REMARK    3  A    between atoms: O1_7  and  C6_8 
REMARK    4  A    between atoms: C9_11  and  N1_12 
REMARK    5  A    between atoms: N1_12  and  C10_13 
REMARK    6  A    between atoms: C12_15  and  N2_16 
ROOT
HETATM    1  C6  UNL     1      -3.503   0.818   1.027  1.00  0.00     0.091 A 
HETATM    2  C7  UNL     1      -3.182   0.738  -0.293  1.00  0.00     0.041 A 
HETATM    3  C8  UNL     1      -1.882   0.660  -0.729  1.00  0.00     0.032 A 
HETATM    4  C9  UNL     1      -0.806   0.657   0.144  1.00  0.00     0.035 A 
HETATM    5  C18 UNL     1      -1.163   0.740   1.473  1.00  0.00     0.056 A 
HETATM    6  C19 UNL     1      -2.453   0.819   1.951  1.00  0.00     0.069 A 
HETATM    7 CL1  UNL     1      -2.759   0.920   3.691  1.00  0.00    -0.081 Cl
ENDROOT
BRANCH   4   8
HETATM    8  N1  UNL     1       0.523   0.576  -0.345  1.00  0.00    -0.341 N 
HETATM    9  H8  UNL     1       0.607   0.519  -1.389  1.00  0.00     0.167 HD
BRANCH   8  10
HETATM   10  C10 UNL     1       1.720   0.562   0.400  1.00  0.00     0.133 A 
HETATM   11  C11 UNL     1       2.920   0.476  -0.269  1.00  0.00     0.100 A 
HETATM   12  C12 UNL     1       4.153   0.453   0.331  1.00  0.00     0.130 A 
HETATM   13  N3  UNL     1       4.193   0.521   1.670  1.00  0.00    -0.224 NA
HETATM   14  C17 UNL     1       3.037   0.608   2.382  1.00  0.00     0.237 A 
HETATM   15  N4  UNL     1       1.873   0.624   1.725  1.00  0.00    -0.224 NA
BRANCH  12  16
HETATM   16  N2  UNL     1       5.363   0.363  -0.402  1.00  0.00    -0.366 N 
HETATM   17  C13 UNL     1       5.693   0.278  -1.800  1.00  0.00     0.124 C 
HETATM   18  C14 UNL     1       6.698  -0.864  -1.890  1.00  0.00     0.021 C 
HETATM   19  C15 UNL     1       7.374  -0.819  -0.538  1.00  0.00     0.021 C 
HETATM   20  C16 UNL     1       6.705   0.331   0.141  1.00  0.00     0.124 C 
ENDBRANCH  12  16
ENDBRANCH   8  10
ENDBRANCH   4   8
BRANCH   1  21
HETATM   21  O1  UNL     1      -4.761   0.902   1.593  1.00  0.00    -0.345 OA
BRANCH  21  22
HETATM   22  C5  UNL     1      -5.920   0.900   0.794  1.00  0.00     0.214 C 
BRANCH  22  23
HETATM   23  C4  UNL     1      -6.104  -0.338   0.011  1.00  0.00    -0.035 A 
HETATM   24  C3  UNL     1      -7.323  -0.293  -0.824  1.00  0.00     0.008 A 
HETATM   25  C2  UNL     1      -7.430  -1.422  -1.503  1.00  0.00     0.014 A 
HETATM   26  C1  UNL     1      -6.306  -2.323  -1.193  1.00  0.00     0.216 A 
HETATM   27  F1  UNL     1      -5.590  -2.537  -2.371  1.00  0.00    -0.241 F 
HETATM   28  C20 UNL     1      -5.525  -1.525  -0.217  1.00  0.00     0.023 A 
ENDBRANCH  22  23
ENDBRANCH  21  22
ENDBRANCH   1  21
TORSDOF 6
