REMARK  3 active torsions:
REMARK  status: ('A' for Active; 'I' for Inactive)
REMARK    1  A    between atoms: C4_5  and  C5_6 
REMARK    2  A    between atoms: C6_7  and  O1_8 
REMARK    3  A    between atoms: O1_8  and  C7_9 
ROOT
HETATM    1  C1  UNL     1       3.967   2.425  -0.861  1.00  0.00     0.066 C 
HETATM    2  C2  UNL     1       3.352   1.210  -0.285  1.00  0.00     0.017 A 
HETATM    3  N1  UNL     1       2.102   1.033  -0.019  1.00  0.00    -0.257 NA
HETATM    4  C3  UNL     1       1.837  -0.241   0.525  1.00  0.00     0.064 A 
HETATM    5  C4  UNL     1       0.671  -0.697   0.888  1.00  0.00     0.034 C 
HETATM    6  C13 UNL     1       3.138  -0.894   0.578  1.00  0.00    -0.009 A 
HETATM    7  C14 UNL     1       3.402  -2.110   1.016  1.00  0.00     0.094 C 
HETATM    8 CL1  UNL     1       2.390  -3.352   1.665  1.00  0.00    -0.096 Cl
HETATM    9  C15 UNL     1       4.195   0.008   0.056  1.00  0.00     0.065 A 
HETATM   10  C16 UNL     1       4.829  -0.538  -1.202  1.00  0.00     0.021 C 
ENDROOT
BRANCH   5  11
HETATM   11  C5  UNL     1      -0.475   0.193   0.716  1.00  0.00     0.027 C 
HETATM   12  C6  UNL     1      -1.691  -0.206   1.065  1.00  0.00     0.142 C 
BRANCH  12  13
HETATM   13  O1  UNL     1      -2.816   0.574   0.934  1.00  0.00    -0.323 OA
BRANCH  13  14
HETATM   14  C7  UNL     1      -3.982   0.069   0.391  1.00  0.00     0.077 A 
HETATM   15  C8  UNL     1      -4.992   1.030   0.355  1.00  0.00     0.037 A 
HETATM   16  C9  UNL     1      -6.241   0.710  -0.158  1.00  0.00     0.006 A 
HETATM   17  C10 UNL     1      -6.489  -0.559  -0.634  1.00  0.00     0.042 A 
HETATM   18  C11 UNL     1      -5.482  -1.500  -0.593  1.00  0.00     0.119 A 
HETATM   19  F1  UNL     1      -5.644  -2.783  -1.045  1.00  0.00    -0.206 F 
HETATM   20  C12 UNL     1      -4.229  -1.192  -0.082  1.00  0.00     0.079 A 
ENDBRANCH  13  14
ENDBRANCH  12  13
ENDBRANCH   5  11
TORSDOF 3
