REMARK  1 active torsions:
REMARK  status: ('A' for Active; 'I' for Inactive)
REMARK    1  A    between atoms: C10_11  and  O1_12 
ROOT
HETATM    1  C1  UNL     1      -3.955  -0.146  -1.816  1.00  0.00     0.051 C 
HETATM    2  C2  UNL     1      -2.853  -0.756  -1.038  1.00  0.00    -0.023 C 
HETATM    3  C3  UNL     1      -2.679  -2.067  -1.128  1.00  0.00     0.024 C 
HETATM    4  C4  UNL     1      -2.462  -2.610   0.055  1.00  0.00     0.128 C 
HETATM    5  F1  UNL     1      -2.332  -3.205   1.287  1.00  0.00    -0.205 F 
HETATM    6  C5  UNL     1      -1.058  -2.248   0.156  1.00  0.00     0.043 C 
HETATM    7  C6  UNL     1       0.141  -2.640   0.682  1.00  0.00     0.003 C 
HETATM    8  C7  UNL     1       1.568  -2.603   0.993  1.00  0.00    -0.004 C 
HETATM    9  C8  UNL     1       2.365  -1.644   0.576  1.00  0.00    -0.024 C 
HETATM   10  C9  UNL     1       2.400  -0.389  -0.206  1.00  0.00     0.064 C 
HETATM   11  C10 UNL     1       2.830   0.789   0.626  1.00  0.00     0.157 C 
HETATM   12  C11 UNL     1       2.781   2.024  -0.185  1.00  0.00    -0.001 A 
HETATM   13  C12 UNL     1       3.211   3.092  -0.825  1.00  0.00     0.014 A 
HETATM   14  C13 UNL     1       1.842   3.410  -1.208  1.00  0.00     0.033 A 
HETATM   15  C14 UNL     1       1.373   2.319  -0.559  1.00  0.00     0.067 A 
HETATM   16  N1  UNL     1       0.137   1.685  -0.325  1.00  0.00    -0.242 N 
HETATM   17  C15 UNL     1      -0.579   1.804   0.726  1.00  0.00     0.233 A 
HETATM   18  N2  UNL     1      -1.038   0.974  -0.305  1.00  0.00    -0.246 N 
HETATM   19  C16 UNL     1      -2.091   0.195  -0.243  1.00  0.00     0.039 C 
HETATM   20  C17 UNL     1      -2.852   0.293   1.025  1.00  0.00     0.071 C 
ENDROOT
BRANCH  11  21
HETATM   21  O1  UNL     1       4.133   0.553   1.051  1.00  0.00    -0.391 OA
HETATM   22  H11 UNL     1       4.701   0.114   0.380  1.00  0.00     0.210 HD
ENDBRANCH  11  21
TORSDOF 1
