REMARK  7 active torsions:
REMARK  status: ('A' for Active; 'I' for Inactive)
REMARK    1  A    between atoms: C2_2  and  C3_3 
REMARK    2  A    between atoms: C5_5  and  N1_6 
REMARK    3  A    between atoms: N1_6  and  C6_7 
REMARK    4  A    between atoms: C9_10  and  O1_11 
REMARK    5  A    between atoms: O1_11  and  C10_12 
REMARK    6  A    between atoms: C10_12  and  C11_13 
REMARK    7  A    between atoms: C11_13  and  C12_14 
ROOT
HETATM    1  C6  UNL     1       1.691   0.108  -1.323  1.00  0.00     0.035 A 
HETATM    2  C7  UNL     1       0.747   0.202  -0.325  1.00  0.00     0.032 A 
HETATM    3  C8  UNL     1      -0.621   0.167  -0.485  1.00  0.00     0.041 A 
HETATM    4  C9  UNL     1      -1.105   0.024  -1.768  1.00  0.00     0.090 A 
HETATM    5  C18 UNL     1      -0.212  -0.076  -2.812  1.00  0.00     0.069 A 
HETATM    6 CL1  UNL     1      -0.813  -0.257  -4.446  1.00  0.00    -0.081 Cl
HETATM    7  C19 UNL     1       1.140  -0.032  -2.570  1.00  0.00     0.056 A 
ENDROOT
BRANCH   1   8
HETATM    8  N1  UNL     1       3.085   0.145  -1.144  1.00  0.00    -0.341 N 
HETATM    9  H7  UNL     1       3.653   0.059  -2.030  1.00  0.00     0.167 HD
BRANCH   8  10
HETATM   10  C5  UNL     1       3.807   0.283   0.068  1.00  0.00     0.131 A 
HETATM   11  C4  UNL     1       5.205   0.295   0.006  1.00  0.00     0.077 A 
HETATM   12  C3  UNL     1       6.017   0.422   1.107  1.00  0.00     0.039 A 
HETATM   13  N3  UNL     1       5.422   0.541   2.312  1.00  0.00    -0.246 NA
HETATM   14  C20 UNL     1       4.079   0.528   2.360  1.00  0.00     0.235 A 
HETATM   15  N2  UNL     1       3.298   0.405   1.289  1.00  0.00    -0.224 NA
BRANCH  12  16
HETATM   16  C2  UNL     1       7.495   0.428   0.976  1.00  0.00     0.055 C 
HETATM   17  C1  UNL     1       8.003  -1.014   1.085  1.00  0.00     0.011 C 
ENDBRANCH  12  16
ENDBRANCH   8  10
ENDBRANCH   1   8
BRANCH   4  18
HETATM   18  O1  UNL     1      -2.475  -0.017  -1.985  1.00  0.00    -0.349 OA
BRANCH  18  19
HETATM   19  C10 UNL     1      -3.381   0.085  -0.906  1.00  0.00     0.180 C 
BRANCH  19  20
HETATM   20  C11 UNL     1      -4.822   0.017  -1.372  1.00  0.00     0.065 C 
BRANCH  20  21
HETATM   21  C12 UNL     1      -5.746   0.127  -0.228  1.00  0.00    -0.053 A 
HETATM   22  C13 UNL     1      -6.275   1.276   0.293  1.00  0.00     0.007 A 
HETATM   23  C14 UNL     1      -7.142   1.254   1.382  1.00  0.00     0.003 A 
HETATM   24  C15 UNL     1      -7.489   0.031   1.968  1.00  0.00     0.042 A 
HETATM   25  C16 UNL     1      -6.961  -1.157   1.451  1.00  0.00     0.116 A 
HETATM   26  F1  UNL     1      -7.283  -2.345   2.002  1.00  0.00    -0.206 F 
HETATM   27  C17 UNL     1      -6.104  -1.086   0.370  1.00  0.00     0.049 A 
ENDBRANCH  20  21
ENDBRANCH  19  20
ENDBRANCH  18  19
ENDBRANCH   4  18
TORSDOF 7
