REMARK  4 active torsions:
REMARK  status: ('A' for Active; 'I' for Inactive)
REMARK    1  A    between atoms: C4_6  and  N3_7 
REMARK    2  A    between atoms: C7_10  and  O1_11 
REMARK    3  A    between atoms: O1_11  and  C8_12 
REMARK    4  A    between atoms: C8_12  and  C9_13 
ROOT
HETATM    1  N3  UNL     1      -1.784   0.120   0.039  1.00  0.00    -0.360 N 
HETATM    2  C5  UNL     1      -1.113  -0.413   1.207  1.00  0.00     0.154 C 
HETATM    3  C6  UNL     1       0.366  -0.293   1.111  1.00  0.00     0.026 C 
HETATM    4  C7  UNL     1       1.014   0.096   0.020  1.00  0.00     0.064 C 
HETATM    5  C15 UNL     1       0.199   0.431  -1.180  1.00  0.00     0.156 C 
HETATM    6 CL1  UNL     1       1.066   1.359  -2.375  1.00  0.00    -0.116 Cl
HETATM    7  C16 UNL     1      -1.036   1.157  -0.651  1.00  0.00     0.151 C 
ENDROOT
BRANCH   4   8
HETATM    8  O1  UNL     1       2.380   0.121   0.198  1.00  0.00    -0.350 OA
BRANCH   8   9
HETATM    9  C8  UNL     1       3.358   0.289  -0.777  1.00  0.00     0.214 C 
BRANCH   9  10
HETATM   10  C9  UNL     1       4.680   0.238  -0.055  1.00  0.00    -0.031 A 
HETATM   11  C10 UNL     1       5.384  -0.914   0.153  1.00  0.00     0.009 A 
HETATM   12  C11 UNL     1       6.592  -0.937   0.816  1.00  0.00     0.004 A 
HETATM   13  C12 UNL     1       7.093   0.253   1.279  1.00  0.00     0.042 A 
HETATM   14  C13 UNL     1       6.451   1.463   1.114  1.00  0.00     0.117 A 
HETATM   15  F1  UNL     1       6.906   2.652   1.552  1.00  0.00    -0.206 F 
HETATM   16  C14 UNL     1       5.256   1.406   0.446  1.00  0.00     0.051 A 
ENDBRANCH   9  10
ENDBRANCH   8   9
ENDBRANCH   4   8
BRANCH   1  17
HETATM   17  C4  UNL     1      -3.062  -0.340  -0.385  1.00  0.00     0.135 A 
HETATM   18  N2  UNL     1      -3.135  -0.880  -1.636  1.00  0.00    -0.224 NA
HETATM   19  C3  UNL     1      -4.286  -1.349  -2.149  1.00  0.00     0.235 A 
HETATM   20  N1  UNL     1      -5.434  -1.298  -1.423  1.00  0.00    -0.246 NA
HETATM   21  C2  UNL     1      -5.403  -0.766  -0.171  1.00  0.00     0.041 A 
HETATM   22  C1  UNL     1      -6.651  -0.700   0.641  1.00  0.00     0.071 C 
HETATM   23  C17 UNL     1      -4.228  -0.282   0.364  1.00  0.00     0.008 A 
HETATM   24  C18 UNL     1      -4.133   0.306   1.718  1.00  0.00     0.054 C 
ENDBRANCH   1  17
TORSDOF 4
