REMARK  5 active torsions:
REMARK  status: ('A' for Active; 'I' for Inactive)
REMARK    1  A    between atoms: C4_6  and  N3_7 
REMARK    2  A    between atoms: N3_7  and  C5_8 
REMARK    3  A    between atoms: C8_11  and  O1_12 
REMARK    4  A    between atoms: O1_12  and  C9_13 
REMARK    5  A    between atoms: C9_13  and  C10_14 
ROOT
HETATM    1  C5  UNL     1       1.290  -0.099  -1.250  1.00  0.00     0.035 A 
HETATM    2  C6  UNL     1       0.761  -1.006  -0.366  1.00  0.00     0.032 A 
HETATM    3  C7  UNL     1      -0.570  -0.912  -0.034  1.00  0.00     0.041 A 
HETATM    4  C8  UNL     1      -1.352   0.084  -0.589  1.00  0.00     0.091 A 
HETATM    5  C16 UNL     1      -0.791   0.999  -1.490  1.00  0.00     0.069 A 
HETATM    6 CL1  UNL     1      -1.707   2.304  -2.251  1.00  0.00    -0.081 Cl
HETATM    7  C17 UNL     1       0.557   0.908  -1.829  1.00  0.00     0.056 A 
ENDROOT
BRANCH   1   8
HETATM    8  N3  UNL     1       2.660  -0.161  -1.618  1.00  0.00    -0.340 N 
HETATM    9  H5  UNL     1       3.104   0.428  -2.348  1.00  0.00     0.167 HD
BRANCH   8  10
HETATM   10  C4  UNL     1       3.731  -0.964  -1.149  1.00  0.00     0.137 A 
HETATM   11  N2  UNL     1       4.064  -2.225  -1.561  1.00  0.00    -0.224 NA
HETATM   12  C3  UNL     1       5.146  -2.834  -0.990  1.00  0.00     0.235 A 
HETATM   13  N1  UNL     1       5.899  -2.227  -0.026  1.00  0.00    -0.246 NA
HETATM   14  C2  UNL     1       5.602  -0.990   0.403  1.00  0.00     0.041 A 
HETATM   15  C1  UNL     1       6.420  -0.290   1.457  1.00  0.00     0.071 C 
HETATM   16  C18 UNL     1       4.511  -0.351  -0.160  1.00  0.00     0.008 A 
HETATM   17  C19 UNL     1       4.217   1.027   0.349  1.00  0.00     0.054 C 
ENDBRANCH   8  10
ENDBRANCH   1   8
BRANCH   4  18
HETATM   18  O1  UNL     1      -2.703   0.332  -0.375  1.00  0.00    -0.345 OA
BRANCH  18  19
HETATM   19  C9  UNL     1      -3.515  -0.423   0.467  1.00  0.00     0.214 C 
BRANCH  19  20
HETATM   20  C10 UNL     1      -4.885   0.165   0.436  1.00  0.00    -0.031 A 
HETATM   21  C11 UNL     1      -5.131   1.129   1.425  1.00  0.00     0.009 A 
HETATM   22  C12 UNL     1      -6.366   1.768   1.525  1.00  0.00     0.004 A 
HETATM   23  C13 UNL     1      -7.381   1.447   0.623  1.00  0.00     0.042 A 
HETATM   24  C14 UNL     1      -7.061   0.494  -0.315  1.00  0.00     0.117 A 
HETATM   25  F1  UNL     1      -8.076   0.205  -1.182  1.00  0.00    -0.206 F 
HETATM   26  C15 UNL     1      -5.881  -0.158  -0.459  1.00  0.00     0.051 A 
ENDBRANCH  19  20
ENDBRANCH  18  19
ENDBRANCH   4  18
TORSDOF 5
