REMARK  10 active torsions:
REMARK  status: ('A' for Active; 'I' for Inactive)
REMARK    1  A    between atoms: C4_6  and  N3_7 
REMARK    2  A    between atoms: N3_7  and  C5_8 
REMARK    3  A    between atoms: C7_10  and  O1_11 
REMARK    4  A    between atoms: O1_11  and  C8_12 
REMARK    5  A    between atoms: C8_12  and  C9_13 
REMARK    6  A    between atoms: C9_13  and  C10_14 
REMARK    7  A    between atoms: C10_14  and  C11_15 
REMARK    8  A    between atoms: C11_15  and  C12_16 
REMARK    9  A    between atoms: C12_16  and  C13_17 
REMARK   10  A    between atoms: C13_17  and  C14_18 
ROOT
HETATM    1  C5  UNL     1      -1.897  -0.164   1.402  1.00  0.00     0.034 A 
HETATM    2  C6  UNL     1      -0.666   0.306   1.164  1.00  0.00     0.040 A 
HETATM    3  C7  UNL     1       0.440  -0.652   1.520  1.00  0.00     0.191 A 
HETATM    4  C15 UNL     1      -0.392  -1.797   2.024  1.00  0.00     0.046 A 
HETATM    5 CL1  UNL     1       0.212  -3.323   2.633  1.00  0.00    -0.086 Cl
HETATM    6  C16 UNL     1      -1.685  -1.514   1.953  1.00  0.00     0.051 A 
ENDROOT
BRANCH   1   7
HETATM    7  N3  UNL     1      -3.173   0.465   1.188  1.00  0.00    -0.341 N 
HETATM    8  H5  UNL     1      -3.456   1.146   1.903  1.00  0.00     0.167 HD
BRANCH   7   9
HETATM    9  C4  UNL     1      -3.976   0.151   0.054  1.00  0.00     0.137 A 
HETATM   10  N2  UNL     1      -4.837  -0.877   0.269  1.00  0.00    -0.224 NA
HETATM   11  C3  UNL     1      -5.654  -1.265  -0.743  1.00  0.00     0.235 A 
HETATM   12  N1  UNL     1      -5.613  -0.647  -1.930  1.00  0.00    -0.246 NA
HETATM   13  C2  UNL     1      -4.772   0.384  -2.197  1.00  0.00     0.041 A 
HETATM   14  C1  UNL     1      -4.724   1.069  -3.512  1.00  0.00     0.071 C 
HETATM   15  C17 UNL     1      -3.940   0.784  -1.178  1.00  0.00     0.008 A 
HETATM   16  C18 UNL     1      -2.971   1.892  -1.321  1.00  0.00     0.054 C 
ENDBRANCH   7   9
ENDBRANCH   1   7
BRANCH   3  17
HETATM   17  O1  UNL     1       1.091  -0.133   2.606  1.00  0.00    -0.373 OA
BRANCH  17  18
HETATM   18  C8  UNL     1       2.466  -0.013   2.474  1.00  0.00     0.196 C 
BRANCH  18  19
HETATM   19  C9  UNL     1       3.093  -1.324   2.229  1.00  0.00    -0.004 C 
BRANCH  19  20
HETATM   20  C10 UNL     1       3.841  -1.906   1.273  1.00  0.00    -0.023 C 
BRANCH  20  21
HETATM   21  C11 UNL     1       3.913  -0.775   0.378  1.00  0.00     0.020 C 
BRANCH  21  22
HETATM   22  C12 UNL     1       4.282  -0.159  -0.703  1.00  0.00     0.001 C 
BRANCH  22  23
HETATM   23  C13 UNL     1       4.872   0.208  -2.016  1.00  0.00     0.037 C 
BRANCH  23  24
HETATM   24  C14 UNL     1       5.818   1.367  -1.850  1.00  0.00     0.222 C 
HETATM   25  F1  UNL     1       6.369   1.702  -3.066  1.00  0.00    -0.255 F 
ENDBRANCH  23  24
ENDBRANCH  22  23
ENDBRANCH  21  22
ENDBRANCH  20  21
ENDBRANCH  19  20
ENDBRANCH  18  19
ENDBRANCH  17  18
ENDBRANCH   3  17
TORSDOF 10
