REMARK  6 active torsions:
REMARK  status: ('A' for Active; 'I' for Inactive)
REMARK    1  A    between atoms: C2_2  and  C3_3 
REMARK    2  A    between atoms: C5_7  and  N3_8 
REMARK    3  A    between atoms: N3_8  and  C6_9 
REMARK    4  A    between atoms: C9_12  and  O1_13 
REMARK    5  A    between atoms: O1_13  and  C10_14 
REMARK    6  A    between atoms: C10_14  and  C11_15 
ROOT
HETATM    1  N3  UNL     1      -0.619  -0.448  -0.275  1.00  0.00    -0.341 N 
HETATM    2  H7  UNL     1      -0.902  -1.424  -0.530  1.00  0.00     0.167 HD
ENDROOT
BRANCH   1   3
HETATM    3  C5  UNL     1      -1.654   0.495  -0.067  1.00  0.00     0.137 A 
HETATM    4  N2  UNL     1      -1.503   1.782   0.265  1.00  0.00    -0.224 NA
HETATM    5  C4  UNL     1      -2.491   2.662   0.457  1.00  0.00     0.235 A 
HETATM    6  N1  UNL     1      -3.757   2.288   0.322  1.00  0.00    -0.246 NA
HETATM    7  C3  UNL     1      -4.005   0.994  -0.014  1.00  0.00     0.045 A 
HETATM    8  C14 UNL     1      -2.976   0.112  -0.206  1.00  0.00     0.009 A 
HETATM    9  C15 UNL     1      -3.252  -1.301  -0.571  1.00  0.00     0.054 C 
BRANCH   7  10
HETATM   10  C2  UNL     1      -5.433   0.611  -0.159  1.00  0.00     0.055 C 
HETATM   11  C1  UNL     1      -5.827  -0.185   1.071  1.00  0.00     0.011 C 
ENDBRANCH   7  10
ENDBRANCH   1   3
BRANCH   1  12
HETATM   12  C6  UNL     1       0.775  -0.231  -0.178  1.00  0.00     0.033 A 
HETATM   13  C7  UNL     1       1.394   0.953   0.153  1.00  0.00     0.032 A 
HETATM   14  C8  UNL     1       2.755   1.144   0.240  1.00  0.00     0.039 A 
HETATM   15  C9  UNL     1       3.583   0.073  -0.023  1.00  0.00     0.069 A 
HETATM   16  C12 UNL     1       3.021  -1.136  -0.359  1.00  0.00     0.039 A 
HETATM   17  C13 UNL     1       1.672  -1.253  -0.426  1.00  0.00     0.032 A 
BRANCH  15  18
HETATM   18  O1  UNL     1       4.958   0.232   0.056  1.00  0.00    -0.349 OA
BRANCH  18  19
HETATM   19  C10 UNL     1       5.785  -0.869  -0.214  1.00  0.00     0.207 C 
BRANCH  19  20
HETATM   20  C11 UNL     1       7.257  -0.545  -0.091  1.00  0.00     0.248 C 
HETATM   21  F1  UNL     1       7.603  -0.119   1.153  1.00  0.00    -0.253 F 
ENDBRANCH  19  20
ENDBRANCH  18  19
ENDBRANCH  15  18
ENDBRANCH   1  12
TORSDOF 6
