REMARK  5 active torsions:
REMARK  status: ('A' for Active; 'I' for Inactive)
REMARK    1  A    between atoms: C2_2  and  C3_3 
REMARK    2  A    between atoms: N2_7  and  C6_8 
REMARK    3  A    between atoms: C9_11  and  O1_12 
REMARK    4  A    between atoms: O1_12  and  C10_13 
REMARK    5  A    between atoms: C10_13  and  C11_14 
ROOT
HETATM    1  C6  UNL     1      -0.479   0.177  -0.697  1.00  0.00     0.038 A 
HETATM    2  C7  UNL     1      -0.065   0.645  -1.864  1.00  0.00     0.029 A 
HETATM    3  C8  UNL     1       1.383   0.465  -1.963  1.00  0.00     0.036 A 
HETATM    4  C9  UNL     1       1.804  -0.109  -0.843  1.00  0.00     0.071 A 
HETATM    5  C17 UNL     1       0.669  -0.355   0.083  1.00  0.00     0.188 A 
HETATM    6 CL1  UNL     1       0.364  -2.105   0.262  1.00  0.00    -0.111 Cl
ENDROOT
BRANCH   1   7
HETATM    7  N2  UNL     1      -1.889   0.313  -0.515  1.00  0.00    -0.335 N 
HETATM    8  C4  UNL     1      -2.245   1.352   0.430  1.00  0.00     0.208 A 
HETATM    9  N1  UNL     1      -3.687   1.410   0.541  1.00  0.00    -0.268 NA
HETATM   10  C5  UNL     1      -1.722   0.975   1.811  1.00  0.00     0.058 C 
HETATM   11  C3  UNL     1      -4.477   0.649  -0.106  1.00  0.00     0.038 A 
HETATM   12  C19 UNL     1      -4.026  -0.372  -1.038  1.00  0.00    -0.022 A 
HETATM   13  C18 UNL     1      -2.734  -0.559  -1.258  1.00  0.00     0.102 A 
HETATM   14  C20 UNL     1      -4.980  -1.246  -1.779  1.00  0.00     0.052 C 
BRANCH  11  15
HETATM   15  C2  UNL     1      -5.960   0.757   0.051  1.00  0.00     0.055 C 
HETATM   16  C1  UNL     1      -6.318   1.834   1.029  1.00  0.00     0.011 C 
ENDBRANCH  11  15
ENDBRANCH   1   7
BRANCH   4  17
HETATM   17  O1  UNL     1       3.057  -0.506  -0.397  1.00  0.00    -0.349 OA
BRANCH  17  18
HETATM   18  C10 UNL     1       4.218   0.287  -0.577  1.00  0.00     0.214 C 
BRANCH  18  19
HETATM   19  C11 UNL     1       5.357  -0.452   0.020  1.00  0.00    -0.031 A 
HETATM   20  C12 UNL     1       6.100  -1.334  -0.737  1.00  0.00     0.009 A 
HETATM   21  C13 UNL     1       7.174  -2.052  -0.231  1.00  0.00     0.004 A 
HETATM   22  C14 UNL     1       7.460  -1.822   1.107  1.00  0.00     0.042 A 
HETATM   23  C15 UNL     1       6.758  -0.955   1.919  1.00  0.00     0.117 A 
HETATM   24  F1  UNL     1       7.073  -0.763   3.218  1.00  0.00    -0.206 F 
HETATM   25  C16 UNL     1       5.700  -0.271   1.354  1.00  0.00     0.051 A 
ENDBRANCH  18  19
ENDBRANCH  17  18
ENDBRANCH   4  17
TORSDOF 5
