REMARK  4 active torsions:
REMARK  status: ('A' for Active; 'I' for Inactive)
REMARK    1  A    between atoms: C2_2  and  C3_3 
REMARK    2  A    between atoms: C5_7  and  N3_8 
REMARK    3  A    between atoms: N3_8  and  C6_9 
REMARK    4  A    between atoms: C8_11  and  C9_12 
ROOT
HETATM    1  C6  UNL     1       0.011   1.068  -0.039  1.00  0.00     0.099 A 
HETATM    2  C7  UNL     1       0.087   0.048   1.014  1.00  0.00     0.028 A 
HETATM    3  C8  UNL     1      -1.235   0.401   0.696  1.00  0.00     0.074 A 
ENDROOT
BRANCH   1   4
HETATM    4  N3  UNL     1       1.444   1.102  -0.189  1.00  0.00    -0.368 N 
HETATM    5  H7  UNL     1       1.426   0.522  -1.111  1.00  0.00     0.161 HD
BRANCH   4   6
HETATM    6  C5  UNL     1       2.888   1.130  -0.349  1.00  0.00     0.133 A 
HETATM    7  N2  UNL     1       3.436   2.338  -0.639  1.00  0.00    -0.224 NA
HETATM    8  C4  UNL     1       4.784   2.423  -0.751  1.00  0.00     0.235 A 
HETATM    9  N1  UNL     1       5.474   1.294  -0.555  1.00  0.00    -0.246 NA
HETATM   10  C3  UNL     1       4.991   0.103  -0.270  1.00  0.00     0.045 A 
HETATM   11  C18 UNL     1       3.645  -0.038  -0.159  1.00  0.00     0.008 A 
HETATM   12  C19 UNL     1       3.106  -1.384   0.071  1.00  0.00     0.054 C 
BRANCH  10  13
HETATM   13  C2  UNL     1       5.809  -1.138  -0.025  1.00  0.00     0.055 C 
HETATM   14  C1  UNL     1       7.284  -0.659  -0.123  1.00  0.00     0.011 C 
ENDBRANCH  10  13
ENDBRANCH   4   6
ENDBRANCH   1   4
BRANCH   3  15
HETATM   15  C9  UNL     1      -2.537   0.255   0.848  1.00  0.00     0.074 C 
HETATM   16  O1  UNL     1      -3.469  -0.537   1.597  1.00  0.00    -0.349 OA
HETATM   17  C10 UNL     1      -4.382  -1.459   0.981  1.00  0.00     0.210 C 
HETATM   18  C11 UNL     1      -5.326  -0.820   0.065  1.00  0.00    -0.045 A 
HETATM   19  C12 UNL     1      -6.621  -0.820   0.297  1.00  0.00     0.006 A 
HETATM   20  C15 UNL     1      -5.077  -0.133  -1.202  1.00  0.00     0.063 A 
HETATM   21  C13 UNL     1      -7.366  -0.149  -0.712  1.00  0.00    -0.003 A 
HETATM   22  C14 UNL     1      -6.463   0.263  -1.597  1.00  0.00    -0.014 A 
HETATM   23  C16 UNL     1      -4.271   1.100  -0.913  1.00  0.00     0.012 C 
HETATM   24  C17 UNL     1      -3.211   1.202  -0.045  1.00  0.00     0.060 C 
HETATM   25 CL1  UNL     1      -2.609   2.857  -0.103  1.00  0.00    -0.082 Cl
ENDBRANCH   3  15
TORSDOF 4
