REMARK  0 active torsions:
REMARK  status: ('A' for Active; 'I' for Inactive)
ROOT
HETATM    1  C1  UNL     1       2.453   1.472   0.224  1.00  0.00     0.012 C 
HETATM    2  C2  UNL     1       1.855   1.397  -1.130  1.00  0.00     0.073 A 
HETATM    3  C3  UNL     1       1.638   0.349  -1.667  1.00  0.00     0.051 A 
HETATM    4  O1  UNL     1       1.910   1.691  -0.992  1.00  0.00     0.000 OA
HETATM    5  C4  UNL     1       0.722   2.593  -1.133  1.00  0.00     0.034 A 
HETATM    6  C5  UNL     1       0.311   3.323   0.023  1.00  0.00    -0.014 C 
HETATM    7  C6  UNL     1      -0.500   2.906   1.000  1.00  0.00    -0.023 C 
HETATM    8  C7  UNL     1      -1.590   2.377   0.519  1.00  0.00    -0.043 C 
HETATM    9  C8  UNL     1      -1.425   1.361  -0.515  1.00  0.00     0.022 C 
HETATM   10  C9  UNL     1      -1.849   0.144  -0.049  1.00  0.00    -0.006 C 
HETATM   11  C10 UNL     1      -3.204   0.295   0.467  1.00  0.00     0.010 C 
HETATM   12  C11 UNL     1      -3.835   1.474   0.446  1.00  0.00    -0.021 C 
HETATM   13  C12 UNL     1      -2.997   2.636   0.842  1.00  0.00     0.066 C 
HETATM   14  C13 UNL     1      -1.248  -1.194   0.025  1.00  0.00     0.078 A 
HETATM   15  N1  UNL     1      -1.879  -1.832  -1.006  1.00  0.00    -0.241 NA
HETATM   16  C14 UNL     1      -1.457  -3.110  -1.301  1.00  0.00     0.236 A 
HETATM   17  N2  UNL     1      -0.454  -3.663  -0.575  1.00  0.00    -0.224 NA
HETATM   18  C15 UNL     1       0.135  -3.026   0.411  1.00  0.00     0.133 A 
HETATM   19  C16 UNL     1      -0.238  -1.748   0.773  1.00  0.00     0.013 A 
HETATM   20  C17 UNL     1       0.184  -0.893   1.914  1.00  0.00     0.055 C 
HETATM   21  N3  UNL     1       1.273  -3.613   1.086  1.00  0.00    -0.371 N 
HETATM   22  C18 UNL     1       2.249  -3.419  -0.036  1.00  0.00     0.150 C 
HETATM   23  C19 UNL     1       2.112  -2.024  -0.407  1.00  0.00     0.012 C 
HETATM   24  C20 UNL     1       1.902  -0.893  -0.966  1.00  0.00     0.013 A 
HETATM   25 CL1  UNL     1       1.306  -1.356  -2.523  1.00  0.00    -0.175 Cl
HETATM   26  H17 UNL     1       0.730  -3.820   1.946  1.00  0.00     0.161 HD
ENDROOT
TORSDOF 0
