REMARK  7 active torsions:
REMARK  status: ('A' for Active; 'I' for Inactive)
REMARK    1  A    between atoms: C3_3  and  C4_4 
REMARK    2  A    between atoms: C3_3  and  N1_16 
REMARK    3  A    between atoms: C4_4  and  C5_6 
REMARK    4  A    between atoms: C5_6  and  O1_7 
REMARK    5  A    between atoms: O1_7  and  C6_8 
REMARK    6  A    between atoms: C6_8  and  C7_9 
REMARK    7  A    between atoms: N3_20  and  C15_21 
ROOT
HETATM    1  C1  UNL     1      -0.173  -3.759   1.757  1.00  0.00     0.038 C 
HETATM    2  C2  UNL     1      -0.575  -2.640   0.894  1.00  0.00    -0.005 C 
HETATM    3  C3  UNL     1       0.167  -1.868   0.110  1.00  0.00     0.027 C 
ENDROOT
BRANCH   3   4
HETATM    4  C4  UNL     1       1.628  -1.955  -0.089  1.00  0.00     0.155 C 
HETATM    5 CL1  UNL     1       2.307  -3.401   0.698  1.00  0.00    -0.116 Cl
BRANCH   4   6
HETATM    6  C5  UNL     1       2.285  -0.701   0.445  1.00  0.00     0.194 C 
BRANCH   6   7
HETATM    7  O1  UNL     1       1.843   0.420  -0.190  1.00  0.00    -0.385 OA
BRANCH   7   8
HETATM    8  C6  UNL     1       2.423   1.590   0.280  1.00  0.00     0.206 C 
BRANCH   8   9
HETATM    9  C7  UNL     1       3.890   1.488   0.073  1.00  0.00    -0.032 A 
HETATM   10  C8  UNL     1       4.854   0.995   0.927  1.00  0.00     0.009 A 
HETATM   11  C9  UNL     1       6.178   0.987   0.544  1.00  0.00     0.004 A 
HETATM   12  C10 UNL     1       6.599   1.465  -0.694  1.00  0.00     0.042 A 
HETATM   13  C11 UNL     1       5.624   1.955  -1.536  1.00  0.00     0.117 A 
HETATM   14  F1  UNL     1       6.088   2.409  -2.732  1.00  0.00    -0.206 F 
HETATM   15  C12 UNL     1       4.297   1.972  -1.176  1.00  0.00     0.051 A 
ENDBRANCH   8   9
ENDBRANCH   7   8
ENDBRANCH   6   7
ENDBRANCH   4   6
ENDBRANCH   3   4
BRANCH   3  16
HETATM   16  N1  UNL     1      -0.589  -0.848  -0.596  1.00  0.00    -0.344 N 
HETATM   17  C13 UNL     1      -0.342  -0.610  -2.005  1.00  0.00     0.276 C 
HETATM   18  N2  UNL     1      -1.588  -0.899  -2.705  1.00  0.00    -0.265 NA
HETATM   19  C14 UNL     1      -2.680  -0.657  -2.072  1.00  0.00     0.207 C 
HETATM   20  N3  UNL     1      -2.846  -0.137  -0.760  1.00  0.00    -0.320 N 
HETATM   21  C21 UNL     1      -1.618  -0.056   0.046  1.00  0.00     0.190 C 
HETATM   22  C22 UNL     1      -1.202   1.362   0.235  1.00  0.00     0.056 C 
BRANCH  20  23
HETATM   23  C15 UNL     1      -4.079   0.292  -0.209  1.00  0.00     0.037 A 
HETATM   24  C16 UNL     1      -4.173   0.709   1.090  1.00  0.00     0.029 A 
HETATM   25  C17 UNL     1      -5.360   1.137   1.657  1.00  0.00     0.002 A 
HETATM   26  C18 UNL     1      -6.509   1.147   0.883  1.00  0.00     0.000 A 
HETATM   27  C19 UNL     1      -6.465   0.732  -0.445  1.00  0.00     0.002 A 
HETATM   28  C20 UNL     1      -5.240   0.315  -0.950  1.00  0.00     0.029 A 
ENDBRANCH  20  23
ENDBRANCH   3  16
TORSDOF 7
