REMARK  7 active torsions:
REMARK  status: ('A' for Active; 'I' for Inactive)
REMARK    1  A    between atoms: C2_2  and  C3_3 
REMARK    2  A    between atoms: C5_7  and  N3_8 
REMARK    3  A    between atoms: N3_8  and  C6_9 
REMARK    4  A    between atoms: C6_9  and  C7_10 
REMARK    5  A    between atoms: C9_13  and  O1_14 
REMARK    6  A    between atoms: O1_14  and  C10_15 
REMARK    7  A    between atoms: C10_15  and  C11_16 
ROOT
HETATM    1  C7  UNL     1       0.477  -0.165   1.016  1.00  0.00    -0.021 A 
HETATM    2  C8  UNL     1       1.290  -0.415  -0.067  1.00  0.00     0.128 A 
HETATM    3  N4  UNL     1       2.425   0.240  -0.258  1.00  0.00    -0.235 NA
HETATM    4  C9  UNL     1       2.894   1.183   0.547  1.00  0.00     0.186 A 
HETATM    5  C17 UNL     1       2.112   1.470   1.650  1.00  0.00     0.087 A 
HETATM    6 CL1  UNL     1       2.445   2.666   2.914  1.00  0.00    -0.080 Cl
HETATM    7  C18 UNL     1       0.903   0.811   1.905  1.00  0.00     0.038 A 
ENDROOT
BRANCH   1   8
HETATM    8  C6  UNL     1      -0.794  -0.915   1.209  1.00  0.00     0.161 C 
BRANCH   8   9
HETATM    9  N3  UNL     1      -1.830  -0.161   0.530  1.00  0.00    -0.370 N 
HETATM   10  H7  UNL     1      -1.653   0.734   0.019  1.00  0.00     0.161 HD
BRANCH   9  11
HETATM   11  C5  UNL     1      -3.193  -0.592   0.508  1.00  0.00     0.133 A 
HETATM   12  N2  UNL     1      -3.488  -1.753   1.157  1.00  0.00    -0.224 NA
HETATM   13  C4  UNL     1      -4.766  -2.217   1.174  1.00  0.00     0.235 A 
HETATM   14  N1  UNL     1      -5.729  -1.540   0.558  1.00  0.00    -0.246 NA
HETATM   15  C3  UNL     1      -5.516  -0.387  -0.104  1.00  0.00     0.045 A 
HETATM   16  C19 UNL     1      -4.215   0.063  -0.107  1.00  0.00     0.008 A 
HETATM   17  C20 UNL     1      -3.899   1.318  -0.809  1.00  0.00     0.054 C 
BRANCH  15  18
HETATM   18  C2  UNL     1      -6.560   0.413  -0.813  1.00  0.00     0.055 C 
HETATM   19  C1  UNL     1      -7.867  -0.352  -0.618  1.00  0.00     0.011 C 
ENDBRANCH  15  18
ENDBRANCH   9  11
ENDBRANCH   8   9
ENDBRANCH   1   8
BRANCH   4  20
HETATM   20  O1  UNL     1       4.005   1.988   0.574  1.00  0.00    -0.329 OA
BRANCH  20  21
HETATM   21  C10 UNL     1       5.011   1.968  -0.385  1.00  0.00     0.216 C 
BRANCH  21  22
HETATM   22  C11 UNL     1       5.651   0.638  -0.461  1.00  0.00    -0.031 A 
HETATM   23  C12 UNL     1       5.382  -0.452  -1.256  1.00  0.00     0.009 A 
HETATM   24  C13 UNL     1       6.130  -1.603  -1.129  1.00  0.00     0.004 A 
HETATM   25  C14 UNL     1       7.159  -1.718  -0.221  1.00  0.00     0.042 A 
HETATM   26  C15 UNL     1       7.438  -0.638   0.579  1.00  0.00     0.117 A 
HETATM   27  F1  UNL     1       8.457  -0.789   1.459  1.00  0.00    -0.206 F 
HETATM   28  C16 UNL     1       6.690   0.528   0.459  1.00  0.00     0.051 A 
ENDBRANCH  21  22
ENDBRANCH  20  21
ENDBRANCH   4  20
TORSDOF 7
