REMARK  7 active torsions:
REMARK  status: ('A' for Active; 'I' for Inactive)
REMARK    1  A    between atoms: C2_2  and  C3_3 
REMARK    2  A    between atoms: C5_7  and  N3_8 
REMARK    3  A    between atoms: N3_8  and  C6_9 
REMARK    4  A    between atoms: C9_12  and  C10_13 
REMARK    5  A    between atoms: C10_13  and  O1_14 
REMARK    6  A    between atoms: O1_14  and  C11_15 
REMARK    7  A    between atoms: C11_15  and  C12_16 
ROOT
HETATM    1  C6  UNL     1      -1.329   0.126   1.613  1.00  0.00     0.134 A 
HETATM    2  C7  UNL     1      -0.148   0.619   1.622  1.00  0.00    -0.038 A 
HETATM    3  C8  UNL     1       0.719   0.964   1.611  1.00  0.00    -0.049 A 
HETATM    4  C9  UNL     1       1.813   1.380   1.579  1.00  0.00     0.042 A 
HETATM    5  C18 UNL     1       1.135   0.067   0.533  1.00  0.00     0.070 A 
HETATM    6  C19 UNL     1      -0.265  -0.749   0.288  1.00  0.00    -0.011 A 
ENDROOT
BRANCH   1   7
HETATM    7  N3  UNL     1      -2.285   0.448   0.596  1.00  0.00    -0.363 N 
HETATM    8  H7  UNL     1      -2.098   1.102  -0.194  1.00  0.00     0.162 HD
BRANCH   7   9
HETATM    9  C5  UNL     1      -3.582  -0.179   0.683  1.00  0.00     0.133 A 
HETATM   10  N2  UNL     1      -3.797  -1.021   1.711  1.00  0.00    -0.224 NA
HETATM   11  C4  UNL     1      -5.001  -1.635   1.835  1.00  0.00     0.235 A 
HETATM   12  N1  UNL     1      -5.965  -1.395   0.929  1.00  0.00    -0.246 NA
HETATM   13  C3  UNL     1      -5.809  -0.567  -0.117  1.00  0.00     0.045 A 
HETATM   14  C20 UNL     1      -4.568   0.069  -0.247  1.00  0.00     0.008 A 
HETATM   15  C21 UNL     1      -4.268   0.997  -1.342  1.00  0.00     0.054 C 
BRANCH  13  16
HETATM   16  C2  UNL     1      -6.878  -0.315  -1.101  1.00  0.00     0.055 C 
HETATM   17  C1  UNL     1      -7.469   1.048  -0.801  1.00  0.00     0.011 C 
ENDBRANCH  13  16
ENDBRANCH   7   9
ENDBRANCH   1   7
BRANCH   4  18
HETATM   18  C10 UNL     1       2.931   1.217   0.957  1.00  0.00     0.167 C 
BRANCH  18  19
HETATM   19  O1  UNL     1       4.047   0.923   0.206  1.00  0.00    -0.378 OA
BRANCH  19  20
HETATM   20  C11 UNL     1       4.716  -0.295   0.519  1.00  0.00     0.207 C 
BRANCH  20  21
HETATM   21  C12 UNL     1       5.868  -0.415  -0.387  1.00  0.00    -0.033 A 
HETATM   22  C13 UNL     1       5.919  -1.007  -1.626  1.00  0.00     0.009 A 
HETATM   23  C14 UNL     1       7.088  -1.040  -2.368  1.00  0.00     0.002 A 
HETATM   24  C15 UNL     1       8.240  -0.474  -1.876  1.00  0.00     0.024 A 
HETATM   25  C16 UNL     1       8.226   0.128  -0.639  1.00  0.00     0.034 A 
HETATM   26 CL1  UNL     1       9.706   0.849  -0.019  1.00  0.00    -0.084 Cl
HETATM   27  C17 UNL     1       7.050   0.142   0.068  1.00  0.00     0.033 A 
ENDBRANCH  20  21
ENDBRANCH  19  20
ENDBRANCH  18  19
ENDBRANCH   4  18
TORSDOF 7
