REMARK  4 active torsions:
REMARK  status: ('A' for Active; 'I' for Inactive)
REMARK    1  A    between atoms: C2_2  and  C3_3 
REMARK    2  A    between atoms: C10_11  and  O1_12 
REMARK    3  A    between atoms: O1_12  and  C11_13 
REMARK    4  A    between atoms: C11_13  and  C12_14 
ROOT
HETATM    1  C3  UNL     1      -2.816  -0.868   0.822  1.00  0.00    -0.007 C 
HETATM    2  C4  UNL     1      -1.743  -1.446   0.007  1.00  0.00    -0.056 C 
HETATM    3  C5  UNL     1      -0.692  -1.691  -1.073  1.00  0.00     0.056 C 
HETATM    4  C6  UNL     1      -0.733  -0.611  -1.868  1.00  0.00     0.053 C 
HETATM    5  C7  UNL     1      -0.635   0.540  -2.884  1.00  0.00     0.056 C 
HETATM    6  C8  UNL     1       0.569   1.350  -2.290  1.00  0.00     0.103 C 
HETATM    7  C9  UNL     1       1.153   0.732  -1.141  1.00  0.00     0.077 C 
HETATM    8 CL1  UNL     1       2.374   2.055  -0.999  1.00  0.00    -0.117 Cl
HETATM    9  C10 UNL     1       1.282  -0.268   0.063  1.00  0.00     0.100 C 
HETATM   10  C17 UNL     1       0.639  -1.291   0.712  1.00  0.00     0.128 C 
HETATM   11  F1  UNL     1       1.367  -1.751   1.743  1.00  0.00    -0.208 F 
HETATM   12  C18 UNL     1      -0.632  -2.121   0.850  1.00  0.00     0.108 C 
HETATM   13  N1  UNL     1      -1.842   1.363  -2.925  1.00  0.00    -0.375 N 
HETATM   14  C19 UNL     1      -2.205   1.450  -1.540  1.00  0.00     0.133 A 
HETATM   15  N2  UNL     1      -1.624   2.387  -0.817  1.00  0.00    -0.224 NA
HETATM   16  C20 UNL     1      -1.613   2.180   0.555  1.00  0.00     0.236 A 
HETATM   17  N3  UNL     1      -2.229   0.981   0.863  1.00  0.00    -0.241 NA
HETATM   18  C21 UNL     1      -2.745   0.215  -0.154  1.00  0.00     0.078 A 
HETATM   19  C22 UNL     1      -2.852   0.285  -1.495  1.00  0.00     0.013 A 
HETATM   20  C23 UNL     1      -3.576  -0.745  -2.206  1.00  0.00     0.055 C 
HETATM   21  H15 UNL     1      -2.575   1.912  -3.403  1.00  0.00     0.161 HD
ENDROOT
BRANCH   9  22
HETATM   22  O1  UNL     1       2.485  -0.014   0.678  1.00  0.00    -0.346 OA
BRANCH  22  23
HETATM   23  C11 UNL     1       2.785   0.843   1.714  1.00  0.00     0.215 C 
BRANCH  23  24
HETATM   24  C12 UNL     1       4.208   0.712   2.191  1.00  0.00    -0.023 A 
HETATM   25  C13 UNL     1       4.679   0.505   3.402  1.00  0.00    -0.017 A 
HETATM   26  C14 UNL     1       5.991   0.299   3.426  1.00  0.00     0.013 A 
HETATM   27  C15 UNL     1       6.364   0.553   2.023  1.00  0.00     0.002 A 
HETATM   28  C16 UNL     1       5.317   0.809   1.238  1.00  0.00     0.010 A 
ENDBRANCH  23  24
ENDBRANCH  22  23
ENDBRANCH   9  22
BRANCH   1  29
HETATM   29  C2  UNL     1      -3.040  -1.785   1.849  1.00  0.00    -0.013 C 
HETATM   30  C1  UNL     1      -4.020  -1.042   2.389  1.00  0.00     0.032 C 
ENDBRANCH   1  29
TORSDOF 4
