REMARK  6 active torsions:
REMARK  status: ('A' for Active; 'I' for Inactive)
REMARK    1  A    between atoms: N1_1  and  C1_2 
REMARK    2  A    between atoms: C3_4  and  N2_5 
REMARK    3  A    between atoms: N2_5  and  C4_6 
REMARK    4  A    between atoms: C16_20  and  O1_21 
REMARK    5  A    between atoms: O1_21  and  C17_22 
REMARK    6  A    between atoms: C17_22  and  C18_23 
ROOT
HETATM    1  C1  UNL     1       1.073  -1.149  -1.287  1.00  0.00     0.061 A 
HETATM    2  C2  UNL     1      -0.295  -1.265  -1.007  1.00  0.00     0.061 A 
HETATM    3  C3  UNL     1      -0.689  -1.589   0.270  1.00  0.00     0.035 A 
HETATM    4  C14 UNL     1       0.298  -1.774   1.185  1.00  0.00     0.032 A 
HETATM    5  C15 UNL     1       1.660  -1.688   1.026  1.00  0.00     0.041 A 
HETATM    6  C16 UNL     1       2.031  -1.362  -0.272  1.00  0.00     0.095 A 
ENDROOT
BRANCH   3   7
HETATM    7  N2  UNL     1      -2.071  -1.734   0.569  1.00  0.00    -0.340 N 
HETATM    8  H4  UNL     1      -2.318  -2.156   1.516  1.00  0.00     0.167 HD
BRANCH   7   9
HETATM    9  C4  UNL     1      -3.038  -1.325  -0.392  1.00  0.00     0.142 A 
HETATM   10  N3  UNL     1      -3.095  -2.130  -1.490  1.00  0.00    -0.224 NA
HETATM   11  C5  UNL     1      -3.976  -1.829  -2.460  1.00  0.00     0.236 A 
HETATM   12  N4  UNL     1      -4.814  -0.750  -2.391  1.00  0.00    -0.241 NA
HETATM   13  C6  UNL     1      -4.771   0.052  -1.316  1.00  0.00     0.072 A 
HETATM   14  C7  UNL     1      -3.879  -0.235  -0.309  1.00  0.00     0.039 A 
HETATM   15  C13 UNL     1      -5.736   1.124  -1.445  1.00  0.00     0.032 A 
HETATM   16  C8  UNL     1      -3.533   0.310   0.992  1.00  0.00     0.018 A 
HETATM   17  C9  UNL     1      -4.007   1.313   1.704  1.00  0.00     0.001 A 
HETATM   18  C10 UNL     1      -5.062   2.326   1.538  1.00  0.00     0.000 A 
HETATM   19  C11 UNL     1      -5.917   2.640   0.576  1.00  0.00     0.000 A 
HETATM   20  C12 UNL     1      -6.227   2.141  -0.778  1.00  0.00     0.002 A 
ENDBRANCH   7   9
ENDBRANCH   3   7
BRANCH   1  21
HETATM   21  N1  UNL     1       1.476  -0.805  -2.631  1.00  0.00    -0.397 N 
HETATM   22  H1  UNL     1       0.749  -0.274  -3.202  1.00  0.00     0.156 HD
HETATM   23  H2  UNL     1       2.438  -1.101  -2.934  1.00  0.00     0.156 HD
ENDBRANCH   1  21
BRANCH   6  24
HETATM   24  O1  UNL     1       3.249  -1.229  -0.675  1.00  0.00    -0.344 OA
BRANCH  24  25
HETATM   25  C17 UNL     1       4.550  -1.164  -0.763  1.00  0.00     0.214 C 
BRANCH  25  26
HETATM   26  C18 UNL     1       5.247  -0.112   0.071  1.00  0.00    -0.031 A 
HETATM   27  C19 UNL     1       5.480   1.088  -0.621  1.00  0.00     0.009 A 
HETATM   28  C20 UNL     1       6.111   2.139   0.029  1.00  0.00     0.004 A 
HETATM   29  C21 UNL     1       6.526   2.066   1.332  1.00  0.00     0.042 A 
HETATM   30  C22 UNL     1       6.289   0.882   1.995  1.00  0.00     0.117 A 
HETATM   31  F1  UNL     1       6.677   0.778   3.267  1.00  0.00    -0.206 F 
HETATM   32  C23 UNL     1       5.668  -0.161   1.363  1.00  0.00     0.051 A 
ENDBRANCH  25  26
ENDBRANCH  24  25
ENDBRANCH   6  24
TORSDOF 6
