REMARK  5 active torsions:
REMARK  status: ('A' for Active; 'I' for Inactive)
REMARK    1  A    between atoms: C2_2  and  C3_3 
REMARK    2  A    between atoms: C8_8  and  C9_9 
REMARK    3  A    between atoms: C9_9  and  O1_10 
REMARK    4  A    between atoms: C12_14  and  N2_15 
REMARK    5  A    between atoms: N2_15  and  C13_16 
ROOT
HETATM    1  C3  UNL     1       4.148   0.253   0.118  1.00  0.00    -0.029 A 
HETATM    2  C4  UNL     1       3.175   0.096   1.082  1.00  0.00     0.049 A 
HETATM    3  C5  UNL     1       1.906  -0.291   0.635  1.00  0.00     0.086 A 
HETATM    4  C6  UNL     1       1.647  -0.505  -0.703  1.00  0.00    -0.006 A 
HETATM    5  C7  UNL     1       2.681  -0.326  -1.624  1.00  0.00     0.021 A 
HETATM    6  C8  UNL     1       3.969   0.061  -1.234  1.00  0.00    -0.024 A 
HETATM    7  C10 UNL     1       0.367  -0.915  -1.342  1.00  0.00     0.161 C 
HETATM    8  N1  UNL     1      -0.759  -0.168  -0.788  1.00  0.00    -0.379 N 
HETATM    9  C11 UNL     1      -1.171  -0.090   0.569  1.00  0.00     0.128 A 
HETATM   10  C12 UNL     1      -2.530   0.117   0.667  1.00  0.00     0.156 A 
HETATM   11  N3  UNL     1      -2.992   0.212   1.922  1.00  0.00    -0.222 NA
HETATM   12  C18 UNL     1      -2.230   0.118   3.018  1.00  0.00     0.238 A 
HETATM   13  N4  UNL     1      -0.894  -0.086   2.917  1.00  0.00    -0.215 NA
HETATM   14  C19 UNL     1      -0.336  -0.195   1.690  1.00  0.00     0.202 A 
HETATM   15  O2  UNL     1       1.045  -0.403   1.747  1.00  0.00    -0.289 OA
HETATM   16  H11 UNL     1      -1.389   0.411  -1.394  1.00  0.00     0.160 HD
ENDROOT
BRANCH  10  17
HETATM   17  N2  UNL     1      -3.405   0.215  -0.447  1.00  0.00    -0.362 N 
HETATM   18  H12 UNL     1      -3.289   0.152  -1.456  1.00  0.00     0.162 HD
BRANCH  17  19
HETATM   19  C13 UNL     1      -4.800   0.451  -0.138  1.00  0.00     0.134 A 
HETATM   20  C14 UNL     1      -5.366  -0.631   0.711  1.00  0.00     0.046 A 
HETATM   21  C15 UNL     1      -6.419  -1.207   0.136  1.00  0.00     0.136 A 
HETATM   22  F1  UNL     1      -7.314  -2.211   0.420  1.00  0.00    -0.205 F 
HETATM   23  C16 UNL     1      -6.636  -0.544  -1.154  1.00  0.00     0.070 A 
HETATM   24 CL1  UNL     1      -7.823  -0.769  -2.437  1.00  0.00    -0.081 Cl
HETATM   25  C17 UNL     1      -5.703   0.403  -1.299  1.00  0.00     0.029 A 
ENDBRANCH  17  19
ENDBRANCH  10  17
BRANCH   6  26
HETATM   26  C9  UNL     1       5.062   0.247  -2.222  1.00  0.00     0.203 C 
BRANCH  26  27
HETATM   27  O1  UNL     1       5.316   1.586  -2.466  1.00  0.00    -0.396 OA
HETATM   28  H8  UNL     1       6.192   1.645  -2.916  1.00  0.00     0.209 HD
ENDBRANCH  26  27
ENDBRANCH   6  26
BRANCH   1  29
HETATM   29  C2  UNL     1       5.477   0.654   0.508  1.00  0.00    -0.014 C 
HETATM   30  C1  UNL     1       6.139   0.951   1.596  1.00  0.00     0.032 C 
ENDBRANCH   1  29
TORSDOF 5
