REMARK  6 active torsions:
REMARK  status: ('A' for Active; 'I' for Inactive)
REMARK    1  A    between atoms: O1_2  and  C2_3 
REMARK    2  A    between atoms: C5_6  and  C6_7 
REMARK    3  A    between atoms: C16_22  and  C17_23 
REMARK    4  A    between atoms: C18_24  and  C19_25 
REMARK    5  A    between atoms: C19_25  and  C20_26 
REMARK    6  A    between atoms: C20_26  and  N4_27 
ROOT
HETATM    1  C2  UNL     1       2.610   2.390   0.555  1.00  0.00     0.140 C 
HETATM    2  C3  UNL     1       3.675   1.599   0.297  1.00  0.00     0.036 C 
HETATM    3  C4  UNL     1       3.286   0.149   0.251  1.00  0.00     0.084 C 
HETATM    4  C5  UNL     1       4.100  -0.803   0.013  1.00  0.00     0.022 C 
HETATM    5  C12 UNL     1       3.082  -1.866   0.176  1.00  0.00     0.037 C 
HETATM    6 CL1  UNL     1       3.069  -3.638   0.066  1.00  0.00    -0.087 Cl
HETATM    7  C13 UNL     1       1.812  -1.522   0.487  1.00  0.00     0.115 C 
HETATM    8  N1  UNL     1       1.043  -0.378   0.736  1.00  0.00    -0.318 N 
HETATM    9  C14 UNL     1       0.438  -0.146   2.043  1.00  0.00     0.207 C 
HETATM   10  N2  UNL     1      -0.014   1.003   2.490  1.00  0.00    -0.265 NA
HETATM   11  C15 UNL     1       0.361   2.247   1.825  1.00  0.00     0.279 C 
HETATM   12  N3  UNL     1       1.295   1.867   0.749  1.00  0.00    -0.311 N 
HETATM   13  C16 UNL     1       0.669   0.813  -0.077  1.00  0.00     0.276 C 
ENDROOT
BRANCH  13  14
HETATM   14  C17 UNL     1      -0.784   0.967  -0.080  1.00  0.00    -0.059 C 
HETATM   15  C18 UNL     1      -1.995   1.090  -0.063  1.00  0.00    -0.101 C 
BRANCH  15  16
HETATM   16  C19 UNL     1      -3.465   1.223  -0.033  1.00  0.00     0.124 C 
BRANCH  16  17
HETATM   17  C20 UNL     1      -4.017   0.035  -0.796  1.00  0.00     0.285 C 
BRANCH  17  18
HETATM   18  N4  UNL     1      -5.442   0.113  -0.781  1.00  0.00     0.097 N 
HETATM   19  C21 UNL     1      -6.066  -0.095   0.487  1.00  0.00     0.299 C 
HETATM   20  C22 UNL     1      -6.042  -1.568   0.856  1.00  0.00     0.198 C 
HETATM   21  O2  UNL     1      -6.486  -2.333  -0.206  1.00  0.00    -0.387 OA
HETATM   22  C23 UNL     1      -7.118  -1.626  -1.194  1.00  0.00     0.203 C 
HETATM   23  C24 UNL     1      -6.160  -0.581  -1.780  1.00  0.00     0.242 C 
HETATM   24  C25 UNL     1      -5.360  -1.256  -2.841  1.00  0.00     0.045 C 
ENDBRANCH  17  18
ENDBRANCH  16  17
ENDBRANCH  15  16
ENDBRANCH  13  14
BRANCH   1  25
HETATM   25  O1  UNL     1       2.325   3.714   0.714  1.00  0.00    -0.341 OA
HETATM   26  C1  UNL     1       3.236   4.704   1.151  1.00  0.00     0.211 C 
ENDBRANCH   1  25
BRANCH   4  27
HETATM   27  C6  UNL     1       5.208  -1.600  -0.266  1.00  0.00    -0.045 A 
HETATM   28  C7  UNL     1       6.187  -0.533   0.148  1.00  0.00     0.008 A 
HETATM   29  C8  UNL     1       7.604  -0.632   0.105  1.00  0.00     0.004 A 
HETATM   30  C9  UNL     1       8.182  -1.797  -0.352  1.00  0.00     0.042 A 
HETATM   31  C10 UNL     1       7.378  -2.874  -0.772  1.00  0.00     0.117 A 
HETATM   32  F1  UNL     1       7.556  -4.109  -1.243  1.00  0.00    -0.206 F 
HETATM   33  C11 UNL     1       6.109  -2.454  -0.605  1.00  0.00     0.050 A 
ENDBRANCH   4  27
TORSDOF 6
