REMARK  0 active torsions:
REMARK  status: ('A' for Active; 'I' for Inactive)
ROOT
HETATM    1  C1  UNL     1      -1.727  -3.053   1.488  1.00  0.00     0.048 C 
HETATM    2  C2  UNL     1      -2.644  -2.133   0.720  1.00  0.00    -0.058 A 
HETATM    3  C3  UNL     1      -3.978  -2.000   0.664  1.00  0.00    -0.015 A 
HETATM    4  C4  UNL     1      -4.336  -0.911  -0.279  1.00  0.00     0.067 A 
HETATM    5  C5  UNL     1      -3.043  -0.445  -0.760  1.00  0.00    -0.040 A 
HETATM    6  C6  UNL     1      -2.066  -1.145  -0.183  1.00  0.00    -0.040 A 
HETATM    7  C7  UNL     1      -0.635  -0.872  -0.475  1.00  0.00    -0.012 C 
HETATM    8  C8  UNL     1      -0.554   0.380  -0.019  1.00  0.00     0.101 C 
HETATM    9  C9  UNL     1       0.335   1.556   0.187  1.00  0.00     0.173 C 
HETATM   10  N1  UNL     1       0.876   1.920  -1.091  1.00  0.00    -0.267 NA
HETATM   11  C10 UNL     1       1.891   1.184  -1.518  1.00  0.00     0.094 C 
HETATM   12  C11 UNL     1       3.119   0.854  -0.713  1.00  0.00     0.060 C 
HETATM   13  C12 UNL     1       2.899   1.700   0.540  1.00  0.00     0.074 C 
HETATM   14  C13 UNL     1       1.557   1.195   1.018  1.00  0.00     0.091 C 
HETATM   15  N2  UNL     1       1.410   0.446   2.086  1.00  0.00    -0.138 NA
HETATM   16  O1  UNL     1       2.042  -0.783   2.355  1.00  0.00    -0.256 OA
HETATM   17  C14 UNL     1       3.155  -1.526   1.939  1.00  0.00     0.206 C 
HETATM   18  C15 UNL     1       3.961  -0.949   0.832  1.00  0.00     0.061 C 
HETATM   19  C16 UNL     1       3.207  -0.627  -0.439  1.00  0.00     0.132 C 
HETATM   20  O2  UNL     1       2.015  -1.172  -0.555  1.00  0.00    -0.385 OA
HETATM   21  C17 UNL     1       1.413  -1.691  -1.596  1.00  0.00     0.169 C 
HETATM   22  C18 UNL     1      -0.020  -2.092  -1.154  1.00  0.00     0.036 C 
HETATM   23  N3  UNL     1      -0.382   2.602   0.839  1.00  0.00    -0.367 N 
HETATM   24  C19 UNL     1      -1.151   3.781   0.562  1.00  0.00     0.085 C 
HETATM   25  C20 UNL     1      -2.195   3.948  -0.221  1.00  0.00     0.018 C 
HETATM   26  C21 UNL     1      -3.033   3.166  -1.111  1.00  0.00     0.027 C 
HETATM   27  C22 UNL     1      -2.957   1.870  -1.423  1.00  0.00     0.055 A 
HETATM   28 CL1  UNL     1      -4.223   1.370  -2.576  1.00  0.00    -0.083 Cl
HETATM   29  O3  UNL     1      -2.792   0.551  -1.669  1.00  0.00     0.000 OA
HETATM   30  H21 UNL     1      -0.345   2.454   1.897  1.00  0.00     0.161 HD
ENDROOT
TORSDOF 0
