REMARK  8 active torsions:
REMARK  status: ('A' for Active; 'I' for Inactive)
REMARK    1  A    between atoms: C4_6  and  N3_7 
REMARK    2  A    between atoms: N3_7  and  C5_8 
REMARK    3  A    between atoms: C11_15  and  C12_16 
REMARK    4  A    between atoms: C13_17  and  C14_18 
REMARK    5  A    between atoms: C14_18  and  C15_19 
REMARK    6  A    between atoms: C15_19  and  N4_20 
REMARK    7  A    between atoms: C16_21  and  C17_22 
REMARK    8  A    between atoms: C17_22  and  O1_23 
ROOT
HETATM    1  C1  UNL     1       0.016  -4.640  -0.224  1.00  0.00     0.072 C 
HETATM    2  C2  UNL     1      -1.083  -3.674  -0.092  1.00  0.00     0.054 A 
HETATM    3  N1  UNL     1      -2.366  -4.086   0.116  1.00  0.00    -0.245 NA
HETATM    4  C3  UNL     1      -3.366  -3.178   0.234  1.00  0.00     0.235 A 
HETATM    5  N2  UNL     1      -3.145  -1.864   0.155  1.00  0.00    -0.223 NA
HETATM    6  C4  UNL     1      -1.924  -1.371  -0.046  1.00  0.00     0.150 A 
HETATM    7  C11 UNL     1      -0.924  -2.316  -0.164  1.00  0.00     0.087 A 
ENDROOT
BRANCH   6   8
HETATM    8  N3  UNL     1      -1.564  -0.004  -0.148  1.00  0.00    -0.340 N 
HETATM    9  H5  UNL     1      -0.555   0.230  -0.308  1.00  0.00     0.167 HD
BRANCH   8  10
HETATM   10  C5  UNL     1      -2.433   1.110  -0.056  1.00  0.00     0.035 A 
HETATM   11  C6  UNL     1      -3.793   1.078   0.151  1.00  0.00     0.029 A 
HETATM   12  C7  UNL     1      -4.600   2.190   0.234  1.00  0.00     0.004 A 
HETATM   13  C8  UNL     1      -4.046   3.436   0.106  1.00  0.00     0.024 A 
HETATM   14  C9  UNL     1      -2.699   3.524  -0.100  1.00  0.00     0.036 A 
HETATM   15 CL1  UNL     1      -1.982   5.111  -0.264  1.00  0.00    -0.084 Cl
HETATM   16  C10 UNL     1      -1.936   2.401  -0.176  1.00  0.00     0.053 A 
ENDBRANCH   8  10
ENDBRANCH   6   8
BRANCH   7  17
HETATM   17  C12 UNL     1       0.455  -1.904  -0.386  1.00  0.00    -0.061 C 
HETATM   18  C13 UNL     1       1.607  -1.537  -0.571  1.00  0.00    -0.099 C 
BRANCH  18  19
HETATM   19  C14 UNL     1       2.989  -1.099  -0.768  1.00  0.00     0.116 C 
BRANCH  19  20
HETATM   20  C15 UNL     1       3.380  -0.226   0.411  1.00  0.00     0.160 C 
BRANCH  20  21
HETATM   21  N4  UNL     1       2.495   0.879   0.435  1.00  0.00    -0.303 NA
HETATM   22  C16 UNL     1       2.967   2.056   0.347  1.00  0.00     0.109 C 
BRANCH  22  23
HETATM   23  C17 UNL     1       4.424   2.311   0.220  1.00  0.00     0.210 C 
BRANCH  23  24
HETATM   24  O1  UNL     1       4.673   3.677   0.260  1.00  0.00    -0.396 OA
HETATM   25  H17 UNL     1       5.654   3.772   0.446  1.00  0.00     0.209 HD
ENDBRANCH  23  24
ENDBRANCH  22  23
ENDBRANCH  20  21
ENDBRANCH  19  20
ENDBRANCH  18  19
ENDBRANCH   7  17
TORSDOF 8
