REMARK  2 active torsions:
REMARK  status: ('A' for Active; 'I' for Inactive)
REMARK    1  A    between atoms: C5_6  and  O1_7 
REMARK    2  A    between atoms: O1_7  and  C6_8 
ROOT
HETATM    1  C6  UNL     1       0.190  -0.744   0.256  1.00  0.00     0.221 A 
HETATM    2  C7  UNL     1      -0.794  -0.224   1.327  1.00  0.00     0.055 A 
HETATM    3 CL1  UNL     1      -0.207   0.935   0.075  1.00  0.00    -0.179 Cl
HETATM    4  C8  UNL     1      -1.667   0.325   2.157  1.00  0.00     0.094 C 
HETATM    5  C9  UNL     1      -2.313   1.573   1.596  1.00  0.00     0.128 C 
HETATM    6  N1  UNL     1      -3.732   1.213   1.303  1.00  0.00    -0.374 N 
HETATM    7  C10 UNL     1      -3.529   0.253   0.197  1.00  0.00     0.124 C 
HETATM    8  C11 UNL     1      -3.043  -1.034   0.333  1.00  0.00     0.051 C 
HETATM    9  C12 UNL     1      -1.909  -1.877  -0.232  1.00  0.00     0.016 C 
HETATM   10  C13 UNL     1      -0.925  -1.090  -0.786  1.00  0.00    -0.000 C 
HETATM   11  C14 UNL     1      -0.836  -0.449  -2.125  1.00  0.00     0.128 C 
HETATM   12  N2  UNL     1      -1.914  -0.013  -2.758  1.00  0.00    -0.253 NA
HETATM   13  C15 UNL     1      -3.054   0.762  -2.257  1.00  0.00     0.234 C 
HETATM   14  N3  UNL     1      -3.823   0.630  -1.182  1.00  0.00    -0.225 NA
HETATM   15  H8  UNL     1      -4.687   0.902   1.029  1.00  0.00     0.161 HD
ENDROOT
BRANCH   1  16
HETATM   16  O1  UNL     1       1.072   0.186  -0.162  1.00  0.00    -0.329 OA
BRANCH  16  17
HETATM   17  C5  UNL     1       2.440  -0.021  -0.198  1.00  0.00     0.074 A 
HETATM   18  C4  UNL     1       3.179  -1.129   0.149  1.00  0.00     0.037 A 
HETATM   19  C3  UNL     1       4.553  -1.148   0.043  1.00  0.00     0.006 A 
HETATM   20  C2  UNL     1       5.221  -0.034  -0.420  1.00  0.00     0.042 A 
HETATM   21  C1  UNL     1       4.522   1.094  -0.778  1.00  0.00     0.119 A 
HETATM   22  F1  UNL     1       5.263   2.122  -1.217  1.00  0.00    -0.206 F 
HETATM   23  C16 UNL     1       3.131   1.092  -0.664  1.00  0.00     0.079 A 
ENDBRANCH  16  17
ENDBRANCH   1  16
TORSDOF 2
