REMARK  7 active torsions:
REMARK  status: ('A' for Active; 'I' for Inactive)
REMARK    1  A    between atoms: C2_2  and  O1_3 
REMARK    2  A    between atoms: O1_3  and  C3_4 
REMARK    3  A    between atoms: C3_4  and  C4_5 
REMARK    4  A    between atoms: C4_5  and  C5_6 
REMARK    5  A    between atoms: C11_14  and  N2_15 
REMARK    6  A    between atoms: C17_23  and  O3_24 
REMARK    7  A    between atoms: O3_24  and  C18_25 
ROOT
HETATM    1  C5  UNL     1      -1.166  -0.093   0.323  1.00  0.00     0.044 C 
HETATM    2  C6  UNL     1      -0.202   0.950   0.746  1.00  0.00     0.130 C 
HETATM    3  N1  UNL     1       0.782   1.260  -0.307  1.00  0.00    -0.357 N 
HETATM    4  C7  UNL     1       0.975   1.698  -1.626  1.00  0.00     0.241 C 
HETATM    5  O2  UNL     1      -0.260   1.810  -1.623  1.00  0.00    -0.269 OA
HETATM    6  C8  UNL     1       2.124   1.878  -2.471  1.00  0.00     0.075 C 
HETATM    7  C9  UNL     1       3.346   1.629  -2.220  1.00  0.00     0.023 C 
HETATM    8  C10 UNL     1       4.189   1.114  -1.165  1.00  0.00     0.038 A 
HETATM    9  C11 UNL     1       5.178   1.906  -0.661  1.00  0.00     0.135 A 
HETATM   10  N3  UNL     1       5.959   1.467   0.322  1.00  0.00    -0.224 NA
HETATM   11  C12 UNL     1       5.841   0.262   0.870  1.00  0.00     0.235 A 
HETATM   12  N4  UNL     1       4.892  -0.552   0.415  1.00  0.00    -0.241 NA
HETATM   13  C13 UNL     1       4.080  -0.150  -0.577  1.00  0.00     0.071 A 
HETATM   14  C14 UNL     1       3.032  -1.081  -1.011  1.00  0.00     0.029 C 
HETATM   15  C15 UNL     1       1.954  -1.786  -1.290  1.00  0.00    -0.016 C 
HETATM   16  C16 UNL     1       0.634  -1.341  -0.775  1.00  0.00     0.057 C 
HETATM   17  C17 UNL     1      -0.684  -1.210  -0.459  1.00  0.00     0.107 C 
HETATM   18  H13 UNL     1       1.734   1.145   0.070  1.00  0.00     0.162 HD
ENDROOT
BRANCH  17  19
HETATM   19  O3  UNL     1      -1.753  -1.893  -0.698  1.00  0.00    -0.363 OA
BRANCH  19  20
HETATM   20  C18 UNL     1      -2.825  -2.579  -0.931  1.00  0.00     0.172 C 
HETATM   21  C19 UNL     1      -3.134  -2.629  -2.418  1.00  0.00     0.021 C 
HETATM   22  C20 UNL     1      -4.180  -3.380  -2.699  1.00  0.00    -0.024 C 
HETATM   23  C21 UNL     1      -4.171  -4.679  -2.429  1.00  0.00     0.054 C 
HETATM   24  C22 UNL     1      -3.449  -5.004  -1.199  1.00  0.00     0.116 C 
HETATM   25  F1  UNL     1      -3.432  -6.287  -0.796  1.00  0.00    -0.206 F 
HETATM   26  C23 UNL     1      -2.839  -4.032  -0.527  1.00  0.00     0.051 C 
ENDBRANCH  19  20
ENDBRANCH  17  19
BRANCH   1  27
HETATM   27  C4  UNL     1      -1.985  -0.466   1.526  1.00  0.00     0.035 C 
BRANCH  27  28
HETATM   28  C3  UNL     1      -2.794   0.619   2.132  1.00  0.00     0.168 C 
BRANCH  28  29
HETATM   29  O1  UNL     1      -2.048   1.672   2.600  1.00  0.00    -0.391 OA
BRANCH  29  30
HETATM   30  C2  UNL     1      -2.853   2.675   3.162  1.00  0.00     0.163 C 
HETATM   31  C1  UNL     1      -1.962   3.790   3.647  1.00  0.00     0.033 C 
ENDBRANCH  29  30
ENDBRANCH  28  29
ENDBRANCH  27  28
ENDBRANCH   1  27
BRANCH   9  32
HETATM   32  N2  UNL     1       5.361   3.201  -1.209  1.00  0.00    -0.383 N 
HETATM   33  H16 UNL     1       5.342   3.279  -2.226  1.00  0.00     0.157 HD
HETATM   34  H17 UNL     1       5.523   4.188  -0.858  1.00  0.00     0.157 HD
ENDBRANCH   9  32
TORSDOF 7
