REMARK  6 active torsions:
REMARK  status: ('A' for Active; 'I' for Inactive)
REMARK    1  A    between atoms: N2_2  and  N3_3 
REMARK    2  A    between atoms: C4_8  and  C5_9 
REMARK    3  A    between atoms: C5_9  and  C6_10 
REMARK    4  A    between atoms: C6_10  and  N5_11 
REMARK    5  A    between atoms: C8_13  and  C9_14 
REMARK    6  A    between atoms: C9_14  and  C10_15 
ROOT
HETATM    1  C6  UNL     1       1.374   0.373  -0.619  1.00  0.00     0.134 C 
ENDROOT
BRANCH   1   2
HETATM    2  C5  UNL     1       2.229  -0.589  -1.298  1.00  0.00     0.026 C 
BRANCH   2   3
HETATM    3  C4  UNL     1       3.181  -0.022  -1.873  1.00  0.00     0.018 A 
HETATM    4  N3  UNL     1       4.208  -0.998  -2.665  1.00  0.00     0.000 N 
HETATM    5  N4  UNL     1       5.449  -0.758  -3.436  1.00  0.00    -0.221 NA
HETATM    6  C2  UNL     1       4.986   0.319  -2.996  1.00  0.00     0.100 A 
HETATM    7  C3  UNL     1       4.168   0.176  -2.487  1.00  0.00    -0.035 A 
HETATM    8  C1  UNL     1       5.982   0.470  -3.621  1.00  0.00     0.129 A 
BRANCH   4   9
HETATM    9  N2  UNL     1       3.705  -2.481  -2.525  1.00  0.00    -0.032 NA
HETATM   10  N1  UNL     1       4.574  -3.330  -2.840  1.00  0.00    -0.182 NA
HETATM   11  H1  UNL     1       4.313  -4.344  -2.773  1.00  0.00     0.214 HD
ENDBRANCH   4   9
ENDBRANCH   2   3
ENDBRANCH   1   2
BRANCH   1  12
HETATM   12  N5  UNL     1       0.002   0.379  -1.127  1.00  0.00    -0.357 N 
HETATM   13  C7  UNL     1      -0.709   0.736  -2.297  1.00  0.00     0.116 A 
HETATM   14  C8  UNL     1      -1.412   0.239  -1.252  1.00  0.00     0.027 A 
BRANCH  14  15
HETATM   15  C9  UNL     1      -2.565  -0.229  -0.433  1.00  0.00     0.063 C 
BRANCH  15  16
HETATM   16  C10 UNL     1      -2.581   0.607   0.846  1.00  0.00    -0.009 C 
HETATM   17  C11 UNL     1      -1.308   0.436   1.620  1.00  0.00     0.005 C 
HETATM   18  C12 UNL     1      -1.406   0.375   3.087  1.00  0.00     0.000 C 
HETATM   19  C13 UNL     1      -2.739   0.614   3.716  1.00  0.00     0.000 C 
HETATM   20  C14 UNL     1      -3.818   1.120   2.841  1.00  0.00     0.000 C 
HETATM   21  C15 UNL     1      -3.836   0.265   1.589  1.00  0.00     0.005 C 
ENDBRANCH  15  16
ENDBRANCH  14  15
ENDBRANCH   1  12
TORSDOF 6
