REMARK  4 active torsions:
REMARK  status: ('A' for Active; 'I' for Inactive)
REMARK       I    between atoms: N2_7  and  C5_8 
REMARK    1  A    between atoms: C5_8  and  C6_10 
REMARK    2  A    between atoms: C9_13  and  C10_14 
REMARK    3  A    between atoms: C12_17  and  C13_18 
REMARK    4  A    between atoms: C13_18  and  N4_19 
ROOT
HETATM    1  C6  UNL     1       2.903  -1.147  -0.422  1.00  0.00     0.033 A 
HETATM    2  C7  UNL     1       2.270  -1.638   0.710  1.00  0.00     0.017 A 
HETATM    3  C8  UNL     1       0.942  -1.343   0.927  1.00  0.00     0.008 A 
HETATM    4  C9  UNL     1       0.163  -0.579   0.089  1.00  0.00    -0.052 A 
HETATM    5  C19 UNL     1       0.785  -0.082  -1.048  1.00  0.00     0.008 A 
HETATM    6  C20 UNL     1       2.130  -0.368  -1.287  1.00  0.00     0.017 A 
ENDROOT
BRANCH   4   7
HETATM    7  C10 UNL     1      -1.259  -0.343   0.399  1.00  0.00     0.049 C 
HETATM    8  C11 UNL     1      -1.574  -0.146   1.847  1.00  0.00     0.279 C 
HETATM    9  N3  UNL     1      -1.851   1.282   2.017  1.00  0.00     0.090 N 
HETATM   10  C12 UNL     1      -2.548   1.656   0.774  1.00  0.00     0.249 C 
HETATM   11  H11 UNL     1      -0.908   1.772   1.934  1.00  0.00     0.316 HD
HETATM   12  C18 UNL     1      -1.735   0.946  -0.236  1.00  0.00     0.048 C 
BRANCH  10  13
HETATM   13  C13 UNL     1      -3.998   1.438   0.850  1.00  0.00     0.307 C 
BRANCH  13  14
HETATM   14  N4  UNL     1      -4.512   0.135   1.070  1.00  0.00     0.090 N 
HETATM   15  C14 UNL     1      -5.925   0.234   1.524  1.00  0.00     0.272 C 
HETATM   16  C15 UNL     1      -6.652   0.611   0.262  1.00  0.00     0.032 C 
HETATM   17  C16 UNL     1      -6.032  -0.356  -0.724  1.00  0.00     0.032 C 
HETATM   18  C17 UNL     1      -4.666  -0.659  -0.143  1.00  0.00     0.272 C 
ENDBRANCH  13  14
ENDBRANCH  10  13
ENDBRANCH   4   7
BRANCH   1  19
HETATM   19  C5  UNL     1       4.262  -1.295  -0.905  1.00  0.00     0.265 C 
HETATM   20  N2  UNL     1       5.470  -0.714  -0.452  1.00  0.00    -0.241 N 
HETATM   21  C1  UNL     1       6.656  -1.056  -1.128  1.00  0.00     0.329 A 
HETATM   22  C4  UNL     1       5.603   0.190   0.631  1.00  0.00     0.102 A 
HETATM   23  O1  UNL     1       6.647  -1.850  -2.103  1.00  0.00    -0.246 OA
HETATM   24  N1  UNL     1       7.913  -0.533  -0.758  1.00  0.00    -0.339 N 
HETATM   25  C2  UNL     1       8.083   0.395   0.338  1.00  0.00     0.153 A 
HETATM   26  H1  UNL     1       8.794  -0.799  -1.265  1.00  0.00     0.164 HD
HETATM   27  C3  UNL     1       6.760   0.670   0.968  1.00  0.00     0.011 A 
HETATM   28  O2  UNL     1       4.222  -2.096  -1.884  1.00  0.00    -0.267 OA
ENDBRANCH   1  19
TORSDOF 4
