REMARK  0 active torsions:
REMARK  status: ('A' for Active; 'I' for Inactive)
ROOT
HETATM    1  C1  UNL     1       1.766  -0.425   0.188  1.00  0.00    -0.016 C 
HETATM    2  C2  UNL     1       1.350  -0.543  -1.078  1.00  0.00    -0.003 C 
HETATM    3  C3  UNL     1       0.294  -1.472  -0.881  1.00  0.00     0.128 C 
HETATM    4  N1  UNL     1       0.678  -2.391   0.172  1.00  0.00    -0.306 N 
HETATM    5  N2  UNL     1       1.881  -2.836   0.906  1.00  0.00    -0.195 NA
HETATM    6  C4  UNL     1       2.904  -2.015   1.204  1.00  0.00     0.122 C 
HETATM    7  C5  UNL     1       3.047  -0.507   1.019  1.00  0.00     0.027 C 
HETATM    8  C6  UNL     1       3.678   0.705   1.179  1.00  0.00     0.191 C 
HETATM    9  N3  UNL     1       2.732   1.510   0.409  1.00  0.00    -0.275 N 
HETATM   10  C7  UNL     1       1.425   1.709   0.627  1.00  0.00     0.137 A 
HETATM   11  C8  UNL     1       1.263   2.173  -0.653  1.00  0.00     0.069 A 
HETATM   12  N4  UNL     1       2.332   2.282  -1.549  1.00  0.00    -0.163 NA
HETATM   13  N5  UNL     1       3.386   1.790  -0.752  1.00  0.00     0.005 NA
HETATM   14  C9  UNL     1      -0.200   2.083  -0.698  1.00  0.00     0.067 C 
HETATM   15  C10 UNL     1      -0.901   0.849  -0.235  1.00  0.00    -0.002 C 
HETATM   16  C11 UNL     1      -2.428   1.218  -0.393  1.00  0.00     0.005 C 
HETATM   17  C12 UNL     1      -3.178   0.509   0.755  1.00  0.00     0.000 C 
HETATM   18  C13 UNL     1      -2.793  -0.968   0.685  1.00  0.00     0.000 C 
HETATM   19  C14 UNL     1      -2.143  -1.259  -0.641  1.00  0.00     0.007 C 
HETATM   20  C15 UNL     1      -0.818  -0.499  -0.840  1.00  0.00     0.018 C 
HETATM   21  H4  UNL     1      -0.075  -2.986   0.631  1.00  0.00     0.183 HD
ENDROOT
TORSDOF 0
