REMARK  1 active torsions:
REMARK  status: ('A' for Active; 'I' for Inactive)
REMARK    1  A    between atoms: C4_7  and  C5_8 
ROOT
HETATM    1  C1  UNL     1      -5.430   1.439   0.050  1.00  0.00     0.019 C 
HETATM    2  C2  UNL     1      -4.419   2.222   0.468  1.00  0.00     0.119 C 
HETATM    3  N1  UNL     1      -3.025   2.092   0.243  1.00  0.00    -0.239 NA
HETATM    4  C3  UNL     1      -2.321   1.043  -0.091  1.00  0.00     0.182 C 
HETATM    5  N2  UNL     1      -1.118   1.778  -0.096  1.00  0.00    -0.134 NA
HETATM    6  N3  UNL     1       0.048   1.427   0.051  1.00  0.00    -0.181 NA
HETATM    7  C4  UNL     1       0.434   0.079   0.275  1.00  0.00     0.159 C 
HETATM    8  C11 UNL     1       0.014  -0.351   1.608  1.00  0.00     0.019 C 
HETATM    9  C12 UNL     1      -0.779  -1.393   1.770  1.00  0.00     0.085 C 
HETATM   10  N4  UNL     1      -1.077  -1.916   0.485  1.00  0.00    -0.375 N 
HETATM   11  C13 UNL     1      -2.289  -1.479  -0.070  1.00  0.00     0.102 C 
HETATM   12  C14 UNL     1      -2.839  -0.305  -0.324  1.00  0.00     0.029 C 
HETATM   13  C15 UNL     1      -4.170  -0.529  -0.931  1.00  0.00     0.017 C 
HETATM   14  C16 UNL     1      -5.286   0.215  -0.776  1.00  0.00     0.002 C 
HETATM   15  H17 UNL     1      -0.416  -2.572   0.025  1.00  0.00     0.164 HD
ENDROOT
BRANCH   7  16
HETATM   16  C5  UNL     1       1.911  -0.167   0.066  1.00  0.00     0.016 C 
HETATM   17  C6  UNL     1       2.366   0.151  -1.319  1.00  0.00     0.007 C 
HETATM   18  C7  UNL     1       3.743  -0.456  -1.478  1.00  0.00     0.000 C 
HETATM   19  C8  UNL     1       4.716  -0.052  -0.412  1.00  0.00     0.000 C 
HETATM   20  C9  UNL     1       4.151   0.048   0.959  1.00  0.00     0.000 C 
HETATM   21  C10 UNL     1       2.765   0.618   1.025  1.00  0.00     0.007 C 
ENDBRANCH   7  16
TORSDOF 1
