REMARK  3 active torsions:
REMARK  status: ('A' for Active; 'I' for Inactive)
REMARK    1  A    between atoms: C2_2  and  C4_5 
REMARK    2  A    between atoms: C12_16  and  N3_17 
REMARK    3  A    between atoms: N3_17  and  C13_18 
ROOT
HETATM    1  C4  UNL     1      -2.285   0.842  -0.065  1.00  0.00     0.016 C 
HETATM    2  C5  UNL     1      -2.503  -0.174   0.828  1.00  0.00     0.089 C 
HETATM    3  C6  UNL     1      -1.412  -0.845   1.635  1.00  0.00    -0.034 C 
HETATM    4  C7  UNL     1      -0.712  -0.676   2.815  1.00  0.00     0.141 C 
HETATM    5  O2  UNL     1       0.653  -0.275   2.855  1.00  0.00    -0.346 OA
HETATM    6  C8  UNL     1       1.544   0.023   1.778  1.00  0.00     0.220 C 
HETATM    7  C9  UNL     1       1.119   1.281   1.068  1.00  0.00     0.152 C 
HETATM    8  N1  UNL     1       0.284   1.135   0.132  1.00  0.00    -0.164 NA
HETATM    9  N2  UNL     1      -0.350   1.951  -0.735  1.00  0.00    -0.167 NA
HETATM   10  C10 UNL     1      -1.662   1.913  -0.938  1.00  0.00     0.124 C 
HETATM   11  C11 UNL     1       1.423  -1.099   0.820  1.00  0.00     0.055 C 
HETATM   12  C12 UNL     1       2.408  -1.202  -0.059  1.00  0.00     0.111 C 
HETATM   13  N4  UNL     1       0.429  -2.132   0.644  1.00  0.00    -0.386 N 
HETATM   14  C17 UNL     1      -0.965  -2.051   0.915  1.00  0.00     0.156 C 
HETATM   15  H17 UNL     1       0.726  -3.064   0.275  1.00  0.00     0.159 HD
ENDROOT
BRANCH  12  16
HETATM   16  N3  UNL     1       3.581  -0.433  -0.267  1.00  0.00    -0.389 N 
HETATM   17  H12 UNL     1       4.397  -0.772   0.308  1.00  0.00     0.159 HD
BRANCH  16  18
HETATM   18  C13 UNL     1       3.761   0.715  -1.144  1.00  0.00     0.113 A 
HETATM   19  C14 UNL     1       3.517   0.485  -2.552  1.00  0.00     0.036 A 
HETATM   20  C15 UNL     1       4.763   0.627  -2.885  1.00  0.00     0.094 A 
HETATM   21  F1  UNL     1       5.650   0.619  -3.921  1.00  0.00    -0.211 F 
HETATM   22  C16 UNL     1       5.193   0.878  -1.524  1.00  0.00     0.099 A 
ENDBRANCH  16  18
ENDBRANCH  12  16
BRANCH   1  23
HETATM   23  C2  UNL     1      -3.761   0.750  -0.241  1.00  0.00    -0.066 A 
HETATM   24  C1  UNL     1      -4.536   1.487  -1.052  1.00  0.00     0.039 A 
HETATM   25  O1  UNL     1      -5.067   0.398  -0.147  1.00  0.00     0.000 OA
HETATM   26  C3  UNL     1      -5.530  -0.907   0.150  1.00  0.00     0.000 C 
ENDBRANCH   1  23
TORSDOF 3
