REMARK  5 active torsions:
REMARK  status: ('A' for Active; 'I' for Inactive)
REMARK    1  A    between atoms: N1_2  and  C2_4 
REMARK    2  A    between atoms: C2_4  and  C3_5 
REMARK    3  A    between atoms: N2_9  and  C7_10 
REMARK    4  A    between atoms: C12_15  and  C13_16 
REMARK    5  A    between atoms: C13_16  and  N3_17 
ROOT
HETATM    1  C7  UNL     1      -1.184  -1.504   0.150  1.00  0.00     0.019 A 
HETATM    2  C8  UNL     1      -1.569  -2.702   0.677  1.00  0.00     0.022 A 
HETATM    3  C9  UNL     1      -0.400  -3.473   0.542  1.00  0.00    -0.012 A 
HETATM    4  C10 UNL     1       0.864  -3.049  -0.023  1.00  0.00     0.017 A 
HETATM    5  C11 UNL     1       1.478  -2.140  -0.530  1.00  0.00     0.026 A 
HETATM    6  C12 UNL     1       0.061  -1.477  -0.276  1.00  0.00     0.039 A 
HETATM    7  C13 UNL     1       1.393  -1.685  -0.658  1.00  0.00     0.133 A 
ENDROOT
BRANCH   1   8
HETATM    8  N2  UNL     1      -1.805  -0.264  -0.056  1.00  0.00    -0.377 N 
HETATM    9  C3  UNL     1      -1.822   1.119  -0.461  1.00  0.00     0.099 C 
HETATM   10  C4  UNL     1      -2.881   1.157  -1.528  1.00  0.00     0.028 C 
HETATM   11  C5  UNL     1      -3.940   0.271  -0.911  1.00  0.00     0.022 C 
HETATM   12  C6  UNL     1      -3.194  -0.262   0.304  1.00  0.00     0.123 C 
BRANCH   9  13
HETATM   13  C2  UNL     1      -0.476   1.572  -0.992  1.00  0.00     0.150 C 
BRANCH  13  14
HETATM   14  N1  UNL     1      -0.564   2.914  -1.480  1.00  0.00    -0.157 NA
HETATM   15  C1  UNL     1      -0.775   3.918  -0.483  1.00  0.00     0.149 C 
HETATM   16  F1  UNL     1      -1.340   3.005  -2.555  1.00  0.00    -0.134 F 
ENDBRANCH  13  14
ENDBRANCH   9  13
ENDBRANCH   1   8
BRANCH   7  17
HETATM   17  N3  UNL     1       2.385  -1.083   0.217  1.00  0.00    -0.305 N 
HETATM   18  C14 UNL     1       2.069  -1.100   1.598  1.00  0.00     0.093 A 
HETATM   19  C15 UNL     1       2.972  -0.543   2.410  1.00  0.00     0.010 A 
HETATM   20  C16 UNL     1       4.247   0.080   2.041  1.00  0.00     0.153 A 
HETATM   21  N4  UNL     1       4.482   0.050   0.623  1.00  0.00    -0.339 N 
HETATM   22  C17 UNL     1       3.578  -0.520  -0.303  1.00  0.00     0.322 A 
HETATM   23  H21 UNL     1       5.349   0.456   0.212  1.00  0.00     0.164 HD
HETATM   24  O1  UNL     1       3.674  -0.603  -1.543  1.00  0.00    -0.247 OA
ENDBRANCH   7  17
TORSDOF 5
