REMARK  2 active torsions:
REMARK  status: ('A' for Active; 'I' for Inactive)
REMARK    1  A    between atoms: C8_11  and  C9_12 
REMARK    2  A    between atoms: C9_12  and  C10_13 
ROOT
HETATM    1  C1  UNL     1      -5.442  -1.093  -0.076  1.00  0.00     0.052 C 
HETATM    2  C2  UNL     1      -4.315  -0.723   0.780  1.00  0.00    -0.015 A 
HETATM    3  C3  UNL     1      -4.305  -1.265   2.059  1.00  0.00     0.149 A 
HETATM    4  N1  UNL     1      -3.183  -0.797   2.682  1.00  0.00    -0.161 NA
HETATM    5  N2  UNL     1      -2.551  -0.006   1.799  1.00  0.00    -0.135 N 
HETATM    6  C4  UNL     1      -3.187   0.074   0.642  1.00  0.00     0.083 A 
HETATM    7  C5  UNL     1      -3.113   0.689  -0.679  1.00  0.00     0.183 C 
HETATM    8  N3  UNL     1      -1.775   0.821  -1.227  1.00  0.00    -0.387 N 
HETATM    9  C6  UNL     1      -1.695   0.646  -2.687  1.00  0.00     0.149 C 
HETATM   10  C7  UNL     1      -0.468   1.081  -0.744  1.00  0.00     0.114 C 
HETATM   11  C8  UNL     1       0.122   1.158   0.416  1.00  0.00     0.074 C 
HETATM   12  N4  UNL     1      -0.336   1.004   1.727  1.00  0.00    -0.134 NA
HETATM   13  N5  UNL     1      -1.370   0.555   2.295  1.00  0.00    -0.043 NA
ENDROOT
BRANCH  11  14
HETATM   14  C9  UNL     1       1.592   1.476   0.342  1.00  0.00     0.067 C 
BRANCH  14  15
HETATM   15  C10 UNL     1       2.420   0.376   0.969  1.00  0.00    -0.009 C 
HETATM   16  C11 UNL     1       3.890   0.706   0.888  1.00  0.00     0.005 C 
HETATM   17  C12 UNL     1       4.399   0.562  -0.511  1.00  0.00     0.000 C 
HETATM   18  C13 UNL     1       4.393  -0.906  -0.899  1.00  0.00     0.000 C 
HETATM   19  C14 UNL     1       3.459  -1.694  -0.017  1.00  0.00     0.000 C 
HETATM   20  C15 UNL     1       2.190  -0.936   0.285  1.00  0.00     0.005 C 
ENDBRANCH  14  15
ENDBRANCH  11  14
TORSDOF 2
