REMARK  2 active torsions:
REMARK  status: ('A' for Active; 'I' for Inactive)
REMARK    1  A    between atoms: N2_11  and  C9_12 
REMARK    2  A    between atoms: C16_20  and  N4_21 
ROOT
HETATM    1  C1  UNL     1      -4.843   0.293  -1.533  1.00  0.00     0.010 C 
HETATM    2  C2  UNL     1      -3.583  -0.506  -1.225  1.00  0.00    -0.013 C 
HETATM    3  C3  UNL     1      -3.473  -0.822   0.242  1.00  0.00     0.005 C 
HETATM    4  C4  UNL     1      -3.729   0.334   1.142  1.00  0.00     0.003 C 
HETATM    5  C5  UNL     1      -2.650   1.360   1.178  1.00  0.00     0.039 C 
HETATM    6  C6  UNL     1      -1.275   0.804   1.400  1.00  0.00     0.179 C 
HETATM    7 BR1  UNL     1      -1.211  -0.403   2.907  1.00  0.00    -0.067 Br
HETATM    8  N1  UNL     1      -0.761   0.194   0.196  1.00  0.00    -0.277 N 
HETATM    9  C7  UNL     1      -1.207  -0.042  -1.053  1.00  0.00     0.047 A 
HETATM   10  C8  UNL     1       0.040  -0.624  -1.284  1.00  0.00     0.138 A 
HETATM   11  N2  UNL     1       0.431  -0.362  -0.025  1.00  0.00    -0.284 N 
HETATM   12  C17 UNL     1      -2.429   0.195  -1.826  1.00  0.00     0.064 C 
ENDROOT
BRANCH  11  13
HETATM   13  C9  UNL     1       1.654  -0.600   0.748  1.00  0.00     0.179 C 
HETATM   14  C10 UNL     1       2.447   0.676   0.858  1.00  0.00     0.012 C 
HETATM   15  C11 UNL     1       3.756   0.812   0.749  1.00  0.00    -0.048 C 
HETATM   16  C12 UNL     1       4.805   1.838   0.797  1.00  0.00     0.082 C 
HETATM   17  C14 UNL     1       4.662  -0.365   0.484  1.00  0.00     0.161 C 
HETATM   18  C13 UNL     1       5.725   1.425  -0.319  1.00  0.00     0.089 C 
HETATM   19  N3  UNL     1       5.612   0.160  -0.464  1.00  0.00    -0.292 NA
HETATM   20  C15 UNL     1       3.819  -1.432  -0.076  1.00  0.00     0.031 C 
HETATM   21  C16 UNL     1       2.491  -1.581   0.013  1.00  0.00     0.030 C 
BRANCH  21  22
HETATM   22  N4  UNL     1       2.014  -2.744  -0.657  1.00  0.00    -0.401 N 
HETATM   23  H20 UNL     1       2.131  -3.481   0.100  1.00  0.00     0.156 HD
HETATM   24  H21 UNL     1       1.619  -3.113  -1.557  1.00  0.00     0.156 HD
ENDBRANCH  21  22
ENDBRANCH  11  13
TORSDOF 2
