REMARK  7 active torsions:
REMARK  status: ('A' for Active; 'I' for Inactive)
REMARK    1  A    between atoms: O1_2  and  C2_3 
REMARK    2  A    between atoms: C2_3  and  C3_4 
REMARK    3  A    between atoms: C8_9  and  O2_10 
REMARK    4  A    between atoms: O2_10  and  P1_11 
REMARK    5  A    between atoms: C11_17  and  N3_18 
REMARK    6  A    between atoms: N3_18  and  C12_19 
REMARK    7  A    between atoms: C12_19  and  C13_20 
ROOT
HETATM    1  C3  UNL     1      -3.330   0.484   0.153  1.00  0.00    -0.000 A 
HETATM    2  C4  UNL     1      -2.085   0.630   0.760  1.00  0.00     0.023 A 
HETATM    3  C5  UNL     1      -0.960  -0.067   0.304  1.00  0.00    -0.006 A 
HETATM    4  C6  UNL     1      -1.125  -0.903  -0.766  1.00  0.00     0.088 A 
HETATM    5  C7  UNL     1      -2.369  -1.048  -1.372  1.00  0.00     0.075 A 
HETATM    6  C8  UNL     1      -3.472  -0.357  -0.916  1.00  0.00     0.084 A 
HETATM    7  O3  UNL     1      -0.131  -1.674  -1.358  1.00  0.00    -0.289 OA
HETATM    8  C9  UNL     1       1.240  -1.595  -1.153  1.00  0.00     0.202 A 
HETATM    9  N1  UNL     1       1.955  -2.156  -2.149  1.00  0.00    -0.215 NA
HETATM   10  C10 UNL     1       3.318  -2.138  -2.056  1.00  0.00     0.238 A 
HETATM   11  N2  UNL     1       3.938  -1.578  -1.006  1.00  0.00    -0.222 NA
HETATM   12  C11 UNL     1       3.317  -1.002   0.021  1.00  0.00     0.156 A 
HETATM   13  C15 UNL     1       1.938  -1.028  -0.085  1.00  0.00     0.128 A 
HETATM   14  N4  UNL     1       1.350  -0.409   1.051  1.00  0.00    -0.379 N 
HETATM   15  C16 UNL     1       0.125   0.352   1.185  1.00  0.00     0.161 C 
HETATM   16  H16 UNL     1       1.955  -0.571   1.911  1.00  0.00     0.160 HD
ENDROOT
BRANCH  12  17
HETATM   17  N3  UNL     1       4.043  -0.412   1.095  1.00  0.00    -0.369 N 
HETATM   18  H11 UNL     1       3.721   0.091   1.943  1.00  0.00     0.161 HD
BRANCH  17  19
HETATM   19  C12 UNL     1       5.489  -0.515   0.991  1.00  0.00     0.149 C 
BRANCH  19  20
HETATM   20  C13 UNL     1       6.004   0.147  -0.223  1.00  0.00     0.004 C 
HETATM   21  C14 UNL     1       6.866   1.147  -0.098  1.00  0.00     0.082 C 
HETATM   22 CL1  UNL     1       7.713   2.074   1.120  1.00  0.00    -0.097 Cl
ENDBRANCH  19  20
ENDBRANCH  17  19
ENDBRANCH  12  17
BRANCH   6  23
HETATM   23  O2  UNL     1      -4.719  -0.491  -1.508  1.00  0.00    -0.329 OA
BRANCH  23  24
HETATM   24  P1  UNL     1      -5.034  -1.524  -2.868  1.00  0.00     0.009 P 
HETATM   25  H8  UNL     1      -4.104  -2.627  -2.944  1.00  0.00     0.085 HD
HETATM   26  H9  UNL     1      -6.404  -2.010  -2.869  1.00  0.00     0.085 HD
ENDBRANCH  23  24
ENDBRANCH   6  23
BRANCH   1  27
HETATM   27  C2  UNL     1      -4.523   1.243   0.660  1.00  0.00     0.208 C 
BRANCH  27  28
HETATM   28  O1  UNL     1      -4.833   2.313  -0.168  1.00  0.00    -0.391 OA
HETATM   29  C1  UNL     1      -5.938   3.025   0.295  1.00  0.00     0.201 C 
ENDBRANCH  27  28
ENDBRANCH   1  27
TORSDOF 7
