REMARK  10 active torsions:
REMARK  status: ('A' for Active; 'I' for Inactive)
REMARK    1  A    between atoms: O1_2  and  C2_3 
REMARK    2  A    between atoms: C3_4  and  C4_5 
REMARK    3  A    between atoms: C4_5  and  O3_26 
REMARK    4  A    between atoms: C5_6  and  C6_7 
REMARK    5  A    between atoms: C6_7  and  C7_8 
REMARK    6  A    between atoms: C10_12  and  N2_13 
REMARK    7  A    between atoms: N2_13  and  C11_14 
REMARK    8  A    between atoms: C11_14  and  C12_15 
REMARK    9  A    between atoms: C18_21  and  C19_22 
REMARK   10  A    between atoms: C19_22  and  O2_23 
ROOT
HETATM    1  C7  UNL     1       2.052   0.723   0.938  1.00  0.00     0.131 A 
HETATM    2  N1  UNL     1       2.441  -0.170   1.881  1.00  0.00    -0.245 NA
HETATM    3  C8  UNL     1       1.510  -0.954   2.476  1.00  0.00     0.122 A 
HETATM    4  C9  UNL     1       0.161  -0.882   2.160  1.00  0.00     0.069 A 
HETATM    5  C10 UNL     1      -0.138   0.053   1.194  1.00  0.00     0.127 A 
HETATM    6  N3  UNL     1       0.767   0.827   0.603  1.00  0.00    -0.216 NA
ENDROOT
BRANCH   5   7
HETATM    7  N2  UNL     1      -1.505   0.193   0.809  1.00  0.00    -0.371 N 
HETATM    8  H11 UNL     1      -1.809   0.880   0.082  1.00  0.00     0.161 HD
BRANCH   7   9
HETATM    9  C11 UNL     1      -2.556  -0.624   1.416  1.00  0.00     0.149 C 
BRANCH   9  10
HETATM   10  C12 UNL     1      -3.881  -0.313   0.871  1.00  0.00     0.000 C 
HETATM   11  C13 UNL     1      -4.740  -1.089   0.237  1.00  0.00    -0.051 A 
HETATM   12  C14 UNL     1      -4.393  -2.481   0.003  1.00  0.00     0.007 A 
HETATM   13  C18 UNL     1      -6.009  -0.501  -0.202  1.00  0.00     0.065 A 
HETATM   14  C15 UNL     1      -5.223  -3.302  -0.629  1.00  0.00     0.000 A 
HETATM   15  C16 UNL     1      -6.519  -2.835  -1.115  1.00  0.00    -0.003 A 
HETATM   16  C17 UNL     1      -6.819  -1.565  -0.895  1.00  0.00    -0.015 A 
BRANCH  13  17
HETATM   17  C19 UNL     1      -5.793   0.555  -1.295  1.00  0.00     0.180 C 
BRANCH  17  18
HETATM   18  O2  UNL     1      -4.998   1.599  -0.883  1.00  0.00    -0.395 OA
HETATM   19  C20 UNL     1      -4.882   2.487  -1.971  1.00  0.00     0.201 C 
ENDBRANCH  17  18
ENDBRANCH  13  17
ENDBRANCH   9  10
ENDBRANCH   7   9
ENDBRANCH   5   7
BRANCH   1  20
HETATM   20  C6  UNL     1       3.065   1.590   0.277  1.00  0.00     0.110 C 
BRANCH  20  21
HETATM   21  C5  UNL     1       3.614   0.960  -0.937  1.00  0.00     0.017 C 
HETATM   22  C4  UNL     1       4.877   0.654  -1.167  1.00  0.00     0.066 C 
BRANCH  22  23
HETATM   23  C3  UNL     1       5.929   0.915  -0.204  1.00  0.00     0.060 C 
HETATM   24  C2  UNL     1       7.185   0.608  -0.438  1.00  0.00     0.137 C 
BRANCH  24  25
HETATM   25  O1  UNL     1       8.273   0.799   0.381  1.00  0.00    -0.368 OA
HETATM   26  C1  UNL     1       8.408   1.985   1.130  1.00  0.00     0.208 C 
ENDBRANCH  24  25
ENDBRANCH  22  23
BRANCH  22  27
HETATM   27  O3  UNL     1       5.216   0.063  -2.370  1.00  0.00    -0.356 OA
HETATM   28  C21 UNL     1       5.437  -1.338  -2.428  1.00  0.00     0.210 C 
ENDBRANCH  22  27
ENDBRANCH  20  21
ENDBRANCH   1  20
TORSDOF 10
