REMARK  1 active torsions:
REMARK  status: ('A' for Active; 'I' for Inactive)
REMARK    1  A    between atoms: C4_4  and  C5_5 
ROOT
HETATM    1  C5  UNL     1       0.553   0.098   0.777  1.00  0.00     0.094 C 
HETATM    2  C6  UNL     1      -0.084   0.689  -0.277  1.00  0.00     0.163 C 
HETATM    3  N1  UNL     1      -1.347   0.935  -0.883  1.00  0.00    -0.397 N 
HETATM    4  C7  UNL     1      -2.344   1.862  -0.539  1.00  0.00     0.146 C 
HETATM    5  C8  UNL     1      -3.538   1.207   0.144  1.00  0.00     0.008 C 
HETATM    6  C9  UNL     1      -3.366  -0.023   0.679  1.00  0.00     0.009 C 
HETATM    7  C10 UNL     1      -3.826  -0.572   1.999  1.00  0.00     0.154 C 
HETATM    8  N2  UNL     1      -2.900  -1.329   2.575  1.00  0.00    -0.161 NA
HETATM    9  N3  UNL     1      -1.710  -1.402   1.762  1.00  0.00    -0.141 N 
HETATM   10  N4  UNL     1      -0.456  -1.292   2.327  1.00  0.00    -0.044 NA
HETATM   11  N5  UNL     1       0.590  -0.688   2.011  1.00  0.00    -0.132 NA
HETATM   12  P1  UNL     1      -2.494  -1.600   0.132  1.00  0.00     0.072 P 
HETATM   13  C11 UNL     1      -1.581  -1.412  -1.352  1.00  0.00     0.084 C 
HETATM   14  C12 UNL     1      -1.501  -0.027  -2.017  1.00  0.00     0.124 C 
ENDROOT
BRANCH   1  15
HETATM   15  C4  UNL     1       1.986   0.410   0.521  1.00  0.00     0.004 C 
HETATM   16  C3  UNL     1       3.121   0.137   1.161  1.00  0.00    -0.006 C 
HETATM   17  C2  UNL     1       4.142  -0.085   0.389  1.00  0.00    -0.050 C 
HETATM   18  C1  UNL     1       5.315  -1.021   0.409  1.00  0.00     0.049 C 
HETATM   19  C14 UNL     1       3.938   0.881  -0.682  1.00  0.00     0.008 C 
HETATM   20  C13 UNL     1       2.617   1.153  -0.564  1.00  0.00     0.015 C 
ENDBRANCH   1  15
TORSDOF 1
