REMARK  6 active torsions:
REMARK  status: ('A' for Active; 'I' for Inactive)
REMARK    1  A    between atoms: O1_2  and  C2_3 
REMARK    2  A    between atoms: C4_5  and  N1_6 
REMARK    3  A    between atoms: N1_6  and  C5_7 
REMARK    4  A    between atoms: C9_11  and  C10_12 
REMARK    5  A    between atoms: C18_23  and  O2_24 
REMARK    6  A    between atoms: C20_26  and  O3_27 
ROOT
HETATM    1  C5  UNL     1       0.380   0.146  -0.526  1.00  0.00     0.128 A 
HETATM    2  C6  UNL     1       0.240  -0.964  -1.329  1.00  0.00     0.050 A 
HETATM    3  C7  UNL     1       1.257  -1.602  -2.005  1.00  0.00     0.006 A 
HETATM    4  C8  UNL     1       2.533  -1.099  -1.879  1.00  0.00     0.031 A 
HETATM    5  C9  UNL     1       2.677   0.024  -1.069  1.00  0.00     0.081 A 
HETATM    6  N4  UNL     1       1.641   0.590  -0.443  1.00  0.00    -0.232 NA
ENDROOT
BRANCH   1   7
HETATM    7  N1  UNL     1      -0.642   0.800   0.165  1.00  0.00    -0.341 N 
HETATM    8  H5  UNL     1      -0.331   1.673   0.698  1.00  0.00     0.167 HD
BRANCH   7   9
HETATM    9  C4  UNL     1      -2.014   0.599   0.357  1.00  0.00     0.039 A 
HETATM   10  C3  UNL     1      -2.882   1.695   0.468  1.00  0.00     0.069 A 
HETATM   11  C2  UNL     1      -4.240   1.650   0.670  1.00  0.00     0.106 A 
HETATM   12  C20 UNL     1      -4.766   0.382   0.768  1.00  0.00     0.135 A 
HETATM   13  C18 UNL     1      -4.010  -0.768   0.675  1.00  0.00     0.106 A 
HETATM   14  C17 UNL     1      -2.656  -0.614   0.472  1.00  0.00     0.069 A 
BRANCH  11  15
HETATM   15  O1  UNL     1      -5.029   2.757   0.770  1.00  0.00    -0.353 OA
HETATM   16  C1  UNL     1      -4.659   4.094   0.698  1.00  0.00     0.210 C 
ENDBRANCH  11  15
BRANCH  12  17
HETATM   17  O3  UNL     1      -6.156   0.313   0.975  1.00  0.00    -0.351 OA
HETATM   18  C21 UNL     1      -6.971   0.238  -0.187  1.00  0.00     0.210 C 
ENDBRANCH  12  17
BRANCH  13  19
HETATM   19  O2  UNL     1      -4.715  -1.934   0.798  1.00  0.00    -0.353 OA
HETATM   20  C19 UNL     1      -4.083  -3.191   0.728  1.00  0.00     0.210 C 
ENDBRANCH  13  19
ENDBRANCH   7   9
ENDBRANCH   1   7
BRANCH   5  21
HETATM   21  C10 UNL     1       3.967   0.653  -0.856  1.00  0.00     0.261 C 
HETATM   22  N2  UNL     1       4.116   0.987   0.667  1.00  0.00    -0.260 NA
HETATM   23  C11 UNL     1       5.159   0.322   1.046  1.00  0.00     0.049 C 
HETATM   24  C12 UNL     1       6.515   0.221   1.620  1.00  0.00     0.028 C 
HETATM   25  C16 UNL     1       4.455  -0.889   0.372  1.00  0.00     0.183 C 
HETATM   26  C13 UNL     1       7.503  -0.448   0.930  1.00  0.00     0.003 C 
HETATM   27  C14 UNL     1       7.369  -0.847  -0.519  1.00  0.00     0.017 C 
HETATM   28  C15 UNL     1       6.331  -0.687  -1.394  1.00  0.00     0.088 C 
HETATM   29  N3  UNL     1       5.075  -0.289  -0.858  1.00  0.00    -0.357 N 
ENDBRANCH   5  21
TORSDOF 6
