REMARK  7 active torsions:
REMARK  status: ('A' for Active; 'I' for Inactive)
REMARK    1  A    between atoms: O1_2  and  C2_3 
REMARK    2  A    between atoms: C3_4  and  C4_5 
REMARK    3  A    between atoms: C7_9  and  N1_10 
REMARK    4  A    between atoms: N1_10  and  C8_11 
REMARK    5  A    between atoms: C11_16  and  N4_17 
REMARK    6  A    between atoms: N4_17  and  C12_18 
REMARK    7  A    between atoms: C18_25  and  O2_26 
ROOT
HETATM    1  C8  UNL     1       0.697  -0.844   0.549  1.00  0.00     0.096 A 
HETATM    2  C9  UNL     1      -0.018  -1.799   1.231  1.00  0.00     0.151 A 
HETATM    3  N2  UNL     1       0.621  -2.652   2.030  1.00  0.00    -0.252 NA
HETATM    4  C10 UNL     1       1.943  -2.562   2.151  1.00  0.00     0.235 A 
HETATM    5  N3  UNL     1       2.611  -1.619   1.472  1.00  0.00    -0.222 NA
HETATM    6  C11 UNL     1       2.065  -0.715   0.645  1.00  0.00     0.157 A 
ENDROOT
BRANCH   1   7
HETATM    7  N1  UNL     1      -0.060   0.019  -0.275  1.00  0.00    -0.353 N 
HETATM    8  H10 UNL     1       0.130   0.815  -0.904  1.00  0.00     0.166 HD
BRANCH   7   9
HETATM    9  C7  UNL     1      -1.473  -0.105  -0.381  1.00  0.00     0.045 C 
HETATM   10  C6  UNL     1      -2.099  -0.953  -1.440  1.00  0.00     0.087 C 
HETATM   11  C5  UNL     1      -3.113  -0.077  -2.122  1.00  0.00    -0.014 C 
HETATM   12  C3  UNL     1      -3.954   0.528  -1.288  1.00  0.00    -0.035 C 
HETATM   13  C2  UNL     1      -3.777   0.259   0.170  1.00  0.00     0.209 C 
HETATM   14  C18 UNL     1      -2.328   0.512   0.438  1.00  0.00     0.099 C 
BRANCH  12  15
HETATM   15  C4  UNL     1      -5.060   1.455  -1.696  1.00  0.00     0.151 C 
HETATM   16 CL1  UNL     1      -5.092   1.633  -3.457  1.00  0.00    -0.126 Cl
ENDBRANCH  12  15
BRANCH  13  17
HETATM   17  O1  UNL     1      -4.145  -1.047   0.463  1.00  0.00    -0.380 OA
HETATM   18  C1  UNL     1      -5.179  -1.041   1.427  1.00  0.00     0.202 C 
ENDBRANCH  13  17
BRANCH  14  19
HETATM   19  O2  UNL     1      -1.795   1.314   1.442  1.00  0.00    -0.360 OA
HETATM   20  H18 UNL     1      -1.202   2.109   1.291  1.00  0.00     0.217 HD
ENDBRANCH  14  19
ENDBRANCH   7   9
ENDBRANCH   1   7
BRANCH   6  21
HETATM   21  N4  UNL     1       2.746   0.288  -0.083  1.00  0.00    -0.339 N 
HETATM   22  H13 UNL     1       2.153   0.906  -0.680  1.00  0.00     0.167 HD
BRANCH  21  23
HETATM   23  C12 UNL     1       4.139   0.559  -0.101  1.00  0.00     0.033 A 
HETATM   24  C13 UNL     1       4.643   1.598  -0.883  1.00  0.00     0.032 A 
HETATM   25  C14 UNL     1       5.982   1.900  -0.935  1.00  0.00     0.044 A 
HETATM   26  C15 UNL     1       6.897   1.176  -0.202  1.00  0.00     0.116 A 
HETATM   27  F1  UNL     1       8.218   1.473  -0.252  1.00  0.00    -0.206 F 
HETATM   28  C16 UNL     1       6.444   0.140   0.586  1.00  0.00     0.044 A 
HETATM   29  C17 UNL     1       5.093  -0.122   0.602  1.00  0.00     0.032 A 
ENDBRANCH  21  23
ENDBRANCH   6  21
TORSDOF 7
