REMARK  2 active torsions:
REMARK  status: ('A' for Active; 'I' for Inactive)
REMARK    1  A    between atoms: C7_8  and  O2_9 
REMARK    2  A    between atoms: C11_16  and  N3_17 
ROOT
HETATM    1  C1  UNL     1       4.307   1.754  -3.591  1.00  0.00     0.210 C 
HETATM    2  O1  UNL     1       3.736   1.195  -2.578  1.00  0.00    -0.353 OA
HETATM    3  C2  UNL     1       3.164   0.638  -1.565  1.00  0.00     0.102 A 
HETATM    4  C3  UNL     1       1.994   1.224  -1.136  1.00  0.00     0.051 A 
HETATM    5  C4  UNL     1       1.336   0.652  -0.036  1.00  0.00    -0.004 A 
HETATM    6  C5  UNL     1       1.844  -0.453   0.589  1.00  0.00     0.088 A 
HETATM    7  C6  UNL     1       3.035  -1.007   0.111  1.00  0.00     0.077 A 
HETATM    8  C7  UNL     1       3.735  -0.478  -0.985  1.00  0.00     0.104 A 
HETATM    9  O3  UNL     1       1.326  -1.137   1.675  1.00  0.00    -0.289 OA
HETATM   10  C9  UNL     1      -0.042  -1.276   2.015  1.00  0.00     0.202 A 
HETATM   11  N1  UNL     1      -0.236  -2.205   2.954  1.00  0.00    -0.215 NA
HETATM   12  C10 UNL     1      -1.530  -2.410   3.345  1.00  0.00     0.238 A 
HETATM   13  N2  UNL     1      -2.637  -1.762   2.873  1.00  0.00    -0.221 NA
HETATM   14  C11 UNL     1      -2.459  -0.806   1.910  1.00  0.00     0.166 A 
HETATM   15  C17 UNL     1      -1.140  -0.575   1.490  1.00  0.00     0.129 A 
HETATM   16  N4  UNL     1      -1.035   0.466   0.489  1.00  0.00    -0.379 N 
HETATM   17  C18 UNL     1       0.094   1.360   0.330  1.00  0.00     0.161 C 
HETATM   18  H14 UNL     1      -1.902   0.494  -0.116  1.00  0.00     0.160 HD
ENDROOT
BRANCH   8  19
HETATM   19  O2  UNL     1       4.914  -1.016  -1.467  1.00  0.00    -0.353 OA
HETATM   20  C8  UNL     1       5.424  -2.178  -0.792  1.00  0.00     0.210 C 
ENDBRANCH   8  19
BRANCH  14  21
HETATM   21  N3  UNL     1      -3.443  -0.012   1.266  1.00  0.00    -0.314 N 
HETATM   22  C12 UNL     1      -3.846   1.361   1.468  1.00  0.00     0.097 A 
HETATM   23  C13 UNL     1      -4.804   1.832   0.709  1.00  0.00     0.033 A 
HETATM   24  C14 UNL     1      -5.541   1.139  -0.347  1.00  0.00     0.240 A 
HETATM   25  F1  UNL     1      -6.906   1.133  -0.135  1.00  0.00    -0.239 F 
HETATM   26  C15 UNL     1      -5.119  -0.268  -0.542  1.00  0.00     0.065 A 
HETATM   27 CL1  UNL     1      -5.927  -1.205  -1.768  1.00  0.00    -0.084 Cl
HETATM   28  C16 UNL     1      -4.152  -0.728   0.231  1.00  0.00     0.120 A 
ENDBRANCH  14  21
TORSDOF 2
