REMARK  0 active torsions:
REMARK  status: ('A' for Active; 'I' for Inactive)
ROOT
HETATM    1  C1  UNL     1      -3.349  -3.153   1.309  1.00  0.00    -0.017 C 
HETATM    2  C2  UNL     1      -4.020  -2.248   0.536  1.00  0.00     0.044 C 
HETATM    3  C3  UNL     1      -5.465  -1.959   0.264  1.00  0.00     0.011 C 
HETATM    4  C4  UNL     1      -5.458  -0.901  -0.588  1.00  0.00     0.045 A 
HETATM    5  N1  UNL     1      -6.442  -0.088  -1.280  1.00  0.00    -0.268 NA
HETATM    6  C5  UNL     1      -5.637   0.711  -1.825  1.00  0.00     0.107 A 
HETATM    7  C6  UNL     1      -4.477   0.002  -1.187  1.00  0.00     0.130 A 
HETATM    8  C7  UNL     1      -3.835   0.959  -0.234  1.00  0.00     0.070 A 
HETATM    9  C8  UNL     1      -4.430   2.102   0.322  1.00  0.00     0.049 A 
HETATM   10  C9  UNL     1      -3.797   3.009   1.170  1.00  0.00     0.138 A 
HETATM   11  N2  UNL     1      -2.473   2.800   1.515  1.00  0.00    -0.075 NA
HETATM   12  C10 UNL     1      -1.947   1.726   0.981  1.00  0.00     0.728 A 
HETATM   13  N3  UNL     1      -2.566   0.865   0.171  1.00  0.00    -0.066 NA
HETATM   14  N4  UNL     1      -0.619   1.365   1.159  1.00  0.00    -0.185 N 
HETATM   15  C11 UNL     1       0.348   2.321   0.644  1.00  0.00     0.116 C 
HETATM   16  C12 UNL     1       1.293   1.764  -0.189  1.00  0.00    -0.042 C 
HETATM   17  C13 UNL     1       1.300   0.338  -0.100  1.00  0.00     0.013 C 
HETATM   18  C14 UNL     1       0.624  -0.512   0.607  1.00  0.00    -0.053 C 
HETATM   19  C15 UNL     1      -0.139   0.126   1.752  1.00  0.00     0.182 C 
HETATM   20  C16 UNL     1       0.476  -2.038   0.421  1.00  0.00     0.042 C 
HETATM   21  C17 UNL     1      -0.970  -2.213   0.523  1.00  0.00    -0.018 C 
HETATM   22  C18 UNL     1      -1.926  -2.905   1.122  1.00  0.00    -0.007 C 
HETATM   23  C19 UNL     1       1.063  -2.363  -0.912  1.00  0.00     0.040 C 
HETATM   24  C20 UNL     1       2.575  -2.107  -0.806  1.00  0.00    -0.030 C 
HETATM   25  C21 UNL     1       3.626  -1.781   0.027  1.00  0.00    -0.029 C 
HETATM   26  C22 UNL     1       4.983  -1.669  -0.585  1.00  0.00     0.056 C 
HETATM   27  C23 UNL     1       5.534  -0.247  -0.336  1.00  0.00     0.273 C 
HETATM   28  N5  UNL     1       4.372   0.635  -0.348  1.00  0.00     0.083 NA
HETATM   29  C24 UNL     1       4.606   2.010  -0.527  1.00  0.00     0.270 C 
HETATM   30  C25 UNL     1       3.494   2.946  -0.312  1.00  0.00     0.034 C 
HETATM   31  C26 UNL     1       2.156   2.741  -0.926  1.00  0.00     0.042 C 
HETATM   32  H23 UNL     1       3.966   0.504   0.650  1.00  0.00     0.315 HD
ENDROOT
TORSDOF 0
