REMARK  5 active torsions:
REMARK  status: ('A' for Active; 'I' for Inactive)
REMARK    1  A    between atoms: N4_13  and  C10_14 
REMARK    2  A    between atoms: C13_17  and  C14_18 
REMARK    3  A    between atoms: C14_18  and  C15_19 
REMARK    4  A    between atoms: C15_19  and  C16_20 
REMARK    5  A    between atoms: C16_20  and  N5_21 
ROOT
HETATM    1  C1  UNL     1       5.043   3.016  -1.906  1.00  0.00     0.001 A 
HETATM    2  C2  UNL     1       4.338   2.683  -0.847  1.00  0.00    -0.007 A 
HETATM    3  C3  UNL     1       3.947   1.354  -0.367  1.00  0.00     0.155 A 
HETATM    4  N1  UNL     1       4.444   0.298  -1.228  1.00  0.00    -0.326 N 
HETATM    5  C4  UNL     1       5.213   0.666  -2.382  1.00  0.00     0.127 A 
HETATM    6  C5  UNL     1       5.508   1.906  -2.726  1.00  0.00     0.050 A 
HETATM    7  N2  UNL     1       5.594  -0.521  -3.074  1.00  0.00    -0.243 NA
HETATM    8  C6  UNL     1       5.109  -1.514  -2.409  1.00  0.00     0.152 A 
HETATM    9  C7  UNL     1       4.328  -1.147  -1.170  1.00  0.00     0.192 A 
HETATM   10  C8  UNL     1       5.108  -1.705  -0.037  1.00  0.00     0.146 C 
HETATM   11  N3  UNL     1       4.695  -2.615   0.760  1.00  0.00    -0.280 NA
HETATM   12  C9  UNL     1       3.352  -3.109   0.497  1.00  0.00     0.296 C 
HETATM   13  N4  UNL     1       2.525  -2.041   0.010  1.00  0.00    -0.274 N 
HETATM   14  N6  UNL     1       2.991  -1.639  -1.231  1.00  0.00    -0.293 N 
HETATM   15  H30 UNL     1       2.344  -1.126  -1.826  1.00  0.00     0.184 HD
ENDROOT
BRANCH  13  16
HETATM   16  C10 UNL     1       1.405  -1.460   0.657  1.00  0.00     0.052 A 
HETATM   17  C11 UNL     1       0.987  -1.826   1.915  1.00  0.00     0.031 A 
HETATM   18  C12 UNL     1      -0.101  -1.270   2.552  1.00  0.00     0.009 A 
HETATM   19  C13 UNL     1      -0.843  -0.293   1.939  1.00  0.00    -0.058 A 
HETATM   20  C22 UNL     1      -0.443   0.097   0.664  1.00  0.00     0.009 A 
HETATM   21  C23 UNL     1       0.651  -0.488   0.071  1.00  0.00     0.031 A 
BRANCH  19  22
HETATM   22  C14 UNL     1      -2.020   0.348   2.571  1.00  0.00     0.040 C 
BRANCH  22  23
HETATM   23  C15 UNL     1      -3.311  -0.362   2.293  1.00  0.00     0.024 C 
BRANCH  23  24
HETATM   24  C16 UNL     1      -3.660  -0.452   0.858  1.00  0.00     0.117 C 
BRANCH  24  25
HETATM   25  N5  UNL     1      -3.824   0.764   0.157  1.00  0.00    -0.412 N 
HETATM   26  C17 UNL     1      -4.945   1.554   0.514  1.00  0.00     0.117 C 
HETATM   27  C18 UNL     1      -5.769   1.889  -0.687  1.00  0.00     0.019 C 
HETATM   28  C19 UNL     1      -6.066   0.564  -1.397  1.00  0.00     0.003 C 
HETATM   29  C20 UNL     1      -4.761   0.082  -1.993  1.00  0.00     0.019 C 
HETATM   30  C21 UNL     1      -3.568   0.638  -1.248  1.00  0.00     0.117 C 
ENDBRANCH  24  25
ENDBRANCH  23  24
ENDBRANCH  22  23
ENDBRANCH  19  22
ENDBRANCH  13  16
TORSDOF 5
