REMARK  0 active torsions:
REMARK  status: ('A' for Active; 'I' for Inactive)
ROOT
HETATM    1  B1  UNL     1      -1.071   2.105  -2.314  1.00  0.00     0.308 B 
HETATM    2  N1  UNL     1      -0.204   0.475  -2.040  1.00  0.00    -0.388 NA
HETATM    3  C1  UNL     1      -0.938  -0.722  -1.694  1.00  0.00     0.139 C 
HETATM    4  C2  UNL     1      -2.335  -0.702  -2.271  1.00  0.00     0.059 C 
HETATM    5  C3  UNL     1      -3.292   0.180  -1.544  1.00  0.00    -0.020 C 
HETATM    6  C4  UNL     1      -2.753   0.931  -0.573  1.00  0.00    -0.067 C 
HETATM    7  C5  UNL     1      -2.581   0.453   0.831  1.00  0.00     0.186 C 
HETATM    8  N2  UNL     1      -1.556  -0.613   0.846  1.00  0.00    -0.248 N 
HETATM    9  N3  UNL     1      -1.214  -1.181   1.986  1.00  0.00    -0.065 NA
HETATM   10  N4  UNL     1      -0.268  -2.040   1.642  1.00  0.00    -0.135 NA
HETATM   11  C6  UNL     1      -0.038  -1.990   0.289  1.00  0.00     0.085 A 
HETATM   12  C7  UNL     1      -0.881  -1.053  -0.262  1.00  0.00     0.082 A 
HETATM   13  C8  UNL     1       1.080  -2.930  -0.146  1.00  0.00     0.064 C 
HETATM   14  C9  UNL     1       2.363  -2.421   0.518  1.00  0.00     0.010 C 
HETATM   15  C10 UNL     1       2.702  -1.036  -0.018  1.00  0.00     0.027 C 
HETATM   16  C11 UNL     1       3.644  -0.417   0.909  1.00  0.00    -0.027 C 
HETATM   17  C12 UNL     1       3.278   0.741   1.465  1.00  0.00    -0.004 C 
HETATM   18  C13 UNL     1       2.199   1.709   1.491  1.00  0.00    -0.004 C 
HETATM   19  C14 UNL     1       1.152   2.504   1.419  1.00  0.00    -0.021 C 
HETATM   20  C15 UNL     1      -0.147   2.911   0.924  1.00  0.00     0.020 C 
HETATM   21  C16 UNL     1      -1.204   2.745   0.163  1.00  0.00    -0.001 C 
HETATM   22  C17 UNL     1      -2.204   2.278  -0.782  1.00  0.00     0.001 C 
ENDROOT
TORSDOF 0
