REMARK  5 active torsions:
REMARK  status: ('A' for Active; 'I' for Inactive)
REMARK    1  A    between atoms: C6_6  and  O1_7 
REMARK    2  A    between atoms: O1_7  and  C7_8 
REMARK    3  A    between atoms: C7_8  and  C8_9 
REMARK    4  A    between atoms: C8_9  and  C9_10 
REMARK    5  A    between atoms: C9_10  and  N1_11 
ROOT
HETATM    1  C1  UNL     1       4.091   0.603  -1.058  1.00  0.00    -0.003 C 
HETATM    2  C2  UNL     1       3.840  -0.657  -0.795  1.00  0.00    -0.022 C 
HETATM    3  C3  UNL     1       2.853  -1.699  -0.469  1.00  0.00     0.068 C 
HETATM    4  C4  UNL     1       1.532  -1.177  -0.149  1.00  0.00    -0.025 A 
HETATM    5  C5  UNL     1       0.379  -1.025  -0.877  1.00  0.00     0.046 A 
HETATM    6  C6  UNL     1      -0.768  -0.481  -0.344  1.00  0.00     0.069 A 
HETATM    7  C15 UNL     1      -0.825  -0.055   0.960  1.00  0.00     0.039 A 
HETATM    8  C16 UNL     1       0.352  -0.210   1.707  1.00  0.00     0.033 A 
HETATM    9  C17 UNL     1       1.537  -0.761   1.193  1.00  0.00     0.039 A 
HETATM   10  N2  UNL     1       2.584  -0.817   2.155  1.00  0.00    -0.351 N 
HETATM   11  C18 UNL     1       3.826  -0.124   2.214  1.00  0.00     0.203 C 
HETATM   12  N3  UNL     1       5.103  -0.029   2.143  1.00  0.00    -0.265 NA
HETATM   13  C19 UNL     1       5.927  -1.169   1.843  1.00  0.00     0.272 C 
HETATM   14  N4  UNL     1       7.147  -0.688   1.179  1.00  0.00    -0.371 N 
HETATM   15  C20 UNL     1       7.415   0.066  -0.014  1.00  0.00     0.047 C 
HETATM   16  C21 UNL     1       7.060  -0.010  -1.299  1.00  0.00     0.039 C 
HETATM   17  C22 UNL     1       6.379   1.262  -1.465  1.00  0.00    -0.036 C 
HETATM   18  C23 UNL     1       5.113   1.572  -1.370  1.00  0.00     0.009 C 
HETATM   19  C24 UNL     1       7.458   2.221  -1.774  1.00  0.00     0.187 C 
HETATM   20  N5  UNL     1       8.565   1.941  -0.828  1.00  0.00    -0.295 NA
HETATM   21  C25 UNL     1       8.303   1.225   0.239  1.00  0.00     0.139 C 
HETATM   22  H24 UNL     1       2.270  -1.501   2.879  1.00  0.00     0.166 HD
HETATM   23  H28 UNL     1       8.056  -0.949   1.675  1.00  0.00     0.161 HD
ENDROOT
BRANCH   6  24
HETATM   24  O1  UNL     1      -1.866  -0.382  -1.186  1.00  0.00    -0.351 OA
BRANCH  24  25
HETATM   25  C7  UNL     1      -3.075   0.180  -0.687  1.00  0.00     0.177 C 
BRANCH  25  26
HETATM   26  C8  UNL     1      -4.171   0.211  -1.717  1.00  0.00     0.057 C 
BRANCH  26  27
HETATM   27  C9  UNL     1      -5.429   0.826  -1.160  1.00  0.00     0.274 C 
BRANCH  27  28
HETATM   28  N1  UNL     1      -5.951   0.134  -0.034  1.00  0.00     0.088 N 
HETATM   29  C10 UNL     1      -6.488  -1.163  -0.263  1.00  0.00     0.272 C 
HETATM   30  C11 UNL     1      -7.975  -1.200  -0.530  1.00  0.00     0.030 C 
HETATM   31  C12 UNL     1      -8.772  -0.243   0.300  1.00  0.00     0.003 C 
HETATM   32  C13 UNL     1      -8.160   1.135   0.203  1.00  0.00     0.030 C 
HETATM   33  C14 UNL     1      -6.752   0.994   0.798  1.00  0.00     0.272 C 
ENDBRANCH  27  28
ENDBRANCH  26  27
ENDBRANCH  25  26
ENDBRANCH  24  25
ENDBRANCH   6  24
TORSDOF 5
