REMARK  0 active torsions:
REMARK  status: ('A' for Active; 'I' for Inactive)
ROOT
HETATM    1  C1  UNL     1      -3.705  -0.748  -0.844  1.00  0.00    -0.082 C 
HETATM    2  C2  UNL     1      -3.957   0.353  -0.758  1.00  0.00     0.030 C 
HETATM    3  N1  UNL     1      -4.241   1.707  -0.644  1.00  0.00    -0.228 NA
HETATM    4  C3  UNL     1      -3.241   2.521  -0.386  1.00  0.00     0.172 C 
HETATM    5  C4  UNL     1      -2.524   3.720  -0.124  1.00  0.00     0.030 C 
HETATM    6  C5  UNL     1      -1.188   3.366   0.019  1.00  0.00     0.032 C 
HETATM    7  C6  UNL     1      -0.799   1.963  -0.138  1.00  0.00     0.066 C 
HETATM    8  C7  UNL     1      -0.619   1.305   1.172  1.00  0.00     0.035 C 
HETATM    9  C8  UNL     1      -1.098   0.150   1.689  1.00  0.00     0.665 C 
HETATM   10  N2  UNL     1      -1.958  -0.676   0.889  1.00  0.00     0.027 NA
HETATM   11  C9  UNL     1      -2.057  -1.943   1.194  1.00  0.00     0.239 C 
HETATM   12  C10 UNL     1      -2.960  -2.761   0.330  1.00  0.00     0.032 C 
HETATM   13  C11 UNL     1      -3.368  -2.107  -0.952  1.00  0.00     0.102 C 
HETATM   14  C12 UNL     1      -2.147  -4.043  -0.037  1.00  0.00     0.037 C 
HETATM   15  C13 UNL     1      -0.808  -3.615  -0.591  1.00  0.00     0.270 C 
HETATM   16  N3  UNL     1       0.065  -3.021   0.406  1.00  0.00     0.083 N 
HETATM   17  C14 UNL     1       1.118  -2.313  -0.276  1.00  0.00     0.271 C 
HETATM   18  C15 UNL     1       2.253  -2.017   0.677  1.00  0.00     0.056 C 
HETATM   19  C16 UNL     1       3.318  -1.133   0.084  1.00  0.00     0.169 C 
HETATM   20  O1  UNL     1       2.949   0.220   0.066  1.00  0.00    -0.387 OA
HETATM   21  C17 UNL     1       3.919   0.899  -0.657  1.00  0.00     0.194 C 
HETATM   22  C18 UNL     1       3.846   2.362  -0.605  1.00  0.00    -0.005 C 
HETATM   23  C19 UNL     1       3.263   3.477  -0.151  1.00  0.00    -0.024 C 
HETATM   24  C20 UNL     1       2.100   3.699   0.773  1.00  0.00     0.073 C 
HETATM   25  C21 UNL     1       1.024   4.420   0.093  1.00  0.00     0.093 C 
HETATM   26  N4  UNL     1       0.143   3.606   0.269  1.00  0.00    -0.270 NA
HETATM   27  H15 UNL     1       0.484  -3.782   0.974  1.00  0.00     0.315 HD
ENDROOT
TORSDOF 0
