REMARK  1 active torsions:
REMARK  status: ('A' for Active; 'I' for Inactive)
REMARK    1  A    between atoms: C15_19  and  C16_20 
ROOT
HETATM    1  C1  UNL     1       1.608   1.775  -0.285  1.00  0.00     0.023 C 
HETATM    2  C2  UNL     1       0.631   0.870  -0.072  1.00  0.00    -0.021 C 
HETATM    3  C3  UNL     1      -0.652   1.429   0.338  1.00  0.00    -0.021 A 
HETATM    4  C4  UNL     1      -0.610   2.577   1.107  1.00  0.00     0.012 A 
HETATM    5  C5  UNL     1      -1.803   3.140   1.517  1.00  0.00     0.001 A 
HETATM    6  C6  UNL     1      -3.014   2.573   1.170  1.00  0.00     0.001 A 
HETATM    7  C7  UNL     1      -3.051   1.427   0.402  1.00  0.00     0.008 A 
HETATM    8  C8  UNL     1      -1.861   0.864  -0.009  1.00  0.00    -0.045 A 
HETATM    9  C9  UNL     1      -1.896  -0.373  -0.832  1.00  0.00     0.068 C 
HETATM   10  C10 UNL     1      -2.218  -1.591  -0.001  1.00  0.00     0.133 C 
HETATM   11  C11 UNL     1      -2.189  -2.798  -0.899  1.00  0.00     0.036 C 
HETATM   12  N1  UNL     1      -1.430  -1.772   1.160  1.00  0.00    -0.170 NA
HETATM   13  N2  UNL     1      -0.177  -1.770   1.123  1.00  0.00    -0.077 NA
HETATM   14  N3  UNL     1       0.453  -1.586  -0.100  1.00  0.00    -0.275 N 
HETATM   15  C12 UNL     1       1.238  -0.428  -0.340  1.00  0.00     0.123 C 
HETATM   16  C13 UNL     1       1.820  -0.410  -1.757  1.00  0.00     0.066 C 
HETATM   17  C14 UNL     1       3.274  -0.101  -1.588  1.00  0.00     0.152 C 
HETATM   18  N4  UNL     1       3.569  -0.433  -0.221  1.00  0.00    -0.289 NA
HETATM   19  C15 UNL     1       2.508  -0.609   0.452  1.00  0.00     0.080 C 
HETATM   20  H13 UNL     1       0.356  -2.298  -0.854  1.00  0.00     0.185 HD
ENDROOT
BRANCH  19  21
HETATM   21  C16 UNL     1       2.542  -0.957   1.871  1.00  0.00     0.136 C 
HETATM   22  N5  UNL     1       3.679  -1.090   2.464  1.00  0.00    -0.310 NA
HETATM   23  H19 UNL     1       3.793  -1.332   3.453  1.00  0.00     0.186 HD
ENDBRANCH  19  21
TORSDOF 1
