REMARK  7 active torsions:
REMARK  status: ('A' for Active; 'I' for Inactive)
REMARK    1  A    between atoms: O1_1  and  C1_2 
REMARK    2  A    between atoms: C4_5  and  O2_6 
REMARK    3  A    between atoms: O2_6  and  C5_7 
REMARK    4  A    between atoms: C7_12  and  C8_13 
REMARK    5  A    between atoms: C8_13  and  C9_14 
REMARK    6  A    between atoms: C12_19  and  N3_20 
REMARK    7  A    between atoms: N3_20  and  C13_21 
ROOT
HETATM    1  C9  UNL     1      -0.199  -0.977   0.139  1.00  0.00     0.010 A 
HETATM    2  C10 UNL     1       0.475  -2.162   0.313  1.00  0.00     0.129 A 
HETATM    3  N1  UNL     1      -0.250  -3.228   0.698  1.00  0.00    -0.253 NA
HETATM    4  C11 UNL     1      -1.564  -3.134   0.901  1.00  0.00     0.234 A 
HETATM    5  N2  UNL     1      -2.172  -1.967   0.720  1.00  0.00    -0.224 NA
HETATM    6  C12 UNL     1      -1.558  -0.840   0.339  1.00  0.00     0.137 A 
ENDROOT
BRANCH   1   7
HETATM    7  C8  UNL     1       0.626   0.174  -0.286  1.00  0.00     0.085 C 
BRANCH   7   8
HETATM    8  C7  UNL     1       2.053  -0.113  -0.469  1.00  0.00    -0.018 A 
HETATM    9  C1  UNL     1       2.400  -0.801  -1.624  1.00  0.00     0.072 A 
HETATM   10  C2  UNL     1       3.726  -1.134  -1.914  1.00  0.00     0.040 A 
HETATM   11  C3  UNL     1       4.681  -0.743  -0.991  1.00  0.00     0.040 A 
HETATM   12  C4  UNL     1       4.386  -0.059   0.170  1.00  0.00     0.079 A 
HETATM   13  C6  UNL     1       3.066   0.254   0.426  1.00  0.00     0.047 A 
BRANCH   9  14
HETATM   14  O1  UNL     1       1.472  -1.216  -2.583  1.00  0.00    -0.360 OA
HETATM   15  H1  UNL     1       1.031  -0.596  -3.229  1.00  0.00     0.217 HD
ENDBRANCH   9  14
BRANCH  12  16
HETATM   16  O2  UNL     1       5.365   0.320   1.077  1.00  0.00    -0.255 OA
BRANCH  16  17
HETATM   17  C5  UNL     1       5.968   1.591   0.897  1.00  0.00     0.530 C 
HETATM   18  F1  UNL     1       6.903   1.758   1.904  1.00  0.00    -0.144 F 
HETATM   19  F2  UNL     1       6.580   1.679  -0.350  1.00  0.00    -0.144 F 
HETATM   20  F3  UNL     1       5.065   2.633   1.014  1.00  0.00    -0.144 F 
ENDBRANCH  16  17
ENDBRANCH  12  16
ENDBRANCH   7   8
ENDBRANCH   1   7
BRANCH   6  21
HETATM   21  N3  UNL     1      -2.168   0.427   0.135  1.00  0.00    -0.340 N 
HETATM   22  H9  UNL     1      -1.528   1.214  -0.159  1.00  0.00     0.167 HD
BRANCH  21  23
HETATM   23  C13 UNL     1      -3.502   0.824   0.260  1.00  0.00     0.035 A 
HETATM   24  C14 UNL     1      -3.951   2.099   0.032  1.00  0.00     0.029 A 
HETATM   25  C15 UNL     1      -5.267   2.469   0.160  1.00  0.00     0.004 A 
HETATM   26  C16 UNL     1      -6.235   1.562   0.531  1.00  0.00     0.019 A 
HETATM   27  C17 UNL     1      -5.822   0.269   0.768  1.00  0.00     0.013 A 
HETATM   28 BR1  UNL     1      -7.182  -0.966   1.280  1.00  0.00    -0.051 Br
HETATM   29  C18 UNL     1      -4.491  -0.057   0.628  1.00  0.00     0.048 A 
ENDBRANCH  21  23
ENDBRANCH   6  21
TORSDOF 7
