REMARK  7 active torsions:
REMARK  status: ('A' for Active; 'I' for Inactive)
REMARK    1  A    between atoms: C2_2  and  C3_3 
REMARK    2  A    between atoms: C4_4  and  C5_5 
REMARK    3  A    between atoms: C6_6  and  C7_7 
REMARK    4  A    between atoms: C7_7  and  C8_8 
REMARK    5  A    between atoms: C8_8  and  N1_9 
REMARK    6  A    between atoms: C10_11  and  C11_12 
REMARK    7  A    between atoms: C14_15  and  C15_16 
ROOT
HETATM    1  N1  UNL     1       0.016  -0.190  -1.364  1.00  0.00    -0.283 N 
HETATM    2  C9  UNL     1      -1.211  -0.566  -0.905  1.00  0.00     0.141 A 
HETATM    3  C10 UNL     1      -2.123   0.461  -1.087  1.00  0.00     0.101 A 
HETATM    4  N4  UNL     1      -1.395   1.441  -1.663  1.00  0.00    -0.158 NA
HETATM    5  N5  UNL     1      -0.140   1.055  -1.824  1.00  0.00     0.005 NA
ENDROOT
BRANCH   3   6
HETATM    6  C11 UNL     1      -3.543   0.485  -0.740  1.00  0.00    -0.007 A 
HETATM    7  C12 UNL     1      -4.350   1.517  -0.948  1.00  0.00    -0.008 A 
HETATM    8  C13 UNL     1      -5.728   1.185  -0.470  1.00  0.00     0.070 A 
HETATM    9  C14 UNL     1      -5.536  -0.200   0.033  1.00  0.00    -0.005 A 
HETATM   10  C16 UNL     1      -4.274  -0.590  -0.128  1.00  0.00     0.025 A 
BRANCH   9  11
HETATM   11  C15 UNL     1      -6.570  -1.034   0.624  1.00  0.00     0.170 A 
HETATM   12  N2  UNL     1      -6.941  -2.162   1.165  1.00  0.00    -0.153 NA
HETATM   13  N3  UNL     1      -7.925  -1.223   1.040  1.00  0.00    -0.257 N 
HETATM   14  H16 UNL     1      -8.924  -0.960   1.187  1.00  0.00     0.191 HD
ENDBRANCH   9  11
ENDBRANCH   3   6
BRANCH   1  15
HETATM   15  C8  UNL     1       1.187  -1.053  -1.311  1.00  0.00     0.149 C 
BRANCH  15  16
HETATM   16  C7  UNL     1       1.897  -0.812   0.007  1.00  0.00     0.048 C 
BRANCH  16  17
HETATM   17  C6  UNL     1       2.288   0.604   0.053  1.00  0.00    -0.025 C 
HETATM   18  C5  UNL     1       3.427   1.231   0.156  1.00  0.00    -0.008 C 
BRANCH  18  19
HETATM   19  C4  UNL     1       4.643   0.421   0.254  1.00  0.00    -0.021 C 
HETATM   20  C3  UNL     1       5.895   0.120   0.359  1.00  0.00     0.020 C 
BRANCH  20  21
HETATM   21  C2  UNL     1       7.174   0.769   0.473  1.00  0.00    -0.002 C 
HETATM   22  C1  UNL     1       8.030  -0.268   0.539  1.00  0.00     0.006 C 
ENDBRANCH  20  21
ENDBRANCH  18  19
ENDBRANCH  16  17
ENDBRANCH  15  16
ENDBRANCH   1  15
TORSDOF 7
