REMARK  7 active torsions:
REMARK  status: ('A' for Active; 'I' for Inactive)
REMARK    1  A    between atoms: C1_1  and  C2_2 
REMARK    2  A    between atoms: C2_2  and  C3_3 
REMARK    3  A    between atoms: C5_5  and  C6_6 
REMARK    4  A    between atoms: C6_6  and  C7_7 
REMARK    5  A    between atoms: C13_15  and  C14_16 
REMARK    6  A    between atoms: N2_19  and  N3_20 
REMARK    7  A    between atoms: N2_19  and  C17_21 
ROOT
HETATM    1  C3  UNL     1       0.977  -0.265  -0.147  1.00  0.00     0.089 A 
HETATM    2  C4  UNL     1       0.301  -1.456   0.127  1.00  0.00     0.065 A 
HETATM    3  C5  UNL     1      -0.763  -1.499  -0.757  1.00  0.00     0.068 A 
HETATM    4  N1  UNL     1      -0.666  -0.367  -1.488  1.00  0.00    -0.133 NA
HETATM    5  O1  UNL     1       0.342   0.345  -1.134  1.00  0.00    -0.217 OA
ENDROOT
BRANCH   1   6
HETATM    6  C2  UNL     1       2.092  -0.167   0.742  1.00  0.00     0.081 C 
BRANCH   6   7
HETATM    7  C1  UNL     1       3.132   0.092   1.453  1.00  0.00    -0.015 C 
HETATM    8  C13 UNL     1       4.214   0.982   1.753  1.00  0.00     0.019 C 
BRANCH   8   9
HETATM    9  C14 UNL     1       3.888   1.950   0.861  1.00  0.00     0.294 A 
HETATM   10  C15 UNL     1       4.385   3.176   0.475  1.00  0.00     0.429 A 
HETATM   11  C16 UNL     1       3.378   3.472  -0.510  1.00  0.00     0.341 A 
HETATM   12  C17 UNL     1       5.438   4.035   0.758  1.00  0.00     0.536 A 
HETATM   13  N3  UNL     1       4.795   2.904   0.969  1.00  0.00     0.193 N 
HETATM   14  N2  UNL     1       4.443   3.879   0.074  1.00  0.00     0.185 N 
ENDBRANCH   8   9
ENDBRANCH   6   7
ENDBRANCH   1   6
BRANCH   3  15
HETATM   15  C6  UNL     1      -1.915  -2.361  -1.127  1.00  0.00     0.100 C 
BRANCH  15  16
HETATM   16  C7  UNL     1      -3.181  -1.942  -0.481  1.00  0.00    -0.052 A 
HETATM   17  C8  UNL     1      -3.901  -1.057  -1.253  1.00  0.00     0.007 A 
HETATM   18  C9  UNL     1      -5.111  -0.588  -0.762  1.00  0.00     0.001 A 
HETATM   19  C10 UNL     1      -5.578  -0.995   0.463  1.00  0.00     0.000 A 
HETATM   20  C11 UNL     1      -4.840  -1.890   1.233  1.00  0.00     0.001 A 
HETATM   21  C12 UNL     1      -3.628  -2.378   0.768  1.00  0.00     0.007 A 
ENDBRANCH  15  16
ENDBRANCH   3  15
TORSDOF 7
