REMARK  2 active torsions:
REMARK  status: ('A' for Active; 'I' for Inactive)
REMARK    1  A    between atoms: N1_1  and  C1_2 
REMARK    2  A    between atoms: C1_2  and  C2_3 
ROOT
HETATM    1  C2  UNL     1       2.701  -0.645   0.058  1.00  0.00     0.070 C 
HETATM    2  C3  UNL     1       2.587  -0.127  -1.427  1.00  0.00     0.075 C 
HETATM    3  C4  UNL     1       1.197  -0.701  -1.818  1.00  0.00     0.077 A 
HETATM    4  N2  UNL     1       1.318  -1.807  -2.558  1.00  0.00    -0.162 NA
HETATM    5  N3  UNL     1       0.063  -2.259  -2.558  1.00  0.00     0.007 NA
HETATM    6  N4  UNL     1      -0.721  -1.428  -1.843  1.00  0.00    -0.252 N 
HETATM    7  C5  UNL     1      -0.114  -0.342  -1.298  1.00  0.00     0.063 A 
HETATM    8  C6  UNL     1       0.017   0.923  -0.530  1.00  0.00     0.067 C 
HETATM    9  C7  UNL     1       0.950   0.544   0.637  1.00  0.00     0.011 C 
HETATM   10  C8  UNL     1       1.347  -0.720   0.611  1.00  0.00     0.031 C 
HETATM   11  N5  UNL     1       0.143  -1.206   1.120  1.00  0.00    -0.280 N 
HETATM   12  N6  UNL     1      -0.960  -1.714   0.531  1.00  0.00    -0.149 NA
HETATM   13  C9  UNL     1      -2.242  -1.411   0.604  1.00  0.00     0.185 C 
HETATM   14  C10 UNL     1      -3.374  -0.565   1.145  1.00  0.00     0.060 C 
HETATM   15  C11 UNL     1      -3.676   0.623   1.439  1.00  0.00     0.004 C 
HETATM   16  C12 UNL     1      -3.237   1.997   1.433  1.00  0.00    -0.004 C 
HETATM   17  C13 UNL     1      -2.069   2.240   0.758  1.00  0.00    -0.026 C 
HETATM   18  C14 UNL     1      -1.105   1.518   0.007  1.00  0.00     0.042 C 
HETATM   19  O1  UNL     1      -2.350  -2.420  -0.370  1.00  0.00    -0.312 OA
HETATM   20  C15 UNL     1      -1.995  -2.086  -1.761  1.00  0.00     0.324 C 
HETATM   21  H10 UNL     1       0.026  -1.209   2.180  1.00  0.00     0.189 HD
ENDROOT
BRANCH   1  22
HETATM   22  C1  UNL     1       3.634   0.221   0.784  1.00  0.00     0.277 C 
BRANCH  22  23
HETATM   23  N1  UNL     1       3.277   1.622   0.835  1.00  0.00     0.079 N 
HETATM   24  H1  UNL     1       3.725   2.098   1.632  1.00  0.00     0.312 HD
HETATM   25  H2  UNL     1       3.536   2.064  -0.091  1.00  0.00     0.312 HD
ENDBRANCH  22  23
ENDBRANCH   1  22
TORSDOF 2
