REMARK  7 active torsions:
REMARK  status: ('A' for Active; 'I' for Inactive)
REMARK    1  A    between atoms: C5_5  and  C6_6 
REMARK    2  A    between atoms: C6_6  and  N1_8 
REMARK    3  A    between atoms: N1_8  and  N2_9 
REMARK    4  A    between atoms: N2_9  and  N3_10 
REMARK    5  A    between atoms: N3_10  and  C8_11 
REMARK    6  A    between atoms: C8_11  and  C9_12 
REMARK    7  A    between atoms: C16_20  and  N5_21 
ROOT
HETATM    1  C6  UNL     1      -1.035  -1.453   0.769  1.00  0.00     0.055 C 
HETATM    2  C7  UNL     1      -1.235  -1.586   2.248  1.00  0.00     0.072 C 
ENDROOT
BRANCH   1   3
HETATM    3  C5  UNL     1      -1.812  -0.786  -0.056  1.00  0.00     0.042 C 
HETATM    4  C4  UNL     1      -3.012  -0.011   0.083  1.00  0.00    -0.003 A 
HETATM    5  C3  UNL     1      -3.784   0.684  -0.926  1.00  0.00     0.017 A 
HETATM    6  C15 UNL     1      -3.587   0.164   1.244  1.00  0.00     0.131 A 
HETATM    7  C2  UNL     1      -3.587   0.784  -2.207  1.00  0.00    -0.015 C 
HETATM    8  C16 UNL     1      -4.900   1.292  -0.172  1.00  0.00     0.131 A 
HETATM    9  C1  UNL     1      -2.566   0.271  -3.118  1.00  0.00     0.037 C 
HETATM   10  N4  UNL     1      -4.741   0.965   1.061  1.00  0.00    -0.242 NA
BRANCH   8  11
HETATM   11  N5  UNL     1      -5.964   2.098  -0.721  1.00  0.00    -0.383 N 
HETATM   12  H18 UNL     1      -6.733   1.408  -0.950  1.00  0.00     0.157 HD
HETATM   13  H19 UNL     1      -5.872   3.135  -0.821  1.00  0.00     0.157 HD
ENDBRANCH   8  11
ENDBRANCH   1   3
BRANCH   1  14
HETATM   14  N1  UNL     1       0.132  -2.142   0.278  1.00  0.00    -0.138 NA
BRANCH  14  15
HETATM   15  N2  UNL     1       1.234  -1.540   0.319  1.00  0.00    -0.073 NA
BRANCH  15  16
HETATM   16  N3  UNL     1       1.449  -0.259   0.797  1.00  0.00    -0.291 N 
HETATM   17  H9  UNL     1       0.690   0.404   0.521  1.00  0.00     0.184 HD
BRANCH  16  18
HETATM   18  C8  UNL     1       2.607   0.128   1.599  1.00  0.00     0.181 C 
BRANCH  18  19
HETATM   19  C9  UNL     1       3.858  -0.117   0.836  1.00  0.00    -0.039 A 
HETATM   20  C10 UNL     1       4.371   0.888   0.033  1.00  0.00     0.009 A 
HETATM   21  C11 UNL     1       5.529   0.789  -0.730  1.00  0.00     0.001 A 
HETATM   22  C12 UNL     1       6.221  -0.424  -0.674  1.00  0.00     0.000 A 
HETATM   23  C13 UNL     1       5.736  -1.446   0.116  1.00  0.00     0.001 A 
HETATM   24  C14 UNL     1       4.581  -1.307   0.859  1.00  0.00     0.009 A 
ENDBRANCH  18  19
ENDBRANCH  16  18
ENDBRANCH  15  16
ENDBRANCH  14  15
ENDBRANCH   1  14
TORSDOF 7
