REMARK  2 active torsions:
REMARK  status: ('A' for Active; 'I' for Inactive)
REMARK    1  A    between atoms: C7_7  and  C8_8 
REMARK    2  A    between atoms: C9_12  and  C10_13 
ROOT
HETATM    1  C8  UNL     1      -0.762   1.300   0.869  1.00  0.00     0.049 A 
HETATM    2  N1  UNL     1      -0.802   2.547   1.200  1.00  0.00    -0.161 NA
HETATM    3  O1  UNL     1       0.195   2.875   2.052  1.00  0.00    -0.335 OA
HETATM    4  B1  UNL     1       1.031   1.697   2.350  1.00  0.00     0.366 B 
HETATM    5  C9  UNL     1       0.352   0.538   1.459  1.00  0.00     0.076 A 
HETATM    6  H10 UNL     1       1.960   1.594   3.063  1.00  0.00     0.011 HD
ENDROOT
BRANCH   5   7
HETATM    7  C10 UNL     1       1.379   0.222   0.387  1.00  0.00     0.009 C 
HETATM    8  C11 UNL     1       1.318   0.878  -0.785  1.00  0.00     0.026 C 
HETATM    9  C12 UNL     1       2.329   0.567  -1.810  1.00  0.00     0.031 C 
HETATM   10  C13 UNL     1       3.349  -0.303  -1.705  1.00  0.00     0.055 A 
HETATM   11  N2  UNL     1       4.468  -0.937  -2.301  1.00  0.00    -0.281 N 
HETATM   12  C15 UNL     1       3.518  -0.597  -0.237  1.00  0.00     0.175 A 
HETATM   13  N3  UNL     1       5.228  -1.615  -1.345  1.00  0.00    -0.189 NA
HETATM   14  H14 UNL     1       4.518  -0.778  -3.351  1.00  0.00     0.189 HD
HETATM   15  C14 UNL     1       4.697  -1.446  -0.181  1.00  0.00     0.143 A 
HETATM   16  N4  UNL     1       2.387  -0.812   0.520  1.00  0.00    -0.378 N 
HETATM   17  H17 UNL     1       2.122  -1.585   1.173  1.00  0.00     0.160 HD
ENDBRANCH   5   7
BRANCH   1  18
HETATM   18  C7  UNL     1      -1.763   0.656  -0.070  1.00  0.00     0.065 A 
HETATM   19  C2  UNL     1      -2.499  -0.451   0.647  1.00  0.00     0.017 A 
HETATM   20  C1  UNL     1      -2.333  -1.735  -0.176  1.00  0.00     0.015 C 
HETATM   21  C3  UNL     1      -3.939  -0.167   0.655  1.00  0.00    -0.021 A 
HETATM   22  C4  UNL     1      -4.770   0.762   0.226  1.00  0.00    -0.004 A 
HETATM   23  C5  UNL     1      -4.071   1.836  -0.467  1.00  0.00    -0.004 A 
HETATM   24  C6  UNL     1      -2.767   1.645  -0.512  1.00  0.00    -0.015 A 
ENDBRANCH   1  18
TORSDOF 2
