REMARK  4 active torsions:
REMARK  status: ('A' for Active; 'I' for Inactive)
REMARK    1  A    between atoms: C3_3  and  C4_4 
REMARK    2  A    between atoms: C5_5  and  C6_6 
REMARK    3  A    between atoms: C6_6  and  C7_7 
REMARK    4  A    between atoms: C7_7  and  C8_8 
ROOT
HETATM    1  C8  UNL     1      -0.606   1.244  -1.198  1.00  0.00     0.091 A 
HETATM    2  N1  UNL     1      -0.100   0.815  -2.399  1.00  0.00    -0.131 NA
HETATM    3  O1  UNL     1      -0.881  -0.027  -2.968  1.00  0.00    -0.215 OA
HETATM    4  C9  UNL     1      -1.947  -0.264  -2.273  1.00  0.00     0.111 A 
HETATM    5  C10 UNL     1      -1.784   0.538  -1.150  1.00  0.00     0.097 A 
HETATM    6  N2  UNL     1      -2.624   0.713  -0.041  1.00  0.00    -0.309 N 
HETATM    7  C11 UNL     1      -2.745   1.866   0.813  1.00  0.00     0.234 C 
HETATM    8  N3  UNL     1      -3.063   1.383   2.000  1.00  0.00    -0.172 NA
HETATM    9  N4  UNL     1      -3.151  -0.034   1.935  1.00  0.00    -0.286 N 
HETATM   10  C12 UNL     1      -3.591  -0.193   0.561  1.00  0.00     0.231 C 
HETATM   11  C13 UNL     1      -3.574  -1.547   0.036  1.00  0.00     0.017 C 
HETATM   12  C14 UNL     1      -3.388  -1.954  -1.236  1.00  0.00    -0.020 C 
HETATM   13  C15 UNL     1      -3.149  -1.137  -2.459  1.00  0.00     0.096 C 
HETATM   14  H13 UNL     1      -2.920  -0.634   2.755  1.00  0.00     0.185 HD
ENDROOT
BRANCH   1  15
HETATM   15  C7  UNL     1       0.079   2.195  -0.295  1.00  0.00     0.068 C 
BRANCH  15  16
HETATM   16  C6  UNL     1       0.697   1.435   0.900  1.00  0.00     0.033 C 
BRANCH  16  17
HETATM   17  C5  UNL     1       1.679   0.438   0.415  1.00  0.00    -0.026 C 
HETATM   18  C4  UNL     1       2.972   0.299   0.647  1.00  0.00    -0.004 C 
BRANCH  18  19
HETATM   19  C3  UNL     1       3.880  -0.696   0.145  1.00  0.00    -0.005 C 
HETATM   20  C2  UNL     1       5.148  -0.641   0.515  1.00  0.00    -0.031 C 
HETATM   21  C1  UNL     1       6.089  -1.648   0.013  1.00  0.00     0.036 C 
ENDBRANCH  18  19
ENDBRANCH  16  17
ENDBRANCH  15  16
ENDBRANCH   1  15
TORSDOF 4
