REMARK  3 active torsions:
REMARK  status: ('A' for Active; 'I' for Inactive)
REMARK    1  A    between atoms: C5_7  and  C6_8 
REMARK    2  A    between atoms: C8_10  and  C9_11 
REMARK    3  A    between atoms: C9_11  and  C10_12 
ROOT
HETATM    1  C6  UNL     1       1.090  -0.093   0.547  1.00  0.00     0.132 A 
HETATM    2  C7  UNL     1      -0.005  -0.933   0.604  1.00  0.00     0.071 A 
HETATM    3  C8  UNL     1      -0.949  -0.257   1.382  1.00  0.00     0.069 A 
HETATM    4  N3  UNL     1      -0.379   0.919   1.738  1.00  0.00    -0.132 NA
HETATM    5  O1  UNL     1       0.815   1.005   1.244  1.00  0.00    -0.211 OA
ENDROOT
BRANCH   1   6
HETATM    6  C5  UNL     1       2.339  -0.366  -0.159  1.00  0.00     0.094 A 
HETATM    7  N2  UNL     1       3.405   0.453  -0.213  1.00  0.00    -0.236 N 
HETATM    8  N1  UNL     1       3.840   1.702   0.242  1.00  0.00    -0.183 NA
HETATM    9  C2  UNL     1       4.394  -0.110  -0.953  1.00  0.00     0.041 A 
HETATM   10  C1  UNL     1       5.032   1.972  -0.155  1.00  0.00     0.118 A 
HETATM   11  C16 UNL     1       5.554   0.846  -0.978  1.00  0.00     0.107 A 
HETATM   12  C3  UNL     1       3.963  -1.345  -1.403  1.00  0.00     0.030 A 
HETATM   13  C4  UNL     1       2.684  -1.495  -0.903  1.00  0.00     0.036 A 
ENDBRANCH   1   6
BRANCH   3  14
HETATM   14  C9  UNL     1      -2.317  -0.762   1.736  1.00  0.00     0.100 C 
BRANCH  14  15
HETATM   15  C10 UNL     1      -3.317  -0.352   0.730  1.00  0.00    -0.052 A 
HETATM   16  C11 UNL     1      -3.681  -1.050  -0.403  1.00  0.00     0.007 A 
HETATM   17  C12 UNL     1      -4.638  -0.556  -1.272  1.00  0.00     0.001 A 
HETATM   18  C13 UNL     1      -5.236   0.655  -0.998  1.00  0.00     0.000 A 
HETATM   19  C14 UNL     1      -4.906   1.393   0.126  1.00  0.00     0.001 A 
HETATM   20  C15 UNL     1      -3.941   0.872   0.981  1.00  0.00     0.007 A 
ENDBRANCH  14  15
ENDBRANCH   3  14
TORSDOF 3
