REMARK  6 active torsions:
REMARK  status: ('A' for Active; 'I' for Inactive)
REMARK    1  A    between atoms: C2_2  and  C3_3 
REMARK    2  A    between atoms: C3_3  and  C4_4 
REMARK    3  A    between atoms: C4_4  and  C5_5 
REMARK    4  A    between atoms: N1_6  and  C6_7 
REMARK    5  A    between atoms: C6_7  and  C7_8 
REMARK    6  A    between atoms: C9_10  and  C10_11 
ROOT
HETATM    1  C7  UNL     1      -0.782   1.416  -0.767  1.00  0.00     0.084 A 
HETATM    2  C8  UNL     1      -1.351   0.357  -1.488  1.00  0.00     0.066 A 
HETATM    3  C9  UNL     1      -2.557  -0.025  -0.875  1.00  0.00     0.088 A 
HETATM    4  O1  UNL     1      -2.641   0.797   0.142  1.00  0.00    -0.217 OA
HETATM    5  N3  UNL     1      -1.659   1.614   0.223  1.00  0.00    -0.131 NA
ENDROOT
BRANCH   3   6
HETATM    6  C10 UNL     1      -3.288  -1.116  -1.492  1.00  0.00     0.080 A 
HETATM    7  C11 UNL     1      -4.827  -0.967  -1.315  1.00  0.00     0.033 A 
HETATM    8  C12 UNL     1      -3.946  -1.890  -0.926  1.00  0.00     0.035 A 
HETATM    9  C13 UNL     1      -3.287  -3.283  -1.245  1.00  0.00     0.034 A 
HETATM   10  N2  UNL     1      -4.482  -1.286   0.498  1.00  0.00    -0.407 N 
HETATM   11  C14 UNL     1      -3.306  -2.420  -0.575  1.00  0.00     0.018 A 
HETATM   12  C15 UNL     1      -3.411  -2.285   0.913  1.00  0.00     0.130 A 
HETATM   13  C16 UNL     1      -4.967  -0.745   1.705  1.00  0.00     0.144 C 
ENDBRANCH   3   6
BRANCH   1  14
HETATM   14  C6  UNL     1       0.503   2.121  -1.045  1.00  0.00     0.209 C 
BRANCH  14  15
HETATM   15  N1  UNL     1       1.555   1.450  -0.294  1.00  0.00    -0.300 NA
HETATM   16  C5  UNL     1       2.210   2.059   0.619  1.00  0.00     0.083 C 
BRANCH  16  17
HETATM   17  C4  UNL     1       3.295   1.441   1.425  1.00  0.00     0.046 C 
BRANCH  17  18
HETATM   18  C3  UNL     1       4.431   1.027   0.525  1.00  0.00     0.005 C 
BRANCH  18  19
HETATM   19  C2  UNL     1       5.498   0.421   1.420  1.00  0.00    -0.004 C 
HETATM   20  C1  UNL     1       6.701  -0.039   0.664  1.00  0.00     0.005 C 
ENDBRANCH  18  19
ENDBRANCH  17  18
ENDBRANCH  16  17
ENDBRANCH  14  15
ENDBRANCH   1  14
TORSDOF 6
