REMARK  4 active torsions:
REMARK  status: ('A' for Active; 'I' for Inactive)
REMARK    1  A    between atoms: C4_6  and  C5_7 
REMARK    2  A    between atoms: C5_7  and  C6_8 
REMARK    3  A    between atoms: C8_10  and  C9_11 
REMARK    4  A    between atoms: C9_11  and  N3_12 
ROOT
HETATM    1  C6  UNL     1       0.576   1.058  -1.485  1.00  0.00     0.084 A 
HETATM    2  C7  UNL     1      -0.740   1.202  -1.096  1.00  0.00     0.066 A 
HETATM    3  C8  UNL     1      -1.499   0.258  -1.796  1.00  0.00     0.092 A 
HETATM    4  N4  UNL     1      -0.579  -0.388  -2.559  1.00  0.00    -0.131 NA
HETATM    5  O1  UNL     1       0.600   0.080  -2.370  1.00  0.00    -0.217 OA
ENDROOT
BRANCH   1   6
HETATM    6  C5  UNL     1       1.685   1.910  -0.937  1.00  0.00     0.094 C 
BRANCH   6   7
HETATM    7  C4  UNL     1       2.270   1.302   0.261  1.00  0.00    -0.014 C 
HETATM    8  C3  UNL     1       3.482   0.876   0.592  1.00  0.00    -0.036 C 
HETATM    9  C2  UNL     1       4.642   0.950  -0.336  1.00  0.00     0.183 C 
HETATM   10  C15 UNL     1       3.653   0.305   1.956  1.00  0.00     0.308 C 
HETATM   11  N2  UNL     1       5.275  -0.377  -0.314  1.00  0.00    -0.263 N 
HETATM   12  N1  UNL     1       5.565  -1.224  -1.395  1.00  0.00    -0.171 NA
HETATM   13  C16 UNL     1       5.592  -0.739   1.075  1.00  0.00     0.376 C 
HETATM   14  C1  UNL     1       5.283  -2.498  -0.958  1.00  0.00     0.120 C 
HETATM   15  P1  UNL     1       6.240  -2.495   0.639  1.00  0.00     0.037 P 
HETATM   16  N5  UNL     1       4.386  -0.918   1.850  1.00  0.00     0.116 N 
HETATM   17  H21 UNL     1       3.855  -1.707   1.448  1.00  0.00     0.319 HD
ENDBRANCH   6   7
ENDBRANCH   1   6
BRANCH   3  18
HETATM   18  C9  UNL     1      -2.934  -0.098  -1.834  1.00  0.00     0.333 C 
BRANCH  18  19
HETATM   19  N3  UNL     1      -3.231  -1.115  -0.854  1.00  0.00     0.094 N 
HETATM   20  C10 UNL     1      -4.617  -1.502  -0.846  1.00  0.00     0.273 C 
HETATM   21  C11 UNL     1      -5.478  -0.594  -0.011  1.00  0.00     0.030 C 
HETATM   22  C12 UNL     1      -4.894  -0.231   1.316  1.00  0.00     0.003 C 
HETATM   23  C13 UNL     1      -3.458   0.257   1.167  1.00  0.00     0.030 C 
HETATM   24  C14 UNL     1      -2.712  -0.815   0.448  1.00  0.00     0.273 C 
ENDBRANCH  18  19
ENDBRANCH   3  18
TORSDOF 4
