REMARK  7 active torsions:
REMARK  status: ('A' for Active; 'I' for Inactive)
REMARK    1  A    between atoms: B1_1  and  C1_2 
REMARK    2  A    between atoms: C1_2  and  C2_3 
REMARK    3  A    between atoms: C2_3  and  C3_4 
REMARK    4  A    between atoms: N1_7  and  C6_8 
REMARK    5  A    between atoms: C7_9  and  C8_10 
REMARK    6  A    between atoms: C10_14  and  C11_15 
REMARK    7  A    between atoms: C11_15  and  N4_16 
ROOT
HETATM    1  C3  UNL     1      -1.699   0.390  -1.493  1.00  0.00     0.104 A 
HETATM    2  C4  UNL     1      -0.933   0.971  -2.624  1.00  0.00     0.013 A 
HETATM    3  C5  UNL     1       0.274   0.450  -2.756  1.00  0.00     0.108 A 
HETATM    4  N1  UNL     1       0.388  -0.510  -1.720  1.00  0.00    -0.297 N 
HETATM    5  N5  UNL     1      -0.765  -0.559  -0.932  1.00  0.00    -0.221 NA
HETATM    6  C12 UNL     1      -1.265  -1.911  -0.966  1.00  0.00     0.137 C 
ENDROOT
BRANCH   4   7
HETATM    7  C6  UNL     1       1.391  -1.412  -1.317  1.00  0.00     0.111 C 
HETATM    8  C7  UNL     1       2.384  -1.364  -0.448  1.00  0.00     0.034 C 
BRANCH   8   9
HETATM    9  C8  UNL     1       2.677  -0.203   0.378  1.00  0.00     0.011 A 
HETATM   10  C9  UNL     1       2.058   0.950   0.426  1.00  0.00     0.120 A 
HETATM   11  N2  UNL     1       2.629   1.860   1.364  1.00  0.00    -0.311 N 
HETATM   12  N3  UNL     1       3.704   1.195   1.948  1.00  0.00    -0.299 N 
HETATM   13  H11 UNL     1       2.349   2.827   1.608  1.00  0.00     0.186 HD
HETATM   14  C10 UNL     1       3.742  -0.087   1.342  1.00  0.00     0.074 A 
HETATM   15  H12 UNL     1       4.355   1.566   2.686  1.00  0.00     0.187 HD
BRANCH  14  16
HETATM   16  C11 UNL     1       4.653  -0.986   1.669  1.00  0.00     0.112 C 
BRANCH  16  17
HETATM   17  N4  UNL     1       4.814  -2.296   1.154  1.00  0.00    -0.406 N 
HETATM   18  H14 UNL     1       4.499  -3.288   1.270  1.00  0.00     0.155 HD
HETATM   19  H15 UNL     1       5.502  -2.311   0.352  1.00  0.00     0.155 HD
ENDBRANCH  16  17
ENDBRANCH  14  16
ENDBRANCH   8   9
ENDBRANCH   4   7
BRANCH   1  20
HETATM   20  C2  UNL     1      -2.025   1.536  -0.567  1.00  0.00     0.031 C 
BRANCH  20  21
HETATM   21  C1  UNL     1      -2.801   1.163   0.646  1.00  0.00    -0.041 A 
HETATM   22  C13 UNL     1      -4.100   0.534   0.363  1.00  0.00    -0.024 A 
HETATM   23  C14 UNL     1      -4.125  -0.615   1.056  1.00  0.00    -0.004 A 
HETATM   24  C15 UNL     1      -2.893  -0.770   1.786  1.00  0.00    -0.004 A 
HETATM   25  C16 UNL     1      -2.088   0.256   1.571  1.00  0.00    -0.024 A 
BRANCH  21  26
HETATM   26  B1  UNL     1      -3.031   2.521   1.475  1.00  0.00     0.154 B 
HETATM   27  H1  UNL     1      -2.332   3.460   1.363  1.00  0.00    -0.030 HD
HETATM   28  H2  UNL     1      -3.897   2.457   2.293  1.00  0.00    -0.030 HD
ENDBRANCH  21  26
ENDBRANCH  20  21
ENDBRANCH   1  20
TORSDOF 7
