REMARK  5 active torsions:
REMARK  status: ('A' for Active; 'I' for Inactive)
REMARK    1  A    between atoms: S1_1  and  N1_2 
REMARK    2  A    between atoms: N1_2  and  N2_3 
REMARK    3  A    between atoms: C4_7  and  C5_8 
REMARK    4  A    between atoms: C7_10  and  C8_11 
REMARK    5  A    between atoms: C8_11  and  N3_12 
ROOT
HETATM    1  C5  UNL     1       1.401   0.059   0.587  1.00  0.00     0.098 A 
HETATM    2  C6  UNL     1       0.139  -0.478   0.503  1.00  0.00     0.067 A 
HETATM    3  C7  UNL     1      -0.619  -0.009   1.524  1.00  0.00     0.082 A 
HETATM    4  N4  UNL     1       0.201   0.805   2.209  1.00  0.00    -0.131 NA
HETATM    5  O1  UNL     1       1.353   0.822   1.645  1.00  0.00    -0.216 OA
ENDROOT
BRANCH   1   6
HETATM    6  C4  UNL     1       2.559  -0.190  -0.339  1.00  0.00     0.064 A 
HETATM    7  C3  UNL     1       2.231  -1.125  -1.439  1.00  0.00     0.005 A 
HETATM    8  C2  UNL     1       3.432  -0.774  -1.575  1.00  0.00    -0.021 A 
HETATM    9  C1  UNL     1       4.447  -0.464  -1.672  1.00  0.00     0.032 A 
HETATM   10  N2  UNL     1       5.605  -0.095  -1.761  1.00  0.00    -0.199 NA
HETATM   11  C15 UNL     1       4.981   0.627  -0.465  1.00  0.00     0.133 A 
HETATM   12  C14 UNL     1       3.727   0.721   0.301  1.00  0.00     0.042 A 
BRANCH  10  13
HETATM   13  N1  UNL     1       6.792   0.518  -1.535  1.00  0.00    -0.196 NA
HETATM   14  H2  UNL     1       7.252   0.844  -2.390  1.00  0.00     0.155 HD
BRANCH  13  15
HETATM   15  S1  UNL     1       7.889  -0.574  -0.687  1.00  0.00    -0.082 SA
HETATM   16  H1  UNL     1       7.505  -0.793   0.646  1.00  0.00     0.120 HD
ENDBRANCH  13  15
ENDBRANCH  10  13
ENDBRANCH   1   6
BRANCH   3  17
HETATM   17  C8  UNL     1      -2.030  -0.342   1.792  1.00  0.00     0.178 C 
BRANCH  17  18
HETATM   18  N3  UNL     1      -2.925   0.563   1.159  1.00  0.00    -0.407 N 
HETATM   19  C9  UNL     1      -4.317   0.271   1.393  1.00  0.00     0.117 C 
HETATM   20  C10 UNL     1      -4.879  -0.697   0.376  1.00  0.00     0.019 C 
HETATM   21  C11 UNL     1      -4.584  -0.337  -1.042  1.00  0.00     0.003 C 
HETATM   22  C12 UNL     1      -3.114  -0.016  -1.218  1.00  0.00     0.019 C 
HETATM   23  C13 UNL     1      -2.626   0.955  -0.169  1.00  0.00     0.117 C 
ENDBRANCH  17  18
ENDBRANCH   3  17
TORSDOF 5
