REMARK  7 active torsions:
REMARK  status: ('A' for Active; 'I' for Inactive)
REMARK    1  A    between atoms: N1_1  and  C1_2 
REMARK    2  A    between atoms: C1_2  and  N2_3 
REMARK    3  A    between atoms: N2_3  and  C2_4 
REMARK    4  A    between atoms: C2_4  and  N3_5 
REMARK    5  A    between atoms: N3_5  and  C3_6 
REMARK    6  A    between atoms: C14_19  and  O2_20 
REMARK    7  A    between atoms: O2_20  and  C15_21 
ROOT
HETATM    1  C2  UNL     1       1.694  -0.725  -0.127  1.00  0.00     0.163 C 
HETATM    2  C9  UNL     1       0.474  -0.384   0.160  1.00  0.00     0.077 C 
HETATM    3  C10 UNL     1       0.112   0.291   1.393  1.00  0.00     0.236 C 
HETATM    4  O1  UNL     1      -1.111   1.000   1.296  1.00  0.00    -0.345 OA
HETATM    5  C11 UNL     1      -2.366   0.566   0.952  1.00  0.00     0.077 A 
HETATM    6  C12 UNL     1      -3.328   1.195   1.752  1.00  0.00     0.040 A 
HETATM    7  C13 UNL     1      -4.650   0.817   1.489  1.00  0.00     0.040 A 
HETATM    8  C14 UNL     1      -4.985  -0.104   0.519  1.00  0.00     0.079 A 
HETATM    9  C16 UNL     1      -4.022  -0.710  -0.258  1.00  0.00     0.048 A 
HETATM   10  C17 UNL     1      -2.717  -0.347  -0.013  1.00  0.00    -0.004 A 
HETATM   11  C18 UNL     1      -1.846  -1.092  -0.947  1.00  0.00     0.161 C 
HETATM   12  N4  UNL     1      -0.454  -0.773  -0.859  1.00  0.00    -0.384 N 
HETATM   13  H14 UNL     1       0.018  -0.853  -1.818  1.00  0.00     0.160 HD
ENDROOT
BRANCH   1  14
HETATM   14  N2  UNL     1       2.061  -0.146   1.146  1.00  0.00    -0.168 NA
BRANCH  14  15
HETATM   15  C1  UNL     1       2.620  -0.817   2.073  1.00  0.00     0.095 C 
BRANCH  15  16
HETATM   16  N1  UNL     1       2.962  -1.670   2.960  1.00  0.00    -0.241 NA
HETATM   17  H1  UNL     1       2.659  -2.666   2.906  1.00  0.00     0.199 HD
ENDBRANCH  15  16
ENDBRANCH  14  15
ENDBRANCH   1  14
BRANCH   1  18
HETATM   18  N3  UNL     1       2.944  -1.163  -0.610  1.00  0.00    -0.339 N 
HETATM   19  H2  UNL     1       2.807  -2.162  -0.952  1.00  0.00     0.167 HD
BRANCH  18  20
HETATM   20  C3  UNL     1       4.128  -0.362  -0.609  1.00  0.00     0.035 A 
HETATM   21  C4  UNL     1       4.032   0.636  -1.570  1.00  0.00     0.029 A 
HETATM   22  C5  UNL     1       5.029   1.552  -1.798  1.00  0.00     0.004 A 
HETATM   23  C6  UNL     1       6.180   1.485  -1.041  1.00  0.00     0.019 A 
HETATM   24  C7  UNL     1       6.291   0.483  -0.066  1.00  0.00     0.013 A 
HETATM   25 BR1  UNL     1       7.847   0.314   1.023  1.00  0.00    -0.051 Br
HETATM   26  C8  UNL     1       5.263  -0.429   0.137  1.00  0.00     0.048 A 
ENDBRANCH  18  20
ENDBRANCH   1  18
BRANCH   8  27
HETATM   27  O2  UNL     1      -6.384  -0.306   0.464  1.00  0.00    -0.255 OA
BRANCH  27  28
HETATM   28  C15 UNL     1      -7.183   0.492  -0.397  1.00  0.00     0.530 C 
HETATM   29  F1  UNL     1      -7.071   1.831  -0.082  1.00  0.00    -0.144 F 
HETATM   30  F2  UNL     1      -6.899   0.291  -1.717  1.00  0.00    -0.144 F 
HETATM   31  F3  UNL     1      -8.496   0.130  -0.181  1.00  0.00    -0.144 F 
ENDBRANCH  27  28
ENDBRANCH   8  27
TORSDOF 7
