REMARK  1 active torsions:
REMARK  status: ('A' for Active; 'I' for Inactive)
REMARK    1  A    between atoms: N1_1  and  C1_2 
ROOT
HETATM    1  C1  UNL     1       0.817   1.746   0.147  1.00  0.00     0.268 C 
HETATM    2  C2  UNL     1       1.477   1.416  -1.152  1.00  0.00     0.064 C 
HETATM    3  C3  UNL     1       2.584   1.000  -0.582  1.00  0.00    -0.001 C 
HETATM    4  C4  UNL     1       3.884   0.238  -0.615  1.00  0.00     0.010 C 
HETATM    5  B1  UNL     1       3.585  -1.105  -1.455  1.00  0.00     0.234 B 
HETATM    6  C5  UNL     1       2.100  -1.600  -1.606  1.00  0.00     0.030 A 
HETATM    7  C6  UNL     1       1.566  -1.725  -0.340  1.00  0.00     0.052 A 
HETATM    8  C7  UNL     1       0.247  -2.159  -0.532  1.00  0.00     0.081 A 
HETATM    9  N2  UNL     1       0.067  -2.271  -1.849  1.00  0.00    -0.132 NA
HETATM   10  O1  UNL     1       1.166  -1.938  -2.455  1.00  0.00    -0.231 OA
HETATM   11  C8  UNL     1      -0.732  -2.389   0.559  1.00  0.00     0.184 C 
HETATM   12  N3  UNL     1      -1.569  -1.176   0.734  1.00  0.00    -0.378 N 
HETATM   13  C9  UNL     1      -2.826  -0.730   1.287  1.00  0.00     0.123 C 
HETATM   14  C10 UNL     1      -3.713  -0.078   0.258  1.00  0.00     0.020 C 
HETATM   15  C11 UNL     1      -3.010   1.011  -0.498  1.00  0.00     0.007 C 
HETATM   16  C12 UNL     1      -1.714   0.405  -1.056  1.00  0.00     0.057 C 
HETATM   17  C13 UNL     1      -0.964   0.007   0.164  1.00  0.00     0.008 C 
HETATM   18  C14 UNL     1       0.111   0.576   0.679  1.00  0.00     0.065 C 
HETATM   19  N4  UNL     1       2.194   1.694   0.622  1.00  0.00    -0.354 N 
HETATM   20  H6  UNL     1       4.444  -1.943  -1.404  1.00  0.00    -0.018 HD
HETATM   21  H19 UNL     1       2.605   2.064   1.523  1.00  0.00     0.162 HD
ENDROOT
BRANCH   1  22
HETATM   22  N1  UNL     1       0.181   3.020   0.236  1.00  0.00     0.115 N 
HETATM   23  H1  UNL     1       0.642   3.673   0.912  1.00  0.00     0.317 HD
HETATM   24  H2  UNL     1      -0.012   3.466  -0.701  1.00  0.00     0.317 HD
ENDBRANCH   1  22
TORSDOF 1
