REMARK  6 active torsions:
REMARK  status: ('A' for Active; 'I' for Inactive)
REMARK    1  A    between atoms: C5_8  and  C6_9 
REMARK    2  A    between atoms: C6_9  and  C7_10 
REMARK    3  A    between atoms: C7_10  and  C8_11 
REMARK    4  A    between atoms: C7_10  and  N4_19 
REMARK    5  A    between atoms: C8_11  and  C9_12 
REMARK    6  A    between atoms: C9_12  and  C10_13 
ROOT
HETATM    1  C7  UNL     1       0.179  -0.700   1.776  1.00  0.00     0.134 C 
ENDROOT
BRANCH   1   2
HETATM    2  C6  UNL     1       0.976  -1.752   1.045  1.00  0.00     0.058 C 
BRANCH   2   3
HETATM    3  C5  UNL     1       1.627  -1.227  -0.172  1.00  0.00     0.009 C 
HETATM    4  C4  UNL     1       2.894  -1.146  -0.547  1.00  0.00     0.076 A 
HETATM    5  C2  UNL     1       3.654  -0.655  -1.712  1.00  0.00     0.097 A 
HETATM    6  N3  UNL     1       3.905  -1.647   0.353  1.00  0.00    -0.277 N 
HETATM    7  N1  UNL     1       2.977  -0.144  -2.688  1.00  0.00    -0.291 NA
HETATM    8  C3  UNL     1       5.057  -0.907  -1.402  1.00  0.00     0.172 A 
HETATM    9  C1  UNL     1       3.683   0.353  -3.854  1.00  0.00     0.178 C 
HETATM   10  N2  UNL     1       5.151  -1.458  -0.246  1.00  0.00    -0.184 NA
HETATM   11  H5  UNL     1       3.948  -2.094   1.297  1.00  0.00     0.189 HD
ENDBRANCH   2   3
ENDBRANCH   1   2
BRANCH   1  12
HETATM   12  C8  UNL     1      -0.927  -0.118   0.917  1.00  0.00     0.034 C 
BRANCH  12  13
HETATM   13  C9  UNL     1      -1.670   0.910   1.698  1.00  0.00     0.041 C 
BRANCH  13  14
HETATM   14  C10 UNL     1      -2.778   1.542   0.942  1.00  0.00    -0.058 A 
HETATM   15  C11 UNL     1      -4.051   0.968   1.002  1.00  0.00     0.007 A 
HETATM   16  C12 UNL     1      -5.140   1.515   0.313  1.00  0.00     0.001 A 
HETATM   17  C13 UNL     1      -4.948   2.645  -0.442  1.00  0.00     0.000 A 
HETATM   18  C14 UNL     1      -3.695   3.191  -0.487  1.00  0.00     0.001 A 
HETATM   19  C15 UNL     1      -2.598   2.680   0.179  1.00  0.00     0.007 A 
ENDBRANCH  13  14
ENDBRANCH  12  13
ENDBRANCH   1  12
BRANCH   1  20
HETATM   20  N4  UNL     1      -0.415  -1.365   2.908  1.00  0.00    -0.195 NA
HETATM   21  N5  UNL     1      -1.319  -2.204   2.724  1.00  0.00    -0.208 NA
HETATM   22  H19 UNL     1      -1.683  -2.468   1.815  1.00  0.00     0.211 HD
ENDBRANCH   1  20
TORSDOF 6
