REMARK  5 active torsions:
REMARK  status: ('A' for Active; 'I' for Inactive)
REMARK    1  A    between atoms: C3_3  and  O1_4 
REMARK    2  A    between atoms: O1_4  and  P1_5 
REMARK    3  A    between atoms: P1_5  and  N1_6 
REMARK    4  A    between atoms: C4_7  and  C5_8 
REMARK    5  A    between atoms: C5_8  and  N2_9 
ROOT
HETATM    1  C1  UNL     1      -2.437   2.177  -1.125  1.00  0.00     0.051 C 
HETATM    2  C2  UNL     1      -3.002   1.128  -0.243  1.00  0.00    -0.029 C 
HETATM    3  C3  UNL     1      -2.252   0.068  -0.002  1.00  0.00     0.061 C 
HETATM    4  C11 UNL     1      -2.454  -1.163   0.807  1.00  0.00     0.086 C 
HETATM    5  C12 UNL     1      -3.812  -1.137   1.495  1.00  0.00     0.148 C 
HETATM    6  N3  UNL     1      -4.856  -1.020   0.497  1.00  0.00    -0.314 N 
HETATM    7  N4  UNL     1      -6.259  -0.885   0.590  1.00  0.00    -0.196 NA
HETATM    8  C13 UNL     1      -6.823   0.089  -0.078  1.00  0.00     0.115 C 
HETATM    9  C14 UNL     1      -5.915   0.963  -0.876  1.00  0.00     0.084 C 
HETATM   10  P2  UNL     1      -4.644   1.739   0.211  1.00  0.00    -0.092 P 
HETATM   11  H22 UNL     1      -4.577  -1.036  -0.514  1.00  0.00     0.182 HD
HETATM   12  H26 UNL     1      -4.911   1.642   1.608  1.00  0.00     0.062 HD
ENDROOT
BRANCH   3  13
HETATM   13  O1  UNL     1      -1.003   0.027  -0.594  1.00  0.00    -0.307 OA
BRANCH  13  14
HETATM   14  P1  UNL     1       0.365   0.625   0.328  1.00  0.00     0.143 P 
HETATM   15  H4  UNL     1       1.530   0.811  -0.520  1.00  0.00     0.113 HD
BRANCH  14  16
HETATM   16  N1  UNL     1       0.790  -0.612   1.536  1.00  0.00    -0.249 NA
HETATM   17  C4  UNL     1       1.692  -1.483   1.276  1.00  0.00     0.120 C 
BRANCH  17  18
HETATM   18  C5  UNL     1       2.418  -1.512  -0.015  1.00  0.00     0.319 C 
BRANCH  18  19
HETATM   19  N2  UNL     1       3.448  -0.544  -0.134  1.00  0.00     0.093 N 
HETATM   20  C6  UNL     1       4.111  -0.627  -1.410  1.00  0.00     0.273 C 
HETATM   21  C7  UNL     1       5.529  -0.129  -1.356  1.00  0.00     0.030 C 
HETATM   22  C8  UNL     1       5.539   1.172  -0.593  1.00  0.00     0.003 C 
HETATM   23  C9  UNL     1       5.054   0.905   0.816  1.00  0.00     0.030 C 
HETATM   24  C10 UNL     1       4.410  -0.484   0.913  1.00  0.00     0.273 C 
ENDBRANCH  18  19
ENDBRANCH  17  18
ENDBRANCH  14  16
ENDBRANCH  13  14
ENDBRANCH   3  13
TORSDOF 5
