REMARK  3 active torsions:
REMARK  status: ('A' for Active; 'I' for Inactive)
REMARK    1  A    between atoms: C1_1  and  N4_14 
REMARK    2  A    between atoms: N1_2  and  C2_3 
REMARK    3  A    between atoms: N4_14  and  C10_15 
ROOT
HETATM    1  C2  UNL     1      -0.871  -0.853   1.201  1.00  0.00     0.072 C 
HETATM    2  C3  UNL     1      -1.442  -1.627   2.148  1.00  0.00     0.078 C 
HETATM    3  S1  UNL     1      -3.202  -1.135   2.262  1.00  0.00    -0.117 SA
HETATM    4  C4  UNL     1      -3.228  -0.411   0.702  1.00  0.00     0.094 C 
HETATM    5  C5  UNL     1      -3.694  -1.133  -0.485  1.00  0.00     0.139 C 
HETATM    6  N2  UNL     1      -4.133  -0.118  -1.290  1.00  0.00    -0.191 NA
HETATM    7  N3  UNL     1      -3.362   1.002  -0.832  1.00  0.00    -0.300 N 
HETATM    8  C6  UNL     1      -2.372   2.105  -0.753  1.00  0.00     0.172 C 
HETATM    9  C7  UNL     1      -1.334   1.309   0.073  1.00  0.00     0.006 C 
HETATM   10  C8  UNL     1      -1.799   0.124   0.594  1.00  0.00    -0.005 C 
HETATM   11  C9  UNL     1      -4.076   0.857   0.475  1.00  0.00     0.176 C 
ENDROOT
BRANCH   1  12
HETATM   12  N1  UNL     1       0.534  -1.023   0.888  1.00  0.00    -0.243 NA
HETATM   13  C1  UNL     1       0.901  -2.036   0.163  1.00  0.00     0.208 C 
BRANCH  13  14
HETATM   14  N4  UNL     1       2.331  -2.055  -0.054  1.00  0.00    -0.351 N 
HETATM   15  H9  UNL     1       2.908  -2.945  -0.121  1.00  0.00     0.166 HD
BRANCH  14  16
HETATM   16  C10 UNL     1       3.025  -0.796  -0.189  1.00  0.00     0.032 A 
HETATM   17  C11 UNL     1       3.609  -0.028   0.800  1.00  0.00     0.029 A 
HETATM   18  C12 UNL     1       4.220   1.152   0.429  1.00  0.00     0.002 A 
HETATM   19  C13 UNL     1       4.253   1.562  -0.887  1.00  0.00     0.000 A 
HETATM   20  C14 UNL     1       3.667   0.791  -1.871  1.00  0.00     0.002 A 
HETATM   21  C15 UNL     1       3.050  -0.394  -1.523  1.00  0.00     0.029 A 
ENDBRANCH  14  16
ENDBRANCH  13  14
ENDBRANCH   1  12
TORSDOF 3
