REMARK  8 active torsions:
REMARK  status: ('A' for Active; 'I' for Inactive)
REMARK    1  A    between atoms: N1_1  and  C1_2 
REMARK    2  A    between atoms: C1_2  and  C2_3 
REMARK    3  A    between atoms: C2_3  and  C3_4 
REMARK    4  A    between atoms: C5_6  and  N2_7 
REMARK    5  A    between atoms: N2_7  and  C6_8 
REMARK    6  A    between atoms: C8_11  and  N4_12 
REMARK    7  A    between atoms: N4_12  and  N5_13 
REMARK    8  A    between atoms: N5_13  and  C9_14 
ROOT
HETATM    1  C6  UNL     1      -1.427  -1.382   0.368  1.00  0.00     0.127 C 
HETATM    2  C7  UNL     1      -0.235  -1.793  -0.070  1.00  0.00     0.119 A 
HETATM    3  N3  UNL     1       0.874  -0.931  -0.384  1.00  0.00    -0.214 NA
HETATM    4  C8  UNL     1       1.613  -1.940  -0.712  1.00  0.00     0.188 A 
HETATM    5  S1  UNL     1       0.549  -3.351  -0.455  1.00  0.00    -0.029 SA
ENDROOT
BRANCH   1   6
HETATM    6  N2  UNL     1      -1.636   0.014   0.544  1.00  0.00    -0.363 N 
HETATM    7  H4  UNL     1      -0.827   0.644   0.674  1.00  0.00     0.165 HD
BRANCH   6   8
HETATM    8  C5  UNL     1      -2.953   0.558   0.544  1.00  0.00     0.035 A 
HETATM    9  C4  UNL     1      -4.060  -0.212   0.379  1.00  0.00     0.061 A 
HETATM   10  C3  UNL     1      -5.354   0.269   0.372  1.00  0.00     0.067 A 
HETATM   11  N6  UNL     1      -5.528   1.611   0.542  1.00  0.00    -0.260 NA
HETATM   12  C16 UNL     1      -4.453   2.425   0.712  1.00  0.00     0.119 A 
HETATM   13  C15 UNL     1      -3.163   1.893   0.712  1.00  0.00     0.048 A 
BRANCH  10  14
HETATM   14  C2  UNL     1      -6.536  -0.596   0.189  1.00  0.00     0.107 C 
BRANCH  14  15
HETATM   15  C1  UNL     1      -7.420  -0.111  -0.667  1.00  0.00    -0.023 C 
BRANCH  15  16
HETATM   16  N1  UNL     1      -8.444   0.457  -1.196  1.00  0.00    -0.258 NA
HETATM   17  H1  UNL     1      -9.052   1.113  -0.635  1.00  0.00     0.197 HD
ENDBRANCH  15  16
ENDBRANCH  14  15
ENDBRANCH  10  14
ENDBRANCH   6   8
ENDBRANCH   1   6
BRANCH   4  18
HETATM   18  N4  UNL     1       2.968  -1.901  -1.172  1.00  0.00    -0.278 N 
HETATM   19  H6  UNL     1       3.506  -2.745  -1.522  1.00  0.00     0.189 HD
BRANCH  18  20
HETATM   20  N5  UNL     1       3.852  -0.820  -1.266  1.00  0.00    -0.299 N 
HETATM   21  H7  UNL     1       3.982  -0.341  -2.166  1.00  0.00     0.187 HD
BRANCH  20  22
HETATM   22  C9  UNL     1       4.715  -0.124  -0.373  1.00  0.00     0.048 A 
HETATM   23  C10 UNL     1       6.000  -0.627  -0.293  1.00  0.00     0.031 A 
HETATM   24  C11 UNL     1       6.933  -0.065   0.517  1.00  0.00     0.002 A 
HETATM   25  C12 UNL     1       6.550   1.040   1.268  1.00  0.00     0.000 A 
HETATM   26  C13 UNL     1       5.269   1.545   1.192  1.00  0.00     0.002 A 
HETATM   27  C14 UNL     1       4.319   0.973   0.367  1.00  0.00     0.031 A 
ENDBRANCH  20  22
ENDBRANCH  18  20
ENDBRANCH   4  18
TORSDOF 8
