REMARK  5 active torsions:
REMARK  status: ('A' for Active; 'I' for Inactive)
REMARK    1  A    between atoms: C4_5  and  C5_6 
REMARK    2  A    between atoms: C5_6  and  C6_7 
REMARK    3  A    between atoms: C8_9  and  C9_10 
REMARK    4  A    between atoms: C9_10  and  C10_11 
REMARK    5  A    between atoms: C10_11  and  C11_12 
ROOT
HETATM    1  C6  UNL     1       0.820   0.366   0.205  1.00  0.00     0.059 A 
HETATM    2  C7  UNL     1      -0.421   0.542   0.626  1.00  0.00     0.059 A 
HETATM    3  C8  UNL     1      -0.912   0.738  -0.726  1.00  0.00     0.041 A 
HETATM    4  N2  UNL     1       0.300   0.563  -1.100  1.00  0.00    -0.253 NA
ENDROOT
BRANCH   1   5
HETATM    5  C5  UNL     1       2.005   0.099   0.993  1.00  0.00     0.043 C 
BRANCH   5   6
HETATM    6  C4  UNL     1       3.223  -0.063   0.449  1.00  0.00    -0.030 A 
HETATM    7  C3  UNL     1       4.409  -0.330   1.234  1.00  0.00     0.041 A 
HETATM    8  C2  UNL     1       5.604  -0.491   0.711  1.00  0.00     0.042 A 
HETATM    9  C1  UNL     1       6.693  -0.752   1.624  1.00  0.00    -0.027 A 
HETATM   10  N3  UNL     1       5.743  -0.401  -0.657  1.00  0.00    -0.287 N 
HETATM   11  B1  UNL     1       8.188  -0.862  -0.111  1.00  0.00     0.327 B 
HETATM   12  N4  UNL     1       6.980  -0.561  -1.261  1.00  0.00    -0.380 N 
HETATM   13  H15 UNL     1       7.382  -0.550  -2.214  1.00  0.00     0.159 HD
HETATM   14  C17 UNL     1       4.607  -0.140  -1.462  1.00  0.00     0.115 A 
HETATM   15  C16 UNL     1       3.389   0.029  -0.999  1.00  0.00     0.030 A 
ENDBRANCH   5   6
ENDBRANCH   1   5
BRANCH   3  16
HETATM   16  C9  UNL     1      -2.214   1.018  -1.420  1.00  0.00     0.088 C 
BRANCH  16  17
HETATM   17  C10 UNL     1      -3.178  -0.072  -1.134  1.00  0.00     0.009 C 
BRANCH  17  18
HETATM   18  C11 UNL     1      -4.348  -0.041  -0.560  1.00  0.00     0.028 A 
HETATM   19  C12 UNL     1      -4.990   1.146  -0.047  1.00  0.00     0.029 A 
HETATM   20  C13 UNL     1      -6.191   1.119   0.532  1.00  0.00     0.004 A 
HETATM   21  C14 UNL     1      -6.895  -0.145   0.662  1.00  0.00     0.017 A 
HETATM   22  C15 UNL     1      -6.329  -1.244   0.202  1.00  0.00     0.088 A 
HETATM   23  N1  UNL     1      -5.052  -1.259  -0.422  1.00  0.00    -0.366 N 
HETATM   24  H12 UNL     1      -4.676  -2.168  -0.758  1.00  0.00     0.165 HD
ENDBRANCH  17  18
ENDBRANCH  16  17
ENDBRANCH   3  16
TORSDOF 5
