REMARK  3 active torsions:
REMARK  status: ('A' for Active; 'I' for Inactive)
REMARK    1  A    between atoms: C3_3  and  C4_4 
REMARK    2  A    between atoms: C6_7  and  N1_8 
REMARK    3  A    between atoms: N1_8  and  C7_9 
ROOT
HETATM    1  C4  UNL     1      -1.332   0.528  -0.111  1.00  0.00     0.076 A 
HETATM    2  C5  UNL     1      -0.927   1.936  -0.162  1.00  0.00     0.085 A 
HETATM    3  S1  UNL     1       0.905   1.799  -0.196  1.00  0.00    -0.061 SA
HETATM    4  C6  UNL     1       0.825  -0.080  -0.137  1.00  0.00     0.171 A 
HETATM    5  N2  UNL     1      -0.315  -0.290  -0.108  1.00  0.00    -0.223 NA
ENDROOT
BRANCH   1   6
HETATM    6  C3  UNL     1      -2.706   0.060  -0.079  1.00  0.00    -0.005 C 
HETATM    7  C2  UNL     1      -3.684   1.130  -0.162  1.00  0.00     0.015 C 
HETATM    8  C1  UNL     1      -4.945   1.257   0.293  1.00  0.00     0.022 C 
HETATM    9  C15 UNL     1      -5.849   0.370   1.057  1.00  0.00     0.141 C 
HETATM   10  N4  UNL     1      -5.910  -0.933   1.112  1.00  0.00    -0.163 NA
HETATM   11  N3  UNL     1      -5.221  -2.008   0.534  1.00  0.00    -0.163 NA
HETATM   12  C14 UNL     1      -4.003  -2.171   0.080  1.00  0.00     0.142 C 
HETATM   13  C13 UNL     1      -2.887  -1.246   0.016  1.00  0.00     0.034 C 
ENDBRANCH   1   6
BRANCH   4  14
HETATM   14  N1  UNL     1       2.024  -0.853  -0.136  1.00  0.00    -0.335 N 
HETATM   15  H4  UNL     1       1.822  -1.854  -0.065  1.00  0.00     0.168 HD
BRANCH  14  16
HETATM   16  C7  UNL     1       3.351  -0.396  -0.221  1.00  0.00     0.034 A 
HETATM   17  C8  UNL     1       4.313  -1.301   0.230  1.00  0.00     0.029 A 
HETATM   18  C9  UNL     1       5.659  -1.021   0.212  1.00  0.00     0.002 A 
HETATM   19  C10 UNL     1       6.152   0.166  -0.250  1.00  0.00     0.000 A 
HETATM   20  C11 UNL     1       5.216   1.066  -0.697  1.00  0.00     0.002 A 
HETATM   21  C12 UNL     1       3.884   0.779  -0.676  1.00  0.00     0.029 A 
ENDBRANCH  14  16
ENDBRANCH   4  14
TORSDOF 3
