REMARK  6 active torsions:
REMARK  status: ('A' for Active; 'I' for Inactive)
REMARK    1  A    between atoms: C4_4  and  C5_5 
REMARK    2  A    between atoms: C5_5  and  C6_6 
REMARK    3  A    between atoms: C6_6  and  C7_7 
REMARK    4  A    between atoms: N1_9  and  C9_10 
REMARK    5  A    between atoms: C10_11  and  C11_12 
REMARK    6  A    between atoms: C12_13  and  N2_14 
ROOT
HETATM    1  C1  UNL     1      -6.051   2.555   1.849  1.00  0.00     0.017 C 
HETATM    2  C2  UNL     1      -6.118   2.037   0.759  1.00  0.00    -0.090 C 
HETATM    3  C3  UNL     1      -6.219   1.417  -0.533  1.00  0.00     0.059 C 
HETATM    4  C4  UNL     1      -5.144   0.802  -0.997  1.00  0.00    -0.018 C 
ENDROOT
BRANCH   4   5
HETATM    5  C5  UNL     1      -3.867   0.738  -0.236  1.00  0.00     0.034 C 
BRANCH   5   6
HETATM    6  C6  UNL     1      -3.450  -0.687   0.059  1.00  0.00     0.066 C 
BRANCH   6   7
HETATM    7  C7  UNL     1      -2.165  -0.632   0.820  1.00  0.00     0.076 A 
HETATM    8  C8  UNL     1      -0.870  -0.630   0.352  1.00  0.00     0.148 A 
HETATM    9  N1  UNL     1       0.022  -0.572   1.347  1.00  0.00    -0.236 N 
HETATM   10  N5  UNL     1      -0.699  -0.537   2.450  1.00  0.00    -0.062 NA
HETATM   11  N6  UNL     1      -1.975  -0.572   2.146  1.00  0.00    -0.135 NA
BRANCH   9  12
HETATM   12  C9  UNL     1       1.434  -0.552   1.277  1.00  0.00     0.119 C 
HETATM   13  C10 UNL     1       2.254  -0.582   0.251  1.00  0.00     0.021 C 
BRANCH  13  14
HETATM   14  C11 UNL     1       1.978  -0.647  -1.163  1.00  0.00     0.022 C 
HETATM   15  C12 UNL     1       2.981  -0.667  -2.023  1.00  0.00     0.133 C 
BRANCH  15  16
HETATM   16  N2  UNL     1       4.289  -0.620  -1.438  1.00  0.00    -0.208 N 
HETATM   17  N3  UNL     1       4.987  -1.722  -0.946  1.00  0.00    -0.172 NA
HETATM   18  C13 UNL     1       6.008  -1.356  -0.247  1.00  0.00     0.129 C 
HETATM   19  C14 UNL     1       6.044   0.113  -0.236  1.00  0.00     0.161 C 
HETATM   20  N4  UNL     1       5.103   0.490  -1.248  1.00  0.00    -0.212 NA
HETATM   21  H16 UNL     1       5.593   0.729  -2.125  1.00  0.00     0.149 HD
ENDBRANCH  15  16
ENDBRANCH  13  14
ENDBRANCH   9  12
ENDBRANCH   6   7
ENDBRANCH   5   6
ENDBRANCH   4   5
TORSDOF 6
