REMARK  5 active torsions:
REMARK  status: ('A' for Active; 'I' for Inactive)
REMARK    1  A    between atoms: C1_1  and  C13_16 
REMARK    2  A    between atoms: C2_2  and  C3_3 
REMARK    3  A    between atoms: C5_6  and  N1_7 
REMARK    4  A    between atoms: N1_7  and  C6_8 
REMARK    5  A    between atoms: C6_8  and  C7_9 
ROOT
HETATM    1  C3  UNL     1       1.047   0.308   0.008  1.00  0.00     0.066 A 
HETATM    2  C4  UNL     1       1.334   1.614   0.218  1.00  0.00     0.085 A 
HETATM    3  S1  UNL     1      -0.375   2.416   0.496  1.00  0.00    -0.062 SA
HETATM    4  C5  UNL     1      -1.136   0.719   0.255  1.00  0.00     0.167 A 
HETATM    5  N2  UNL     1      -0.239   0.080   0.070  1.00  0.00    -0.224 NA
ENDROOT
BRANCH   1   6
HETATM    6  C2  UNL     1       2.196  -0.540  -0.234  1.00  0.00     0.032 C 
HETATM    7  C1  UNL     1       3.473  -0.389  -0.309  1.00  0.00     0.004 C 
BRANCH   7   8
HETATM    8  C13 UNL     1       4.438   0.688  -0.194  1.00  0.00     0.027 C 
HETATM    9  C14 UNL     1       5.735   0.560  -0.320  1.00  0.00     0.032 A 
HETATM   10  C15 UNL     1       6.190  -0.843  -0.606  1.00  0.00     0.107 A 
HETATM   11  N4  UNL     1       6.894   1.351  -0.271  1.00  0.00    -0.283 N 
HETATM   12  C16 UNL     1       7.683  -0.668  -0.693  1.00  0.00     0.117 A 
HETATM   13  N3  UNL     1       8.018   0.555  -0.501  1.00  0.00    -0.191 NA
HETATM   14  H16 UNL     1       6.737   2.356  -0.080  1.00  0.00     0.189 HD
ENDBRANCH   7   8
ENDBRANCH   1   6
BRANCH   4  15
HETATM   15  N1  UNL     1      -2.607   0.190   0.277  1.00  0.00    -0.365 N 
HETATM   16  H4  UNL     1      -3.095   1.091   0.476  1.00  0.00     0.162 HD
BRANCH  15  17
HETATM   17  C6  UNL     1      -3.239  -1.078   0.102  1.00  0.00     0.160 C 
BRANCH  17  18
HETATM   18  C7  UNL     1      -4.713  -0.805   0.267  1.00  0.00    -0.041 A 
HETATM   19  C8  UNL     1      -5.475  -0.474  -0.830  1.00  0.00     0.009 A 
HETATM   20  C9  UNL     1      -6.837  -0.211  -0.748  1.00  0.00     0.001 A 
HETATM   21  C10 UNL     1      -7.440  -0.288   0.491  1.00  0.00     0.000 A 
HETATM   22  C11 UNL     1      -6.693  -0.620   1.610  1.00  0.00     0.001 A 
HETATM   23  C12 UNL     1      -5.341  -0.876   1.493  1.00  0.00     0.009 A 
ENDBRANCH  17  18
ENDBRANCH  15  17
ENDBRANCH   4  15
TORSDOF 5
