REMARK  4 active torsions:
REMARK  status: ('A' for Active; 'I' for Inactive)
REMARK    1  A    between atoms: C3_4  and  C19_24 
REMARK    2  A    between atoms: C6_7  and  C7_8 
REMARK    3  A    between atoms: C12_16  and  N5_17 
REMARK    4  A    between atoms: N5_17  and  C13_18 
ROOT
HETATM    1  C7  UNL     1      -2.011  -0.142   1.207  1.00  0.00     0.111 A 
HETATM    2  N2  UNL     1      -2.578   0.731   1.988  1.00  0.00    -0.062 NA
HETATM    3  C8  UNL     1      -1.812   1.803   2.083  1.00  0.00     0.734 A 
HETATM    4  N3  UNL     1      -2.131   2.863   2.836  1.00  0.00    -0.074 NA
HETATM    5  C9  UNL     1      -1.240   3.891   2.864  1.00  0.00     0.138 A 
HETATM    6  C10 UNL     1      -0.106   3.721   2.112  1.00  0.00     0.038 A 
HETATM    7  C11 UNL     1       0.101   2.586   1.384  1.00  0.00     0.118 A 
HETATM    8  N4  UNL     1      -0.740   1.547   1.320  1.00  0.00    -0.138 N 
HETATM    9  C12 UNL     1      -0.817   0.338   0.747  1.00  0.00     0.151 A 
ENDROOT
BRANCH   1  10
HETATM   10  C6  UNL     1      -2.159  -1.545   0.769  1.00  0.00     0.059 A 
HETATM   11  C5  UNL     1      -2.567  -3.009   0.730  1.00  0.00     0.043 A 
HETATM   12  C2  UNL     1      -1.933  -2.474  -0.579  1.00  0.00     0.047 A 
HETATM   13  C4  UNL     1      -3.369  -3.971   1.490  1.00  0.00     0.036 C 
HETATM   14  N1  UNL     1      -2.628  -3.397  -0.285  1.00  0.00    -0.287 NA
HETATM   15  C19 UNL     1      -2.968  -1.934   1.714  1.00  0.00     0.047 A 
HETATM   16  C1  UNL     1      -1.602  -2.473  -2.023  1.00  0.00     0.036 C 
HETATM   17  C3  UNL     1      -3.687  -2.883   0.687  1.00  0.00     0.073 C 
ENDBRANCH   1  10
BRANCH   9  18
HETATM   18  N5  UNL     1       0.297  -0.046  -0.038  1.00  0.00    -0.369 N 
HETATM   19  H9  UNL     1       0.232  -1.029  -0.311  1.00  0.00     0.161 HD
BRANCH  18  20
HETATM   20  C13 UNL     1       1.527   0.329  -0.618  1.00  0.00     0.083 C 
HETATM   21  C14 UNL     1       2.244  -0.826  -1.356  1.00  0.00     0.025 C 
HETATM   22  C15 UNL     1       3.664  -0.434  -1.569  1.00  0.00     0.002 C 
HETATM   23  C16 UNL     1       3.839   0.906  -2.227  1.00  0.00     0.000 C 
HETATM   24  C17 UNL     1       2.789   1.913  -1.942  1.00  0.00     0.002 C 
HETATM   25  C18 UNL     1       1.403   1.375  -1.740  1.00  0.00     0.025 C 
ENDBRANCH  18  20
ENDBRANCH   9  18
TORSDOF 4
