REMARK  2 active torsions:
REMARK  status: ('A' for Active; 'I' for Inactive)
REMARK    1  A    between atoms: C5_7  and  C6_8 
REMARK    2  A    between atoms: N4_17  and  C13_18 
ROOT
HETATM    1  C1  UNL     1      -1.977   4.391  -1.061  1.00  0.00     0.104 C 
HETATM    2  C2  UNL     1      -2.659   3.357  -1.537  1.00  0.00     0.119 C 
HETATM    3  N1  UNL     1      -2.192   1.989  -1.591  1.00  0.00    -0.361 N 
HETATM    4  C3  UNL     1      -0.954   1.719  -0.944  1.00  0.00     0.397 C 
HETATM    5  C4  UNL     1      -0.650   2.794   0.036  1.00  0.00     0.177 C 
HETATM    6  N2  UNL     1      -0.171   2.264   1.085  1.00  0.00    -0.230 NA
HETATM    7  C5  UNL     1      -0.103   0.819   0.929  1.00  0.00     0.383 C 
HETATM    8  N4  UNL     1      -0.799   0.476  -0.286  1.00  0.00     0.152 N 
HETATM    9  N5  UNL     1      -0.929   4.159  -0.339  1.00  0.00    -0.226 NA
HETATM   10  H2  UNL     1      -2.963   1.547  -2.138  1.00  0.00     0.161 HD
ENDROOT
BRANCH   7  11
HETATM   11  C6  UNL     1       1.330   0.400   0.928  1.00  0.00    -0.003 A 
HETATM   12  C7  UNL     1       2.112   0.970   1.940  1.00  0.00     0.013 A 
HETATM   13  C8  UNL     1       3.462   0.597   1.964  1.00  0.00     0.031 A 
HETATM   14  C9  UNL     1       4.047  -0.275   1.069  1.00  0.00     0.045 A 
HETATM   15  C10 UNL     1       3.264  -0.813   0.097  1.00  0.00    -0.019 A 
HETATM   16  N3  UNL     1       5.412  -0.681   1.057  1.00  0.00    -0.329 N 
HETATM   17  C11 UNL     1       1.930  -0.469   0.042  1.00  0.00     0.021 A 
HETATM   18  C12 UNL     1       3.890  -1.754  -0.868  1.00  0.00     0.138 C 
HETATM   19  S1  UNL     1       5.650  -1.415  -0.557  1.00  0.00    -0.051 SA
HETATM   20  H10 UNL     1       6.119  -0.576   1.815  1.00  0.00     0.174 HD
ENDBRANCH   7  11
BRANCH   8  21
HETATM   21  C13 UNL     1      -1.973  -0.259   0.039  1.00  0.00     0.229 C 
HETATM   22  C14 UNL     1      -1.577  -1.490   0.825  1.00  0.00     0.036 C 
HETATM   23  C15 UNL     1      -2.606  -2.565   0.510  1.00  0.00     0.002 C 
HETATM   24  C16 UNL     1      -2.774  -2.335  -0.973  1.00  0.00     0.002 C 
HETATM   25  C17 UNL     1      -2.689  -0.823  -1.164  1.00  0.00     0.036 C 
ENDBRANCH   8  21
TORSDOF 2
