REMARK  4 active torsions:
REMARK  status: ('A' for Active; 'I' for Inactive)
REMARK    1  A    between atoms: N1_1  and  C1_2 
REMARK    2  A    between atoms: C4_5  and  C5_6 
REMARK    3  A    between atoms: C10_14  and  N5_15 
REMARK    4  A    between atoms: N5_15  and  C11_16 
ROOT
HETATM    1  C5  UNL     1      -1.057   1.051   1.086  1.00  0.00     0.130 A 
HETATM    2  N2  UNL     1      -1.149   2.225   1.730  1.00  0.00    -0.058 NA
HETATM    3  C6  UNL     1      -0.022   2.932   1.601  1.00  0.00     0.735 A 
HETATM    4  N3  UNL     1       0.243   4.149   2.109  1.00  0.00    -0.074 NA
HETATM    5  C7  UNL     1       1.439   4.715   1.874  1.00  0.00     0.138 A 
HETATM    6  C8  UNL     1       2.336   3.997   1.111  1.00  0.00     0.038 A 
HETATM    7  C9  UNL     1       1.984   2.774   0.637  1.00  0.00     0.118 A 
HETATM    8  N4  UNL     1       0.805   2.165   0.844  1.00  0.00    -0.137 N 
HETATM    9  C10 UNL     1       0.174   1.020   0.530  1.00  0.00     0.155 A 
ENDROOT
BRANCH   1  10
HETATM   10  C4  UNL     1      -2.192   0.148   1.090  1.00  0.00    -0.006 C 
HETATM   11  C3  UNL     1      -1.990  -1.219   0.624  1.00  0.00     0.013 C 
HETATM   12  C2  UNL     1      -2.701  -2.020  -0.155  1.00  0.00     0.032 C 
HETATM   13  C1  UNL     1      -3.991  -1.962  -0.917  1.00  0.00     0.361 C 
HETATM   14  N6  UNL     1      -5.090  -1.518  -0.129  1.00  0.00    -0.267 NA
HETATM   15  C19 UNL     1      -5.209  -0.693   0.842  1.00  0.00     0.090 C 
HETATM   16  C18 UNL     1      -4.726   0.298   1.845  1.00  0.00     0.074 C 
HETATM   17  C17 UNL     1      -3.320   0.713   1.576  1.00  0.00    -0.008 C 
BRANCH  13  18
HETATM   18  N1  UNL     1      -4.284  -3.368  -1.240  1.00  0.00     0.106 N 
HETATM   19  H1  UNL     1      -4.788  -3.850  -0.479  1.00  0.00     0.316 HD
HETATM   20  H2  UNL     1      -4.711  -3.444  -2.183  1.00  0.00     0.316 HD
ENDBRANCH  13  18
ENDBRANCH   1  10
BRANCH   9  21
HETATM   21  N5  UNL     1       0.701   0.028  -0.301  1.00  0.00    -0.369 N 
HETATM   22  H9  UNL     1       0.077  -0.737  -0.621  1.00  0.00     0.161 HD
BRANCH  21  23
HETATM   23  C11 UNL     1       1.953  -0.243  -0.919  1.00  0.00     0.083 C 
HETATM   24  C12 UNL     1       1.957  -1.474  -1.843  1.00  0.00     0.025 C 
HETATM   25  C13 UNL     1       3.208  -1.398  -2.649  1.00  0.00     0.002 C 
HETATM   26  C14 UNL     1       4.467  -1.154  -1.906  1.00  0.00     0.000 C 
HETATM   27  C15 UNL     1       4.346  -0.402  -0.615  1.00  0.00     0.002 C 
HETATM   28  C16 UNL     1       3.045  -0.583   0.083  1.00  0.00     0.025 C 
ENDBRANCH  21  23
ENDBRANCH   9  21
TORSDOF 4
