REMARK  6 active torsions:
REMARK  status: ('A' for Active; 'I' for Inactive)
REMARK    1  A    between atoms: C3_6  and  C4_7 
REMARK    2  A    between atoms: C4_7  and  C5_8 
REMARK    3  A    between atoms: C6_9  and  C7_10 
REMARK    4  A    between atoms: C9_13  and  N3_14 
REMARK    5  A    between atoms: N3_14  and  C10_15 
REMARK    6  A    between atoms: C10_15  and  C11_16 
ROOT
HETATM    1  C7  UNL     1       0.645   3.586  -0.170  1.00  0.00     0.066 A 
HETATM    2  C8  UNL     1      -0.219   4.675  -0.076  1.00  0.00     0.085 A 
HETATM    3  S2  UNL     1      -1.904   3.845   0.041  1.00  0.00    -0.062 SA
HETATM    4  C9  UNL     1      -1.092   2.150  -0.063  1.00  0.00     0.167 A 
HETATM    5  N4  UNL     1      -0.044   2.494  -0.139  1.00  0.00    -0.224 NA
ENDROOT
BRANCH   1   6
HETATM    6  C6  UNL     1       2.126   3.532  -0.290  1.00  0.00     0.032 C 
HETATM    7  C5  UNL     1       3.081   2.630  -0.388  1.00  0.00    -0.001 C 
BRANCH   7   8
HETATM    8  C4  UNL     1       2.611   1.237  -0.382  1.00  0.00    -0.009 C 
BRANCH   8   9
HETATM    9  C3  UNL     1       3.849   0.968  -0.487  1.00  0.00     0.047 A 
HETATM   10  C1  UNL     1       4.209  -0.064  -0.540  1.00  0.00     0.015 A 
HETATM   11  S1  UNL     1       4.593  -1.238  -0.597  1.00  0.00    -0.075 SA
HETATM   12  N2  UNL     1       3.381  -0.701  -0.487  1.00  0.00     0.000 N 
HETATM   13  C2  UNL     1       5.021  -2.644  -0.664  1.00  0.00     0.190 A 
HETATM   14  N1  UNL     1       3.803  -2.128  -0.554  1.00  0.00    -0.165 NA
HETATM   15  H2  UNL     1       2.104  -1.007  -0.392  1.00  0.00     0.000 HD
ENDBRANCH   8   9
ENDBRANCH   7   8
ENDBRANCH   1   6
BRANCH   4  16
HETATM   16  N3  UNL     1      -1.934   0.935  -0.023  1.00  0.00    -0.365 N 
HETATM   17  H7  UNL     1      -2.949   1.058   0.061  1.00  0.00     0.162 HD
BRANCH  16  18
HETATM   18  C10 UNL     1      -1.291  -0.380  -0.104  1.00  0.00     0.160 C 
BRANCH  18  19
HETATM   19  C11 UNL     1      -2.329  -1.459  -0.045  1.00  0.00    -0.041 A 
HETATM   20  C12 UNL     1      -2.674  -1.948   1.202  1.00  0.00     0.009 A 
HETATM   21  C13 UNL     1      -3.619  -2.942   1.378  1.00  0.00     0.001 A 
HETATM   22  C14 UNL     1      -4.247  -3.477   0.283  1.00  0.00     0.000 A 
HETATM   23  C15 UNL     1      -3.891  -2.980  -0.943  1.00  0.00     0.001 A 
HETATM   24  C16 UNL     1      -2.953  -1.989  -1.144  1.00  0.00     0.009 A 
ENDBRANCH  18  19
ENDBRANCH  16  18
ENDBRANCH   4  16
TORSDOF 6
