REMARK  3 active torsions:
REMARK  status: ('A' for Active; 'I' for Inactive)
REMARK    1  A    between atoms: O1_1  and  C1_2 
REMARK    2  A    between atoms: C7_8  and  N1_9 
REMARK    3  A    between atoms: N1_9  and  C8_10 
ROOT
HETATM    1  C1  UNL     1      -1.227  -1.603   1.016  1.00  0.00     0.059 A 
HETATM    2  C2  UNL     1      -2.592  -1.897   1.195  1.00  0.00     0.030 A 
HETATM    3  C3  UNL     1      -3.602  -1.283   0.420  1.00  0.00    -0.011 A 
HETATM    4  C4  UNL     1      -2.923  -0.465  -0.417  1.00  0.00     0.020 A 
HETATM    5  C5  UNL     1      -1.786   0.092  -0.933  1.00  0.00     0.030 A 
HETATM    6  C6  UNL     1      -1.265  -0.700   0.010  1.00  0.00     0.070 A 
HETATM    7  C7  UNL     1      -0.137   0.248  -0.069  1.00  0.00     0.040 C 
HETATM    8  C14 UNL     1      -0.017   1.483   0.418  1.00  0.00     0.035 C 
HETATM    9  C15 UNL     1      -1.000   1.833   1.182  1.00  0.00     0.121 C 
HETATM   10  N2  UNL     1      -2.143   1.450   0.794  1.00  0.00    -0.176 NA
HETATM   11  N3  UNL     1      -2.470   1.816  -0.545  1.00  0.00    -0.312 N 
HETATM   12  C16 UNL     1      -3.616   0.823  -0.892  1.00  0.00     0.157 C 
HETATM   13  H10 UNL     1      -2.074   2.540  -1.140  1.00  0.00     0.182 HD
ENDROOT
BRANCH   7  14
HETATM   14  N1  UNL     1       0.809  -0.488  -0.789  1.00  0.00    -0.358 N 
HETATM   15  H5  UNL     1       0.766  -1.266  -1.470  1.00  0.00     0.166 HD
BRANCH  14  16
HETATM   16  C8  UNL     1       2.097   0.016  -0.472  1.00  0.00     0.034 A 
HETATM   17  C9  UNL     1       2.590   1.288  -0.694  1.00  0.00     0.029 A 
HETATM   18  C10 UNL     1       3.900   1.575  -0.327  1.00  0.00     0.004 A 
HETATM   19  C11 UNL     1       4.715   0.625   0.251  1.00  0.00     0.024 A 
HETATM   20  C12 UNL     1       4.204  -0.643   0.466  1.00  0.00     0.036 A 
HETATM   21 CL1  UNL     1       5.289  -1.812   1.201  1.00  0.00    -0.084 Cl
HETATM   22  C13 UNL     1       2.881  -0.931   0.095  1.00  0.00     0.053 A 
ENDBRANCH  14  16
ENDBRANCH   7  14
BRANCH   1  23
HETATM   23  O1  UNL     1      -0.019  -1.933   1.505  1.00  0.00    -0.364 OA
HETATM   24  H1  UNL     1       0.267  -2.899   1.595  1.00  0.00     0.217 HD
ENDBRANCH   1  23
TORSDOF 3
