REMARK  2 active torsions:
REMARK  status: ('A' for Active; 'I' for Inactive)
REMARK    1  A    between atoms: C2_2  and  N1_3 
REMARK    2  A    between atoms: N1_3  and  N2_4 
ROOT
HETATM    1  N2  UNL     1       2.106   0.046   0.328  1.00  0.00    -0.295 N 
HETATM    2  C3  UNL     1       1.891   1.266  -0.349  1.00  0.00     0.034 C 
HETATM    3  C4  UNL     1       1.317   2.405   0.128  1.00  0.00     0.038 C 
HETATM    4  C5  UNL     1      -0.070   1.773  -0.164  1.00  0.00    -0.013 C 
HETATM    5  C6  UNL     1      -0.711   1.686  -1.419  1.00  0.00     0.097 C 
HETATM    6  N3  UNL     1      -0.492   0.526  -2.359  1.00  0.00    -0.367 N 
HETATM    7  C7  UNL     1       0.770   0.273  -1.790  1.00  0.00     0.027 C 
HETATM    8  C8  UNL     1       1.273  -0.469  -0.769  1.00  0.00     0.008 C 
HETATM    9  B1  UNL     1       0.453  -1.819  -1.085  1.00  0.00     0.251 B 
HETATM   10  C9  UNL     1      -1.081  -1.623  -0.543  1.00  0.00    -0.113 C 
HETATM   11  C10 UNL     1      -1.133  -0.406   0.048  1.00  0.00    -0.004 C 
HETATM   12  C11 UNL     1      -1.047   0.987   0.677  1.00  0.00     0.158 C 
HETATM   13  N4  UNL     1      -2.403   1.507   0.419  1.00  0.00    -0.301 N 
HETATM   14  N5  UNL     1      -3.731   2.010   0.137  1.00  0.00    -0.191 NA
HETATM   15  C12 UNL     1      -4.526   1.026  -0.376  1.00  0.00     0.138 C 
HETATM   16  C13 UNL     1      -4.050  -0.408  -0.632  1.00  0.00     0.017 C 
HETATM   17  C14 UNL     1      -3.543  -1.585  -0.826  1.00  0.00    -0.022 C 
HETATM   18  C15 UNL     1      -2.301  -2.456  -0.848  1.00  0.00     0.049 C 
HETATM   19  C16 UNL     1       2.248   0.808  -1.781  1.00  0.00     0.116 C 
HETATM   20  H9  UNL     1      -0.273  -0.269  -2.961  1.00  0.00     0.165 HD
HETATM   21  H10 UNL     1       0.925  -2.852  -0.766  1.00  0.00    -0.014 HD
HETATM   22  H13 UNL     1      -2.844   1.888   1.308  1.00  0.00     0.183 HD
ENDROOT
BRANCH   1  23
HETATM   23  N1  UNL     1       2.374  -1.100   1.068  1.00  0.00    -0.235 NA
HETATM   24  H6  UNL     1       3.051  -1.735   0.539  1.00  0.00     0.147 HD
BRANCH  23  25
HETATM   25  C2  UNL     1       3.010  -0.679   2.312  1.00  0.00     0.106 C 
HETATM   26  C1  UNL     1       4.310   0.050   2.023  1.00  0.00     0.022 C 
ENDBRANCH  23  25
ENDBRANCH   1  23
TORSDOF 2
