REMARK  3 active torsions:
REMARK  status: ('A' for Active; 'I' for Inactive)
REMARK    1  A    between atoms: P1_2  and  C2_3 
REMARK    2  A    between atoms: C2_3  and  C4_5 
REMARK    3  A    between atoms: C5_6  and  C6_7 
ROOT
HETATM    1  C4  UNL     1      -1.074   0.008   0.349  1.00  0.00     0.002 C 
HETATM    2  C5  UNL     1      -0.056   0.700  -0.127  1.00  0.00     0.058 C 
HETATM    3  N3  UNL     1      -0.190   1.713  -1.081  1.00  0.00    -0.227 NA
HETATM    4  C12 UNL     1      -1.346   1.985  -1.504  1.00  0.00     0.175 C 
HETATM    5  N4  UNL     1      -2.139   2.785  -2.405  1.00  0.00    -0.236 NA
HETATM    6  C13 UNL     1      -3.412   2.688  -2.515  1.00  0.00     0.120 C 
HETATM    7  C14 UNL     1      -4.261   1.826  -1.722  1.00  0.00     0.025 C 
HETATM    8  C15 UNL     1      -3.890   1.069  -0.710  1.00  0.00     0.036 C 
HETATM    9  S1  UNL     1      -2.341   1.085  -0.159  1.00  0.00    -0.150 SA
HETATM   10  H20 UNL     1      -2.258   2.349   1.079  1.00  0.00     0.098 HD
ENDROOT
BRANCH   2  11
HETATM   11  C6  UNL     1       1.426   0.482   0.061  1.00  0.00     0.067 C 
HETATM   12  C7  UNL     1       2.108  -0.274  -0.946  1.00  0.00    -0.002 C 
HETATM   13  C8  UNL     1       2.854  -0.920  -1.870  1.00  0.00     0.078 C 
HETATM   14  N1  UNL     1       4.254  -0.664  -2.154  1.00  0.00    -0.197 NA
HETATM   15  N2  UNL     1       5.617  -0.839  -2.165  1.00  0.00    -0.219 NA
HETATM   16  H12 UNL     1       4.471  -1.572  -1.617  1.00  0.00     0.153 HD
HETATM   17  C9  UNL     1       6.464  -0.364  -1.325  1.00  0.00     0.230 C 
HETATM   18  C10 UNL     1       5.371   0.140  -0.785  1.00  0.00    -0.123 C 
HETATM   19  P2  UNL     1       4.220   0.664  -0.244  1.00  0.00    -0.057 P 
HETATM   20  C11 UNL     1       2.134   1.599   0.687  1.00  0.00     0.058 C 
HETATM   21  H14 UNL     1       3.841   0.839  -0.057  1.00  0.00     0.070 HD
ENDBRANCH   2  11
BRANCH   1  22
HETATM   22  C2  UNL     1      -1.278  -1.160   1.169  1.00  0.00     0.048 C 
HETATM   23  C3  UNL     1      -2.262  -2.160   0.553  1.00  0.00     0.020 C 
BRANCH  22  24
HETATM   24  P1  UNL     1      -2.015  -0.636   2.794  1.00  0.00    -0.124 P 
HETATM   25  C1  UNL     1      -2.657  -2.132   3.674  1.00  0.00     0.041 C 
HETATM   26  H4  UNL     1      -1.077   0.105   3.616  1.00  0.00     0.058 HD
ENDBRANCH  22  24
ENDBRANCH   1  22
TORSDOF 3
