REMARK  6 active torsions:
REMARK  status: ('A' for Active; 'I' for Inactive)
REMARK    1  A    between atoms: C2_2  and  C3_3 
REMARK    2  A    between atoms: C3_3  and  C5_5 
REMARK    3  A    between atoms: C13_15  and  N3_16 
REMARK    4  A    between atoms: C13_15  and  C14_17 
REMARK    5  A    between atoms: C14_17  and  C15_18 
REMARK    6  A    between atoms: C16_19  and  N4_20 
ROOT
HETATM    1  C5  UNL     1       1.375  -0.005  -0.667  1.00  0.00     0.011 A 
HETATM    2  C6  UNL     1       1.101  -1.289  -0.920  1.00  0.00     0.034 A 
HETATM    3  C7  UNL     1      -0.190  -1.799  -0.491  1.00  0.00    -0.030 A 
HETATM    4  C8  UNL     1      -1.162  -1.154   0.135  1.00  0.00     0.010 A 
HETATM    5  C9  UNL     1      -2.296  -2.036   0.346  1.00  0.00     0.039 C 
HETATM    6  C10 UNL     1      -2.067  -3.252  -0.153  1.00  0.00     0.042 C 
HETATM    7  N1  UNL     1      -2.296  -4.617  -0.511  1.00  0.00    -0.282 N 
HETATM    8  N2  UNL     1      -1.127  -5.177  -1.029  1.00  0.00    -0.190 NA
HETATM    9  C11 UNL     1      -0.157  -4.328  -0.996  1.00  0.00     0.127 C 
HETATM   10  C12 UNL     1      -0.636  -3.129  -0.382  1.00  0.00     0.113 C 
HETATM   11  C13 UNL     1      -0.912   0.284   0.479  1.00  0.00     0.259 A 
HETATM   12  N5  UNL     1       0.363   0.734   0.002  1.00  0.00    -0.355 N 
HETATM   13  H12 UNL     1      -3.264  -4.990  -0.344  1.00  0.00     0.189 HD
HETATM   14  H23 UNL     1       0.503   1.754   0.205  1.00  0.00     0.162 HD
ENDROOT
BRANCH  11  15
HETATM   15  N3  UNL     1      -0.922   0.371   1.913  1.00  0.00     0.112 N 
HETATM   16  H15 UNL     1      -0.159  -0.294   2.236  1.00  0.00     0.316 HD
HETATM   17  H16 UNL     1      -1.835   0.176   2.344  1.00  0.00     0.316 HD
ENDBRANCH  11  15
BRANCH  11  18
HETATM   18  C14 UNL     1      -1.965   1.192  -0.111  1.00  0.00     0.098 C 
BRANCH  18  19
HETATM   19  C15 UNL     1      -3.320   0.893   0.351  1.00  0.00    -0.005 C 
HETATM   20  C16 UNL     1      -4.063   1.776   0.999  1.00  0.00     0.076 C 
BRANCH  20  21
HETATM   21  N4  UNL     1      -3.276   2.980   1.118  1.00  0.00    -0.408 N 
HETATM   22  H21 UNL     1      -2.680   3.857   1.169  1.00  0.00     0.155 HD
HETATM   23  H22 UNL     1      -2.697   3.857   1.194  1.00  0.00     0.155 HD
ENDBRANCH  20  21
ENDBRANCH  18  19
ENDBRANCH  11  18
BRANCH   1  24
HETATM   24  C3  UNL     1       2.653   0.640  -1.051  1.00  0.00     0.031 C 
HETATM   25  C4  UNL     1       2.378   1.809  -2.002  1.00  0.00     0.016 C 
BRANCH  24  26
HETATM   26  C2  UNL     1       3.407   1.150   0.159  1.00  0.00     0.006 C 
HETATM   27  C1  UNL     1       4.717   1.765  -0.263  1.00  0.00     0.006 C 
ENDBRANCH  24  26
ENDBRANCH   1  24
TORSDOF 6
