REMARK  4 active torsions:
REMARK  status: ('A' for Active; 'I' for Inactive)
REMARK    1  A    between atoms: C2_2  and  C3_3 
REMARK    2  A    between atoms: C3_3  and  C4_4 
REMARK    3  A    between atoms: C4_4  and  C5_5 
REMARK    4  A    between atoms: C12_14  and  C13_15 
ROOT
HETATM    1  C5  UNL     1       1.977  -1.603   0.206  1.00  0.00     0.234 C 
HETATM    2  N1  UNL     1       2.119  -2.505  -0.907  1.00  0.00     0.106 N 
HETATM    3  C6  UNL     1       1.709  -3.856  -0.604  1.00  0.00     0.392 C 
HETATM    4  N2  UNL     1       0.398  -4.020  -1.250  1.00  0.00    -0.375 N 
HETATM    5  C7  UNL     1      -0.853  -3.416  -0.941  1.00  0.00     0.081 C 
HETATM    6  C8  UNL     1      -1.383  -2.427  -0.210  1.00  0.00     0.002 C 
HETATM    7  C9  UNL     1      -0.646  -1.461   0.688  1.00  0.00     0.007 A 
HETATM    8  C10 UNL     1      -1.464  -0.959   1.889  1.00  0.00     0.043 C 
HETATM    9  C11 UNL     1      -2.265   0.085   1.139  1.00  0.00    -0.018 C 
HETATM   10  C12 UNL     1      -1.692   0.625   0.075  1.00  0.00    -0.049 C 
HETATM   11  C17 UNL     1      -0.392  -0.081   0.087  1.00  0.00     0.024 A 
HETATM   12  C18 UNL     1       0.586  -1.038   0.269  1.00  0.00     0.029 A 
HETATM   13  H11 UNL     1       1.585  -2.083  -1.703  1.00  0.00     0.318 HD
HETATM   14  H14 UNL     1       0.337  -4.671  -2.063  1.00  0.00     0.160 HD
ENDROOT
BRANCH  10  15
HETATM   15  C13 UNL     1      -2.087   1.625  -0.899  1.00  0.00     0.018 C 
HETATM   16  C14 UNL     1      -3.223   2.300  -0.956  1.00  0.00    -0.019 C 
HETATM   17  C15 UNL     1      -3.471   3.298  -2.032  1.00  0.00     0.147 C 
HETATM   18  C16 UNL     1      -4.507   2.426  -0.223  1.00  0.00     0.181 C 
HETATM   19  N3  UNL     1      -4.381   4.129  -1.665  1.00  0.00    -0.191 NA
HETATM   20  N4  UNL     1      -4.838   3.837  -0.400  1.00  0.00    -0.310 N 
HETATM   21  H22 UNL     1      -5.322   4.458   0.315  1.00  0.00     0.182 HD
ENDBRANCH  10  15
BRANCH   1  22
HETATM   22  C4  UNL     1       3.021  -0.508   0.043  1.00  0.00     0.036 C 
BRANCH  22  23
HETATM   23  C3  UNL     1       2.949   0.490   1.172  1.00  0.00     0.002 C 
BRANCH  23  24
HETATM   24  C2  UNL     1       3.987   1.581   1.013  1.00  0.00    -0.004 C 
HETATM   25  C1  UNL     1       3.808   2.342  -0.260  1.00  0.00     0.005 C 
ENDBRANCH  23  24
ENDBRANCH  22  23
ENDBRANCH   1  22
TORSDOF 4
