REMARK  2 active torsions:
REMARK  status: ('A' for Active; 'I' for Inactive)
REMARK    1  A    between atoms: C2_2  and  N1_4 
REMARK    2  A    between atoms: N1_4  and  C4_5 
ROOT
HETATM    1  C4  UNL     1       1.286  -0.409  -0.655  1.00  0.00     0.113 C 
HETATM    2  C5  UNL     1       0.346  -0.133   0.231  1.00  0.00     0.090 C 
HETATM    3  N2  UNL     1       0.327   1.212   0.819  1.00  0.00    -0.064 NA
HETATM    4  C6  UNL     1      -0.840   1.767   1.116  1.00  0.00     0.729 A 
HETATM    5  N3  UNL     1      -0.914   3.088   1.706  1.00  0.00    -0.075 NA
HETATM    6  C7  UNL     1      -2.057   3.612   1.995  1.00  0.00     0.138 A 
HETATM    7  C8  UNL     1      -3.333   2.907   1.744  1.00  0.00     0.038 A 
HETATM    8  C9  UNL     1      -3.344   1.693   1.203  1.00  0.00     0.111 A 
HETATM    9  N4  UNL     1      -2.119   1.108   0.882  1.00  0.00    -0.179 N 
HETATM   10  C10 UNL     1      -2.006  -0.119   0.232  1.00  0.00     0.156 C 
HETATM   11  C11 UNL     1      -3.135  -1.053   0.069  1.00  0.00     0.011 C 
HETATM   12  C12 UNL     1      -2.622  -2.292   0.036  1.00  0.00    -0.026 C 
HETATM   13  C13 UNL     1      -2.452  -3.779   0.318  1.00  0.00     0.140 C 
HETATM   14  N5  UNL     1      -1.038  -3.683   0.461  1.00  0.00    -0.210 NA
HETATM   15  N6  UNL     1      -0.855  -2.265   0.765  1.00  0.00    -0.192 NA
HETATM   16  C14 UNL     1      -1.253  -2.291  -0.685  1.00  0.00     0.156 C 
HETATM   17  C15 UNL     1      -0.753  -0.789   0.852  1.00  0.00     0.163 C 
ENDROOT
BRANCH   1  18
HETATM   18  N1  UNL     1       2.244   0.568  -1.021  1.00  0.00    -0.393 N 
HETATM   19  H8  UNL     1       1.950   1.586  -0.939  1.00  0.00     0.159 HD
BRANCH  18  20
HETATM   20  C2  UNL     1       3.542   0.158  -1.475  1.00  0.00     0.072 C 
HETATM   21  C1  UNL     1       4.448   1.294  -1.825  1.00  0.00     0.031 C 
HETATM   22  C3  UNL     1       4.126  -0.774  -0.420  1.00  0.00     0.031 C 
ENDBRANCH  18  20
ENDBRANCH   1  18
TORSDOF 2
