REMARK  2 active torsions:
REMARK  status: ('A' for Active; 'I' for Inactive)
REMARK    1  A    between atoms: C2_2  and  N1_4 
REMARK    2  A    between atoms: N1_4  and  C4_5 
ROOT
HETATM    1  C4  UNL     1       0.917  -0.610  -0.111  1.00  0.00     0.122 C 
HETATM    2  C5  UNL     1       0.189   0.054  -0.948  1.00  0.00     0.032 C 
HETATM    3  C6  UNL     1      -1.076   0.288  -0.799  1.00  0.00    -0.011 A 
HETATM    4  C7  UNL     1      -1.321   1.664  -1.233  1.00  0.00     0.030 A 
HETATM    5  C8  UNL     1      -2.546   2.171  -1.184  1.00  0.00     0.119 A 
HETATM    6  N2  UNL     1      -3.682   1.420  -0.715  1.00  0.00    -0.247 N 
HETATM    7  N3  UNL     1      -4.974   1.659  -0.560  1.00  0.00    -0.180 NA
HETATM    8  C9  UNL     1      -5.581   0.564  -0.068  1.00  0.00     0.141 A 
HETATM    9  C10 UNL     1      -4.610  -0.406   0.091  1.00  0.00     0.050 A 
HETATM   10  C11 UNL     1      -3.421   0.159  -0.324  1.00  0.00     0.066 A 
HETATM   11  C12 UNL     1      -2.139  -0.590  -0.300  1.00  0.00     0.197 A 
HETATM   12  N4  UNL     1      -1.875  -1.202   0.977  1.00  0.00    -0.240 NA
HETATM   13  C13 UNL     1      -0.740  -1.457   1.559  1.00  0.00     0.211 A 
HETATM   14  N5  UNL     1      -1.253  -2.045   2.747  1.00  0.00    -0.326 NA
HETATM   15  B1  UNL     1       0.213  -2.552   3.866  1.00  0.00     0.340 B 
HETATM   16  C14 UNL     1       1.693  -2.106   3.018  1.00  0.00    -0.040 A 
HETATM   17  C15 UNL     1       1.771  -1.531   1.835  1.00  0.00     0.088 A 
HETATM   18  N6  UNL     1       0.581  -1.218   1.129  1.00  0.00    -0.279 N 
ENDROOT
BRANCH   1  19
HETATM   19  N1  UNL     1       2.276  -0.761  -0.481  1.00  0.00    -0.371 N 
HETATM   20  H8  UNL     1       2.620  -1.708  -0.806  1.00  0.00     0.161 HD
BRANCH  19  21
HETATM   21  C2  UNL     1       3.063   0.452  -0.366  1.00  0.00     0.075 C 
HETATM   22  C1  UNL     1       4.490   0.131  -0.793  1.00  0.00     0.031 C 
HETATM   23  C3  UNL     1       2.579   1.517  -1.338  1.00  0.00     0.031 C 
ENDBRANCH  19  21
ENDBRANCH   1  19
TORSDOF 2
