REMARK  3 active torsions:
REMARK  status: ('A' for Active; 'I' for Inactive)
REMARK    1  A    between atoms: C2_2  and  N1_4 
REMARK    2  A    between atoms: N1_4  and  C4_5 
REMARK    3  A    between atoms: C13_16  and  N3_17 
ROOT
HETATM    1  C4  UNL     1       1.663  -0.306   0.954  1.00  0.00     0.101 C 
HETATM    2  C5  UNL     1       1.643  -1.286   0.067  1.00  0.00     0.059 C 
HETATM    3  C6  UNL     1       0.311  -1.364  -0.505  1.00  0.00    -0.032 A 
HETATM    4  C7  UNL     1       0.086  -0.396  -1.448  1.00  0.00     0.012 A 
HETATM    5  C8  UNL     1      -1.146  -0.338  -2.058  1.00  0.00     0.015 A 
HETATM    6  C9  UNL     1      -1.963  -1.322  -1.573  1.00  0.00     0.001 A 
HETATM    7  C10 UNL     1      -1.813  -2.318  -0.642  1.00  0.00    -0.005 A 
HETATM    8  C11 UNL     1      -0.566  -2.322  -0.071  1.00  0.00     0.025 A 
HETATM    9  C12 UNL     1      -2.974  -3.124  -0.484  1.00  0.00     0.128 A 
HETATM   10  N2  UNL     1      -4.033  -2.900  -1.172  1.00  0.00    -0.269 NA
HETATM   11  P1  UNL     1      -3.685  -1.469  -2.118  1.00  0.00     0.058 P 
HETATM   12  C13 UNL     1      -4.522  -0.189  -1.534  1.00  0.00     0.167 C 
HETATM   13  O1  UNL     1      -4.120   0.823  -0.682  1.00  0.00    -0.200 OA
HETATM   14  N4  UNL     1      -2.893   1.030  -0.164  1.00  0.00    -0.139 NA
HETATM   15  C14 UNL     1      -2.289   2.127   0.038  1.00  0.00     0.148 C 
HETATM   16  C15 UNL     1      -0.992   2.464   0.579  1.00  0.00     0.038 C 
HETATM   17  C16 UNL     1       0.021   1.790   1.047  1.00  0.00     0.091 C 
HETATM   18  N5  UNL     1       0.630   0.557   1.367  1.00  0.00    -0.353 N 
HETATM   19  H14 UNL     1      -3.805  -1.640  -3.480  1.00  0.00     0.089 HD
HETATM   20  H20 UNL     1       0.346  -0.089   2.164  1.00  0.00     0.166 HD
ENDROOT
BRANCH   1  21
HETATM   21  N1  UNL     1       2.941  -0.117   1.602  1.00  0.00    -0.372 N 
HETATM   22  H8  UNL     1       2.819  -0.496   2.573  1.00  0.00     0.161 HD
BRANCH  21  23
HETATM   23  C2  UNL     1       4.234   0.433   1.233  1.00  0.00     0.075 C 
HETATM   24  C1  UNL     1       5.214   0.321   2.401  1.00  0.00     0.031 C 
HETATM   25  C3  UNL     1       4.129   1.890   0.783  1.00  0.00     0.031 C 
ENDBRANCH  21  23
ENDBRANCH   1  21
BRANCH  12  26
HETATM   26  N3  UNL     1      -5.879   0.097  -1.835  1.00  0.00    -0.279 NA
HETATM   27  H15 UNL     1      -6.246   0.053  -2.810  1.00  0.00     0.126 HD
HETATM   28  H16 UNL     1      -6.155   0.024  -2.861  1.00  0.00     0.126 HD
ENDBRANCH  12  26
TORSDOF 3
