REMARK  7 active torsions:
REMARK  status: ('A' for Active; 'I' for Inactive)
REMARK    1  A    between atoms: C5_7  and  C6_8 
REMARK    2  A    between atoms: C6_8  and  C7_9 
REMARK    3  A    between atoms: C7_9  and  C8_10 
REMARK    4  A    between atoms: C9_11  and  C10_12 
REMARK    5  A    between atoms: N4_20  and  C16_21 
REMARK    6  A    between atoms: C16_21  and  C17_22 
REMARK    7  A    between atoms: C17_22  and  N5_23 
ROOT
HETATM    1  C8  UNL     1       0.427   0.227   0.344  1.00  0.00     0.045 A 
HETATM    2  C9  UNL     1       0.200   1.497   0.805  1.00  0.00     0.087 A 
HETATM    3  N3  UNL     1       1.242   1.691   1.646  1.00  0.00    -0.241 NA
HETATM    4  C15 UNL     1       2.049   0.638   1.706  1.00  0.00     0.210 A 
HETATM    5  N4  UNL     1       1.558  -0.306   0.892  1.00  0.00    -0.341 N 
ENDROOT
BRANCH   1   6
HETATM    6  C7  UNL     1      -0.412  -0.506  -0.617  1.00  0.00     0.089 C 
BRANCH   6   7
HETATM    7  C6  UNL     1      -1.624  -0.998   0.080  1.00  0.00     0.011 C 
BRANCH   7   8
HETATM    8  C5  UNL     1      -2.816  -1.172  -0.451  1.00  0.00     0.059 A 
HETATM    9  C2  UNL     1      -3.312  -0.977  -1.719  1.00  0.00     0.002 A 
HETATM   10  C1  UNL     1      -2.601  -0.531  -2.737  1.00  0.00     0.027 C 
HETATM   11  C3  UNL     1      -4.637  -1.289  -1.850  1.00  0.00     0.151 A 
HETATM   12  N1  UNL     1      -4.943  -1.684  -0.617  1.00  0.00    -0.184 NA
HETATM   13  N2  UNL     1      -3.907  -1.621   0.191  1.00  0.00    -0.274 N 
HETATM   14  C4  UNL     1      -3.909  -1.989   1.617  1.00  0.00     0.180 C 
ENDBRANCH   7   8
ENDBRANCH   6   7
ENDBRANCH   1   6
BRANCH   2  15
HETATM   15  C10 UNL     1      -0.837   2.480   0.553  1.00  0.00    -0.021 A 
HETATM   16  C11 UNL     1      -1.908   2.448  -0.213  1.00  0.00     0.051 A 
HETATM   17  C12 UNL     1      -2.708   3.666  -0.188  1.00  0.00     0.113 A 
HETATM   18  F1  UNL     1      -3.841   3.970  -0.834  1.00  0.00    -0.206 F 
HETATM   19  C13 UNL     1      -2.055   4.452   0.649  1.00  0.00     0.020 A 
HETATM   20  C14 UNL     1      -0.841   3.825   1.197  1.00  0.00     0.071 A 
ENDBRANCH   2  15
BRANCH   5  21
HETATM   21  C16 UNL     1       2.120  -1.619   0.653  1.00  0.00     0.160 C 
BRANCH  21  22
HETATM   22  C17 UNL     1       3.088  -1.626  -0.486  1.00  0.00     0.291 C 
BRANCH  22  23
HETATM   23  N5  UNL     1       4.216  -0.762  -0.308  1.00  0.00     0.081 N 
HETATM   24  C18 UNL     1       5.125  -1.173   0.727  1.00  0.00     0.309 C 
HETATM   25  C19 UNL     1       4.948  -0.518  -1.510  1.00  0.00     0.309 C 
ENDBRANCH  22  23
ENDBRANCH  21  22
ENDBRANCH   5  21
TORSDOF 7
