REMARK  1 active torsions:
REMARK  status: ('A' for Active; 'I' for Inactive)
REMARK    1  A    between atoms: C2_2  and  C3_3 
ROOT
HETATM    1  C3  UNL     1      -3.272   0.336  -0.350  1.00  0.00     0.129 C 
HETATM    2  N1  UNL     1      -2.806   1.690  -0.408  1.00  0.00    -0.307 N 
HETATM    3  N2  UNL     1      -1.806   1.625  -1.311  1.00  0.00    -0.192 NA
HETATM    4  C4  UNL     1      -1.692   1.612  -2.545  1.00  0.00     0.138 C 
HETATM    5  C5  UNL     1      -0.439   1.531  -3.318  1.00  0.00     0.017 C 
HETATM    6  C6  UNL     1       0.762   1.464  -2.692  1.00  0.00    -0.021 C 
HETATM    7  C7  UNL     1       1.122   1.454  -1.299  1.00  0.00     0.082 C 
HETATM    8  C8  UNL     1       1.881   0.372  -0.641  1.00  0.00     0.117 C 
HETATM    9  C9  UNL     1       3.364   0.676  -0.920  1.00  0.00     0.085 C 
HETATM   10  C10 UNL     1       4.194   0.754   0.309  1.00  0.00     0.020 C 
HETATM   11  C11 UNL     1       4.389   0.011   1.421  1.00  0.00     0.112 C 
HETATM   12  F1  UNL     1       5.272   0.438   2.355  1.00  0.00    -0.206 F 
HETATM   13  C12 UNL     1       3.700  -1.270   1.734  1.00  0.00     0.039 C 
HETATM   14  C13 UNL     1       2.941  -2.115   1.002  1.00  0.00    -0.005 C 
HETATM   15  C14 UNL     1       2.592  -1.935  -0.425  1.00  0.00     0.147 C 
HETATM   16  N3  UNL     1       1.555  -0.967  -0.682  1.00  0.00    -0.381 N 
HETATM   17  C15 UNL     1       0.689  -1.558  -1.623  1.00  0.00     0.146 C 
HETATM   18  C16 UNL     1      -0.675  -1.968  -1.006  1.00  0.00     0.187 C 
HETATM   19  O1  UNL     1      -1.175  -0.843  -0.547  1.00  0.00    -0.383 OA
HETATM   20  C17 UNL     1      -2.341  -0.698   0.139  1.00  0.00     0.137 C 
HETATM   21  C18 UNL     1      -1.775  -0.410   1.554  1.00  0.00     0.001 C 
HETATM   22  B1  UNL     1      -0.641   0.727   1.354  1.00  0.00     0.268 B 
HETATM   23  N4  UNL     1       0.802   0.238   1.514  1.00  0.00    -0.289 NA
HETATM   24  C19 UNL     1       1.076   0.394   2.947  1.00  0.00     0.116 C 
HETATM   25  N5  UNL     1       1.771   0.794   0.788  1.00  0.00    -0.339 N 
HETATM   26  H7  UNL     1      -3.021   2.630   0.029  1.00  0.00     0.182 HD
HETATM   27  H27 UNL     1      -0.889   1.763   1.866  1.00  0.00    -0.006 HD
HETATM   28  H31 UNL     1       1.884   1.814   0.892  1.00  0.00     0.175 HD
ENDROOT
BRANCH   1  29
HETATM   29  C2  UNL     1      -4.506   0.429   0.588  1.00  0.00     0.025 C 
HETATM   30  C1  UNL     1      -5.168  -0.886   0.800  1.00  0.00     0.007 C 
ENDBRANCH   1  29
TORSDOF 1
