REMARK  5 active torsions:
REMARK  status: ('A' for Active; 'I' for Inactive)
REMARK    1  A    between atoms: C2_2  and  C3_3 
REMARK    2  A    between atoms: C6_7  and  C7_8 
REMARK    3  A    between atoms: C7_8  and  C8_9 
REMARK    4  A    between atoms: C20_24  and  S1_26 
REMARK    5  A    between atoms: S1_26  and  C22_27 
ROOT
HETATM    1  C8  UNL     1       1.092   0.011   0.091  1.00  0.00     0.039 C 
HETATM    2  C9  UNL     1      -0.145   0.440  -0.248  1.00  0.00     0.088 C 
HETATM    3  N2  UNL     1      -0.080  -0.040  -1.586  1.00  0.00    -0.261 NA
HETATM    4  C10 UNL     1       0.937  -0.648  -2.036  1.00  0.00     0.115 C 
HETATM    5  C11 UNL     1       0.813  -1.784  -1.125  1.00  0.00     0.123 C 
HETATM    6  C12 UNL     1      -0.335  -2.663  -1.452  1.00  0.00     0.050 C 
HETATM    7  C13 UNL     1      -1.644  -1.963  -1.544  1.00  0.00     0.120 C 
HETATM    8  N3  UNL     1      -1.967  -1.255  -0.376  1.00  0.00    -0.402 N 
HETATM    9  C14 UNL     1      -2.283  -1.949   0.803  1.00  0.00     0.143 C 
HETATM   10  C15 UNL     1      -3.725  -2.220   1.078  1.00  0.00     0.187 C 
HETATM   11  O1  UNL     1      -4.343  -1.245   1.806  1.00  0.00    -0.389 OA
HETATM   12  C16 UNL     1      -4.021   0.060   1.490  1.00  0.00     0.170 C 
HETATM   13  C17 UNL     1      -3.875   0.233   0.017  1.00  0.00     0.056 C 
HETATM   14  C18 UNL     1      -2.514   0.064  -0.517  1.00  0.00     0.118 C 
HETATM   15  C19 UNL     1      -1.492   1.049  -0.086  1.00  0.00     0.007 C 
HETATM   16  C20 UNL     1      -1.640   2.264   0.386  1.00  0.00    -0.013 C 
HETATM   17  C21 UNL     1      -0.475   3.082   0.780  1.00  0.00     0.056 C 
HETATM   18  N4  UNL     1       0.746  -1.376   0.296  1.00  0.00    -0.382 N 
HETATM   19  H31 UNL     1       0.599  -1.523   1.292  1.00  0.00     0.160 HD
ENDROOT
BRANCH   1  20
HETATM   20  C7  UNL     1       2.234   0.956   0.111  1.00  0.00     0.099 C 
BRANCH  20  21
HETATM   21  C6  UNL     1       3.390   0.480  -0.664  1.00  0.00    -0.030 A 
HETATM   22  C3  UNL     1       4.279  -0.642  -0.461  1.00  0.00     0.035 A 
HETATM   23  N1  UNL     1       5.217  -0.670  -1.376  1.00  0.00    -0.290 NA
HETATM   24  C4  UNL     1       5.028   0.438  -2.278  1.00  0.00     0.177 A 
HETATM   25  C5  UNL     1       3.844   1.128  -1.754  1.00  0.00     0.004 A 
BRANCH  22  26
HETATM   26  C2  UNL     1       4.205  -1.653   0.615  1.00  0.00     0.055 C 
HETATM   27  C1  UNL     1       4.298  -0.954   1.980  1.00  0.00     0.011 C 
ENDBRANCH  22  26
ENDBRANCH  20  21
ENDBRANCH   1  20
BRANCH  16  28
HETATM   28  S1  UNL     1      -3.183   3.069   0.615  1.00  0.00    -0.103 SA
BRANCH  28  29
HETATM   29  C22 UNL     1      -3.040   4.726   1.282  1.00  0.00     0.301 C 
HETATM   30  F1  UNL     1      -2.551   4.751   2.569  1.00  0.00    -0.244 F 
ENDBRANCH  28  29
ENDBRANCH  16  28
TORSDOF 5
