REMARK  1 active torsions:
REMARK  status: ('A' for Active; 'I' for Inactive)
REMARK    1  A    between atoms: C4_5  and  C5_6 
ROOT
HETATM    1  C1  UNL     1      -2.450  -1.360   2.070  1.00  0.00     0.077 C 
HETATM    2  C2  UNL     1      -1.831  -1.583   0.698  1.00  0.00     0.165 C 
HETATM    3  C3  UNL     1      -0.518  -2.216   0.937  1.00  0.00     0.146 C 
HETATM    4  N1  UNL     1       0.684  -2.005   0.526  1.00  0.00    -0.261 NA
HETATM    5  C4  UNL     1       0.974  -0.930  -0.389  1.00  0.00     0.380 C 
HETATM    6  N2  UNL     1       0.392   0.312  -0.006  1.00  0.00     0.146 N 
HETATM    7  C11 UNL     1       1.156   1.345  -0.686  1.00  0.00     0.306 C 
HETATM    8  C12 UNL     1       0.450   2.642  -0.721  1.00  0.00     0.014 C 
HETATM    9  C13 UNL     1      -0.737   2.892  -0.199  1.00  0.00    -0.013 C 
HETATM   10  C14 UNL     1      -1.687   3.987  -0.051  1.00  0.00     0.147 C 
HETATM   11  N3  UNL     1      -2.837   3.485   0.238  1.00  0.00    -0.191 NA
HETATM   12  N4  UNL     1      -2.789   2.087   0.311  1.00  0.00    -0.301 N 
HETATM   13  C15 UNL     1      -1.415   1.735   0.491  1.00  0.00     0.188 C 
HETATM   14  C16 UNL     1      -0.987   0.509  -0.301  1.00  0.00     0.355 C 
HETATM   15  N5  UNL     1      -1.928  -0.470  -0.087  1.00  0.00    -0.345 N 
HETATM   16  C17 UNL     1      -2.889  -0.716  -1.130  1.00  0.00     0.148 C 
HETATM   17  C18 UNL     1      -2.763  -2.243  -1.224  1.00  0.00     0.191 C 
HETATM   18  O1  UNL     1      -2.619  -2.603   0.112  1.00  0.00    -0.355 OA
HETATM   19  H14 UNL     1      -3.765   1.678   0.215  1.00  0.00     0.183 HD
ENDROOT
BRANCH   5  20
HETATM   20  C5  UNL     1       2.464  -0.735  -0.250  1.00  0.00    -0.004 A 
HETATM   21  C6  UNL     1       2.913  -0.724   1.075  1.00  0.00     0.014 A 
HETATM   22  C7  UNL     1       4.265  -0.554   1.380  1.00  0.00     0.043 A 
HETATM   23  C8  UNL     1       5.113  -0.399   0.305  1.00  0.00     0.116 A 
HETATM   24  F1  UNL     1       6.420  -0.236   0.634  1.00  0.00    -0.206 F 
HETATM   25  C9  UNL     1       4.696  -0.405  -1.013  1.00  0.00     0.043 A 
HETATM   26  C10 UNL     1       3.355  -0.576  -1.261  1.00  0.00     0.014 A 
ENDBRANCH   5  20
TORSDOF 1
