REMARK  6 active torsions:
REMARK  status: ('A' for Active; 'I' for Inactive)
REMARK    1  A    between atoms: C1_2  and  B1_3 
REMARK    2  A    between atoms: B1_3  and  O1_4 
REMARK    3  A    between atoms: O1_4  and  C2_5 
REMARK    4  A    between atoms: C3_8  and  C4_9 
REMARK    5  A    between atoms: C9_14  and  N1_15 
REMARK    6  A    between atoms: N1_15  and  C10_16 
ROOT
HETATM    1  C4  UNL     1       2.493   0.073   1.093  1.00  0.00     0.034 C 
HETATM    2  C5  UNL     1       1.259  -0.413   1.323  1.00  0.00     0.050 C 
HETATM    3  C6  UNL     1       0.796  -0.074   2.694  1.00  0.00     0.069 C 
HETATM    4  C7  UNL     1      -0.544  -0.743   3.004  1.00  0.00     0.049 C 
HETATM    5  C8  UNL     1      -1.005  -1.260   1.643  1.00  0.00    -0.013 C 
HETATM    6  C9  UNL     1      -1.508  -0.475   0.657  1.00  0.00     0.068 C 
HETATM    7  C16 UNL     1      -0.577  -1.227  -0.227  1.00  0.00     0.301 C 
HETATM    8  N2  UNL     1      -1.162  -2.582   0.045  1.00  0.00    -0.263 NA
HETATM    9  C17 UNL     1      -0.760  -2.704   1.299  1.00  0.00     0.123 C 
HETATM   10  O2  UNL     1       0.748  -1.103   0.211  1.00  0.00    -0.323 OA
ENDROOT
BRANCH   1  11
HETATM   11  C3  UNL     1       3.208  -0.093  -0.146  1.00  0.00     0.030 C 
HETATM   12  C1  UNL     1       4.411   0.368  -0.400  1.00  0.00     0.080 C 
HETATM   13  F1  UNL     1       4.888   1.027   0.675  1.00  0.00    -0.221 F 
BRANCH  12  14
HETATM   14  B1  UNL     1       5.122   0.157  -1.751  1.00  0.00     0.384 B 
HETATM   15  H1  UNL     1       4.922  -0.849  -2.346  1.00  0.00     0.016 HD
BRANCH  14  16
HETATM   16  O1  UNL     1       5.880   1.272  -2.343  1.00  0.00    -0.398 OA
BRANCH  16  17
HETATM   17  C2  UNL     1       6.892   1.624  -1.459  1.00  0.00     0.483 C 
HETATM   18  F2  UNL     1       6.663   2.911  -1.014  1.00  0.00    -0.186 F 
HETATM   19  F3  UNL     1       8.119   1.495  -2.052  1.00  0.00    -0.186 F 
ENDBRANCH  16  17
ENDBRANCH  14  16
ENDBRANCH  12  14
ENDBRANCH   1  11
BRANCH   6  20
HETATM   20  N1  UNL     1      -2.265   0.500  -0.073  1.00  0.00    -0.355 N 
HETATM   21  H9  UNL     1      -1.722   1.328  -0.402  1.00  0.00     0.166 HD
BRANCH  20  22
HETATM   22  C10 UNL     1      -3.630   0.448  -0.377  1.00  0.00     0.033 A 
HETATM   23  C11 UNL     1      -4.396   1.083   0.597  1.00  0.00     0.029 A 
HETATM   24  C12 UNL     1      -5.787   1.157   0.507  1.00  0.00     0.004 A 
HETATM   25  C13 UNL     1      -6.407   0.579  -0.582  1.00  0.00     0.019 A 
HETATM   26  C14 UNL     1      -5.653  -0.057  -1.555  1.00  0.00     0.013 A 
HETATM   27 BR1  UNL     1      -6.456  -0.876  -3.085  1.00  0.00    -0.051 Br
HETATM   28  C15 UNL     1      -4.265  -0.125  -1.459  1.00  0.00     0.048 A 
ENDBRANCH  20  22
ENDBRANCH   6  20
TORSDOF 6
