REMARK  5 active torsions:
REMARK  status: ('A' for Active; 'I' for Inactive)
REMARK    1  A    between atoms: B1_1  and  N1_2 
REMARK    2  A    between atoms: N1_2  and  C1_3 
REMARK    3  A    between atoms: C1_3  and  C2_4 
REMARK    4  A    between atoms: C5_9  and  C6_10 
REMARK    5  A    between atoms: C7_11  and  C8_12 
ROOT
HETATM    1  C6  UNL     1       1.127  -0.356  -0.434  1.00  0.00     0.064 C 
HETATM    2  C7  UNL     1       0.202  -1.284  -0.256  1.00  0.00     0.039 C 
HETATM    3  N4  UNL     1      -1.093  -1.361  -0.812  1.00  0.00    -0.300 NA
HETATM    4  C14 UNL     1      -2.035  -0.664  -0.285  1.00  0.00     0.268 C 
HETATM    5  C15 UNL     1      -3.229   0.097   0.232  1.00  0.00     0.267 C 
HETATM    6  C16 UNL     1      -4.408  -0.815   0.182  1.00  0.00     0.205 C 
HETATM    7  O1  UNL     1      -5.533  -0.181   0.679  1.00  0.00    -0.387 OA
HETATM    8  C17 UNL     1      -5.394   1.182   0.670  1.00  0.00     0.198 C 
HETATM    9  C18 UNL     1      -4.719   1.688  -0.586  1.00  0.00     0.299 C 
HETATM   10  N5  UNL     1      -3.355   1.222  -0.687  1.00  0.00     0.099 N 
HETATM   11  C19 UNL     1      -2.461   2.306  -0.336  1.00  0.00     0.275 C 
HETATM   12  C20 UNL     1      -1.032   1.873  -0.219  1.00  0.00     0.050 C 
HETATM   13  C21 UNL     1      -0.407   1.355  -1.483  1.00  0.00     0.121 C 
HETATM   14  N6  UNL     1       0.922   0.789  -1.208  1.00  0.00    -0.388 N 
HETATM   15  H26 UNL     1       1.752   1.257  -1.609  1.00  0.00     0.159 HD
ENDROOT
BRANCH   1  16
HETATM   16  C5  UNL     1       2.350  -0.637   0.295  1.00  0.00     0.053 C 
HETATM   17  C3  UNL     1       3.585   0.133   0.327  1.00  0.00     0.062 C 
HETATM   18  C2  UNL     1       4.103   0.901  -0.647  1.00  0.00     0.018 C 
HETATM   19  N2  UNL     1       4.258  -0.024   1.568  1.00  0.00    -0.277 N 
HETATM   20  N3  UNL     1       3.331  -0.914   2.193  1.00  0.00    -0.171 NA
HETATM   21  H7  UNL     1       5.113   0.294   2.052  1.00  0.00     0.189 HD
HETATM   22  C4  UNL     1       2.789  -1.531   1.173  1.00  0.00     0.123 C 
BRANCH  18  23
HETATM   23  C1  UNL     1       5.372   1.589  -0.442  1.00  0.00     0.101 C 
BRANCH  23  24
HETATM   24  N1  UNL     1       5.287   3.051  -0.559  1.00  0.00    -0.374 NA
HETATM   25  H3  UNL     1       4.580   3.433   0.103  1.00  0.00     0.103 HD
BRANCH  24  26
HETATM   26  B1  UNL     1       4.792   3.334  -1.975  1.00  0.00     0.217 B 
HETATM   27  H1  UNL     1       5.383   4.093  -2.666  1.00  0.00    -0.013 HD
HETATM   28  H2  UNL     1       3.630   3.223  -2.172  1.00  0.00    -0.013 HD
ENDBRANCH  24  26
ENDBRANCH  23  24
ENDBRANCH  18  23
ENDBRANCH   1  16
BRANCH   2  29
HETATM   29  C8  UNL     1       0.160  -2.519   0.505  1.00  0.00    -0.013 A 
HETATM   30  C9  UNL     1      -0.710  -2.898   1.535  1.00  0.00     0.016 A 
HETATM   31  C10 UNL     1      -0.683  -4.126   2.155  1.00  0.00     0.043 A 
HETATM   32  C11 UNL     1       0.257  -5.042   1.738  1.00  0.00     0.116 A 
HETATM   33  F1  UNL     1       0.230  -6.229   2.388  1.00  0.00    -0.206 F 
HETATM   34  C12 UNL     1       1.141  -4.740   0.733  1.00  0.00     0.043 A 
HETATM   35  C13 UNL     1       1.085  -3.502   0.135  1.00  0.00     0.016 A 
ENDBRANCH   2  29
TORSDOF 5
