REMARK  3 active torsions:
REMARK  status: ('A' for Active; 'I' for Inactive)
REMARK    1  A    between atoms: N1_1  and  C1_2 
REMARK    2  A    between atoms: C6_7  and  C7_8 
REMARK    3  A    between atoms: C7_8  and  C8_9 
ROOT
HETATM    1  C8  UNL     1      -0.691  -0.062  -0.947  1.00  0.00    -0.011 A 
HETATM    2  C9  UNL     1      -0.382  -1.244  -0.111  1.00  0.00     0.005 A 
HETATM    3  C10 UNL     1       0.716  -0.317  -0.382  1.00  0.00    -0.055 A 
HETATM    4  B1  UNL     1       1.217   0.678   0.767  1.00  0.00     0.216 B 
HETATM    5  C11 UNL     1       2.365   1.702   0.462  1.00  0.00     0.050 C 
HETATM    6  N2  UNL     1       3.370   0.921   0.442  1.00  0.00    -0.204 NA
HETATM    7  N3  UNL     1       4.688   1.190   0.220  1.00  0.00    -0.291 N 
HETATM    8  C12 UNL     1       5.163  -0.137   0.346  1.00  0.00     0.109 C 
HETATM    9  C13 UNL     1       4.845  -1.370   0.120  1.00  0.00     0.021 C 
HETATM   10  C14 UNL     1       3.702  -2.074  -0.445  1.00  0.00     0.039 C 
HETATM   11  C15 UNL     1       2.482  -1.900  -0.997  1.00  0.00     0.093 C 
HETATM   12  F1  UNL     1       1.653  -2.922  -1.425  1.00  0.00    -0.211 F 
HETATM   13  C16 UNL     1       1.821  -0.595  -1.342  1.00  0.00     0.070 C 
HETATM   14  H12 UNL     1       1.073   0.330   1.876  1.00  0.00    -0.019 HD
HETATM   15  H14 UNL     1       5.195   2.066   0.019  1.00  0.00     0.188 HD
ENDROOT
BRANCH   1  16
HETATM   16  C7  UNL     1      -1.359   1.151  -0.373  1.00  0.00     0.045 C 
BRANCH  16  17
HETATM   17  C6  UNL     1      -2.686   0.879   0.199  1.00  0.00    -0.037 A 
HETATM   18  C1  UNL     1      -3.790   0.692  -0.605  1.00  0.00     0.012 A 
HETATM   19  C2  UNL     1      -5.025   0.437  -0.037  1.00  0.00     0.024 A 
HETATM   20  C3  UNL     1      -5.232   0.356   1.332  1.00  0.00     0.002 A 
HETATM   21  C4  UNL     1      -4.108   0.548   2.111  1.00  0.00     0.001 A 
HETATM   22  C5  UNL     1      -2.858   0.805   1.565  1.00  0.00     0.009 A 
BRANCH  18  23
HETATM   23  N1  UNL     1      -3.657   0.761  -2.026  1.00  0.00    -0.302 NA
HETATM   24  H1  UNL     1      -3.643  -0.241  -2.324  1.00  0.00     0.124 HD
HETATM   25  H2  UNL     1      -3.639  -0.230  -2.362  1.00  0.00     0.124 HD
ENDBRANCH  18  23
ENDBRANCH  16  17
ENDBRANCH   1  16
TORSDOF 3
