REMARK  7 active torsions:
REMARK  status: ('A' for Active; 'I' for Inactive)
REMARK    1  A    between atoms: N1_2  and  C2_3 
REMARK    2  A    between atoms: C2_3  and  C3_4 
REMARK    3  A    between atoms: C3_4  and  P1_5 
REMARK    4  A    between atoms: C9_12  and  N2_13 
REMARK    5  A    between atoms: C9_12  and  C12_16 
REMARK    6  A    between atoms: N2_13  and  C10_14 
REMARK    7  A    between atoms: C15_19  and  N3_20 
ROOT
HETATM    1  C2  UNL     1       2.316   0.848  -0.617  1.00  0.00     0.084 C 
HETATM    2  C9  UNL     1       1.183   1.520  -0.456  1.00  0.00     0.067 C 
ENDROOT
BRANCH   2   3
HETATM    3  N2  UNL     1       1.246   2.894  -0.790  1.00  0.00    -0.388 N 
HETATM    4  H8  UNL     1       1.275   2.855  -1.855  1.00  0.00     0.159 HD
BRANCH   3   5
HETATM    5  C10 UNL     1       1.273   4.170  -0.149  1.00  0.00     0.115 C 
HETATM    6  C11 UNL     1       2.574   4.392   0.630  1.00  0.00     0.026 C 
ENDBRANCH   3   5
ENDBRANCH   2   3
BRANCH   2   7
HETATM    7  C12 UNL     1      -0.126   1.040  -0.032  1.00  0.00    -0.007 A 
HETATM    8  C13 UNL     1      -1.030   1.517   0.885  1.00  0.00     0.016 A 
HETATM    9  C14 UNL     1      -2.229   0.870   1.072  1.00  0.00     0.030 A 
HETATM   10  C15 UNL     1      -2.627  -0.261   0.396  1.00  0.00     0.031 A 
HETATM   11  C20 UNL     1      -1.708  -0.734  -0.527  1.00  0.00     0.030 A 
HETATM   12  C21 UNL     1      -0.484  -0.111  -0.749  1.00  0.00     0.016 A 
BRANCH  10  13
HETATM   13  N3  UNL     1      -3.890  -0.892   0.641  1.00  0.00    -0.356 N 
HETATM   14  C16 UNL     1      -4.230  -1.918  -0.293  1.00  0.00     0.126 C 
HETATM   15  C17 UNL     1      -5.709  -2.227  -0.286  1.00  0.00     0.050 C 
HETATM   16  C18 UNL     1      -6.427  -0.931   0.073  1.00  0.00     0.273 C 
HETATM   17  N4  UNL     1      -6.150  -0.730   1.482  1.00  0.00     0.100 NA
HETATM   18  C19 UNL     1      -4.737  -0.545   1.728  1.00  0.00     0.395 C 
HETATM   19  H22 UNL     1      -6.475  -1.622   1.956  1.00  0.00     0.318 HD
ENDBRANCH  10  13
ENDBRANCH   2   7
BRANCH   1  20
HETATM   20  N1  UNL     1       3.360   1.635  -1.092  1.00  0.00    -0.270 NA
HETATM   21  C1  UNL     1       3.674   1.820  -2.332  1.00  0.00     0.149 C 
ENDBRANCH   1  20
BRANCH   1  22
HETATM   22  C3  UNL     1       2.351  -0.561  -0.286  1.00  0.00     0.048 C 
BRANCH  22  23
HETATM   23  P1  UNL     1       3.586  -1.601  -0.387  1.00  0.00    -0.045 P 
HETATM   24  C4  UNL     1       4.998  -0.882   0.122  1.00  0.00     0.018 A 
HETATM   25  C5  UNL     1       6.025  -1.714   0.793  1.00  0.00     0.043 A 
HETATM   26  C6  UNL     1       5.834  -3.002   0.990  1.00  0.00     0.116 A 
HETATM   27  F1  UNL     1       6.884  -3.596   1.618  1.00  0.00    -0.206 F 
HETATM   28  C7  UNL     1       4.712  -3.857   0.652  1.00  0.00     0.043 A 
HETATM   29  C8  UNL     1       3.609  -3.368   0.021  1.00  0.00     0.018 A 
ENDBRANCH  22  23
ENDBRANCH   1  22
TORSDOF 7
