REMARK  5 active torsions:
REMARK  status: ('A' for Active; 'I' for Inactive)
REMARK    1  A    between atoms: C4_5  and  C5_6 
REMARK    2  A    between atoms: N2_9  and  C7_10 
REMARK    3  A    between atoms: N3_13  and  C10_14 
REMARK    4  A    between atoms: C10_14  and  C11_15 
REMARK    5  A    between atoms: C17_21  and  C18_22 
ROOT
HETATM    1  C5  UNL     1      -0.918   2.101  -0.522  1.00  0.00     0.095 A 
HETATM    2  N1  UNL     1       0.108   2.901  -0.928  1.00  0.00    -0.241 NA
HETATM    3  C6  UNL     1       1.262   2.373  -0.454  1.00  0.00     0.212 A 
HETATM    4  N2  UNL     1       0.955   1.257   0.240  1.00  0.00    -0.308 N 
HETATM    5  C17 UNL     1      -0.375   1.051   0.223  1.00  0.00     0.068 A 
ENDROOT
BRANCH   4   6
HETATM    6  C7  UNL     1       1.976   0.426   0.904  1.00  0.00     0.331 C 
HETATM    7  C8  UNL     1       1.962   0.668   2.400  1.00  0.00     0.088 C 
HETATM    8  C9  UNL     1       2.945   1.761   2.062  1.00  0.00     0.279 C 
HETATM    9  N3  UNL     1       3.294   1.014   0.872  1.00  0.00     0.116 N 
BRANCH   9  10
HETATM   10  C10 UNL     1       4.310   0.037   1.174  1.00  0.00     0.313 C 
BRANCH  10  11
HETATM   11  C11 UNL     1       4.747  -0.718  -0.029  1.00  0.00    -0.030 A 
HETATM   12  C12 UNL     1       4.244  -1.900  -0.503  1.00  0.00     0.009 A 
HETATM   13  C13 UNL     1       4.753  -2.488  -1.646  1.00  0.00     0.001 A 
HETATM   14  C14 UNL     1       5.791  -1.909  -2.361  1.00  0.00     0.000 A 
HETATM   15  C15 UNL     1       6.340  -0.715  -1.932  1.00  0.00     0.001 A 
HETATM   16  C16 UNL     1       5.786  -0.179  -0.782  1.00  0.00     0.009 A 
ENDBRANCH  10  11
ENDBRANCH   9  10
ENDBRANCH   4   6
BRANCH   5  17
HETATM   17  C18 UNL     1      -1.138  -0.034   0.804  1.00  0.00     0.045 C 
HETATM   18  C19 UNL     1      -2.047  -0.861   0.342  1.00  0.00    -0.015 C 
HETATM   19  C20 UNL     1      -2.577  -0.919  -1.005  1.00  0.00     0.123 C 
HETATM   20  C24 UNL     1      -2.628  -1.825   1.266  1.00  0.00     0.042 C 
HETATM   21  N4  UNL     1      -3.529  -1.727  -1.403  1.00  0.00    -0.284 NA
HETATM   22  C21 UNL     1      -4.101  -2.573  -0.458  1.00  0.00     0.201 C 
HETATM   23  C22 UNL     1      -5.011  -3.647  -0.696  1.00  0.00     0.145 C 
HETATM   24  C23 UNL     1      -3.545  -2.658   0.872  1.00  0.00     0.058 C 
HETATM   25  N5  UNL     1      -5.119  -4.246   0.417  1.00  0.00    -0.189 NA
HETATM   26  N6  UNL     1      -4.322  -3.728   1.429  1.00  0.00    -0.280 N 
HETATM   27  H20 UNL     1      -4.253  -4.021   2.435  1.00  0.00     0.189 HD
ENDBRANCH   5  17
BRANCH   1  28
HETATM   28  C4  UNL     1      -2.325   2.369  -0.824  1.00  0.00    -0.005 A 
HETATM   29  C3  UNL     1      -2.926   2.759  -2.001  1.00  0.00     0.017 A 
HETATM   30  C2  UNL     1      -4.295   2.933  -2.005  1.00  0.00     0.043 A 
HETATM   31  C1  UNL     1      -5.075   2.728  -0.869  1.00  0.00     0.116 A 
HETATM   32  F1  UNL     1      -6.416   2.914  -0.931  1.00  0.00    -0.206 F 
HETATM   33  C26 UNL     1      -4.473   2.336   0.316  1.00  0.00     0.043 A 
HETATM   34  C25 UNL     1      -3.124   2.167   0.309  1.00  0.00     0.017 A 
ENDBRANCH   1  28
TORSDOF 5
