REMARK  1 active torsions:
REMARK  status: ('A' for Active; 'I' for Inactive)
REMARK    1  A    between atoms: C7_11  and  C8_12 
ROOT
HETATM    1  C1  UNL     1       3.897   2.817  -0.262  1.00  0.00     0.168 C 
HETATM    2  N1  UNL     1       2.802   1.924  -0.104  1.00  0.00    -0.313 N 
HETATM    3  N2  UNL     1       3.126   0.660   0.391  1.00  0.00    -0.168 NA
HETATM    4  N3  UNL     1       2.585   0.393   1.629  1.00  0.00    -0.381 N 
HETATM    5  B1  UNL     1       1.555  -0.696   1.668  1.00  0.00     0.322 B 
HETATM    6  C2  UNL     1       1.954  -2.205   1.735  1.00  0.00    -0.053 A 
HETATM    7  C3  UNL     1       1.515  -2.845   0.654  1.00  0.00    -0.038 A 
HETATM    8  C4  UNL     1       0.895  -1.696   0.029  1.00  0.00     0.023 A 
HETATM    9  C5  UNL     1       0.228  -1.463  -1.083  1.00  0.00     0.001 C 
HETATM   10  C6  UNL     1      -0.023  -0.015  -0.908  1.00  0.00     0.040 A 
HETATM   11  C7  UNL     1      -1.156   0.743  -0.583  1.00  0.00     0.083 A 
HETATM   12  N5  UNL     1      -0.881   2.082  -0.530  1.00  0.00    -0.252 NA
HETATM   13  C13 UNL     1       0.453   2.121  -0.834  1.00  0.00     0.195 A 
HETATM   14  N6  UNL     1       0.971   0.846  -1.063  1.00  0.00    -0.220 NA
HETATM   15  C14 UNL     1       1.875   1.893  -1.181  1.00  0.00     0.229 A 
HETATM   16  H4  UNL     1       4.138   0.518   0.328  1.00  0.00     0.170 HD
HETATM   17  H5  UNL     1       2.376   1.196   2.230  1.00  0.00     0.155 HD
HETATM   18  H6  UNL     1       0.471  -0.458   2.129  1.00  0.00     0.014 HD
ENDROOT
BRANCH  11  19
HETATM   19  C8  UNL     1      -2.427   0.087  -0.352  1.00  0.00    -0.010 A 
HETATM   20  C9  UNL     1      -3.446   0.872  -0.041  1.00  0.00     0.015 A 
HETATM   21  C10 UNL     1      -4.803   0.460   0.234  1.00  0.00     0.062 A 
HETATM   22  C11 UNL     1      -5.120  -0.822   0.187  1.00  0.00     0.184 A 
HETATM   23  F1  UNL     1      -6.350  -1.337   0.423  1.00  0.00    -0.187 F 
HETATM   24  N4  UNL     1      -4.061  -1.683  -0.127  1.00  0.00    -0.363 N 
HETATM   25  C12 UNL     1      -2.671  -1.370  -0.449  1.00  0.00     0.163 A 
HETATM   26  H13 UNL     1      -4.213  -2.724  -0.155  1.00  0.00     0.162 HD
ENDBRANCH  11  19
TORSDOF 1
