REMARK  2 active torsions:
REMARK  status: ('A' for Active; 'I' for Inactive)
REMARK    1  A    between atoms: N4_19  and  B1_20 
REMARK    2  A    between atoms: B1_20  and  C15_21 
ROOT
HETATM    1  C1  UNL     1       4.404  -2.971   2.151  1.00  0.00     0.070 C 
HETATM    2  C2  UNL     1       3.024  -2.738   1.567  1.00  0.00     0.032 C 
HETATM    3  N1  UNL     1       1.748  -3.126   1.719  1.00  0.00    -0.285 NA
HETATM    4  C3  UNL     1       1.051  -1.967   1.399  1.00  0.00     0.132 C 
HETATM    5  C4  UNL     1       1.807  -1.769   0.055  1.00  0.00     0.009 C 
HETATM    6  C5  UNL     1       3.080  -1.784   0.413  1.00  0.00    -0.033 C 
HETATM    7  C6  UNL     1       3.767  -0.878  -0.500  1.00  0.00     0.078 C 
HETATM    8  C7  UNL     1       3.214   0.480  -0.748  1.00  0.00     0.080 A 
HETATM    9  C8  UNL     1       3.126   1.271   0.519  1.00  0.00     0.010 A 
HETATM   10  C9  UNL     1       3.669   2.315   1.074  1.00  0.00     0.040 A 
HETATM   11  C10 UNL     1       4.692   2.979   0.277  1.00  0.00     0.112 A 
HETATM   12  F1  UNL     1       5.339   4.066   0.719  1.00  0.00    -0.206 F 
HETATM   13  C11 UNL     1       4.866   2.368  -0.882  1.00  0.00     0.018 A 
HETATM   14  C12 UNL     1       4.299   1.210  -1.560  1.00  0.00     0.067 A 
HETATM   15  N2  UNL     1       2.018   0.646  -1.440  1.00  0.00    -0.270 NA
HETATM   16  C13 UNL     1       0.883   1.097  -1.262  1.00  0.00     0.198 C 
HETATM   17  N3  UNL     1      -0.211   1.706  -0.597  1.00  0.00    -0.370 N 
HETATM   18  C14 UNL     1      -1.223   1.276   0.353  1.00  0.00     0.225 C 
HETATM   19  N4  UNL     1      -2.138   0.317   0.115  1.00  0.00    -0.446 N 
HETATM   20  C21 UNL     1      -2.479  -0.867   0.787  1.00  0.00     0.105 C 
HETATM   21  C22 UNL     1      -1.519  -2.057   0.721  1.00  0.00     0.000 C 
HETATM   22  C23 UNL     1      -1.405  -2.376  -0.773  1.00  0.00     0.011 C 
HETATM   23  C24 UNL     1      -0.267  -1.557   1.226  1.00  0.00     0.037 C 
HETATM   24  H14 UNL     1      -0.055   2.639  -1.034  1.00  0.00     0.161 HD
ENDROOT
BRANCH  19  25
HETATM   25  B1  UNL     1      -3.071   0.550  -1.056  1.00  0.00     0.304 B 
HETATM   26  H17 UNL     1      -2.619   1.051  -2.051  1.00  0.00     0.005 HD
BRANCH  25  27
HETATM   27  C15 UNL     1      -4.565   0.897  -0.772  1.00  0.00    -0.077 A 
HETATM   28  C16 UNL     1      -5.061   1.251   0.473  1.00  0.00    -0.003 A 
HETATM   29  C17 UNL     1      -6.416   1.536   0.579  1.00  0.00    -0.000 A 
HETATM   30  C18 UNL     1      -7.239   1.465  -0.531  1.00  0.00     0.000 A 
HETATM   31  C19 UNL     1      -6.766   1.111  -1.794  1.00  0.00    -0.000 A 
HETATM   32  C20 UNL     1      -5.430   0.837  -1.866  1.00  0.00    -0.003 A 
ENDBRANCH  25  27
ENDBRANCH  19  25
TORSDOF 2
