REMARK  3 active torsions:
REMARK  status: ('A' for Active; 'I' for Inactive)
REMARK       I    between atoms: C2_2  and  N1_4 
REMARK    1  A    between atoms: N2_7  and  C5_8 
REMARK    2  A    between atoms: C5_8  and  C6_9 
REMARK    3  A    between atoms: C9_12  and  C10_13 
ROOT
HETATM    1  C6  UNL     1      -1.653  -0.070   0.373  1.00  0.00     0.096 C 
HETATM    2  C7  UNL     1      -2.736  -0.642   1.291  1.00  0.00    -0.048 C 
HETATM    3  C8  UNL     1      -3.670  -1.323   0.645  1.00  0.00     0.015 C 
HETATM    4  C9  UNL     1      -4.209  -0.360  -0.420  1.00  0.00    -0.028 C 
HETATM    5  C11 UNL     1      -3.737   0.936  -0.569  1.00  0.00     0.037 C 
HETATM    6  C12 UNL     1      -2.694   1.096   0.465  1.00  0.00     0.039 C 
HETATM    7  N3  UNL     1      -1.881   1.383   1.437  1.00  0.00    -0.289 NA
HETATM    8  C13 UNL     1      -1.947   0.067   2.323  1.00  0.00     0.184 C 
ENDROOT
BRANCH   1   9
HETATM    9  C5  UNL     1      -0.325   0.212   0.744  1.00  0.00     0.287 C 
BRANCH   9  10
HETATM   10  N2  UNL     1       0.444   0.720  -0.439  1.00  0.00     0.092 N 
HETATM   11  C4  UNL     1       1.635   1.400   0.061  1.00  0.00     0.292 C 
HETATM   12  C3  UNL     1       2.843   1.054  -0.776  1.00  0.00     0.156 C 
HETATM   13  N1  UNL     1       3.210  -0.282  -0.420  1.00  0.00    -0.349 N 
HETATM   14  C2  UNL     1       4.462  -0.599   0.106  1.00  0.00     0.215 C 
HETATM   15  C15 UNL     1       2.097  -1.115  -0.695  1.00  0.00     0.156 C 
HETATM   16  C1  UNL     1       5.470   0.468   0.331  1.00  0.00     0.117 C 
HETATM   17  O1  UNL     1       4.702  -1.821   0.383  1.00  0.00    -0.274 OA
HETATM   18  C14 UNL     1       0.870  -0.432  -1.240  1.00  0.00     0.292 C 
ENDBRANCH   9  10
ENDBRANCH   1   9
BRANCH   4  19
HETATM   19  C10 UNL     1      -5.296  -0.813  -1.321  1.00  0.00     0.261 C 
HETATM   20  F1  UNL     1      -6.365  -1.147  -0.515  1.00  0.00    -0.251 F 
ENDBRANCH   4  19
TORSDOF 3
