REMARK  5 active torsions:
REMARK  status: ('A' for Active; 'I' for Inactive)
REMARK    1  A    between atoms: C7_10  and  N3_11 
REMARK    2  A    between atoms: N3_11  and  C8_12 
REMARK    3  A    between atoms: C15_21  and  O2_22 
REMARK    4  A    between atoms: O2_22  and  C16_23 
REMARK    5  A    between atoms: C16_23  and  C17_24 
ROOT
HETATM    1  C1  UNL     1      -1.431   0.704  -2.103  1.00  0.00     0.074 C 
HETATM    2  C2  UNL     1      -0.474   0.576  -1.197  1.00  0.00     0.080 C 
HETATM    3  O1  UNL     1       0.776   1.055  -1.566  1.00  0.00    -0.348 OA
HETATM    4  C3  UNL     1       2.099   0.630  -1.316  1.00  0.00     0.220 C 
HETATM    5  C4  UNL     1       2.321   0.173   0.077  1.00  0.00     0.041 A 
HETATM    6  C5  UNL     1       1.540  -0.264   1.128  1.00  0.00     0.073 A 
HETATM    7  N1  UNL     1       2.076  -0.617   2.310  1.00  0.00    -0.241 NA
HETATM    8  C6  UNL     1       3.421  -0.559   2.524  1.00  0.00     0.235 A 
HETATM    9  N2  UNL     1       4.169  -0.134   1.497  1.00  0.00    -0.224 NA
HETATM   10  C7  UNL     1       3.680   0.225   0.312  1.00  0.00     0.140 A 
HETATM   11  C14 UNL     1       0.088  -0.387   1.070  1.00  0.00     0.071 C 
HETATM   12  C15 UNL     1      -0.749  -0.035   0.098  1.00  0.00     0.100 C 
ENDROOT
BRANCH  10  13
HETATM   13  N3  UNL     1       4.703   0.632  -0.589  1.00  0.00    -0.338 N 
HETATM   14  H6  UNL     1       4.694   0.966  -1.577  1.00  0.00     0.167 HD
BRANCH  13  15
HETATM   15  C8  UNL     1       6.114   0.688  -0.346  1.00  0.00     0.072 A 
HETATM   16  C9  UNL     1       6.964   1.774  -0.400  1.00  0.00     0.034 A 
HETATM   17  C10 UNL     1       8.303   1.581  -0.122  1.00  0.00     0.021 A 
HETATM   18  C11 UNL     1       8.794   0.334   0.204  1.00  0.00     0.014 A 
HETATM   19 BR1  UNL     1      10.668   0.255   0.556  1.00  0.00    -0.051 Br
HETATM   20  C12 UNL     1       7.949  -0.755   0.259  1.00  0.00     0.063 A 
HETATM   21  C13 UNL     1       6.599  -0.571  -0.019  1.00  0.00     0.144 A 
HETATM   22  F1  UNL     1       5.881  -1.717   0.071  1.00  0.00    -0.204 F 
ENDBRANCH  13  15
ENDBRANCH  10  13
BRANCH  12  23
HETATM   23  O2  UNL     1      -2.101  -0.270   0.310  1.00  0.00    -0.348 OA
BRANCH  23  24
HETATM   24  C16 UNL     1      -2.631  -1.120   1.292  1.00  0.00     0.180 C 
BRANCH  24  25
HETATM   25  C17 UNL     1      -4.160  -1.092   1.169  1.00  0.00     0.013 C 
HETATM   26  C18 UNL     1      -4.571   0.325   1.386  1.00  0.00     0.037 C 
HETATM   27  C19 UNL     1      -5.807   0.757   0.672  1.00  0.00     0.272 C 
HETATM   28  N4  UNL     1      -5.821   0.255  -0.698  1.00  0.00     0.084 N 
HETATM   29  C20 UNL     1      -6.955   0.805  -1.389  1.00  0.00     0.309 C 
HETATM   30  C21 UNL     1      -5.873  -1.190  -0.580  1.00  0.00     0.272 C 
HETATM   31  C22 UNL     1      -4.514  -1.669  -0.162  1.00  0.00     0.037 C 
ENDBRANCH  24  25
ENDBRANCH  23  24
ENDBRANCH  12  23
TORSDOF 5
