REMARK  6 active torsions:
REMARK  status: ('A' for Active; 'I' for Inactive)
REMARK    1  A    between atoms: C1_2  and  C2_3 
REMARK    2  A    between atoms: C2_3  and  C3_4 
REMARK    3  A    between atoms: C3_4  and  N1_5 
REMARK    4  A    between atoms: N1_5  and  C4_6 
REMARK    5  A    between atoms: C12_15  and  O2_16 
REMARK    6  A    between atoms: O2_16  and  C13_17 
ROOT
HETATM    1  C4  UNL     1      -0.856  -1.335  -1.477  1.00  0.00     0.027 C 
HETATM    2  C5  UNL     1       0.490  -1.411  -1.315  1.00  0.00     0.152 C 
HETATM    3  N2  UNL     1       1.534  -0.878  -0.475  1.00  0.00    -0.406 N 
HETATM    4  C6  UNL     1       2.089   0.212   0.319  1.00  0.00     0.156 C 
HETATM    5  C7  UNL     1       1.150   0.622   1.386  1.00  0.00    -0.004 A 
HETATM    6  C8  UNL     1      -0.038   1.149   0.978  1.00  0.00     0.049 A 
HETATM    7  C9  UNL     1      -1.102   1.537   1.815  1.00  0.00     0.077 A 
HETATM    8  C10 UNL     1      -0.887   1.359   3.186  1.00  0.00     0.040 A 
HETATM    9  C11 UNL     1       0.314   0.832   3.589  1.00  0.00     0.040 A 
HETATM   10  C12 UNL     1       1.328   0.462   2.735  1.00  0.00     0.086 A 
HETATM   11  O3  UNL     1      -2.241   2.045   1.130  1.00  0.00    -0.305 OA
HETATM   12  C14 UNL     1      -2.475   1.307  -0.075  1.00  0.00     0.253 C 
HETATM   13  N3  UNL     1      -2.126   0.053  -0.094  1.00  0.00    -0.272 NA
HETATM   14  C15 UNL     1      -2.263  -0.859  -1.183  1.00  0.00     0.205 C 
HETATM   15  H6  UNL     1       2.057  -1.791  -0.575  1.00  0.00     0.154 HD
ENDROOT
BRANCH   1  16
HETATM   16  N1  UNL     1      -0.918  -2.255  -2.596  1.00  0.00    -0.390 N 
HETATM   17  H4  UNL     1      -0.596  -3.272  -2.675  1.00  0.00     0.159 HD
BRANCH  16  18
HETATM   18  C3  UNL     1      -1.512  -1.765  -3.830  1.00  0.00     0.150 C 
BRANCH  18  19
HETATM   19  C2  UNL     1      -0.692  -0.710  -4.485  1.00  0.00     0.051 C 
BRANCH  19  20
HETATM   20  C1  UNL     1      -1.211   0.472  -4.783  1.00  0.00     0.219 C 
HETATM   21  O1  UNL     1      -1.766   1.432  -5.330  1.00  0.00    -0.284 OA
ENDBRANCH  19  20
ENDBRANCH  18  19
ENDBRANCH  16  18
ENDBRANCH   1  16
BRANCH  10  22
HETATM   22  O2  UNL     1       2.508  -0.061   3.202  1.00  0.00    -0.255 OA
BRANCH  22  23
HETATM   23  C13 UNL     1       3.621   0.740   3.548  1.00  0.00     0.530 C 
HETATM   24  F1  UNL     1       4.668  -0.084   3.975  1.00  0.00    -0.144 F 
HETATM   25  F2  UNL     1       4.044   1.557   2.520  1.00  0.00    -0.144 F 
HETATM   26  F3  UNL     1       3.353   1.551   4.666  1.00  0.00    -0.144 F 
ENDBRANCH  22  23
ENDBRANCH  10  22
TORSDOF 6
