REMARK  5 active torsions:
REMARK  status: ('A' for Active; 'I' for Inactive)
REMARK    1  A    between atoms: O1_2  and  C2_3 
REMARK    2  A    between atoms: C5_6  and  N1_7 
REMARK    3  A    between atoms: C14_18  and  O2_19 
REMARK    4  A    between atoms: O2_19  and  C15_20 
REMARK    5  A    between atoms: C15_20  and  C16_21 
ROOT
HETATM    1  C2  UNL     1      -0.240   1.115   0.103  1.00  0.00     0.101 A 
HETATM    2  C3  UNL     1      -1.379   1.766   0.275  1.00  0.00     0.048 A 
HETATM    3  C4  UNL     1      -2.586   1.019   0.632  1.00  0.00    -0.034 A 
HETATM    4  C5  UNL     1      -3.708   1.698   0.797  1.00  0.00     0.124 C 
HETATM    5  C12 UNL     1      -2.576  -0.443   0.806  1.00  0.00     0.070 A 
HETATM    6  C13 UNL     1      -1.217  -0.992   0.573  1.00  0.00     0.017 A 
HETATM    7  C14 UNL     1      -0.119  -0.330   0.251  1.00  0.00     0.098 A 
ENDROOT
BRANCH   4   8
HETATM    8  N1  UNL     1      -4.996   1.244   1.136  1.00  0.00    -0.262 NA
HETATM    9  C6  UNL     1      -5.833   0.698   0.314  1.00  0.00     0.076 A 
HETATM   10  C7  UNL     1      -7.118   0.320   0.959  1.00  0.00     0.091 A 
HETATM   11  C11 UNL     1      -5.467   0.512  -1.083  1.00  0.00     0.142 A 
HETATM   12  C8  UNL     1      -7.972  -0.290  -0.088  1.00  0.00    -0.002 A 
HETATM   13  C9  UNL     1      -7.697  -0.488  -1.377  1.00  0.00     0.010 A 
HETATM   14 BR1  UNL     1      -8.893  -1.295  -2.648  1.00  0.00    -0.051 Br
HETATM   15  C10 UNL     1      -6.383  -0.053  -1.843  1.00  0.00     0.063 A 
HETATM   16  F1  UNL     1      -4.279   0.888  -1.572  1.00  0.00    -0.204 F 
ENDBRANCH   4   8
BRANCH   1  17
HETATM   17  O1  UNL     1       0.915   1.808  -0.235  1.00  0.00    -0.353 OA
HETATM   18  C1  UNL     1       1.153   3.144   0.130  1.00  0.00     0.210 C 
ENDBRANCH   1  17
BRANCH   7  19
HETATM   19  O2  UNL     1       1.090  -0.989   0.065  1.00  0.00    -0.348 OA
BRANCH  19  20
HETATM   20  C15 UNL     1       2.205  -0.655   0.871  1.00  0.00     0.180 C 
BRANCH  20  21
HETATM   21  C16 UNL     1       3.408  -1.496   0.475  1.00  0.00     0.013 C 
HETATM   22  C17 UNL     1       4.557  -1.108   1.352  1.00  0.00     0.037 C 
HETATM   23  C18 UNL     1       5.715  -0.530   0.579  1.00  0.00     0.272 C 
HETATM   24  N2  UNL     1       6.140  -1.373  -0.503  1.00  0.00     0.084 N 
HETATM   25  C19 UNL     1       7.094  -0.595  -1.307  1.00  0.00     0.309 C 
HETATM   26  C20 UNL     1       5.055  -1.857  -1.332  1.00  0.00     0.272 C 
HETATM   27  C21 UNL     1       3.769  -1.157  -0.950  1.00  0.00     0.037 C 
ENDBRANCH  20  21
ENDBRANCH  19  20
ENDBRANCH   7  19
TORSDOF 5
