REMARK  7 active torsions:
REMARK  status: ('A' for Active; 'I' for Inactive)
REMARK    1  A    between atoms: O1_2  and  C2_3 
REMARK    2  A    between atoms: N1_6  and  C5_7 
REMARK    3  A    between atoms: C5_7  and  N2_8 
REMARK    4  A    between atoms: N2_8  and  C6_9 
REMARK    5  A    between atoms: C13_18  and  O2_19 
REMARK    6  A    between atoms: O2_19  and  C14_20 
REMARK    7  A    between atoms: C14_20  and  C15_21 
ROOT
HETATM    1  C2  UNL     1       0.270  -2.411   1.394  1.00  0.00     0.100 A 
HETATM    2  C3  UNL     1       1.526  -2.692   1.702  1.00  0.00     0.032 A 
HETATM    3  C4  UNL     1       2.691  -1.807   1.512  1.00  0.00     0.154 A 
HETATM    4  N1  UNL     1       2.225  -0.568   0.926  1.00  0.00    -0.368 N 
HETATM    5  C12 UNL     1       0.901  -0.199   0.572  1.00  0.00     0.127 A 
HETATM    6  C13 UNL     1      -0.024  -1.111   0.809  1.00  0.00     0.117 A 
ENDROOT
BRANCH   4   7
HETATM    7  C5  UNL     1       3.268   0.424   0.672  1.00  0.00     0.246 C 
BRANCH   7   8
HETATM    8  N2  UNL     1       4.223  -0.182  -0.253  1.00  0.00    -0.371 N 
HETATM    9  H9  UNL     1       4.137  -1.133  -0.629  1.00  0.00     0.161 HD
BRANCH   8  10
HETATM   10  C6  UNL     1       5.398   0.478  -0.751  1.00  0.00     0.068 A 
HETATM   11  C7  UNL     1       5.574   1.780  -0.277  1.00  0.00     0.034 A 
HETATM   12  C8  UNL     1       6.663   2.522  -0.679  1.00  0.00     0.021 A 
HETATM   13  C9  UNL     1       7.597   1.979  -1.561  1.00  0.00     0.014 A 
HETATM   14 BR1  UNL     1       9.149   2.903  -2.194  1.00  0.00    -0.051 Br
HETATM   15  C10 UNL     1       7.412   0.689  -2.024  1.00  0.00     0.063 A 
HETATM   16  C11 UNL     1       6.335  -0.037  -1.623  1.00  0.00     0.144 A 
HETATM   17  F1  UNL     1       6.049  -1.304  -2.006  1.00  0.00    -0.204 F 
ENDBRANCH   8  10
ENDBRANCH   7   8
ENDBRANCH   4   7
BRANCH   6  18
HETATM   18  O2  UNL     1      -1.334  -0.859   0.505  1.00  0.00    -0.346 OA
BRANCH  18  19
HETATM   19  C14 UNL     1      -2.077   0.210   1.109  1.00  0.00     0.180 C 
BRANCH  19  20
HETATM   20  C15 UNL     1      -3.450   0.141   0.508  1.00  0.00     0.013 C 
HETATM   21  C16 UNL     1      -4.402   1.202   1.024  1.00  0.00     0.026 C 
HETATM   22  C17 UNL     1      -5.749   0.852   0.419  1.00  0.00     0.117 C 
HETATM   23  N3  UNL     1      -5.737   0.726  -0.993  1.00  0.00    -0.417 N 
HETATM   24  C18 UNL     1      -6.220   1.860  -1.730  1.00  0.00     0.143 C 
HETATM   25  C19 UNL     1      -4.655   0.026  -1.586  1.00  0.00     0.117 C 
HETATM   26  C20 UNL     1      -3.326   0.442  -0.990  1.00  0.00     0.026 C 
ENDBRANCH  19  20
ENDBRANCH  18  19
ENDBRANCH   6  18
BRANCH   1  27
HETATM   27  O1  UNL     1      -0.619  -3.430   1.681  1.00  0.00    -0.353 OA
HETATM   28  C1  UNL     1      -1.926  -3.551   1.215  1.00  0.00     0.210 C 
ENDBRANCH   1  27
TORSDOF 7
