REMARK  8 active torsions:
REMARK  status: ('A' for Active; 'I' for Inactive)
REMARK    1  A    between atoms: O1_2  and  C2_3 
REMARK    2  A    between atoms: C2_3  and  C3_4 
REMARK    3  A    between atoms: C3_4  and  C14_20 
REMARK    4  A    between atoms: C4_5  and  C5_6 
REMARK    5  A    between atoms: C7_10  and  N3_11 
REMARK    6  A    between atoms: N3_11  and  N4_12 
REMARK    7  A    between atoms: N4_12  and  C8_13 
REMARK    8  A    between atoms: C14_20  and  O2_21 
ROOT
HETATM    1  C5  UNL     1      -0.126  -0.057   0.419  1.00  0.00     0.076 A 
HETATM    2  N1  UNL     1      -0.029  -1.192   1.036  1.00  0.00    -0.243 NA
HETATM    3  C6  UNL     1       1.313  -1.315   1.545  1.00  0.00     0.229 A 
HETATM    4  N2  UNL     1       2.001  -0.283   1.239  1.00  0.00    -0.255 NA
HETATM    5  C7  UNL     1       1.186   0.632   0.493  1.00  0.00     0.251 A 
ENDROOT
BRANCH   5   6
HETATM    6  N3  UNL     1       1.623   0.753  -0.891  1.00  0.00    -0.209 NA
HETATM    7  H9  UNL     1       1.603  -0.195  -1.336  1.00  0.00     0.149 HD
BRANCH   6   8
HETATM    8  N4  UNL     1       2.876   1.359  -0.990  1.00  0.00    -0.319 N 
HETATM    9  H10 UNL     1       2.845   2.271  -1.521  1.00  0.00     0.181 HD
BRANCH   8  10
HETATM   10  C8  UNL     1       4.075   0.813  -0.441  1.00  0.00     0.044 A 
HETATM   11  C9  UNL     1       4.726  -0.186  -1.181  1.00  0.00     0.030 A 
HETATM   12  C10 UNL     1       5.895  -0.787  -0.763  1.00  0.00     0.004 A 
HETATM   13  C11 UNL     1       6.410  -0.354   0.446  1.00  0.00     0.019 A 
HETATM   14  C12 UNL     1       5.824   0.629   1.235  1.00  0.00     0.013 A 
HETATM   15 BR1  UNL     1       6.573   1.197   2.894  1.00  0.00    -0.051 Br
HETATM   16  C13 UNL     1       4.648   1.193   0.753  1.00  0.00     0.049 A 
ENDBRANCH   8  10
ENDBRANCH   6   8
ENDBRANCH   5   6
BRANCH   1  17
HETATM   17  C4  UNL     1      -1.300   0.487  -0.252  1.00  0.00     0.038 C 
HETATM   18  C3  UNL     1      -2.516  -0.012  -0.412  1.00  0.00    -0.031 C 
BRANCH  18  19
HETATM   19  C2  UNL     1      -3.568   0.764  -1.159  1.00  0.00     0.203 C 
BRANCH  19  20
HETATM   20  O1  UNL     1      -4.629   0.987  -0.287  1.00  0.00    -0.392 OA
HETATM   21  C1  UNL     1      -5.633   1.730  -0.925  1.00  0.00     0.201 C 
ENDBRANCH  19  20
ENDBRANCH  18  19
BRANCH  18  22
HETATM   22  C14 UNL     1      -3.193  -1.258  -0.017  1.00  0.00     0.203 C 
BRANCH  22  23
HETATM   23  O2  UNL     1      -4.303  -1.079   0.794  1.00  0.00    -0.392 OA
HETATM   24  C15 UNL     1      -4.839  -2.336   1.068  1.00  0.00     0.201 C 
ENDBRANCH  22  23
ENDBRANCH  18  22
ENDBRANCH   1  17
TORSDOF 8
