REMARK  5 active torsions:
REMARK  status: ('A' for Active; 'I' for Inactive)
REMARK    1  A    between atoms: O1_2  and  C2_3 
REMARK    2  A    between atoms: C13_17  and  C14_18 
REMARK    3  A    between atoms: C14_18  and  C15_19 
REMARK    4  A    between atoms: C16_20  and  C17_21 
REMARK    5  A    between atoms: C17_21  and  C18_22 
ROOT
HETATM    1  C2  UNL     1      -0.347   0.308  -0.821  1.00  0.00     0.131 C 
HETATM    2  C3  UNL     1      -0.756  -0.774  -1.842  1.00  0.00     0.221 C 
HETATM    3  O2  UNL     1      -1.950  -1.314  -1.242  1.00  0.00    -0.347 OA
HETATM    4  C4  UNL     1      -2.398  -0.222  -0.461  1.00  0.00     0.081 C 
HETATM    5  C5  UNL     1      -1.692   0.884  -0.584  1.00  0.00    -0.004 C 
HETATM    6  C6  UNL     1      -2.853   1.832  -0.387  1.00  0.00     0.021 C 
HETATM    7  C7  UNL     1      -2.842   2.488   0.950  1.00  0.00     0.015 C 
HETATM    8  C8  UNL     1      -4.060   0.872  -0.387  1.00  0.00     0.050 C 
HETATM    9  C9  UNL     1      -3.542  -0.238   0.434  1.00  0.00    -0.022 C 
HETATM   10  C10 UNL     1      -3.974  -0.838   1.493  1.00  0.00     0.029 C 
HETATM   11  C11 UNL     1      -3.289  -1.860   2.228  1.00  0.00     0.118 C 
HETATM   12  N1  UNL     1      -2.156  -2.439   2.154  1.00  0.00    -0.255 NA
HETATM   13  C12 UNL     1      -1.133  -2.193   1.205  1.00  0.00     0.226 C 
HETATM   14  N2  UNL     1      -0.796  -0.939   1.199  1.00  0.00    -0.274 NA
HETATM   15  C13 UNL     1       0.200  -0.334   0.376  1.00  0.00     0.154 C 
ENDROOT
BRANCH  15  16
HETATM   16  C14 UNL     1       1.356  -1.288   0.120  1.00  0.00     0.057 C 
BRANCH  16  17
HETATM   17  C15 UNL     1       2.485  -0.617  -0.514  1.00  0.00    -0.028 C 
HETATM   18  C16 UNL     1       3.694  -0.575   0.082  1.00  0.00    -0.030 C 
BRANCH  18  19
HETATM   19  C17 UNL     1       5.024  -0.018  -0.226  1.00  0.00     0.037 C 
BRANCH  19  20
HETATM   20  C18 UNL     1       6.027  -1.169  -0.266  1.00  0.00     0.089 C 
HETATM   21 BR1  UNL     1       7.750  -0.399  -0.671  1.00  0.00    -0.096 Br
ENDBRANCH  19  20
ENDBRANCH  18  19
ENDBRANCH  16  17
ENDBRANCH  15  16
BRANCH   1  22
HETATM   22  O1  UNL     1       0.495   1.160  -1.495  1.00  0.00    -0.376 OA
HETATM   23  C1  UNL     1       0.955   2.235  -0.774  1.00  0.00     0.203 C 
ENDBRANCH   1  22
TORSDOF 5
