REMARK  2 active torsions:
REMARK  status: ('A' for Active; 'I' for Inactive)
REMARK    1  A    between atoms: O1_1  and  C1_2 
REMARK    2  A    between atoms: C2_3  and  C3_4 
ROOT
HETATM    1  C3  UNL     1      -1.312   0.105  -0.471  1.00  0.00     0.077 C 
HETATM    2  C4  UNL     1      -1.355  -1.253  -1.136  1.00  0.00    -0.061 C 
HETATM    3  C5  UNL     1      -2.573  -1.363  -1.622  1.00  0.00     0.036 C 
HETATM    4  C6  UNL     1      -3.344  -0.137  -1.531  1.00  0.00     0.068 A 
HETATM    5  N1  UNL     1      -4.534   0.375  -1.891  1.00  0.00    -0.242 NA
HETATM    6  C7  UNL     1      -4.793   1.698  -1.642  1.00  0.00     0.234 A 
HETATM    7  N2  UNL     1      -3.902   2.523  -1.046  1.00  0.00    -0.239 NA
HETATM    8  C8  UNL     1      -2.699   2.076  -0.661  1.00  0.00     0.103 A 
HETATM    9  C9  UNL     1      -2.519   0.760  -0.938  1.00  0.00     0.014 A 
HETATM   10  C10 UNL     1      -1.878   3.088  -0.078  1.00  0.00     0.142 C 
HETATM   11  F1  UNL     1      -2.249   4.376   0.101  1.00  0.00    -0.207 F 
HETATM   12  C11 UNL     1      -0.831   3.623   0.474  1.00  0.00     0.155 A 
HETATM   13  C12 UNL     1       0.485   3.606   0.995  1.00  0.00    -0.000 A 
HETATM   14 BR1  UNL     1      -0.227   5.379   1.158  1.00  0.00    -0.114 Br
HETATM   15  C13 UNL     1       1.691   3.303   1.399  1.00  0.00     0.017 C 
HETATM   16  C14 UNL     1       2.673   2.242   1.523  1.00  0.00     0.018 C 
HETATM   17  C15 UNL     1       2.932   0.984   1.311  1.00  0.00     0.084 C 
HETATM   18  N3  UNL     1       2.522  -0.283   0.834  1.00  0.00    -0.383 N 
HETATM   19  C16 UNL     1       3.039  -1.096  -0.266  1.00  0.00     0.240 C 
HETATM   20  N4  UNL     1       2.390  -2.315  -0.484  1.00  0.00    -0.397 N 
HETATM   21  C17 UNL     1       2.035  -2.692  -1.817  1.00  0.00     0.119 C 
HETATM   22  C18 UNL     1       0.520  -2.692  -2.053  1.00  0.00     0.028 C 
HETATM   23  C19 UNL     1      -0.018  -1.804  -0.943  1.00  0.00     0.018 C 
HETATM   24  C20 UNL     1       0.091  -2.614   0.302  1.00  0.00     0.028 C 
HETATM   25  C21 UNL     1       1.572  -2.875   0.535  1.00  0.00     0.119 C 
HETATM   26  H11 UNL     1       1.711  -0.492   1.495  1.00  0.00     0.160 HD
ENDROOT
BRANCH   1  27
HETATM   27  C2  UNL     1      -1.467  -0.036   1.022  1.00  0.00     0.011 C 
HETATM   28  C1  UNL     1      -0.980   0.381   2.172  1.00  0.00     0.128 C 
BRANCH  28  29
HETATM   29  O1  UNL     1      -0.136   1.109   2.950  1.00  0.00    -0.373 OA
HETATM   30  H1  UNL     1       0.800   0.865   3.242  1.00  0.00     0.216 HD
ENDBRANCH  28  29
ENDBRANCH   1  27
TORSDOF 2
