REMARK  2 active torsions:
REMARK  status: ('A' for Active; 'I' for Inactive)
REMARK    1  A    between atoms: O1_2  and  C2_3 
REMARK    2  A    between atoms: C4_5  and  N1_6 
ROOT
HETATM    1  C2  UNL     1      -1.278  -1.706   1.303  1.00  0.00     0.076 C 
HETATM    2  C3  UNL     1      -0.113  -1.029   1.246  1.00  0.00     0.063 C 
HETATM    3  C4  UNL     1       0.089  -0.263  -0.042  1.00  0.00     0.152 C 
HETATM    4  N2  UNL     1      -0.160  -1.323  -1.028  1.00  0.00    -0.269 NA
HETATM    5  C12 UNL     1      -0.443  -1.125  -2.234  1.00  0.00     0.090 C 
HETATM    6  C13 UNL     1      -0.596  -2.501  -2.782  1.00  0.00     0.075 C 
HETATM    7  C14 UNL     1      -1.810  -3.062  -2.125  1.00  0.00     0.003 C 
HETATM    8  C15 UNL     1      -2.537  -2.380  -1.254  1.00  0.00     0.132 C 
HETATM    9  O2  UNL     1      -2.757  -1.234  -0.551  1.00  0.00    -0.351 OA
HETATM   10  C16 UNL     1      -2.476  -0.957   0.784  1.00  0.00     0.188 C 
HETATM   11  C17 UNL     1      -2.109   0.507   0.897  1.00  0.00     0.034 C 
HETATM   12  C18 UNL     1      -3.225   1.449   0.543  1.00  0.00     0.038 C 
HETATM   13  C19 UNL     1      -2.982   2.300  -0.652  1.00  0.00     0.272 C 
HETATM   14  N3  UNL     1      -1.689   2.926  -0.725  1.00  0.00     0.084 N 
HETATM   15  C20 UNL     1      -1.692   4.313  -0.383  1.00  0.00     0.309 C 
HETATM   16  C21 UNL     1      -0.654   2.166  -0.053  1.00  0.00     0.281 C 
HETATM   17  C22 UNL     1      -1.012   0.730  -0.151  1.00  0.00     0.076 C 
ENDROOT
BRANCH   3  18
HETATM   18  N1  UNL     1       1.403   0.165  -0.247  1.00  0.00    -0.348 N 
HETATM   19  C5  UNL     1       2.061   0.969   0.698  1.00  0.00     0.156 C 
HETATM   20  C6  UNL     1       3.265   0.245   1.219  1.00  0.00    -0.070 C 
HETATM   21  C7  UNL     1       3.619   0.288   2.666  1.00  0.00     0.044 C 
HETATM   22  C8  UNL     1       4.056  -0.458   0.417  1.00  0.00    -0.014 C 
HETATM   23  C9  UNL     1       3.672  -0.476  -1.012  1.00  0.00     0.058 C 
HETATM   24  C10 UNL     1       4.350   0.647  -1.785  1.00  0.00     0.019 C 
HETATM   25  C11 UNL     1       2.197  -0.461  -1.230  1.00  0.00     0.277 C 
HETATM   26  F1  UNL     1       1.990   0.234  -2.431  1.00  0.00    -0.226 F 
ENDBRANCH   3  18
BRANCH   1  27
HETATM   27  O1  UNL     1      -1.274  -2.999   1.820  1.00  0.00    -0.358 OA
HETATM   28  C1  UNL     1      -1.589  -3.182   3.183  1.00  0.00     0.209 C 
ENDBRANCH   1  27
TORSDOF 2
