REMARK  3 active torsions:
REMARK  status: ('A' for Active; 'I' for Inactive)
REMARK    1  A    between atoms: O1_2  and  C2_3 
REMARK    2  A    between atoms: C7_10  and  N3_11 
REMARK    3  A    between atoms: C13_18  and  O2_19 
ROOT
HETATM    1  C2  UNL     1       2.053   0.439   0.813  1.00  0.00     0.081 A 
HETATM    2  C3  UNL     1       0.743   0.501   0.667  1.00  0.00     0.052 A 
HETATM    3  C4  UNL     1       0.223  -0.610  -0.107  1.00  0.00     0.041 A 
HETATM    4  C5  UNL     1       1.334  -1.355  -0.427  1.00  0.00     0.085 A 
HETATM    5  N1  UNL     1       1.170  -2.456  -1.175  1.00  0.00    -0.242 NA
HETATM    6  C6  UNL     1      -0.077  -2.773  -1.574  1.00  0.00     0.235 A 
HETATM    7  N2  UNL     1      -1.138  -2.027  -1.245  1.00  0.00    -0.223 NA
HETATM    8  C7  UNL     1      -1.048  -0.903  -0.492  1.00  0.00     0.147 A 
HETATM    9  C13 UNL     1       2.570  -0.761   0.135  1.00  0.00     0.230 A 
ENDROOT
BRANCH   8  10
HETATM   10  N3  UNL     1      -2.228  -0.237  -0.162  1.00  0.00    -0.316 N 
HETATM   11  C8  UNL     1      -2.591   0.638   0.882  1.00  0.00     0.094 A 
HETATM   12  C9  UNL     1      -3.733   1.243   1.059  1.00  0.00    -0.004 A 
HETATM   13  C10 UNL     1      -4.833   1.039   0.092  1.00  0.00     0.076 A 
HETATM   14  C11 UNL     1      -4.523   0.142  -1.010  1.00  0.00     0.008 A 
HETATM   15 BR1  UNL     1      -5.887  -0.163  -2.279  1.00  0.00    -0.054 Br
HETATM   16  C12 UNL     1      -3.336  -0.407  -1.081  1.00  0.00     0.113 A 
ENDBRANCH   8  10
BRANCH   1  17
HETATM   17  O1  UNL     1       2.902   1.314   1.484  1.00  0.00    -0.357 OA
HETATM   18  C1  UNL     1       2.982   2.682   1.127  1.00  0.00     0.209 C 
ENDBRANCH   1  17
BRANCH   9  19
HETATM   19  O2  UNL     1       3.548  -0.521  -0.810  1.00  0.00    -0.378 OA
HETATM   20  C14 UNL     1       4.678  -1.232  -0.337  1.00  0.00     0.203 C 
ENDBRANCH   9  19
TORSDOF 3
