REMARK  4 active torsions:
REMARK  status: ('A' for Active; 'I' for Inactive)
REMARK    1  A    between atoms: C2_2  and  C3_3 
REMARK    2  A    between atoms: C6_6  and  N1_7 
REMARK    3  A    between atoms: N1_7  and  C7_8 
REMARK    4  A    between atoms: C15_19  and  O1_20 
ROOT
HETATM    1  C3  UNL     1       2.404   0.465   0.410  1.00  0.00    -0.045 A 
HETATM    2  C4  UNL     1       1.110   0.674   0.589  1.00  0.00     0.023 A 
HETATM    3  C5  UNL     1       0.283  -0.315  -0.134  1.00  0.00     0.038 A 
HETATM    4  C6  UNL     1      -1.083  -0.477  -0.231  1.00  0.00     0.141 A 
HETATM    5  N2  UNL     1      -1.479  -1.498  -0.985  1.00  0.00    -0.224 NA
HETATM    6  C13 UNL     1      -0.600  -2.290  -1.591  1.00  0.00     0.235 A 
HETATM    7  N3  UNL     1       0.740  -2.130  -1.495  1.00  0.00    -0.242 NA
HETATM    8  C14 UNL     1       1.208  -1.121  -0.751  1.00  0.00     0.083 A 
HETATM    9  C15 UNL     1       2.592  -0.704  -0.465  1.00  0.00     0.202 A 
ENDROOT
BRANCH   4  10
HETATM   10  N1  UNL     1      -1.918   0.433   0.462  1.00  0.00    -0.340 N 
HETATM   11  H7  UNL     1      -1.454   1.199   1.025  1.00  0.00     0.167 HD
BRANCH  10  12
HETATM   12  C7  UNL     1      -3.332   0.453   0.502  1.00  0.00     0.035 A 
HETATM   13  C8  UNL     1      -4.173  -0.426  -0.139  1.00  0.00     0.029 A 
HETATM   14  C9  UNL     1      -5.550  -0.419  -0.109  1.00  0.00     0.004 A 
HETATM   15  C10 UNL     1      -6.161   0.567   0.637  1.00  0.00     0.019 A 
HETATM   16  C11 UNL     1      -5.377   1.482   1.305  1.00  0.00     0.013 A 
HETATM   17 BR1  UNL     1      -6.203   2.852   2.341  1.00  0.00    -0.051 Br
HETATM   18  C12 UNL     1      -4.006   1.411   1.229  1.00  0.00     0.048 A 
ENDBRANCH  10  12
ENDBRANCH   4  10
BRANCH   1  19
HETATM   19  C2  UNL     1       3.526   1.276   0.995  1.00  0.00     0.033 C 
HETATM   20  C1  UNL     1       4.330   1.842  -0.141  1.00  0.00     0.010 C 
ENDBRANCH   1  19
BRANCH   9  21
HETATM   21  O1  UNL     1       3.364  -1.698   0.099  1.00  0.00    -0.380 OA
HETATM   22  C16 UNL     1       4.466  -2.051  -0.653  1.00  0.00     0.202 C 
ENDBRANCH   9  21
TORSDOF 4
