REMARK  7 active torsions:
REMARK  status: ('A' for Active; 'I' for Inactive)
REMARK    1  A    between atoms: C2_2  and  C3_3 
REMARK    2  A    between atoms: C4_5  and  C5_6 
REMARK    3  A    between atoms: C5_6  and  C13_17 
REMARK    4  A    between atoms: C6_7  and  C7_8 
REMARK    5  A    between atoms: C10_13  and  C11_14 
REMARK    6  A    between atoms: C11_14  and  O1_15 
REMARK    7  A    between atoms: C13_17  and  O2_19 
ROOT
HETATM    1  C5  UNL     1      -1.075  -0.301  -0.195  1.00  0.00    -0.003 C 
HETATM    2  C6  UNL     1       0.167  -0.727  -0.356  1.00  0.00     0.046 C 
ENDROOT
BRANCH   1   3
HETATM    3  C4  UNL     1      -1.960  -0.821   0.820  1.00  0.00     0.032 C 
HETATM    4  C3  UNL     1      -3.211  -0.650   1.197  1.00  0.00     0.008 C 
HETATM    5 BR1  UNL     1      -4.526   0.509   0.421  1.00  0.00    -0.051 Br
BRANCH   4   6
HETATM    6  C2  UNL     1      -3.566  -1.511   2.374  1.00  0.00     0.010 C 
HETATM    7  C1  UNL     1      -4.861  -1.308   2.739  1.00  0.00     0.015 C 
ENDBRANCH   4   6
ENDBRANCH   1   3
BRANCH   1   8
HETATM    8  C13 UNL     1      -1.262   0.754  -1.152  1.00  0.00     0.056 C 
HETATM    9  C14 UNL     1      -2.339   1.473  -1.371  1.00  0.00     0.072 C 
BRANCH   8  10
HETATM   10  O2  UNL     1      -0.674   1.491  -2.145  1.00  0.00    -0.359 OA
HETATM   11  C15 UNL     1       0.094   2.635  -1.764  1.00  0.00     0.209 C 
ENDBRANCH   8  10
ENDBRANCH   1   8
BRANCH   2  12
HETATM   12  C7  UNL     1       1.281  -0.451  -1.221  1.00  0.00     0.069 A 
HETATM   13  N1  UNL     1       1.132  -0.350  -2.551  1.00  0.00    -0.242 NA
HETATM   14  C8  UNL     1       2.116  -0.075  -3.416  1.00  0.00     0.233 A 
HETATM   15  N2  UNL     1       3.319   0.106  -2.882  1.00  0.00    -0.253 NA
HETATM   16  C9  UNL     1       3.563   0.026  -1.574  1.00  0.00     0.129 A 
HETATM   17  C10 UNL     1       2.558  -0.257  -0.674  1.00  0.00     0.012 A 
BRANCH  17  18
HETATM   18  C11 UNL     1       2.826  -0.340   0.768  1.00  0.00     0.209 C 
BRANCH  18  19
HETATM   19  O1  UNL     1       2.875  -1.622   1.276  1.00  0.00    -0.391 OA
HETATM   20  C12 UNL     1       3.131  -1.496   2.648  1.00  0.00     0.201 C 
ENDBRANCH  18  19
ENDBRANCH  17  18
ENDBRANCH   2  12
TORSDOF 7
