REMARK  7 active torsions:
REMARK  status: ('A' for Active; 'I' for Inactive)
REMARK    1  A    between atoms: C4_5  and  O1_6 
REMARK    2  A    between atoms: C6_8  and  O2_9 
REMARK    3  A    between atoms: C9_12  and  C10_13 
REMARK    4  A    between atoms: C10_13  and  N2_14 
REMARK    5  A    between atoms: C10_13  and  C11_15 
REMARK    6  A    between atoms: C11_15  and  N3_16 
REMARK    7  A    between atoms: N3_16  and  C12_17 
ROOT
HETATM    1  C10 UNL     1       0.215  -0.675  -1.022  1.00  0.00     0.033 C 
ENDROOT
BRANCH   1   2
HETATM    2  C9  UNL     1      -1.040  -0.441  -0.705  1.00  0.00     0.019 A 
HETATM    3  C2  UNL     1      -1.954  -0.463  -1.828  1.00  0.00     0.065 A 
HETATM    4  N1  UNL     1      -1.969  -0.629  -3.011  1.00  0.00    -0.294 NA
HETATM    5  C3  UNL     1      -3.364  -0.196  -1.445  1.00  0.00     0.071 A 
HETATM    6  C1  UNL     1      -1.325  -0.896  -4.206  1.00  0.00     0.178 C 
HETATM    7  C4  UNL     1      -3.811   0.050  -0.191  1.00  0.00     0.103 A 
HETATM    8  C6  UNL     1      -2.776   0.045   0.867  1.00  0.00     0.102 A 
HETATM    9  C8  UNL     1      -1.477  -0.183   0.639  1.00  0.00     0.055 A 
BRANCH   7  10
HETATM   10  O1  UNL     1      -5.125   0.310   0.247  1.00  0.00    -0.353 OA
HETATM   11  C5  UNL     1      -5.432   1.633   0.629  1.00  0.00     0.210 C 
ENDBRANCH   7  10
BRANCH   8  12
HETATM   12  O2  UNL     1      -3.137   0.287   2.186  1.00  0.00    -0.353 OA
HETATM   13  C7  UNL     1      -2.565  -0.289   3.317  1.00  0.00     0.210 C 
ENDBRANCH   8  12
ENDBRANCH   1   2
BRANCH   1  14
HETATM   14  N2  UNL     1       0.831  -0.946  -2.267  1.00  0.00    -0.400 N 
HETATM   15  H12 UNL     1       0.923  -1.944  -2.569  1.00  0.00     0.156 HD
HETATM   16  H13 UNL     1       1.142  -0.078  -2.772  1.00  0.00     0.156 HD
ENDBRANCH   1  14
BRANCH   1  17
HETATM   17  C11 UNL     1       1.371  -0.704  -0.103  1.00  0.00     0.177 C 
BRANCH  17  18
HETATM   18  N3  UNL     1       2.387   0.288  -0.482  1.00  0.00    -0.384 N 
HETATM   19  H16 UNL     1       2.301   0.929  -1.294  1.00  0.00     0.160 HD
BRANCH  18  20
HETATM   20  C12 UNL     1       3.559   0.343   0.352  1.00  0.00     0.029 A 
HETATM   21  C13 UNL     1       3.660  -0.514   1.428  1.00  0.00     0.029 A 
HETATM   22  C14 UNL     1       4.761  -0.504   2.259  1.00  0.00     0.004 A 
HETATM   23  C15 UNL     1       5.802   0.370   2.038  1.00  0.00     0.019 A 
HETATM   24  C16 UNL     1       5.668   1.209   0.957  1.00  0.00     0.013 A 
HETATM   25 BR1  UNL     1       7.090   2.437   0.615  1.00  0.00    -0.051 Br
HETATM   26  C17 UNL     1       4.573   1.228   0.097  1.00  0.00     0.048 A 
ENDBRANCH  18  20
ENDBRANCH  17  18
ENDBRANCH   1  17
TORSDOF 7
