REMARK  7 active torsions:
REMARK  status: ('A' for Active; 'I' for Inactive)
REMARK    1  A    between atoms: O1_2  and  C2_3 
REMARK    2  A    between atoms: C4_5  and  C5_6 
REMARK    3  A    between atoms: C5_6  and  N1_7 
REMARK    4  A    between atoms: N2_9  and  C7_10 
REMARK    5  A    between atoms: C8_11  and  N3_12 
REMARK    6  A    between atoms: C9_13  and  C10_14 
REMARK    7  A    between atoms: C17_22  and  O2_23 
ROOT
HETATM    1  C2  UNL     1      -3.650  -0.614  -0.872  1.00  0.00     0.103 A 
HETATM    2  C3  UNL     1      -2.920  -0.379  -1.952  1.00  0.00     0.063 A 
HETATM    3  C4  UNL     1      -1.632   0.235  -1.666  1.00  0.00     0.060 A 
HETATM    4  C6  UNL     1      -1.132   0.584  -0.346  1.00  0.00     0.079 A 
HETATM    5  N2  UNL     1       0.007   1.128  -0.094  1.00  0.00    -0.258 NA
HETATM    6  C16 UNL     1      -2.014   0.285   0.775  1.00  0.00     0.072 A 
HETATM    7  C17 UNL     1      -3.194  -0.280   0.494  1.00  0.00     0.103 A 
ENDROOT
BRANCH   3   8
HETATM    8  C5  UNL     1      -0.848   0.501  -2.699  1.00  0.00    -0.011 C 
BRANCH   8   9
HETATM    9  N1  UNL     1      -0.289   1.042  -3.728  1.00  0.00    -0.257 NA
HETATM   10  H5  UNL     1      -0.534   2.029  -3.962  1.00  0.00     0.197 HD
ENDBRANCH   8   9
ENDBRANCH   3   8
BRANCH   5  11
HETATM   11  C7  UNL     1       0.980   1.484  -1.056  1.00  0.00     0.136 C 
HETATM   12  C8  UNL     1       1.873   0.509  -1.294  1.00  0.00     0.135 C 
BRANCH  12  13
HETATM   13  N3  UNL     1       1.478  -0.560  -0.446  1.00  0.00    -0.271 NA
HETATM   14  C9  UNL     1       2.366  -1.071   0.331  1.00  0.00     0.127 C 
BRANCH  14  15
HETATM   15  C10 UNL     1       3.766  -0.976   0.727  1.00  0.00    -0.017 A 
HETATM   16  C11 UNL     1       4.203  -1.859   1.691  1.00  0.00     0.013 A 
HETATM   17  C12 UNL     1       5.532  -1.710   2.012  1.00  0.00     0.002 A 
HETATM   18  C13 UNL     1       6.368  -0.775   1.439  1.00  0.00     0.019 A 
HETATM   19  C14 UNL     1       5.881   0.085   0.478  1.00  0.00     0.011 A 
HETATM   20 BR1  UNL     1       7.055   1.358  -0.291  1.00  0.00    -0.051 Br
HETATM   21  C15 UNL     1       4.558  -0.025   0.123  1.00  0.00     0.032 A 
ENDBRANCH  14  15
ENDBRANCH  12  13
ENDBRANCH   5  11
BRANCH   7  22
HETATM   22  O2  UNL     1      -4.085  -0.592   1.519  1.00  0.00    -0.353 OA
HETATM   23  C18 UNL     1      -3.754  -0.248   2.845  1.00  0.00     0.210 C 
ENDBRANCH   7  22
BRANCH   1  24
HETATM   24  O1  UNL     1      -4.892  -1.199  -1.075  1.00  0.00    -0.353 OA
HETATM   25  C1  UNL     1      -5.982  -0.303  -1.217  1.00  0.00     0.210 C 
ENDBRANCH   1  24
TORSDOF 7
