REMARK  1 active torsions:
REMARK  status: ('A' for Active; 'I' for Inactive)
REMARK    1  A    between atoms: O1_2  and  C2_3 
ROOT
HETATM    1  C2  UNL     1       3.711  -1.910   1.722  1.00  0.00     0.107 C 
HETATM    2  C3  UNL     1       2.713  -2.497   1.095  1.00  0.00     0.173 C 
HETATM    3  O2  UNL     1       1.785  -1.899   0.256  1.00  0.00    -0.354 OA
HETATM    4  C4  UNL     1       0.688  -1.185   0.843  1.00  0.00     0.231 C 
HETATM    5  C5  UNL     1       0.348   0.003  -0.003  1.00  0.00     0.035 C 
HETATM    6  C6  UNL     1      -0.859  -0.089  -0.417  1.00  0.00    -0.010 C 
HETATM    7  C7  UNL     1      -0.956   1.168  -1.210  1.00  0.00     0.030 C 
HETATM    8  C8  UNL     1      -1.769   1.915  -1.958  1.00  0.00     0.091 C 
HETATM    9  N1  UNL     1      -3.107   1.994  -2.491  1.00  0.00    -0.370 N 
HETATM   10  C9  UNL     1      -3.991   2.979  -1.835  1.00  0.00     0.154 C 
HETATM   11  C10 UNL     1      -3.588   1.219  -3.594  1.00  0.00     0.102 C 
HETATM   12  C11 UNL     1      -4.002   0.057  -3.129  1.00  0.00    -0.008 C 
HETATM   13  C12 UNL     1      -4.460   0.116  -1.905  1.00  0.00     0.032 C 
HETATM   14  C13 UNL     1      -3.287  -0.265  -1.252  1.00  0.00     0.012 C 
HETATM   15 BR1  UNL     1      -4.160  -1.962  -0.855  1.00  0.00    -0.051 Br
HETATM   16  C14 UNL     1      -2.169  -0.514  -0.690  1.00  0.00     0.032 C 
HETATM   17  N2  UNL     1       1.362   0.961  -0.160  1.00  0.00    -0.373 NA
HETATM   18  C15 UNL     1       2.543   0.766   0.232  1.00  0.00     0.403 C 
HETATM   19  N3  UNL     1       3.039  -0.399   0.871  1.00  0.00    -0.251 NA
HETATM   20  C16 UNL     1       4.025  -0.482   1.643  1.00  0.00     0.156 C 
ENDROOT
BRANCH   1  21
HETATM   21  O1  UNL     1       4.521  -2.711   2.517  1.00  0.00    -0.353 OA
HETATM   22  C1  UNL     1       5.347  -2.138   3.536  1.00  0.00     0.210 C 
ENDBRANCH   1  21
TORSDOF 1
