REMARK  1 active torsions:
REMARK  status: ('A' for Active; 'I' for Inactive)
REMARK    1  A    between atoms: O1_2  and  C2_3 
ROOT
HETATM    1  C2  UNL     1       1.753   0.046   1.638  1.00  0.00     0.051 C 
HETATM    2  C3  UNL     1       1.325   1.230   2.019  1.00  0.00    -0.048 C 
HETATM    3  C4  UNL     1       2.040   1.641   3.294  1.00  0.00     0.046 C 
HETATM    4  C5  UNL     1       0.292   1.706   1.102  1.00  0.00     0.101 C 
HETATM    5  C6  UNL     1      -0.493   2.797   0.918  1.00  0.00     0.032 C 
HETATM    6 BR1  UNL     1      -1.263   4.541   1.200  1.00  0.00    -0.086 Br
HETATM    7  C7  UNL     1      -1.565   2.593  -0.036  1.00  0.00     0.007 C 
HETATM    8  C8  UNL     1      -1.786   1.420  -0.667  1.00  0.00     0.089 C 
HETATM    9  N1  UNL     1      -2.227   0.286  -1.462  1.00  0.00    -0.346 N 
HETATM   10  C9  UNL     1      -3.486  -0.340  -1.106  1.00  0.00     0.157 C 
HETATM   11  C10 UNL     1      -1.644  -0.353  -2.566  1.00  0.00     0.142 A 
HETATM   12  N2  UNL     1      -2.207  -0.223  -3.775  1.00  0.00    -0.223 NA
HETATM   13  C11 UNL     1      -1.660  -0.849  -4.870  1.00  0.00     0.234 A 
HETATM   14  N3  UNL     1      -0.557  -1.628  -4.857  1.00  0.00    -0.253 NA
HETATM   15  C12 UNL     1       0.040  -1.785  -3.670  1.00  0.00     0.133 A 
HETATM   16  C13 UNL     1      -0.535  -1.141  -2.603  1.00  0.00     0.027 A 
HETATM   17  C14 UNL     1       0.193  -1.343  -1.376  1.00  0.00     0.013 C 
HETATM   18  C15 UNL     1       1.026  -1.120  -0.425  1.00  0.00    -0.019 C 
HETATM   19  C16 UNL     1       1.851  -1.167   0.783  1.00  0.00     0.091 C 
ENDROOT
BRANCH   1  20
HETATM   20  O1  UNL     1       2.708  -0.323   2.620  1.00  0.00    -0.360 OA
HETATM   21  C1  UNL     1       2.534  -1.406   3.496  1.00  0.00     0.209 C 
ENDBRANCH   1  20
TORSDOF 1
