REMARK  3 active torsions:
REMARK  status: ('A' for Active; 'I' for Inactive)
REMARK    1  A    between atoms: N1_2  and  C2_3 
REMARK    2  A    between atoms: N1_2  and  C11_15 
REMARK    3  A    between atoms: C5_6  and  O1_7 
ROOT
HETATM    1  C2  UNL     1      -0.198   1.077  -0.171  1.00  0.00     0.140 C 
HETATM    2  C3  UNL     1      -1.207   0.280   0.090  1.00  0.00     0.027 C 
HETATM    3  C4  UNL     1      -1.136  -0.884   0.992  1.00  0.00     0.046 C 
HETATM    4  C5  UNL     1      -2.223  -1.523   1.462  1.00  0.00     0.048 C 
HETATM    5  C6  UNL     1      -3.524  -0.895   0.932  1.00  0.00     0.101 C 
HETATM    6  C7  UNL     1      -3.247  -0.632  -0.536  1.00  0.00    -0.038 A 
HETATM    7  C8  UNL     1      -2.942  -0.308  -1.796  1.00  0.00     0.020 A 
HETATM    8  C9  UNL     1      -2.471   0.513  -0.677  1.00  0.00     0.105 A 
HETATM    9  N2  UNL     1      -2.729   1.889  -0.901  1.00  0.00    -0.364 N 
HETATM   10  C10 UNL     1      -1.573   2.707  -1.192  1.00  0.00     0.206 C 
HETATM   11  N3  UNL     1      -0.355   2.343  -0.847  1.00  0.00    -0.226 NA
HETATM   12  H9  UNL     1      -3.632   2.411  -0.889  1.00  0.00     0.162 HD
ENDROOT
BRANCH   1  13
HETATM   13  N1  UNL     1       1.088   0.870   0.390  1.00  0.00    -0.336 N 
HETATM   14  C1  UNL     1       1.512   1.359   1.696  1.00  0.00     0.158 C 
BRANCH  13  15
HETATM   15  C11 UNL     1       2.032   0.126  -0.389  1.00  0.00     0.036 A 
HETATM   16  C12 UNL     1       1.715  -0.380  -1.650  1.00  0.00     0.030 A 
HETATM   17  C13 UNL     1       2.655  -1.094  -2.372  1.00  0.00     0.004 A 
HETATM   18  C14 UNL     1       3.925  -1.330  -1.880  1.00  0.00     0.019 A 
HETATM   19  C15 UNL     1       4.262  -0.841  -0.640  1.00  0.00     0.013 A 
HETATM   20 BR1  UNL     1       6.011  -1.129   0.112  1.00  0.00    -0.051 Br
HETATM   21  C16 UNL     1       3.309  -0.133   0.061  1.00  0.00     0.048 A 
ENDBRANCH  13  15
ENDBRANCH   1  13
BRANCH   4  22
HETATM   22  O1  UNL     1      -2.030  -2.605   2.309  1.00  0.00    -0.365 OA
HETATM   23  H5  UNL     1      -2.727  -3.345   2.315  1.00  0.00     0.217 HD
ENDBRANCH   4  22
TORSDOF 3
