REMARK  6 active torsions:
REMARK  status: ('A' for Active; 'I' for Inactive)
REMARK    1  A    between atoms: N1_2  and  C2_3 
REMARK    2  A    between atoms: N1_2  and  C12_16 
REMARK    3  A    between atoms: C2_3  and  N2_13 
REMARK    4  A    between atoms: C3_4  and  C4_5 
REMARK    5  A    between atoms: C8_9  and  O1_10 
REMARK    6  A    between atoms: C11_14  and  N3_15 
ROOT
HETATM    1  C2  UNL     1       0.822   0.832   0.807  1.00  0.00     0.128 C 
HETATM    2  C3  UNL     1      -0.026   0.259   1.610  1.00  0.00     0.033 C 
ENDROOT
BRANCH   1   3
HETATM    3  N1  UNL     1       2.185   0.603   0.537  1.00  0.00    -0.336 N 
HETATM    4  C1  UNL     1       3.200   1.397   1.200  1.00  0.00     0.158 C 
BRANCH   3   5
HETATM    5  C12 UNL     1       2.588  -0.404  -0.383  1.00  0.00     0.036 A 
HETATM    6  C13 UNL     1       3.927  -0.623  -0.642  1.00  0.00     0.030 A 
HETATM    7  C14 UNL     1       4.410  -1.576  -1.518  1.00  0.00     0.004 A 
HETATM    8  C15 UNL     1       3.464  -2.355  -2.171  1.00  0.00     0.019 A 
HETATM    9  C16 UNL     1       2.117  -2.159  -1.931  1.00  0.00     0.013 A 
HETATM   10 BR1  UNL     1       0.886  -3.288  -2.884  1.00  0.00    -0.051 Br
HETATM   11  C17 UNL     1       1.660  -1.186  -1.039  1.00  0.00     0.048 A 
ENDBRANCH   3   5
ENDBRANCH   1   3
BRANCH   1  12
HETATM   12  N2  UNL     1       0.292   1.900   0.041  1.00  0.00    -0.227 NA
HETATM   13  C11 UNL     1       0.081   1.765  -1.222  1.00  0.00     0.202 C 
BRANCH  13  14
HETATM   14  N3  UNL     1      -0.424   3.088  -1.437  1.00  0.00    -0.394 N 
HETATM   15  H13 UNL     1      -0.612   4.128  -1.493  1.00  0.00     0.156 HD
HETATM   16  H14 UNL     1      -0.883   4.007  -1.645  1.00  0.00     0.156 HD
ENDBRANCH  13  14
ENDBRANCH   1  12
BRANCH   2  17
HETATM   17  C4  UNL     1      -1.413   0.151   2.189  1.00  0.00     0.039 A 
HETATM   18  C5  UNL     1      -2.356   1.042   1.493  1.00  0.00    -0.010 A 
HETATM   19  C6  UNL     1      -3.386   0.532   0.838  1.00  0.00    -0.046 A 
HETATM   20  C7  UNL     1      -4.595   0.171   0.052  1.00  0.00     0.103 A 
HETATM   21  C9  UNL     1      -3.174  -0.904   1.080  1.00  0.00    -0.021 A 
HETATM   22  C8  UNL     1      -4.258  -1.218   0.375  1.00  0.00     0.054 A 
HETATM   23  C10 UNL     1      -1.979  -1.215   1.903  1.00  0.00     0.054 A 
BRANCH  22  24
HETATM   24  O1  UNL     1      -5.053  -2.263  -0.085  1.00  0.00    -0.364 OA
HETATM   25  H9  UNL     1      -5.841  -2.605   0.483  1.00  0.00     0.217 HD
ENDBRANCH  22  24
ENDBRANCH   2  17
TORSDOF 6
