REMARK  5 active torsions:
REMARK  status: ('A' for Active; 'I' for Inactive)
REMARK    1  A    between atoms: O1_2  and  C2_3 
REMARK    2  A    between atoms: C6_9  and  N3_10 
REMARK    3  A    between atoms: N3_10  and  C8_12 
REMARK    4  A    between atoms: C8_12  and  C9_13 
REMARK    5  A    between atoms: C17_22  and  O2_23 
ROOT
HETATM    1  C2  UNL     1      -3.546  -1.137   0.959  1.00  0.00     0.103 A 
HETATM    2  C3  UNL     1      -3.671  -1.176  -0.434  1.00  0.00     0.072 A 
HETATM    3  C4  UNL     1      -2.631  -0.916  -1.294  1.00  0.00     0.075 A 
HETATM    4  N1  UNL     1      -2.779  -0.960  -2.628  1.00  0.00    -0.241 NA
HETATM    5  C5  UNL     1      -1.714  -0.693  -3.436  1.00  0.00     0.236 A 
HETATM    6  N2  UNL     1      -0.501  -0.381  -2.904  1.00  0.00    -0.224 NA
HETATM    7  C6  UNL     1      -0.298  -0.323  -1.569  1.00  0.00     0.139 A 
HETATM    8  C15 UNL     1      -1.392  -0.597  -0.775  1.00  0.00     0.041 A 
HETATM    9  C16 UNL     1      -1.250  -0.554   0.595  1.00  0.00     0.057 A 
HETATM   10  C17 UNL     1      -2.290  -0.815   1.460  1.00  0.00     0.102 A 
ENDROOT
BRANCH   7  11
HETATM   11  N3  UNL     1       0.994   0.010  -1.052  1.00  0.00    -0.365 N 
HETATM   12  C7  UNL     1       1.832  -0.810  -0.189  1.00  0.00     0.151 C 
BRANCH  11  13
HETATM   13  C8  UNL     1       1.541   1.308  -1.425  1.00  0.00     0.162 C 
BRANCH  13  14
HETATM   14  C9  UNL     1       2.880   1.563  -0.844  1.00  0.00    -0.039 A 
HETATM   15  C10 UNL     1       2.981   2.182   0.407  1.00  0.00     0.009 A 
HETATM   16  C11 UNL     1       4.248   2.416   0.943  1.00  0.00     0.002 A 
HETATM   17  C12 UNL     1       5.395   2.051   0.268  1.00  0.00     0.019 A 
HETATM   18  C13 UNL     1       5.272   1.446  -0.954  1.00  0.00     0.011 A 
HETATM   19 BR1  UNL     1       6.802   0.923  -1.928  1.00  0.00    -0.051 Br
HETATM   20  C14 UNL     1       4.036   1.203  -1.508  1.00  0.00     0.027 A 
ENDBRANCH  13  14
ENDBRANCH  11  13
ENDBRANCH   7  11
BRANCH  10  21
HETATM   21  O2  UNL     1      -2.221  -0.790   2.836  1.00  0.00    -0.353 OA
HETATM   22  C18 UNL     1      -0.986  -0.472   3.449  1.00  0.00     0.210 C 
ENDBRANCH  10  21
BRANCH   1  23
HETATM   23  O1  UNL     1      -4.637  -1.411   1.772  1.00  0.00    -0.353 OA
HETATM   24  C1  UNL     1      -5.849  -1.724   1.110  1.00  0.00     0.210 C 
ENDBRANCH   1  23
TORSDOF 5
