REMARK  4 active torsions:
REMARK  status: ('A' for Active; 'I' for Inactive)
REMARK    1  A    between atoms: O1_2  and  C2_3 
REMARK    2  A    between atoms: C6_9  and  N3_10 
REMARK    3  A    between atoms: N3_10  and  C8_12 
REMARK    4  A    between atoms: C17_21  and  O2_22 
ROOT
HETATM    1  C2  UNL     1      -3.644  -0.963  -0.554  1.00  0.00     0.103 A 
HETATM    2  C3  UNL     1      -3.491  -1.106   0.808  1.00  0.00     0.072 A 
HETATM    3  C4  UNL     1      -2.373  -0.660   1.483  1.00  0.00     0.075 A 
HETATM    4  N1  UNL     1      -2.263  -0.821   2.825  1.00  0.00    -0.241 NA
HETATM    5  C5  UNL     1      -1.126  -0.352   3.415  1.00  0.00     0.236 A 
HETATM    6  N2  UNL     1      -0.147   0.246   2.711  1.00  0.00    -0.223 NA
HETATM    7  C6  UNL     1      -0.216   0.425   1.379  1.00  0.00     0.144 A 
HETATM    8  C15 UNL     1      -1.359  -0.045   0.783  1.00  0.00     0.042 A 
HETATM    9  C16 UNL     1      -1.484   0.112  -0.581  1.00  0.00     0.057 A 
HETATM   10  C17 UNL     1      -2.615  -0.342  -1.245  1.00  0.00     0.102 A 
ENDROOT
BRANCH   7  11
HETATM   11  N3  UNL     1       0.860   1.067   0.710  1.00  0.00    -0.335 N 
HETATM   12  C7  UNL     1       0.751   2.302  -0.049  1.00  0.00     0.158 C 
BRANCH  11  13
HETATM   13  C8  UNL     1       2.149   0.462   0.782  1.00  0.00     0.036 A 
HETATM   14  C9  UNL     1       2.395  -0.711   1.467  1.00  0.00     0.029 A 
HETATM   15  C10 UNL     1       3.635  -1.308   1.546  1.00  0.00     0.003 A 
HETATM   16  C11 UNL     1       4.711  -0.721   0.912  1.00  0.00     0.007 A 
HETATM   17  C12 UNL     1       4.526   0.454   0.211  1.00  0.00    -0.060 A 
HETATM   18  C13 UNL     1       5.696   1.076  -0.467  1.00  0.00     0.048 C 
HETATM   19  C14 UNL     1       3.260   0.996   0.173  1.00  0.00     0.036 A 
ENDBRANCH  11  13
ENDBRANCH   7  11
BRANCH  10  20
HETATM   20  O2  UNL     1      -2.718  -0.170  -2.629  1.00  0.00    -0.353 OA
HETATM   21  C18 UNL     1      -1.651   0.467  -3.308  1.00  0.00     0.210 C 
ENDBRANCH  10  20
BRANCH   1  22
HETATM   22  O1  UNL     1      -4.734  -1.385  -1.291  1.00  0.00    -0.353 OA
HETATM   23  C1  UNL     1      -5.865  -2.027  -0.781  1.00  0.00     0.210 C 
ENDBRANCH   1  22
TORSDOF 4
