REMARK  4 active torsions:
REMARK  status: ('A' for Active; 'I' for Inactive)
REMARK    1  A    between atoms: O1_2  and  C2_3 
REMARK    2  A    between atoms: C6_10  and  O2_11 
REMARK    3  A    between atoms: O2_11  and  C7_12 
REMARK    4  A    between atoms: C15_21  and  O3_22 
ROOT
HETATM    1  C2  UNL     1       3.605  -1.348  -0.972  1.00  0.00     0.148 C 
HETATM    2  C3  UNL     1       2.268  -1.229  -0.774  1.00  0.00     0.021 C 
HETATM    3  C4  UNL     1       1.414  -2.452  -0.718  1.00  0.00     0.040 C 
HETATM    4  P1  UNL     1      -0.054  -2.117  -1.286  1.00  0.00    -0.010 P 
HETATM    5  N1  UNL     1      -1.263  -3.321  -0.990  1.00  0.00    -0.359 N 
HETATM    6  C5  UNL     1      -2.363  -2.965  -0.165  1.00  0.00     0.209 A 
HETATM    7  N2  UNL     1      -2.543  -1.851   0.420  1.00  0.00    -0.219 NA
HETATM    8  C6  UNL     1      -1.720  -0.723   0.390  1.00  0.00     0.183 A 
HETATM    9  C13 UNL     1      -0.593  -0.683  -0.304  1.00  0.00     0.040 A 
HETATM   10  C14 UNL     1       0.402   0.372  -0.392  1.00  0.00     0.055 C 
HETATM   11  C15 UNL     1       1.713   0.110  -0.608  1.00  0.00     0.081 C 
HETATM   12  H6  UNL     1      -0.021  -1.739  -2.654  1.00  0.00     0.083 HD
HETATM   13  H7  UNL     1      -1.417  -4.297  -1.267  1.00  0.00     0.165 HD
ENDROOT
BRANCH   8  14
HETATM   14  O2  UNL     1      -1.879   0.459   1.003  1.00  0.00    -0.291 OA
BRANCH  14  15
HETATM   15  C7  UNL     1      -2.708   0.943   1.944  1.00  0.00     0.079 A 
HETATM   16  C8  UNL     1      -3.714   0.259   2.595  1.00  0.00     0.037 A 
HETATM   17  C9  UNL     1      -4.492   0.888   3.543  1.00  0.00     0.004 A 
HETATM   18  C10 UNL     1      -4.218   2.214   3.803  1.00  0.00     0.019 A 
HETATM   19  C11 UNL     1      -3.218   2.995   3.195  1.00  0.00     0.013 A 
HETATM   20 BR1  UNL     1      -2.888   4.807   3.580  1.00  0.00    -0.051 Br
HETATM   21  C12 UNL     1      -2.485   2.263   2.247  1.00  0.00     0.056 A 
ENDBRANCH  14  15
ENDBRANCH   8  14
BRANCH  11  22
HETATM   22  O3  UNL     1       2.413   1.301  -0.642  1.00  0.00    -0.355 OA
HETATM   23  C16 UNL     1       2.457   2.078  -1.846  1.00  0.00     0.210 C 
ENDBRANCH  11  22
BRANCH   1  24
HETATM   24  O1  UNL     1       4.423  -0.242  -1.029  1.00  0.00    -0.367 OA
HETATM   25  C1  UNL     1       5.430  -0.070  -1.996  1.00  0.00     0.208 C 
ENDBRANCH   1  24
TORSDOF 4
