REMARK  5 active torsions:
REMARK  status: ('A' for Active; 'I' for Inactive)
REMARK    1  A    between atoms: O1_2  and  C2_3 
REMARK    2  A    between atoms: C7_10  and  N3_11 
REMARK    3  A    between atoms: N3_11  and  N4_12 
REMARK    4  A    between atoms: N3_11  and  C8_13 
REMARK    5  A    between atoms: C14_20  and  O2_21 
ROOT
HETATM    1  C2  UNL     1      -2.653   0.406  -0.796  1.00  0.00     0.081 A 
HETATM    2  C3  UNL     1      -1.336   0.495  -0.864  1.00  0.00     0.052 A 
HETATM    3  C4  UNL     1      -0.629  -0.210   0.195  1.00  0.00     0.042 A 
HETATM    4  C5  UNL     1      -1.656  -0.753   0.938  1.00  0.00     0.085 A 
HETATM    5  N1  UNL     1      -1.334  -1.492   2.026  1.00  0.00    -0.242 NA
HETATM    6  C6  UNL     1      -0.042  -1.690   2.373  1.00  0.00     0.235 A 
HETATM    7  N2  UNL     1       0.899  -1.132   1.606  1.00  0.00    -0.222 NA
HETATM    8  C7  UNL     1       0.695  -0.388   0.516  1.00  0.00     0.158 A 
HETATM    9  C14 UNL     1      -2.982  -0.421   0.393  1.00  0.00     0.230 A 
ENDROOT
BRANCH   8  10
HETATM   10  N3  UNL     1       1.679   0.202  -0.287  1.00  0.00    -0.262 N 
BRANCH  10  11
HETATM   11  N4  UNL     1       1.309   0.981  -1.388  1.00  0.00    -0.241 NA
HETATM   12  H6  UNL     1       1.577   1.965  -1.162  1.00  0.00     0.143 HD
HETATM   13  H7  UNL     1       1.842   0.635  -2.212  1.00  0.00     0.143 HD
ENDBRANCH  10  11
BRANCH  10  14
HETATM   14  C8  UNL     1       3.085   0.108  -0.134  1.00  0.00     0.054 A 
HETATM   15  C9  UNL     1       3.716  -0.695   0.779  1.00  0.00     0.031 A 
HETATM   16  C10 UNL     1       5.067  -0.799   0.951  1.00  0.00     0.004 A 
HETATM   17  C11 UNL     1       5.908  -0.049   0.158  1.00  0.00     0.019 A 
HETATM   18  C12 UNL     1       5.349   0.769  -0.769  1.00  0.00     0.013 A 
HETATM   19 BR1  UNL     1       6.464   1.831  -1.894  1.00  0.00    -0.051 Br
HETATM   20  C13 UNL     1       3.990   0.825  -0.889  1.00  0.00     0.050 A 
ENDBRANCH  10  14
ENDBRANCH   8  10
BRANCH   1  21
HETATM   21  O1  UNL     1      -3.668   0.919  -1.591  1.00  0.00    -0.357 OA
HETATM   22  C1  UNL     1      -4.385   2.099  -1.249  1.00  0.00     0.209 C 
ENDBRANCH   1  21
BRANCH   9  23
HETATM   23  O2  UNL     1      -3.678  -1.522  -0.072  1.00  0.00    -0.378 OA
HETATM   24  C15 UNL     1      -4.918  -1.688   0.526  1.00  0.00     0.203 C 
ENDBRANCH   9  23
TORSDOF 5
