REMARK  5 active torsions:
REMARK  status: ('A' for Active; 'I' for Inactive)
REMARK    1  A    between atoms: C5_5  and  N1_6 
REMARK    2  A    between atoms: N1_6  and  C7_8 
REMARK    3  A    between atoms: C11_14  and  O1_15 
REMARK    4  A    between atoms: C13_17  and  P1_18 
REMARK    5  A    between atoms: P1_18  and  O2_19 
ROOT
HETATM    1  C7  UNL     1      -0.094  -0.186   1.069  1.00  0.00     0.140 A 
HETATM    2  N2  UNL     1      -0.254  -0.668   2.324  1.00  0.00    -0.224 NA
HETATM    3  C8  UNL     1       0.768  -0.919   3.147  1.00  0.00     0.236 A 
HETATM    4  N3  UNL     1       2.039  -0.706   2.773  1.00  0.00    -0.241 NA
HETATM    5  C9  UNL     1       2.304  -0.233   1.553  1.00  0.00     0.074 A 
HETATM    6  C10 UNL     1       3.569   0.011   1.061  1.00  0.00     0.070 A 
HETATM    7  C11 UNL     1       3.815   0.490  -0.217  1.00  0.00     0.083 A 
HETATM    8  C13 UNL     1       2.701   0.729  -1.028  1.00  0.00     0.027 A 
HETATM    9  C14 UNL     1       1.458   0.484  -0.527  1.00  0.00     0.034 A 
HETATM   10  C15 UNL     1       1.223   0.011   0.742  1.00  0.00     0.040 A 
ENDROOT
BRANCH   1  11
HETATM   11  N1  UNL     1      -1.284   0.082   0.346  1.00  0.00    -0.358 N 
HETATM   12  C6  UNL     1      -1.685   0.984  -0.711  1.00  0.00     0.152 C 
BRANCH  11  13
HETATM   13  C5  UNL     1      -2.489  -0.693   0.735  1.00  0.00     0.133 A 
HETATM   14  C4  UNL     1      -3.520   0.248   1.204  1.00  0.00     0.003 A 
HETATM   15  C3  UNL     1      -4.758   0.410   0.709  1.00  0.00     0.010 A 
HETATM   16  C2  UNL     1      -5.060  -0.469  -0.417  1.00  0.00    -0.029 A 
HETATM   17  C1  UNL     1      -6.251  -0.383  -0.970  1.00  0.00     0.025 C 
HETATM   18  C17 UNL     1      -4.136  -1.424  -0.959  1.00  0.00     0.018 A 
HETATM   19  C16 UNL     1      -2.939  -1.518  -0.412  1.00  0.00     0.022 A 
HETATM   20 BR1  UNL     1      -4.572  -2.560  -2.439  1.00  0.00    -0.051 Br
ENDBRANCH  11  13
ENDBRANCH   1  11
BRANCH   8  21
HETATM   21  P1  UNL     1       3.038   1.362  -2.716  1.00  0.00     0.045 P 
HETATM   22  H14 UNL     1       4.067   2.391  -2.718  1.00  0.00     0.092 HD
BRANCH  21  23
HETATM   23  O2  UNL     1       3.522   0.003  -3.705  1.00  0.00    -0.371 OA
HETATM   24  H15 UNL     1       4.244  -0.468  -3.205  1.00  0.00     0.215 HD
ENDBRANCH  21  23
ENDBRANCH   8  21
BRANCH   7  25
HETATM   25  O1  UNL     1       5.097   0.721  -0.669  1.00  0.00    -0.355 OA
HETATM   26  C12 UNL     1       6.198   0.474   0.159  1.00  0.00     0.210 C 
ENDBRANCH   7  25
TORSDOF 5
