REMARK  4 active torsions:
REMARK  status: ('A' for Active; 'I' for Inactive)
REMARK    1  A    between atoms: O1_2  and  C2_3 
REMARK    2  A    between atoms: C5_6  and  O2_7 
REMARK    3  A    between atoms: O2_7  and  C6_8 
REMARK    4  A    between atoms: C14_19  and  O3_20 
ROOT
HETATM    1  C2  UNL     1       1.577   0.719   1.375  1.00  0.00     0.104 C 
HETATM    2  C3  UNL     1       0.433   0.071   1.780  1.00  0.00     0.051 C 
HETATM    3  C4  UNL     1       0.197  -1.241   1.104  1.00  0.00     0.004 C 
HETATM    4  C5  UNL     1      -0.896  -1.586   0.397  1.00  0.00     0.177 C 
HETATM    5  N1  UNL     1      -0.686  -2.478  -0.791  1.00  0.00    -0.219 NA
HETATM    6  C12 UNL     1       0.274  -2.161  -1.717  1.00  0.00     0.210 C 
HETATM    7  N2  UNL     1       1.630  -1.540  -1.469  1.00  0.00    -0.351 N 
HETATM    8  C13 UNL     1       1.931  -1.170  -0.089  1.00  0.00     0.051 C 
HETATM    9  C14 UNL     1       2.418   0.030   0.313  1.00  0.00     0.124 C 
HETATM   10  C16 UNL     1       1.509  -2.091   1.133  1.00  0.00     0.103 C 
HETATM   11  H10 UNL     1       2.512  -1.215  -1.913  1.00  0.00     0.166 HD
ENDROOT
BRANCH   4  12
HETATM   12  O2  UNL     1      -1.856  -0.902   1.130  1.00  0.00    -0.291 OA
BRANCH  12  13
HETATM   13  C6  UNL     1      -2.942  -0.328   0.441  1.00  0.00     0.079 A 
HETATM   14  C7  UNL     1      -3.095  -0.412  -0.944  1.00  0.00     0.037 A 
HETATM   15  C8  UNL     1      -4.190   0.179  -1.544  1.00  0.00     0.004 A 
HETATM   16  C9  UNL     1      -5.134   0.851  -0.812  1.00  0.00     0.019 A 
HETATM   17  C10 UNL     1      -5.021   0.959   0.564  1.00  0.00     0.013 A 
HETATM   18 BR1  UNL     1      -6.306   1.880   1.615  1.00  0.00    -0.051 Br
HETATM   19  C11 UNL     1      -3.919   0.357   1.118  1.00  0.00     0.056 A 
ENDBRANCH  12  13
ENDBRANCH   4  12
BRANCH   1  20
HETATM   20  O1  UNL     1       1.995   1.902   1.843  1.00  0.00    -0.353 OA
HETATM   21  C1  UNL     1       2.173   3.128   1.226  1.00  0.00     0.210 C 
ENDBRANCH   1  20
BRANCH   9  22
HETATM   22  O3  UNL     1       3.531   0.157  -0.449  1.00  0.00    -0.351 OA
HETATM   23  C15 UNL     1       4.814   0.178   0.158  1.00  0.00     0.210 C 
ENDBRANCH   9  22
TORSDOF 4
