REMARK  3 active torsions:
REMARK  status: ('A' for Active; 'I' for Inactive)
REMARK    1  A    between atoms: C1_2  and  C2_4 
REMARK    2  A    between atoms: C10_13  and  N2_14 
REMARK    3  A    between atoms: N2_14  and  C11_15 
ROOT
HETATM    1  C2  UNL     1      -4.635   0.470   1.488  1.00  0.00     0.006 A 
HETATM    2  C3  UNL     1      -4.906   1.743   1.027  1.00  0.00     0.015 A 
HETATM    3  C4  UNL     1      -4.201   2.209  -0.072  1.00  0.00     0.038 A 
HETATM    4  C5  UNL     1      -3.245   1.454  -0.719  1.00  0.00     0.081 A 
HETATM    5  C6  UNL     1      -2.941   0.178  -0.295  1.00  0.00    -0.006 A 
HETATM    6  C7  UNL     1      -3.663  -0.247   0.799  1.00  0.00     0.024 A 
HETATM    7  C8  UNL     1      -1.936  -0.671  -0.943  1.00  0.00     0.162 C 
HETATM    8  N1  UNL     1      -0.562  -0.284  -0.656  1.00  0.00    -0.369 N 
HETATM    9  C9  UNL     1       0.763  -0.719  -1.012  1.00  0.00     0.141 C 
HETATM   10  C10 UNL     1       1.419  -1.644  -0.291  1.00  0.00     0.138 C 
HETATM   11  N3  UNL     1       1.648  -0.368  -2.062  1.00  0.00    -0.220 NA
HETATM   12  C17 UNL     1       1.756   0.878  -2.385  1.00  0.00     0.234 C 
HETATM   13  O1  UNL     1       1.638   2.281  -2.480  1.00  0.00    -0.411 OA
HETATM   14  B1  UNL     1       0.347   3.013  -1.569  1.00  0.00     0.385 B 
HETATM   15  C18 UNL     1      -1.298   2.339  -1.881  1.00  0.00     0.091 C 
HETATM   16  O2  UNL     1      -2.668   2.144  -1.805  1.00  0.00    -0.335 OA
HETATM   17  H7  UNL     1      -0.052   0.435  -0.097  1.00  0.00     0.161 HD
ENDROOT
BRANCH  10  18
HETATM   18  N2  UNL     1       2.660  -2.312  -0.294  1.00  0.00    -0.362 N 
HETATM   19  H9  UNL     1       2.752  -3.309  -0.655  1.00  0.00     0.165 HD
BRANCH  18  20
HETATM   20  C11 UNL     1       3.769  -1.577   0.212  1.00  0.00     0.033 A 
HETATM   21  C12 UNL     1       4.604  -0.766  -0.544  1.00  0.00     0.029 A 
HETATM   22  C13 UNL     1       5.643  -0.115   0.097  1.00  0.00     0.004 A 
HETATM   23  C14 UNL     1       5.879  -0.238   1.439  1.00  0.00     0.019 A 
HETATM   24  C15 UNL     1       5.055  -1.043   2.208  1.00  0.00     0.013 A 
HETATM   25 BR1  UNL     1       5.420  -1.183   4.064  1.00  0.00    -0.051 Br
HETATM   26  C16 UNL     1       4.017  -1.693   1.568  1.00  0.00     0.048 A 
ENDBRANCH  18  20
ENDBRANCH  10  18
BRANCH   1  27
HETATM   27  C1  UNL     1      -5.326  -0.141   2.659  1.00  0.00     0.386 C 
HETATM   28  F1  UNL     1      -5.315   0.679   3.754  1.00  0.00    -0.209 F 
HETATM   29  F2  UNL     1      -6.666  -0.312   2.285  1.00  0.00    -0.209 F 
ENDBRANCH   1  27
TORSDOF 3
