REMARK  6 active torsions:
REMARK  status: ('A' for Active; 'I' for Inactive)
REMARK    1  A    between atoms: O1_2  and  C2_3 
REMARK    2  A    between atoms: C2_3  and  C4_6 
REMARK    3  A    between atoms: C4_6  and  O2_7 
REMARK    4  A    between atoms: C5_8  and  C6_9 
REMARK    5  A    between atoms: C9_14  and  O3_15 
REMARK    6  A    between atoms: O3_15  and  C10_16 
ROOT
HETATM    1  C6  UNL     1       0.022  -1.439   0.201  1.00  0.00     0.037 A 
HETATM    2  C7  UNL     1       0.473  -2.760   0.244  1.00  0.00     0.134 A 
HETATM    3  N1  UNL     1      -0.431  -3.777   0.360  1.00  0.00    -0.253 NA
HETATM    4  C8  UNL     1      -1.757  -3.468   0.431  1.00  0.00     0.235 A 
HETATM    5  N2  UNL     1      -2.177  -2.197   0.390  1.00  0.00    -0.217 NA
HETATM    6  C9  UNL     1      -1.350  -1.152   0.278  1.00  0.00     0.182 A 
ENDROOT
BRANCH   1   7
HETATM    7  C5  UNL     1       1.170  -0.520   0.051  1.00  0.00     0.057 C 
HETATM    8  C4  UNL     1       2.141  -0.820  -0.817  1.00  0.00     0.102 C 
BRANCH   8   9
HETATM    9  C2  UNL     1       3.236   0.114  -0.918  1.00  0.00     0.127 C 
HETATM   10  C3  UNL     1       4.205  -0.146  -1.766  1.00  0.00     0.441 C 
HETATM   11  F1  UNL     1       5.358   0.436  -2.152  1.00  0.00    -0.428 F 
BRANCH   9  12
HETATM   12  O1  UNL     1       4.071   1.181  -0.746  1.00  0.00    -0.351 OA
HETATM   13  C1  UNL     1       4.876   1.370   0.406  1.00  0.00     0.210 C 
ENDBRANCH   9  12
ENDBRANCH   8   9
BRANCH   8  14
HETATM   14  O2  UNL     1       2.119  -1.963  -1.591  1.00  0.00    -0.358 OA
HETATM   15  H5  UNL     1       2.994  -2.283  -1.981  1.00  0.00     0.217 HD
ENDBRANCH   8  14
ENDBRANCH   1   7
BRANCH   6  16
HETATM   16  O3  UNL     1      -1.449   0.202   0.212  1.00  0.00    -0.291 OA
BRANCH  16  17
HETATM   17  C10 UNL     1      -2.643   0.859   0.221  1.00  0.00     0.079 A 
HETATM   18  C11 UNL     1      -3.901   0.248   0.199  1.00  0.00     0.037 A 
HETATM   19  C12 UNL     1      -4.994   1.096   0.212  1.00  0.00     0.004 A 
HETATM   20  C13 UNL     1      -4.926   2.479   0.245  1.00  0.00     0.019 A 
HETATM   21  C14 UNL     1      -3.685   3.099   0.267  1.00  0.00     0.013 A 
HETATM   22 BR1  UNL     1      -3.516   4.985   0.309  1.00  0.00    -0.051 Br
HETATM   23  C15 UNL     1      -2.592   2.228   0.253  1.00  0.00     0.056 A 
ENDBRANCH  16  17
ENDBRANCH   6  16
TORSDOF 6
