REMARK  4 active torsions:
REMARK  status: ('A' for Active; 'I' for Inactive)
REMARK    1  A    between atoms: O1_2  and  C2_3 
REMARK    2  A    between atoms: C6_9  and  O2_10 
REMARK    3  A    between atoms: O2_10  and  C7_11 
REMARK    4  A    between atoms: C7_11  and  C8_12 
ROOT
HETATM    1  C2  UNL     1      -3.368  -1.216   0.034  1.00  0.00     0.072 C 
HETATM    2  C3  UNL     1      -2.705  -0.264  -0.585  1.00  0.00     0.067 C 
HETATM    3  C4  UNL     1      -1.293   0.097  -0.595  1.00  0.00     0.075 A 
HETATM    4  N1  UNL     1      -1.072   0.717  -1.769  1.00  0.00    -0.241 NA
HETATM    5  C5  UNL     1       0.176   1.172  -2.060  1.00  0.00     0.236 A 
HETATM    6  N2  UNL     1       1.192   1.011  -1.192  1.00  0.00    -0.217 NA
HETATM    7  C6  UNL     1       1.057   0.411  -0.015  1.00  0.00     0.178 A 
HETATM    8  C11 UNL     1      -0.225  -0.062   0.296  1.00  0.00     0.047 A 
HETATM    9  C12 UNL     1      -0.158  -0.688   1.633  1.00  0.00     0.042 C 
HETATM   10  C13 UNL     1      -1.014  -1.416   2.334  1.00  0.00     0.136 C 
HETATM   11  O3  UNL     1      -2.301  -1.875   2.092  1.00  0.00    -0.357 OA
HETATM   12  C14 UNL     1      -3.038  -2.328   0.972  1.00  0.00     0.239 C 
ENDROOT
BRANCH   7  13
HETATM   13  O2  UNL     1       1.978   0.173   0.961  1.00  0.00    -0.330 OA
BRANCH  13  14
HETATM   14  C7  UNL     1       3.337   0.525   0.944  1.00  0.00     0.206 C 
BRANCH  14  15
HETATM   15  C8  UNL     1       3.976  -0.147  -0.220  1.00  0.00     0.014 C 
HETATM   16  C9  UNL     1       4.589   0.482  -1.235  1.00  0.00    -0.017 C 
HETATM   17  C10 UNL     1       4.640   1.971  -1.208  1.00  0.00     0.056 C 
HETATM   18 BR1  UNL     1       5.322  -0.641  -2.596  1.00  0.00    -0.056 Br
ENDBRANCH  14  15
ENDBRANCH  13  14
ENDBRANCH   7  13
BRANCH   1  19
HETATM   19  O1  UNL     1      -4.723  -1.174  -0.261  1.00  0.00    -0.358 OA
HETATM   20  C1  UNL     1      -5.474  -0.031   0.046  1.00  0.00     0.209 C 
ENDBRANCH   1  19
TORSDOF 4
