REMARK  5 active torsions:
REMARK  status: ('A' for Active; 'I' for Inactive)
REMARK    1  A    between atoms: C2_3  and  N2_4 
REMARK    2  A    between atoms: C5_7  and  O1_8 
REMARK    3  A    between atoms: C7_10  and  O2_11 
REMARK    4  A    between atoms: C11_15  and  N3_16 
REMARK    5  A    between atoms: N3_16  and  C12_17 
ROOT
HETATM    1  N2  UNL     1      -0.127   2.402   0.754  1.00  0.00    -0.242 NA
HETATM    2  C3  UNL     1      -0.802   1.304   0.760  1.00  0.00     0.072 A 
HETATM    3  C4  UNL     1      -2.241   1.136   0.603  1.00  0.00     0.072 A 
HETATM    4  C5  UNL     1      -2.785  -0.070   0.633  1.00  0.00     0.103 A 
HETATM    5  C7  UNL     1      -2.014  -1.294   0.818  1.00  0.00     0.102 A 
HETATM    6  C9  UNL     1      -0.699  -1.238   0.968  1.00  0.00     0.054 A 
HETATM    7  C10 UNL     1      -0.022   0.071   0.946  1.00  0.00     0.011 A 
HETATM    8  C11 UNL     1       1.280   0.117   1.096  1.00  0.00     0.102 C 
ENDROOT
BRANCH   8   9
HETATM    9  N3  UNL     1       2.255  -0.899   1.289  1.00  0.00    -0.365 N 
HETATM   10  H14 UNL     1       2.060  -1.550   2.098  1.00  0.00     0.165 HD
BRANCH   9  11
HETATM   11  C12 UNL     1       3.425  -1.115   0.526  1.00  0.00     0.033 A 
HETATM   12  C13 UNL     1       3.459  -1.931  -0.588  1.00  0.00     0.032 A 
HETATM   13  C14 UNL     1       4.615  -2.101  -1.283  1.00  0.00     0.046 A 
HETATM   14  C15 UNL     1       5.759  -1.450  -0.869  1.00  0.00     0.138 A 
HETATM   15  F1  UNL     1       6.908  -1.628  -1.572  1.00  0.00    -0.204 F 
HETATM   16  C16 UNL     1       5.725  -0.637   0.241  1.00  0.00     0.074 A 
HETATM   17 CL1  UNL     1       7.204   0.187   0.754  1.00  0.00    -0.081 Cl
HETATM   18  C17 UNL     1       4.559  -0.455   0.957  1.00  0.00     0.056 A 
ENDBRANCH   9  11
ENDBRANCH   8   9
BRANCH   1  19
HETATM   19  C2  UNL     1      -0.742   3.662   0.585  1.00  0.00     0.226 C 
HETATM   20  N1  UNL     1      -1.334   4.414  -0.281  1.00  0.00    -0.287 NA
HETATM   21  C1  UNL     1      -1.524   3.951  -1.637  1.00  0.00     0.179 C 
ENDBRANCH   1  19
BRANCH   5  22
HETATM   22  O2  UNL     1      -2.553  -2.554   0.852  1.00  0.00    -0.353 OA
HETATM   23  C8  UNL     1      -3.372  -3.145  -0.113  1.00  0.00     0.210 C 
ENDBRANCH   5  22
BRANCH   4  24
HETATM   24  O1  UNL     1      -4.159  -0.202   0.481  1.00  0.00    -0.353 OA
HETATM   25  C6  UNL     1      -4.689   0.173  -0.797  1.00  0.00     0.210 C 
ENDBRANCH   4  24
TORSDOF 5
