REMARK  5 active torsions:
REMARK  status: ('A' for Active; 'I' for Inactive)
REMARK    1  A    between atoms: C5_6  and  O1_7 
REMARK    2  A    between atoms: C7_9  and  O2_10 
REMARK    3  A    between atoms: C10_13  and  C11_14 
REMARK    4  A    between atoms: C11_14  and  N2_15 
REMARK    5  A    between atoms: N2_15  and  C13_17 
ROOT
HETATM    1  C1  UNL     1       1.375   0.956  -3.318  1.00  0.00     0.039 C 
HETATM    2  C2  UNL     1       0.371   0.724  -2.703  1.00  0.00     0.024 C 
HETATM    3  N1  UNL     1      -0.786   0.457  -2.023  1.00  0.00    -0.198 NA
HETATM    4  C3  UNL     1      -1.080   0.446  -0.803  1.00  0.00     0.081 A 
HETATM    5  C4  UNL     1      -2.518   0.071  -0.738  1.00  0.00     0.073 A 
HETATM    6  C5  UNL     1      -3.139  -0.027   0.448  1.00  0.00     0.103 A 
HETATM    7  C7  UNL     1      -2.439   0.226   1.693  1.00  0.00     0.102 A 
HETATM    8  C9  UNL     1      -1.167   0.563   1.751  1.00  0.00     0.054 A 
HETATM    9  C10 UNL     1      -0.462   0.679   0.487  1.00  0.00     0.012 A 
ENDROOT
BRANCH   9  10
HETATM   10  C11 UNL     1       0.781   0.999   0.385  1.00  0.00     0.104 C 
BRANCH  10  11
HETATM   11  N2  UNL     1       2.026   1.295  -0.145  1.00  0.00    -0.360 N 
HETATM   12  C12 UNL     1       2.504   2.653  -0.461  1.00  0.00     0.155 C 
BRANCH  11  13
HETATM   13  C13 UNL     1       2.948   0.215  -0.422  1.00  0.00     0.035 A 
HETATM   14  C14 UNL     1       4.208   0.390  -0.950  1.00  0.00     0.033 A 
HETATM   15  C15 UNL     1       5.060  -0.660  -1.201  1.00  0.00     0.046 A 
HETATM   16  C16 UNL     1       4.643  -1.946  -0.915  1.00  0.00     0.138 A 
HETATM   17  F1  UNL     1       5.533  -2.930  -1.187  1.00  0.00    -0.204 F 
HETATM   18  C17 UNL     1       3.398  -2.174  -0.388  1.00  0.00     0.074 A 
HETATM   19 CL1  UNL     1       2.917  -3.823  -0.043  1.00  0.00    -0.081 Cl
HETATM   20  C18 UNL     1       2.563  -1.103  -0.146  1.00  0.00     0.056 A 
ENDBRANCH  11  13
ENDBRANCH  10  11
ENDBRANCH   9  10
BRANCH   6  21
HETATM   21  O1  UNL     1      -4.470  -0.365   0.654  1.00  0.00    -0.353 OA
HETATM   22  C6  UNL     1      -5.053  -1.458  -0.064  1.00  0.00     0.210 C 
ENDBRANCH   6  21
BRANCH   7  23
HETATM   23  O2  UNL     1      -3.018   0.144   2.969  1.00  0.00    -0.353 OA
HETATM   24  C8  UNL     1      -4.298  -0.344   3.229  1.00  0.00     0.210 C 
ENDBRANCH   7  23
TORSDOF 5
