REMARK  4 active torsions:
REMARK  status: ('A' for Active; 'I' for Inactive)
REMARK    1  A    between atoms: O1_2  and  C2_3 
REMARK    2  A    between atoms: C7_8  and  O2_9 
REMARK    3  A    between atoms: C9_11  and  N1_12 
REMARK    4  A    between atoms: N1_12  and  C11_14 
ROOT
HETATM    1  C2  UNL     1      -3.139   0.036   0.586  1.00  0.00     0.103 A 
HETATM    2  C3  UNL     1      -2.655   1.301   0.942  1.00  0.00     0.071 A 
HETATM    3  C4  UNL     1      -1.360   1.706   0.591  1.00  0.00     0.066 A 
HETATM    4  C5  UNL     1      -0.610   0.791  -0.116  1.00  0.00     0.022 A 
HETATM    5  C6  UNL     1      -1.067  -0.460  -0.477  1.00  0.00     0.055 A 
HETATM    6  C7  UNL     1      -2.345  -0.841  -0.122  1.00  0.00     0.102 A 
HETATM    7  C9  UNL     1       0.611   1.175  -0.442  1.00  0.00     0.049 A 
HETATM    8  P1  UNL     1       1.353   2.792  -0.026  1.00  0.00    -0.055 P 
HETATM    9  C17 UNL     1       0.021   3.697   0.896  1.00  0.00     0.186 A 
HETATM   10  N2  UNL     1      -1.121   2.866   0.999  1.00  0.00    -0.284 NA
HETATM   11  H15 UNL     1       2.530   2.548   0.762  1.00  0.00     0.065 HD
ENDROOT
BRANCH   7  12
HETATM   12  N1  UNL     1       1.503   0.372  -1.157  1.00  0.00    -0.350 N 
HETATM   13  C10 UNL     1       1.469   0.234  -2.602  1.00  0.00     0.156 C 
BRANCH  12  14
HETATM   14  C11 UNL     1       2.511  -0.364  -0.473  1.00  0.00     0.036 A 
HETATM   15  C12 UNL     1       3.407  -1.166  -1.155  1.00  0.00     0.033 A 
HETATM   16  C13 UNL     1       4.391  -1.888  -0.518  1.00  0.00     0.046 A 
HETATM   17  C14 UNL     1       4.505  -1.823   0.856  1.00  0.00     0.138 A 
HETATM   18  F1  UNL     1       5.463  -2.523   1.503  1.00  0.00    -0.204 F 
HETATM   19  C15 UNL     1       3.605  -1.017   1.546  1.00  0.00     0.074 A 
HETATM   20 CL1  UNL     1       3.795  -0.971   3.293  1.00  0.00    -0.081 Cl
HETATM   21  C16 UNL     1       2.615  -0.290   0.907  1.00  0.00     0.056 A 
ENDBRANCH  12  14
ENDBRANCH   7  12
BRANCH   6  22
HETATM   22  O2  UNL     1      -2.807  -2.078  -0.476  1.00  0.00    -0.353 OA
HETATM   23  C8  UNL     1      -2.107  -3.047  -1.186  1.00  0.00     0.210 C 
ENDBRANCH   6  22
BRANCH   1  24
HETATM   24  O1  UNL     1      -4.414  -0.407   0.913  1.00  0.00    -0.353 OA
HETATM   25  C1  UNL     1      -5.268   0.462   1.642  1.00  0.00     0.210 C 
ENDBRANCH   1  24
TORSDOF 4
