REMARK  5 active torsions:
REMARK  status: ('A' for Active; 'I' for Inactive)
REMARK    1  A    between atoms: O1_2  and  C2_3 
REMARK    2  A    between atoms: C5_6  and  N1_7 
REMARK    3  A    between atoms: N1_7  and  C6_8 
REMARK    4  A    between atoms: C6_8  and  C7_9 
REMARK    5  A    between atoms: C8_10  and  C10_12 
ROOT
HETATM    1  C2  UNL     1      -3.097   0.563  -0.050  1.00  0.00     0.062 C 
HETATM    2  C3  UNL     1      -1.785   0.451  -0.049  1.00  0.00     0.083 C 
HETATM    3  C4  UNL     1      -0.353   0.472  -0.299  1.00  0.00     0.036 C 
HETATM    4  C5  UNL     1       0.459  -0.110   0.617  1.00  0.00     0.121 C 
HETATM    5  N2  UNL     1       0.986  -0.777   1.748  1.00  0.00    -0.227 NA
HETATM    6  C11 UNL     1       1.519  -1.918   1.605  1.00  0.00     0.114 C 
HETATM    7  P1  UNL     1       0.701  -3.034   0.672  1.00  0.00     0.059 P 
HETATM    8  N3  UNL     1      -1.014  -2.664   0.388  1.00  0.00    -0.276 NA
HETATM    9  C12 UNL     1      -1.600  -2.046   1.342  1.00  0.00     0.243 C 
HETATM   10  S1  UNL     1      -2.354  -1.170   2.740  1.00  0.00    -0.198 SA
HETATM   11  C13 UNL     1      -3.994  -0.665   2.180  1.00  0.00     0.208 A 
HETATM   12  C14 UNL     1      -3.836  -0.010   1.046  1.00  0.00    -0.003 A 
HETATM   13  O2  UNL     1      -5.132  -0.102   1.422  1.00  0.00     0.000 OA
HETATM   14  C15 UNL     1      -6.240  -0.456   0.618  1.00  0.00     0.000 C 
ENDROOT
BRANCH   4  15
HETATM   15  N1  UNL     1       1.801   0.101   0.054  1.00  0.00    -0.372 N 
HETATM   16  H6  UNL     1       2.042   1.115   0.310  1.00  0.00     0.161 HD
BRANCH  15  17
HETATM   17  C6  UNL     1       2.857  -0.558  -0.690  1.00  0.00     0.148 C 
BRANCH  17  18
HETATM   18  C7  UNL     1       3.995   0.345  -0.923  1.00  0.00    -0.003 C 
HETATM   19  C8  UNL     1       5.308   0.325  -0.597  1.00  0.00    -0.058 C 
HETATM   20  C9  UNL     1       6.251   1.412  -0.981  1.00  0.00     0.045 C 
BRANCH  19  21
HETATM   21  C10 UNL     1       5.935  -0.784   0.173  1.00  0.00     0.256 C 
HETATM   22  F1  UNL     1       6.458  -0.226   1.342  1.00  0.00    -0.251 F 
ENDBRANCH  19  21
ENDBRANCH  17  18
ENDBRANCH  15  17
ENDBRANCH   4  15
BRANCH   1  23
HETATM   23  O1  UNL     1      -4.223   1.061  -0.746  1.00  0.00    -0.359 OA
HETATM   24  C1  UNL     1      -4.487   2.435  -0.602  1.00  0.00     0.209 C 
ENDBRANCH   1  23
TORSDOF 5
