REMARK  1 active torsions:
REMARK  status: ('A' for Active; 'I' for Inactive)
REMARK    1  A    between atoms: O1_1  and  C1_2 
ROOT
HETATM    1  C1  UNL     1       3.594  -2.032   0.614  1.00  0.00     0.040 C 
HETATM    2  C2  UNL     1       3.524  -0.752   1.119  1.00  0.00     0.011 C 
HETATM    3  C3  UNL     1       2.914   0.660   1.062  1.00  0.00     0.046 C 
HETATM    4  C4  UNL     1       2.010   1.134   0.134  1.00  0.00    -0.019 C 
HETATM    5  C5  UNL     1       1.759   2.551   0.570  1.00  0.00     0.007 C 
HETATM    6  C6  UNL     1       0.276   2.784   0.805  1.00  0.00     0.062 C 
HETATM    7  C7  UNL     1      -0.462   2.840  -0.493  1.00  0.00     0.064 A 
HETATM    8  N1  UNL     1      -0.234   4.005  -0.918  1.00  0.00    -0.242 NA
HETATM    9  C8  UNL     1      -0.676   4.613  -2.095  1.00  0.00     0.255 A 
HETATM   10  N2  UNL     1      -1.418   3.926  -2.877  1.00  0.00    -0.168 NA
HETATM   11  N3  UNL     1      -1.742   2.600  -2.505  1.00  0.00    -0.275 N 
HETATM   12  C9  UNL     1      -1.276   1.976  -1.278  1.00  0.00     0.075 A 
HETATM   13  C10 UNL     1      -1.787   0.783  -1.422  1.00  0.00     0.040 C 
HETATM   14  C11 UNL     1      -1.621  -0.357  -0.568  1.00  0.00    -0.053 C 
HETATM   15  C12 UNL     1      -1.174  -1.460  -0.031  1.00  0.00    -0.073 C 
HETATM   16  C13 UNL     1      -1.349  -2.455   1.022  1.00  0.00     0.034 C 
HETATM   17  C14 UNL     1      -2.763  -2.394   1.542  1.00  0.00     0.005 C 
HETATM   18  C15 UNL     1      -3.512  -1.401   0.708  1.00  0.00     0.005 C 
HETATM   19  C16 UNL     1      -2.715  -0.147   0.451  1.00  0.00     0.039 C 
HETATM   20  C17 UNL     1       0.090  -1.745  -0.801  1.00  0.00     0.035 C 
HETATM   21  C18 UNL     1       1.199  -2.005   0.173  1.00  0.00     0.011 C 
HETATM   22  C19 UNL     1       2.550  -1.930  -0.491  1.00  0.00     0.064 C 
HETATM   23  H10 UNL     1      -2.361   2.229  -3.288  1.00  0.00     0.189 HD
ENDROOT
BRANCH   1  24
HETATM   24  O1  UNL     1       4.430  -2.998   1.116  1.00  0.00    -0.365 OA
HETATM   25  H1  UNL     1       5.379  -3.078   0.765  1.00  0.00     0.217 HD
ENDBRANCH   1  24
TORSDOF 1
