REMARK  6 active torsions:
REMARK  status: ('A' for Active; 'I' for Inactive)
REMARK    1  A    between atoms: O1_2  and  C2_3 
REMARK    2  A    between atoms: C7_10  and  C8_11 
REMARK    3  A    between atoms: C8_11  and  C9_12 
REMARK    4  A    between atoms: C9_12  and  N3_13 
REMARK    5  A    between atoms: N3_13  and  C10_14 
REMARK    6  A    between atoms: C18_24  and  O2_25 
ROOT
HETATM    1  C2  UNL     1      -3.283  -0.770  -2.276  1.00  0.00     0.098 A 
HETATM    2  C3  UNL     1      -2.914   0.403  -2.761  1.00  0.00     0.027 A 
HETATM    3  C4  UNL     1      -1.933   1.401  -2.285  1.00  0.00     0.086 A 
HETATM    4  C5  UNL     1      -2.425   2.788  -2.287  1.00  0.00     0.104 C 
HETATM    5  N1  UNL     1      -1.704   3.759  -1.822  1.00  0.00    -0.257 NA
HETATM    6  C6  UNL     1      -0.382   3.760  -1.244  1.00  0.00     0.232 C 
HETATM    7  N2  UNL     1       0.135   2.767  -0.562  1.00  0.00    -0.246 NA
HETATM    8  C7  UNL     1      -0.415   1.474  -0.210  1.00  0.00     0.044 C 
HETATM    9  C16 UNL     1      -1.330   0.941  -1.037  1.00  0.00    -0.018 A 
HETATM   10  C17 UNL     1      -1.698  -0.350  -0.475  1.00  0.00     0.049 A 
HETATM   11  C18 UNL     1      -2.596  -1.158  -1.022  1.00  0.00     0.099 A 
ENDROOT
BRANCH   8  12
HETATM   12  C8  UNL     1       0.049   0.862   1.032  1.00  0.00     0.079 C 
BRANCH  12  13
HETATM   13  C9  UNL     1       1.509   0.453   1.037  1.00  0.00     0.126 C 
BRANCH  13  14
HETATM   14  N3  UNL     1       1.874  -0.145   2.311  1.00  0.00    -0.390 N 
HETATM   15  H12 UNL     1       1.263  -0.302   3.148  1.00  0.00     0.159 HD
BRANCH  14  16
HETATM   16  C10 UNL     1       3.224  -0.556   2.407  1.00  0.00     0.029 A 
HETATM   17  C11 UNL     1       4.101  -0.381   1.336  1.00  0.00     0.032 A 
HETATM   18  C12 UNL     1       5.428  -0.798   1.463  1.00  0.00     0.046 A 
HETATM   19  C13 UNL     1       5.875  -1.376   2.625  1.00  0.00     0.138 A 
HETATM   20  F1  UNL     1       7.170  -1.802   2.794  1.00  0.00    -0.204 F 
HETATM   21  C14 UNL     1       5.047  -1.571   3.711  1.00  0.00     0.074 A 
HETATM   22 CL1  UNL     1       5.550  -2.301   5.219  1.00  0.00    -0.081 Cl
HETATM   23  C15 UNL     1       3.745  -1.142   3.536  1.00  0.00     0.056 A 
ENDBRANCH  14  16
ENDBRANCH  13  14
ENDBRANCH  12  13
ENDBRANCH   8  12
BRANCH  11  24
HETATM   24  O2  UNL     1      -2.986  -2.401  -0.518  1.00  0.00    -0.358 OA
HETATM   25  H17 UNL     1      -3.010  -2.562   0.480  1.00  0.00     0.217 HD
ENDBRANCH  11  24
BRANCH   1  26
HETATM   26  O1  UNL     1      -4.237  -1.587  -2.873  1.00  0.00    -0.353 OA
HETATM   27  C1  UNL     1      -5.620  -1.313  -2.834  1.00  0.00     0.210 C 
ENDBRANCH   1  26
TORSDOF 6
