REMARK  6 active torsions:
REMARK  status: ('A' for Active; 'I' for Inactive)
REMARK    1  A    between atoms: O1_2  and  C2_3 
REMARK    2  A    between atoms: C6_7  and  N1_8 
REMARK    3  A    between atoms: N1_8  and  C7_9 
REMARK    4  A    between atoms: C7_9  and  O2_10 
REMARK    5  A    between atoms: O2_10  and  C8_11 
REMARK    6  A    between atoms: C8_11  and  C9_12 
ROOT
HETATM    1  C2  UNL     1       3.200   0.465  -0.335  1.00  0.00     0.070 A 
HETATM    2  C3  UNL     1       2.422  -0.535   0.208  1.00  0.00     0.038 A 
HETATM    3  C4  UNL     1       1.084  -0.743  -0.147  1.00  0.00     0.020 A 
HETATM    4  C5  UNL     1       0.495   0.098  -1.096  1.00  0.00     0.039 A 
HETATM    5  C6  UNL     1      -0.825  -0.175  -1.371  1.00  0.00     0.143 A 
HETATM    6  N2  UNL     1      -1.413   0.647  -2.287  1.00  0.00    -0.223 NA
HETATM    7  C14 UNL     1      -0.656   1.640  -2.833  1.00  0.00     0.236 A 
HETATM    8  N3  UNL     1       0.635   1.873  -2.536  1.00  0.00    -0.241 NA
HETATM    9  C15 UNL     1       1.280   1.092  -1.632  1.00  0.00     0.074 A 
HETATM   10  C16 UNL     1       2.583   1.283  -1.277  1.00  0.00     0.069 A 
ENDROOT
BRANCH   5  11
HETATM   11  N1  UNL     1      -1.548  -1.243  -0.777  1.00  0.00    -0.320 N 
HETATM   12  H6  UNL     1      -1.833  -2.045  -1.373  1.00  0.00     0.169 HD
BRANCH  11  13
HETATM   13  C7  UNL     1      -1.788  -1.056   0.589  1.00  0.00     0.153 C 
HETATM   14  C10 UNL     1      -2.421  -2.025   1.297  1.00  0.00     0.035 A 
HETATM   15  C11 UNL     1      -2.798  -3.220   0.489  1.00  0.00     0.076 A 
HETATM   16  C13 UNL     1      -3.026  -2.708   2.464  1.00  0.00     0.123 A 
HETATM   17  C12 UNL     1      -3.370  -3.787   1.739  1.00  0.00     0.021 A 
HETATM   18  F1  UNL     1      -2.907  -1.916   3.554  1.00  0.00    -0.206 F 
BRANCH  13  19
HETATM   19  O2  UNL     1      -1.463   0.017   1.383  1.00  0.00    -0.334 OA
BRANCH  19  20
HETATM   20  C8  UNL     1      -1.960   1.315   1.309  1.00  0.00     0.192 C 
BRANCH  20  21
HETATM   21  C9  UNL     1      -1.157   2.281   2.167  1.00  0.00     0.141 C 
HETATM   22 CL1  UNL     1       0.541   2.322   1.635  1.00  0.00    -0.128 Cl
ENDBRANCH  20  21
ENDBRANCH  19  20
ENDBRANCH  13  19
ENDBRANCH  11  13
ENDBRANCH   5  11
BRANCH   1  23
HETATM   23  O1  UNL     1       4.522   0.606   0.074  1.00  0.00    -0.356 OA
HETATM   24  C1  UNL     1       5.360   1.619  -0.452  1.00  0.00     0.210 C 
ENDBRANCH   1  23
TORSDOF 6
