REMARK  5 active torsions:
REMARK  status: ('A' for Active; 'I' for Inactive)
REMARK    1  A    between atoms: O1_2  and  C2_3 
REMARK    2  A    between atoms: C6_9  and  C7_10 
REMARK    3  A    between atoms: C7_10  and  C8_11 
REMARK    4  A    between atoms: C8_11  and  C9_12 
REMARK    5  A    between atoms: C18_23  and  O2_24 
ROOT
HETATM    1  C2  UNL     1      -4.061   0.526   0.433  1.00  0.00     0.080 C 
HETATM    2  C3  UNL     1      -3.518  -0.219   1.410  1.00  0.00     0.068 C 
HETATM    3  C4  UNL     1      -2.164  -0.811   1.492  1.00  0.00     0.072 A 
HETATM    4  N1  UNL     1      -2.031  -1.878   2.309  1.00  0.00    -0.241 NA
HETATM    5  C5  UNL     1      -0.798  -2.443   2.409  1.00  0.00     0.234 A 
HETATM    6  N2  UNL     1       0.314  -2.013   1.746  1.00  0.00    -0.246 NA
HETATM    7  C6  UNL     1       0.228  -0.947   0.917  1.00  0.00     0.048 A 
HETATM    8  C15 UNL     1      -1.029  -0.358   0.805  1.00  0.00     0.017 A 
HETATM    9  C16 UNL     1      -0.955   0.777  -0.133  1.00  0.00     0.015 C 
HETATM   10  C17 UNL     1      -2.020   1.257  -0.767  1.00  0.00     0.012 C 
HETATM   11  C18 UNL     1      -3.475   0.979  -0.851  1.00  0.00     0.197 C 
ENDROOT
BRANCH   7  12
HETATM   12  C7  UNL     1       1.384  -0.413   0.168  1.00  0.00     0.065 C 
BRANCH  12  13
HETATM   13  C8  UNL     1       2.571  -1.337   0.469  1.00  0.00     0.044 C 
BRANCH  13  14
HETATM   14  C9  UNL     1       3.767  -0.823  -0.277  1.00  0.00    -0.056 A 
HETATM   15  C10 UNL     1       4.078  -1.229  -1.558  1.00  0.00     0.010 A 
HETATM   16  C11 UNL     1       5.182  -0.750  -2.240  1.00  0.00     0.044 A 
HETATM   17  C12 UNL     1       6.019   0.169  -1.640  1.00  0.00     0.138 A 
HETATM   18  F1  UNL     1       7.084   0.595  -2.371  1.00  0.00    -0.204 F 
HETATM   19  C13 UNL     1       5.721   0.589  -0.349  1.00  0.00     0.073 A 
HETATM   20 CL1  UNL     1       6.821   1.768   0.383  1.00  0.00    -0.081 Cl
HETATM   21  C14 UNL     1       4.618   0.107   0.324  1.00  0.00     0.034 A 
ENDBRANCH  13  14
ENDBRANCH  12  13
ENDBRANCH   7  12
BRANCH   1  22
HETATM   22  O1  UNL     1      -5.335   0.802   0.879  1.00  0.00    -0.357 OA
HETATM   23  C1  UNL     1      -6.097   1.819   0.266  1.00  0.00     0.209 C 
ENDBRANCH   1  22
BRANCH  11  24
HETATM   24  O2  UNL     1      -4.141   2.085  -1.338  1.00  0.00    -0.385 OA
HETATM   25  H16 UNL     1      -4.469   1.935  -2.280  1.00  0.00     0.210 HD
ENDBRANCH  11  24
TORSDOF 5
