REMARK  8 active torsions:
REMARK  status: ('A' for Active; 'I' for Inactive)
REMARK    1  A    between atoms: O1_2  and  C2_3 
REMARK    2  A    between atoms: C6_8  and  N2_9 
REMARK    3  A    between atoms: N2_9  and  C8_11 
REMARK    4  A    between atoms: C9_12  and  C10_13 
REMARK    5  A    between atoms: C11_14  and  N3_15 
REMARK    6  A    between atoms: C11_14  and  C12_16 
REMARK    7  A    between atoms: C12_16  and  C13_17 
REMARK    8  A    between atoms: C16_21  and  O2_22 
ROOT
HETATM    1  C2  UNL     1      -3.730  -0.281   1.837  1.00  0.00     0.103 C 
HETATM    2  C3  UNL     1      -2.757  -0.169   2.761  1.00  0.00     0.068 C 
HETATM    3  C4  UNL     1      -1.488  -0.067   2.069  1.00  0.00     0.050 C 
HETATM    4  N1  UNL     1      -0.288  -0.302   2.557  1.00  0.00    -0.262 NA
HETATM    5  C5  UNL     1       0.704  -0.124   1.564  1.00  0.00     0.143 C 
HETATM    6  C6  UNL     1       0.174   0.230   0.379  1.00  0.00     0.042 C 
HETATM    7  C14 UNL     1      -1.205   0.369   0.709  1.00  0.00     0.114 C 
HETATM    8  C15 UNL     1      -2.309   0.111  -0.190  1.00  0.00     0.030 C 
HETATM    9  C16 UNL     1      -3.500  -0.172   0.379  1.00  0.00     0.098 C 
ENDROOT
BRANCH   6  10
HETATM   10  N2  UNL     1       0.665   0.523  -0.922  1.00  0.00    -0.363 N 
HETATM   11  C7  UNL     1       0.497  -0.564  -1.896  1.00  0.00     0.155 C 
BRANCH  10  12
HETATM   12  C8  UNL     1       1.299   1.722  -1.422  1.00  0.00     0.087 C 
HETATM   13  C9  UNL     1       2.593   2.050  -1.611  1.00  0.00    -0.002 C 
BRANCH  13  14
HETATM   14  C10 UNL     1       3.044   0.777  -1.133  1.00  0.00     0.133 C 
HETATM   15  C11 UNL     1       4.222   0.218  -0.967  1.00  0.00     0.144 C 
BRANCH  15  16
HETATM   16  N3  UNL     1       3.455  -0.913  -0.489  1.00  0.00     0.084 NA
HETATM   17  H12 UNL     1       3.235  -1.943  -0.620  1.00  0.00     0.313 HD
HETATM   18  H13 UNL     1       3.215  -1.930  -0.591  1.00  0.00     0.313 HD
ENDBRANCH  15  16
BRANCH  15  19
HETATM   19  C12 UNL     1       5.640  -0.226  -0.862  1.00  0.00     0.051 C 
BRANCH  19  20
HETATM   20  C13 UNL     1       6.024  -0.516   0.569  1.00  0.00     0.116 C 
HETATM   21 CL1  UNL     1       4.993  -1.800   1.212  1.00  0.00    -0.130 Cl
ENDBRANCH  19  20
ENDBRANCH  15  19
ENDBRANCH  13  14
ENDBRANCH  10  12
ENDBRANCH   6  10
BRANCH   9  22
HETATM   22  O2  UNL     1      -4.564  -0.370  -0.511  1.00  0.00    -0.353 OA
HETATM   23  C17 UNL     1      -4.600  -1.599  -1.226  1.00  0.00     0.210 C 
ENDBRANCH   9  22
BRANCH   1  24
HETATM   24  O1  UNL     1      -5.041  -0.448   2.213  1.00  0.00    -0.353 OA
HETATM   25  C1  UNL     1      -6.019   0.554   1.993  1.00  0.00     0.210 C 
ENDBRANCH   1  24
TORSDOF 8
