REMARK  1 active torsions:
REMARK  status: ('A' for Active; 'I' for Inactive)
REMARK    1  A    between atoms: C4_5  and  N1_6 
ROOT
HETATM    1  N1  UNL     1       2.332  -1.131  -0.637  1.00  0.00    -0.349 N 
HETATM    2  C5  UNL     1       1.464  -1.518   0.276  1.00  0.00     0.073 A 
HETATM    3  C6  UNL     1       0.599  -1.893   1.103  1.00  0.00     0.087 A 
HETATM    4  B1  UNL     1      -0.909  -2.211  -0.919  1.00  0.00     0.223 B 
HETATM    5  C7  UNL     1      -2.300  -2.148   0.321  1.00  0.00    -0.007 C 
HETATM    6  N2  UNL     1      -3.602  -2.276  -0.204  1.00  0.00    -0.409 N 
HETATM    7  C8  UNL     1      -3.614  -1.040  -1.006  1.00  0.00     0.153 C 
HETATM    8  C9  UNL     1      -3.540   0.114  -0.060  1.00  0.00    -0.043 A 
HETATM    9  C10 UNL     1      -4.368   1.171   0.068  1.00  0.00    -0.018 A 
HETATM   10  C11 UNL     1      -3.601   1.742   1.150  1.00  0.00     0.057 A 
HETATM   11  C12 UNL     1      -2.664   0.594   0.965  1.00  0.00     0.115 A 
HETATM   12  N3  UNL     1      -1.381   0.991   0.360  1.00  0.00    -0.381 N 
HETATM   13  C13 UNL     1      -0.070   0.369   0.336  1.00  0.00     0.152 C 
HETATM   14  N4  UNL     1       0.143  -0.898   0.296  1.00  0.00    -0.233 NA
HETATM   15  H3  UNL     1       1.990  -1.821  -1.377  1.00  0.00     0.167 HD
HETATM   16  H6  UNL     1      -4.411  -2.927  -0.151  1.00  0.00     0.157 HD
HETATM   17  H13 UNL     1      -1.473   1.905  -0.164  1.00  0.00     0.160 HD
ENDROOT
BRANCH   1  18
HETATM   18  C4  UNL     1       3.269  -0.113  -0.377  1.00  0.00     0.033 A 
HETATM   19  C3  UNL     1       3.246   1.226  -0.689  1.00  0.00     0.031 A 
HETATM   20  C2  UNL     1       4.264   2.067  -0.298  1.00  0.00     0.026 A 
HETATM   21  C1  UNL     1       5.289   1.544   0.414  1.00  0.00     0.034 A 
HETATM   22 CL1  UNL     1       6.551   2.671   0.905  1.00  0.00    -0.084 Cl
HETATM   23  C15 UNL     1       5.361   0.187   0.756  1.00  0.00     0.026 A 
HETATM   24  C14 UNL     1       4.316  -0.630   0.344  1.00  0.00     0.031 A 
ENDBRANCH   1  18
TORSDOF 1
