REMARK  4 active torsions:
REMARK  status: ('A' for Active; 'I' for Inactive)
REMARK    1  A    between atoms: O1_2  and  C2_3 
REMARK    2  A    between atoms: C6_9  and  O2_10 
REMARK    3  A    between atoms: O2_10  and  C7_11 
REMARK    4  A    between atoms: C15_21  and  O3_22 
ROOT
HETATM    1  C2  UNL     1       2.082   1.115   1.406  1.00  0.00     0.103 A 
HETATM    2  C3  UNL     1       2.198   0.001   2.210  1.00  0.00     0.072 A 
HETATM    3  C4  UNL     1       1.375  -1.089   2.048  1.00  0.00     0.075 A 
HETATM    4  N1  UNL     1       1.367  -2.236   2.747  1.00  0.00    -0.241 NA
HETATM    5  C5  UNL     1       0.486  -3.226   2.463  1.00  0.00     0.236 A 
HETATM    6  N2  UNL     1      -0.444  -3.159   1.477  1.00  0.00    -0.217 NA
HETATM    7  C6  UNL     1      -0.479  -2.012   0.735  1.00  0.00     0.183 A 
HETATM    8  C13 UNL     1       0.430  -1.031   1.053  1.00  0.00     0.049 A 
HETATM    9  C14 UNL     1       0.292   0.065   0.238  1.00  0.00     0.057 A 
HETATM   10  C15 UNL     1       1.120   1.150   0.409  1.00  0.00     0.102 A 
ENDROOT
BRANCH   7  11
HETATM   11  O2  UNL     1      -1.466  -2.225  -0.136  1.00  0.00    -0.291 OA
BRANCH  11  12
HETATM   12  C7  UNL     1      -2.003  -1.512  -1.117  1.00  0.00     0.079 A 
HETATM   13  C8  UNL     1      -3.085  -0.645  -0.900  1.00  0.00     0.040 A 
HETATM   14  C9  UNL     1      -3.726   0.141  -1.831  1.00  0.00     0.047 A 
HETATM   15  C10 UNL     1      -3.250   0.066  -3.123  1.00  0.00     0.138 A 
HETATM   16  F1  UNL     1      -3.844   0.816  -4.069  1.00  0.00    -0.204 F 
HETATM   17  C11 UNL     1      -2.192  -0.747  -3.470  1.00  0.00     0.075 A 
HETATM   18 CL1  UNL     1      -1.573  -0.856  -5.104  1.00  0.00    -0.081 Cl
HETATM   19  C12 UNL     1      -1.616  -1.496  -2.467  1.00  0.00     0.064 A 
ENDBRANCH  11  12
ENDBRANCH   7  11
BRANCH  10  20
HETATM   20  O3  UNL     1       1.044   2.297  -0.376  1.00  0.00    -0.353 OA
HETATM   21  C16 UNL     1       0.052   2.317  -1.395  1.00  0.00     0.210 C 
ENDBRANCH  10  20
BRANCH   1  22
HETATM   22  O1  UNL     1       2.923   2.201   1.589  1.00  0.00    -0.353 OA
HETATM   23  C1  UNL     1       3.920   2.271   2.558  1.00  0.00     0.210 C 
ENDBRANCH   1  22
TORSDOF 4
