REMARK  5 active torsions:
REMARK  status: ('A' for Active; 'I' for Inactive)
REMARK    1  A    between atoms: B1_1  and  O1_2 
REMARK    2  A    between atoms: O1_2  and  C1_3 
REMARK    3  A    between atoms: C5_9  and  O2_10 
REMARK    4  A    between atoms: O2_10  and  C6_11 
REMARK    5  A    between atoms: C14_21  and  O3_22 
ROOT
HETATM    1  C1  UNL     1       3.388  -0.270  -1.193  1.00  0.00     0.085 A 
HETATM    2  C2  UNL     1       2.688  -1.156  -2.004  1.00  0.00     0.070 A 
HETATM    3  C3  UNL     1       1.325  -1.297  -1.818  1.00  0.00     0.075 A 
HETATM    4  N1  UNL     1       0.637  -2.147  -2.592  1.00  0.00    -0.241 NA
HETATM    5  C4  UNL     1      -0.696  -2.345  -2.477  1.00  0.00     0.236 A 
HETATM    6  N2  UNL     1      -1.380  -1.660  -1.541  1.00  0.00    -0.217 NA
HETATM    7  C5  UNL     1      -0.758  -0.790  -0.728  1.00  0.00     0.183 A 
HETATM    8  C12 UNL     1       0.616  -0.588  -0.850  1.00  0.00     0.049 A 
HETATM    9  C13 UNL     1       1.325   0.287  -0.054  1.00  0.00     0.057 A 
HETATM   10  C14 UNL     1       2.685   0.442  -0.224  1.00  0.00     0.101 A 
ENDROOT
BRANCH   7  11
HETATM   11  O2  UNL     1      -1.341  -0.037   0.257  1.00  0.00    -0.291 OA
BRANCH  11  12
HETATM   12  C6  UNL     1      -2.699  -0.072   0.560  1.00  0.00     0.079 A 
HETATM   13  C7  UNL     1      -3.402   0.875  -0.193  1.00  0.00     0.040 A 
HETATM   14  C8  UNL     1      -4.773   1.008  -0.046  1.00  0.00     0.047 A 
HETATM   15  C9  UNL     1      -5.453   0.197   0.854  1.00  0.00     0.138 A 
HETATM   16  F1  UNL     1      -6.796   0.320   1.006  1.00  0.00    -0.204 F 
HETATM   17  C10 UNL     1      -4.739  -0.726   1.582  1.00  0.00     0.075 A 
HETATM   18 CL1  UNL     1      -5.535  -1.784   2.738  1.00  0.00    -0.081 Cl
HETATM   19  C11 UNL     1      -3.391  -0.875   1.455  1.00  0.00     0.064 A 
ENDBRANCH  11  12
ENDBRANCH   7  11
BRANCH  10  20
HETATM   20  O3  UNL     1       3.437   1.311   0.555  1.00  0.00    -0.353 OA
HETATM   21  C15 UNL     1       2.791   2.078   1.572  1.00  0.00     0.210 C 
ENDBRANCH  10  20
BRANCH   1  22
HETATM   22  O1  UNL     1       4.734  -0.188  -1.441  1.00  0.00    -0.426 OA
BRANCH  22  23
HETATM   23  B1  UNL     1       5.684   0.679  -0.715  1.00  0.00     0.300 B 
HETATM   24  H1  UNL     1       6.840   0.429  -0.814  1.00  0.00     0.002 HD
HETATM   25  H2  UNL     1       5.451   1.836  -0.523  1.00  0.00     0.002 HD
ENDBRANCH  22  23
ENDBRANCH   1  22
TORSDOF 5
