REMARK  2 active torsions:
REMARK  status: ('A' for Active; 'I' for Inactive)
REMARK    1  A    between atoms: C2_2  and  C3_3 
REMARK    2  A    between atoms: C13_18  and  C14_19 
ROOT
HETATM    1  C3  UNL     1      -0.489   1.183  -0.441  1.00  0.00    -0.025 C 
HETATM    2  C4  UNL     1      -0.145   2.460  -0.174  1.00  0.00     0.076 C 
HETATM    3  C5  UNL     1       0.988   3.246   0.304  1.00  0.00     0.097 C 
HETATM    4  N1  UNL     1       2.269   3.211   0.702  1.00  0.00    -0.258 NA
HETATM    5  C6  UNL     1       2.884   1.898   0.689  1.00  0.00     0.228 C 
HETATM    6  N2  UNL     1       2.843   1.843  -0.589  1.00  0.00    -0.257 NA
HETATM    7  C7  UNL     1       3.356   0.668  -1.272  1.00  0.00     0.319 C 
HETATM    8  O1  UNL     1       2.620  -0.336  -1.213  1.00  0.00    -0.357 OA
HETATM    9  C8  UNL     1       1.894  -1.333  -1.007  1.00  0.00     0.181 A 
HETATM   10  C9  UNL     1       2.584  -2.198   0.067  1.00  0.00     0.053 A 
HETATM   11  C10 UNL     1       1.932  -2.367   1.199  1.00  0.00     0.137 A 
HETATM   12  F1  UNL     1       2.446  -3.103   2.204  1.00  0.00    -0.205 F 
HETATM   13  C11 UNL     1       0.707  -1.624   0.959  1.00  0.00     0.078 A 
HETATM   14 CL1  UNL     1      -0.427  -1.653   2.329  1.00  0.00    -0.081 Cl
HETATM   15  C12 UNL     1       0.615  -1.027  -0.253  1.00  0.00    -0.015 A 
HETATM   16  C13 UNL     1      -0.624  -0.270  -0.639  1.00  0.00     0.047 C 
ENDROOT
BRANCH  16  17
HETATM   17  C14 UNL     1      -1.797  -0.821   0.113  1.00  0.00    -0.022 C 
HETATM   18  C15 UNL     1      -2.836  -0.691   0.924  1.00  0.00    -0.034 C 
HETATM   19  C16 UNL     1      -3.819  -1.724   1.421  1.00  0.00     0.036 C 
ENDBRANCH  16  17
BRANCH   1  20
HETATM   20  C2  UNL     1      -1.823   1.684  -0.846  1.00  0.00    -0.004 C 
HETATM   21  C1  UNL     1      -2.981   1.206  -1.307  1.00  0.00     0.006 C 
ENDBRANCH   1  20
TORSDOF 2
