REMARK  2 active torsions:
REMARK  status: ('A' for Active; 'I' for Inactive)
REMARK    1  A    between atoms: O1_2  and  C2_3 
REMARK    2  A    between atoms: C6_8  and  N2_9 
ROOT
HETATM    1  C2  UNL     1      -1.772  -1.146  -0.067  1.00  0.00     0.105 C 
HETATM    2  C3  UNL     1      -2.797  -0.200  -0.095  1.00  0.00     0.066 C 
HETATM    3  C4  UNL     1      -2.379   1.261  -0.131  1.00  0.00     0.035 C 
HETATM    4  N1  UNL     1      -1.928   1.740   1.044  1.00  0.00    -0.288 NA
HETATM    5  C5  UNL     1      -0.842   1.084   1.892  1.00  0.00     0.209 C 
HETATM    6  C6  UNL     1       0.153   0.367   0.930  1.00  0.00     0.070 C 
HETATM    7  C12 UNL     1      -0.492  -0.293  -0.105  1.00  0.00     0.132 C 
HETATM    8  O2  UNL     1       0.231  -0.063  -1.364  1.00  0.00    -0.318 OA
HETATM    9  C13 UNL     1      -0.295   0.895  -2.389  1.00  0.00     0.139 C 
HETATM   10  C14 UNL     1      -1.432   1.711  -2.414  1.00  0.00     0.004 C 
HETATM   11  C15 UNL     1      -2.314   2.234  -1.266  1.00  0.00     0.088 C 
ENDROOT
BRANCH   6  12
HETATM   12  N2  UNL     1       1.505   0.120   0.598  1.00  0.00    -0.320 N 
HETATM   13  C7  UNL     1       2.093  -1.162   0.934  1.00  0.00     0.160 A 
HETATM   14  C8  UNL     1       3.501  -1.100   0.490  1.00  0.00     0.012 A 
HETATM   15  C9  UNL     1       4.227  -0.168  -0.104  1.00  0.00     0.013 A 
HETATM   16 BR1  UNL     1       6.052  -0.385  -0.559  1.00  0.00    -0.051 Br
HETATM   17  C10 UNL     1       3.452   1.042  -0.359  1.00  0.00     0.080 A 
HETATM   18  C11 UNL     1       2.176   1.201  -0.040  1.00  0.00     0.192 A 
HETATM   19  F1  UNL     1       1.606   2.381  -0.335  1.00  0.00    -0.186 F 
ENDBRANCH   6  12
BRANCH   1  20
HETATM   20  O1  UNL     1      -2.191  -2.505  -0.015  1.00  0.00    -0.353 OA
HETATM   21  C1  UNL     1      -2.073  -3.245   1.181  1.00  0.00     0.210 C 
ENDBRANCH   1  20
TORSDOF 2
