REMARK  4 active torsions:
REMARK  status: ('A' for Active; 'I' for Inactive)
REMARK    1  A    between atoms: O1_2  and  C2_3 
REMARK    2  A    between atoms: C2_3  and  C3_4 
REMARK    3  A    between atoms: C7_11  and  O2_12 
REMARK    4  A    between atoms: O2_12  and  C8_13 
ROOT
HETATM    1  C3  UNL     1      -2.381   0.290   0.273  1.00  0.00     0.023 C 
HETATM    2  C4  UNL     1      -3.280  -0.016   1.224  1.00  0.00     0.145 A 
HETATM    3  C5  UNL     1      -3.487  -0.035   2.669  1.00  0.00     0.098 A 
HETATM    4  N1  UNL     1      -2.298   0.338   2.453  1.00  0.00    -0.335 N 
HETATM    5  S1  UNL     1      -1.242   0.710   3.846  1.00  0.00    -0.108 SA
HETATM    6  C6  UNL     1       0.446   0.384   3.226  1.00  0.00     0.310 C 
HETATM    7  N2  UNL     1       1.309   0.092   2.313  1.00  0.00    -0.229 NA
HETATM    8  C7  UNL     1       0.843  -0.130   0.990  1.00  0.00     0.166 C 
HETATM    9  C14 UNL     1       0.018   0.019  -0.071  1.00  0.00     0.032 C 
HETATM   10  C15 UNL     1      -1.040   0.954   0.331  1.00  0.00     0.046 C 
ENDROOT
BRANCH   8  11
HETATM   11  O2  UNL     1       1.986  -0.934   1.044  1.00  0.00    -0.292 OA
BRANCH  11  12
HETATM   12  C8  UNL     1       3.044  -0.715   0.175  1.00  0.00     0.079 A 
HETATM   13  C9  UNL     1       4.124  -1.571   0.317  1.00  0.00     0.040 A 
HETATM   14  C10 UNL     1       5.268  -1.482  -0.481  1.00  0.00     0.047 A 
HETATM   15  C11 UNL     1       5.311  -0.487  -1.455  1.00  0.00     0.138 A 
HETATM   16  F1  UNL     1       6.417  -0.388  -2.240  1.00  0.00    -0.204 F 
HETATM   17  C12 UNL     1       4.239   0.371  -1.605  1.00  0.00     0.075 A 
HETATM   18 CL1  UNL     1       4.250   1.624  -2.806  1.00  0.00    -0.081 Cl
HETATM   19  C13 UNL     1       3.132   0.253  -0.802  1.00  0.00     0.064 A 
ENDBRANCH  11  12
ENDBRANCH   8  11
BRANCH   1  20
HETATM   20  C2  UNL     1      -2.698   0.090  -1.196  1.00  0.00     0.180 C 
BRANCH  20  21
HETATM   21  O1  UNL     1      -3.971  -0.416  -1.277  1.00  0.00    -0.395 OA
HETATM   22  C1  UNL     1      -4.389  -0.647  -2.584  1.00  0.00     0.201 C 
ENDBRANCH  20  21
ENDBRANCH   1  20
TORSDOF 4
