REMARK  5 active torsions:
REMARK  status: ('A' for Active; 'I' for Inactive)
REMARK    1  A    between atoms: C2_2  and  O1_3 
REMARK    2  A    between atoms: O1_3  and  C3_4 
REMARK    3  A    between atoms: C8_10  and  C9_11 
REMARK    4  A    between atoms: C9_11  and  C10_12 
REMARK    5  A    between atoms: C11_13  and  C12_15 
ROOT
HETATM    1  C3  UNL     1      -2.228  -0.724   0.216  1.00  0.00     0.180 A 
HETATM    2  C4  UNL     1      -2.057  -2.105  -0.326  1.00  0.00     0.108 A 
HETATM    3  C5  UNL     1      -0.620  -2.449  -0.355  1.00  0.00     0.097 A 
HETATM    4  F1  UNL     1      -0.548  -3.720  -0.876  1.00  0.00    -0.211 F 
HETATM    5  C6  UNL     1       0.525  -1.880  -0.031  1.00  0.00     0.053 A 
HETATM    6  C7  UNL     1       0.368  -0.538   0.510  1.00  0.00     0.019 A 
HETATM    7  C8  UNL     1       1.438   0.204   0.916  1.00  0.00     0.051 A 
HETATM    8  N1  UNL     1       1.211   1.446   1.430  1.00  0.00    -0.245 NA
HETATM    9  C13 UNL     1      -0.086   1.847   1.494  1.00  0.00     0.233 A 
HETATM   10  N2  UNL     1      -1.156   1.104   1.088  1.00  0.00    -0.243 NA
HETATM   11  C14 UNL     1      -0.943  -0.129   0.577  1.00  0.00     0.077 A 
ENDROOT
BRANCH   7  12
HETATM   12  C9  UNL     1       2.801  -0.313   0.785  1.00  0.00     0.090 C 
BRANCH  12  13
HETATM   13  C10 UNL     1       3.384  -0.229  -0.573  1.00  0.00     0.018 C 
HETATM   14  C11 UNL     1       4.441   0.311  -1.229  1.00  0.00     0.104 C 
HETATM   15  F2  UNL     1       4.689   0.180  -2.584  1.00  0.00    -0.210 F 
BRANCH  14  16
HETATM   16  C12 UNL     1       5.583   1.143  -0.755  1.00  0.00     0.184 C 
HETATM   17 CL1  UNL     1       5.528   1.472   0.986  1.00  0.00    -0.123 Cl
ENDBRANCH  14  16
ENDBRANCH  12  13
ENDBRANCH   7  12
BRANCH   1  18
HETATM   18  O1  UNL     1      -2.983   0.094  -0.627  1.00  0.00    -0.380 OA
BRANCH  18  19
HETATM   19  C2  UNL     1      -4.140   0.442   0.100  1.00  0.00     0.164 C 
HETATM   20  C1  UNL     1      -5.070   1.324  -0.667  1.00  0.00     0.033 C 
ENDBRANCH  18  19
ENDBRANCH   1  18
TORSDOF 5
