REMARK  4 active torsions:
REMARK  status: ('A' for Active; 'I' for Inactive)
REMARK    1  A    between atoms: O1_1  and  C1_2 
REMARK    2  A    between atoms: C1_2  and  C2_3 
REMARK    3  A    between atoms: C6_9  and  C7_10 
REMARK    4  A    between atoms: C15_20  and  O2_21 
ROOT
HETATM    1  C2  UNL     1       3.065   0.150   0.108  1.00  0.00     0.001 A 
HETATM    2  C3  UNL     1       2.800  -0.670  -0.968  1.00  0.00     0.044 A 
HETATM    3  C4  UNL     1       1.484  -1.002  -1.201  1.00  0.00     0.071 A 
HETATM    4  N1  UNL     1       1.257  -1.786  -2.271  1.00  0.00    -0.241 NA
HETATM    5  C5  UNL     1      -0.016  -2.123  -2.552  1.00  0.00     0.234 A 
HETATM    6  N2  UNL     1      -1.041  -1.697  -1.793  1.00  0.00    -0.241 NA
HETATM    7  C6  UNL     1      -0.874  -0.906  -0.699  1.00  0.00     0.080 A 
HETATM    8  C13 UNL     1       0.434  -0.568  -0.428  1.00  0.00     0.025 A 
HETATM    9  C14 UNL     1       0.720   0.249   0.638  1.00  0.00     0.053 A 
HETATM   10  C15 UNL     1       2.032   0.596   0.892  1.00  0.00     0.075 A 
ENDROOT
BRANCH   7  11
HETATM   11  C7  UNL     1      -2.020  -0.440   0.120  1.00  0.00     0.011 A 
HETATM   12  C8  UNL     1      -2.034  -0.738   1.409  1.00  0.00     0.126 A 
HETATM   13  F1  UNL     1      -1.175  -1.424   2.195  1.00  0.00    -0.205 F 
HETATM   14  C9  UNL     1      -3.202  -0.215   2.106  1.00  0.00     0.057 A 
HETATM   15  C10 UNL     1      -4.022   0.457   1.315  1.00  0.00    -0.008 A 
HETATM   16 BR1  UNL     1      -5.610   1.201   2.118  1.00  0.00    -0.056 Br
HETATM   17  C11 UNL     1      -4.077   0.833  -0.113  1.00  0.00     0.051 A 
HETATM   18  C12 UNL     1      -2.879   0.281  -0.837  1.00  0.00     0.049 A 
ENDBRANCH   7  11
BRANCH  10  19
HETATM   19  O2  UNL     1       2.366   1.410   1.947  1.00  0.00    -0.360 OA
HETATM   20  H12 UNL     1       2.872   2.280   1.784  1.00  0.00     0.217 HD
ENDBRANCH  10  19
BRANCH   1  21
HETATM   21  C1  UNL     1       4.497   0.523   0.379  1.00  0.00     0.205 C 
BRANCH  21  22
HETATM   22  O1  UNL     1       4.762   1.818  -0.020  1.00  0.00    -0.396 OA
HETATM   23  H1  UNL     1       5.702   1.835  -0.373  1.00  0.00     0.209 HD
ENDBRANCH  21  22
ENDBRANCH   1  21
TORSDOF 4
