REMARK  4 active torsions:
REMARK  status: ('A' for Active; 'I' for Inactive)
REMARK    1  A    between atoms: O1_2  and  C2_3 
REMARK    2  A    between atoms: N2_8  and  C6_9 
REMARK    3  A    between atoms: C14_18  and  O2_19 
REMARK    4  A    between atoms: C14_18  and  C15_20 
ROOT
HETATM    1  C2  UNL     1      -1.317   0.286   0.868  1.00  0.00     0.089 C 
HETATM    2  C3  UNL     1      -1.190  -1.122   1.010  1.00  0.00     0.023 C 
HETATM    3  C4  UNL     1      -1.549  -2.106  -0.090  1.00  0.00     0.077 C 
HETATM    4  C5  UNL     1      -0.406  -2.968  -0.580  1.00  0.00     0.124 C 
HETATM    5  N1  UNL     1       0.826  -2.543  -0.344  1.00  0.00    -0.183 NA
HETATM    6  N2  UNL     1       0.810  -1.107  -0.571  1.00  0.00    -0.232 N 
HETATM    7  C12 UNL     1      -0.502  -0.749  -0.984  1.00  0.00     0.080 C 
HETATM    8  C13 UNL     1      -1.729  -1.188  -1.280  1.00  0.00     0.018 C 
HETATM    9  C14 UNL     1      -0.652   0.695  -0.516  1.00  0.00     0.183 C 
ENDROOT
BRANCH   6  10
HETATM   10  C6  UNL     1       1.933  -0.302  -0.430  1.00  0.00     0.097 A 
HETATM   11  C7  UNL     1       2.349  -0.273   0.914  1.00  0.00     0.035 A 
HETATM   12  C8  UNL     1       3.448   0.486   1.234  1.00  0.00     0.002 A 
HETATM   13  C9  UNL     1       4.096   1.183   0.244  1.00  0.00     0.003 A 
HETATM   14  C10 UNL     1       3.729   1.190  -1.097  1.00  0.00     0.045 A 
HETATM   15  C11 UNL     1       2.625   0.420  -1.386  1.00  0.00     0.145 A 
HETATM   16  F1  UNL     1       2.115   0.305  -2.637  1.00  0.00    -0.204 F 
ENDBRANCH   6  10
BRANCH   9  17
HETATM   17  O2  UNL     1       0.463   1.341  -0.124  1.00  0.00    -0.372 OA
HETATM   18  H12 UNL     1       0.221   2.098   0.459  1.00  0.00     0.212 HD
ENDBRANCH   9  17
BRANCH   9  19
HETATM   19  C15 UNL     1      -1.483   1.574  -1.278  1.00  0.00     0.131 C 
HETATM   20  N3  UNL     1      -2.092   1.476  -2.399  1.00  0.00    -0.312 NA
HETATM   21  H14 UNL     1      -2.068   0.635  -2.996  1.00  0.00     0.185 HD
ENDBRANCH   9  19
BRANCH   1  22
HETATM   22  O1  UNL     1      -1.943   1.022   1.863  1.00  0.00    -0.357 OA
HETATM   23  C1  UNL     1      -3.310   0.846   2.159  1.00  0.00     0.209 C 
ENDBRANCH   1  22
TORSDOF 4
