REMARK  5 active torsions:
REMARK  status: ('A' for Active; 'I' for Inactive)
REMARK    1  A    between atoms: O1_2  and  C2_3 
REMARK    2  A    between atoms: C5_6  and  N1_7 
REMARK    3  A    between atoms: N1_7  and  C7_9 
REMARK    4  A    between atoms: C8_10  and  C9_11 
REMARK    5  A    between atoms: C10_12  and  C11_13 
ROOT
HETATM    1  C2  UNL     1      -2.448   0.921   1.560  1.00  0.00     0.077 A 
HETATM    2  C3  UNL     1      -1.511  -0.032   1.220  1.00  0.00     0.071 A 
HETATM    3  C4  UNL     1      -1.264  -0.394  -0.086  1.00  0.00     0.088 A 
HETATM    4  C5  UNL     1      -0.362  -1.326  -0.572  1.00  0.00     0.158 A 
HETATM    5  N2  UNL     1      -0.534  -1.278  -1.918  1.00  0.00    -0.223 NA
HETATM    6  C12 UNL     1      -1.480  -0.376  -2.234  1.00  0.00     0.216 A 
HETATM    7  N3  UNL     1      -1.936   0.176  -1.104  1.00  0.00    -0.312 N 
HETATM    8  C13 UNL     1      -2.851   1.106  -0.773  1.00  0.00     0.107 A 
HETATM    9  C14 UNL     1      -3.145   1.512   0.516  1.00  0.00    -0.013 A 
HETATM   10  C15 UNL     1      -4.191   2.561   0.728  1.00  0.00     0.052 C 
ENDROOT
BRANCH   4  11
HETATM   11  N1  UNL     1       0.568  -2.184   0.081  1.00  0.00    -0.344 N 
HETATM   12  C6  UNL     1       0.081  -3.175   1.023  1.00  0.00     0.157 C 
BRANCH  11  13
HETATM   13  C7  UNL     1       1.965  -2.087  -0.174  1.00  0.00     0.092 C 
HETATM   14  C8  UNL     1       2.442  -1.292  -1.117  1.00  0.00     0.017 C 
BRANCH  14  15
HETATM   15  C9  UNL     1       3.873  -1.198  -1.373  1.00  0.00    -0.002 C 
HETATM   16  C10 UNL     1       4.336  -0.410  -2.306  1.00  0.00    -0.016 C 
BRANCH  16  17
HETATM   17  C11 UNL     1       5.734  -0.182  -2.709  1.00  0.00     0.112 C 
HETATM   18 BR1  UNL     1       6.185   1.686  -2.477  1.00  0.00    -0.092 Br
ENDBRANCH  16  17
ENDBRANCH  14  15
ENDBRANCH  11  13
ENDBRANCH   4  11
BRANCH   1  19
HETATM   19  O1  UNL     1      -2.774   1.355   2.817  1.00  0.00    -0.355 OA
HETATM   20  C1  UNL     1      -2.080   0.773   3.922  1.00  0.00     0.210 C 
ENDBRANCH   1  19
TORSDOF 5
