REMARK  4 active torsions:
REMARK  status: ('A' for Active; 'I' for Inactive)
REMARK    1  A    between atoms: O1_2  and  C2_3 
REMARK    2  A    between atoms: C6_9  and  N3_10 
REMARK    3  A    between atoms: N3_10  and  C7_11 
REMARK    4  A    between atoms: C15_21  and  P1_22 
ROOT
HETATM    1  C2  UNL     1      -3.109  -0.692   0.179  1.00  0.00     0.081 A 
HETATM    2  C3  UNL     1      -2.403  -1.865   0.020  1.00  0.00     0.070 A 
HETATM    3  C4  UNL     1      -1.030  -1.847  -0.043  1.00  0.00     0.074 A 
HETATM    4  N1  UNL     1      -0.457  -3.050  -0.199  1.00  0.00    -0.241 NA
HETATM    5  C5  UNL     1       0.884  -3.083  -0.266  1.00  0.00     0.236 A 
HETATM    6  N2  UNL     1       1.594  -1.956  -0.179  1.00  0.00    -0.224 NA
HETATM    7  C6  UNL     1       1.103  -0.724  -0.024  1.00  0.00     0.142 A 
HETATM    8  C13 UNL     1      -0.272  -0.695   0.045  1.00  0.00     0.040 A 
HETATM    9  C14 UNL     1      -1.018   0.432   0.200  1.00  0.00     0.032 A 
HETATM   10  C15 UNL     1      -2.394   0.480   0.271  1.00  0.00     0.000 A 
ENDROOT
BRANCH   7  11
HETATM   11  N3  UNL     1       1.824   0.486   0.072  1.00  0.00    -0.338 N 
HETATM   12  H6  UNL     1       1.355   1.381   0.190  1.00  0.00     0.167 HD
BRANCH  11  13
HETATM   13  C7  UNL     1       3.229   0.649   0.023  1.00  0.00     0.072 A 
HETATM   14  C8  UNL     1       4.112  -0.394  -0.130  1.00  0.00     0.034 A 
HETATM   15  C9  UNL     1       5.463  -0.249  -0.179  1.00  0.00     0.021 A 
HETATM   16  C10 UNL     1       6.051   0.994  -0.074  1.00  0.00     0.014 A 
HETATM   17 BR1  UNL     1       7.927   1.288  -0.131  1.00  0.00    -0.051 Br
HETATM   18  C11 UNL     1       5.213   2.074   0.081  1.00  0.00     0.063 A 
HETATM   19  C12 UNL     1       3.854   1.871   0.124  1.00  0.00     0.144 A 
HETATM   20  F1  UNL     1       3.093   2.984   0.279  1.00  0.00    -0.204 F 
ENDBRANCH  11  13
ENDBRANCH   7  11
BRANCH  10  21
HETATM   21  P1  UNL     1      -3.338   2.028   0.481  1.00  0.00    -0.096 P 
HETATM   22  C16 UNL     1      -4.035   2.628  -1.128  1.00  0.00     0.046 C 
HETATM   23  H11 UNL     1      -2.595   3.046   1.175  1.00  0.00     0.062 HD
ENDBRANCH  10  21
BRANCH   1  24
HETATM   24  O1  UNL     1      -4.484  -0.706   0.243  1.00  0.00    -0.355 OA
HETATM   25  C1  UNL     1      -5.225  -1.895   0.150  1.00  0.00     0.210 C 
ENDBRANCH   1  24
TORSDOF 4
