REMARK  6 active torsions:
REMARK  status: ('A' for Active; 'I' for Inactive)
REMARK    1  A    between atoms: C2_2  and  C3_3 
REMARK    2  A    between atoms: C2_2  and  C17_24 
REMARK    3  A    between atoms: N2_10  and  C8_11 
REMARK    4  A    between atoms: C8_11  and  N3_12 
REMARK    5  A    between atoms: N3_12  and  C9_13 
REMARK    6  A    between atoms: C15_20  and  P1_21 
ROOT
HETATM    1  C3  UNL     1      -3.829  -0.525  -0.600  1.00  0.00     0.005 C 
HETATM    2  C4  UNL     1      -2.689  -0.359   0.049  1.00  0.00     0.030 C 
HETATM    3  C5  UNL     1      -2.327  -1.306   1.162  1.00  0.00     0.233 C 
HETATM    4  O1  UNL     1      -1.043  -1.103   1.675  1.00  0.00    -0.339 OA
HETATM    5  C6  UNL     1       0.292  -1.317   1.470  1.00  0.00     0.254 C 
HETATM    6  N1  UNL     1       0.977  -0.645   0.613  1.00  0.00    -0.216 NA
HETATM    7  C7  UNL     1       0.710   0.415  -0.325  1.00  0.00     0.174 C 
HETATM    8  N2  UNL     1       1.649   0.858  -1.123  1.00  0.00    -0.249 NA
HETATM    9  C14 UNL     1      -0.520   1.157  -0.578  1.00  0.00     0.081 C 
HETATM   10  C15 UNL     1      -0.378   2.375  -1.017  1.00  0.00     0.037 C 
HETATM   11  N4  UNL     1      -1.907   0.764  -0.426  1.00  0.00    -0.355 N 
HETATM   12  H19 UNL     1      -2.575   1.519  -0.765  1.00  0.00     0.166 HD
ENDROOT
BRANCH   8  13
HETATM   13  C8  UNL     1       2.940   0.216  -0.990  1.00  0.00     0.272 C 
BRANCH  13  14
HETATM   14  N3  UNL     1       3.440   0.521   0.336  1.00  0.00    -0.375 N 
HETATM   15  H9  UNL     1       2.931   1.094   1.039  1.00  0.00     0.161 HD
BRANCH  14  16
HETATM   16  C9  UNL     1       4.662   0.120   0.914  1.00  0.00     0.011 A 
HETATM   17  C10 UNL     1       5.042  -0.847   1.765  1.00  0.00     0.026 A 
HETATM   18  C11 UNL     1       6.493  -0.691   1.947  1.00  0.00     0.021 A 
HETATM   19  C12 UNL     1       6.944   0.313   1.242  1.00  0.00     0.017 A 
HETATM   20 CL1  UNL     1       8.642   0.736   1.264  1.00  0.00    -0.089 Cl
HETATM   21  C13 UNL     1       5.838   0.958   0.493  1.00  0.00     0.108 A 
ENDBRANCH  14  16
ENDBRANCH  13  14
ENDBRANCH   8  13
BRANCH  10  22
HETATM   22  P1  UNL     1       1.330   2.928  -1.233  1.00  0.00    -0.107 P 
HETATM   23  C16 UNL     1       1.499   4.693  -0.690  1.00  0.00     0.045 C 
HETATM   24  H15 UNL     1       1.716   2.857  -2.642  1.00  0.00     0.061 HD
ENDBRANCH  10  22
BRANCH   1  25
HETATM   25  C2  UNL     1      -4.937  -1.474  -0.518  1.00  0.00    -0.031 C 
HETATM   26  C1  UNL     1      -5.948  -1.298  -1.385  1.00  0.00     0.049 C 
BRANCH  25  27
HETATM   27  C17 UNL     1      -5.110  -2.635   0.415  1.00  0.00     0.004 C 
HETATM   28  C18 UNL     1      -6.470  -3.263   0.085  1.00  0.00     0.006 C 
ENDBRANCH  25  27
ENDBRANCH   1  25
TORSDOF 6
