REMARK  5 active torsions:
REMARK  status: ('A' for Active; 'I' for Inactive)
REMARK    1  A    between atoms: O1_2  and  C2_3 
REMARK    2  A    between atoms: C5_6  and  C6_7 
REMARK    3  A    between atoms: C6_7  and  O2_8 
REMARK    4  A    between atoms: O2_8  and  C7_9 
REMARK    5  A    between atoms: C16_22  and  O3_23 
ROOT
HETATM    1  C2  UNL     1      -2.525   1.223   0.114  1.00  0.00     0.104 C 
HETATM    2  C3  UNL     1      -1.229   0.865  -0.094  1.00  0.00     0.060 C 
HETATM    3  C4  UNL     1      -1.016  -0.494  -0.605  1.00  0.00     0.035 C 
HETATM    4  C5  UNL     1      -0.226  -1.303   0.049  1.00  0.00     0.077 C 
HETATM    5  N1  UNL     1      -0.560  -2.713   0.253  1.00  0.00    -0.243 NA
HETATM    6  C13 UNL     1      -1.707  -3.310   0.609  1.00  0.00     0.232 C 
HETATM    7  N2  UNL     1      -3.122  -3.211   0.225  1.00  0.00    -0.253 NA
HETATM    8  C14 UNL     1      -3.934  -2.165   0.140  1.00  0.00     0.139 C 
HETATM    9  C15 UNL     1      -3.521  -0.929  -0.507  1.00  0.00     0.059 C 
HETATM   10  C16 UNL     1      -3.724   0.341  -0.079  1.00  0.00     0.117 C 
HETATM   11  S1  UNL     1      -2.285  -0.761  -2.001  1.00  0.00    -0.084 SA
ENDROOT
BRANCH   4  12
HETATM   12  C6  UNL     1       0.855  -0.391   0.419  1.00  0.00     0.236 C 
BRANCH  12  13
HETATM   13  O2  UNL     1       1.945  -1.137  -0.270  1.00  0.00    -0.345 OA
BRANCH  13  14
HETATM   14  C7  UNL     1       3.208  -0.582  -0.150  1.00  0.00     0.072 A 
HETATM   15  C8  UNL     1       4.268  -1.222  -0.765  1.00  0.00     0.038 A 
HETATM   16  C9  UNL     1       5.566  -0.734  -0.695  1.00  0.00     0.025 A 
HETATM   17  C10 UNL     1       5.777   0.434   0.021  1.00  0.00     0.049 A 
HETATM   18 BR1  UNL     1       7.554   1.128   0.133  1.00  0.00    -0.048 Br
HETATM   19  C11 UNL     1       4.744   1.109   0.653  1.00  0.00     0.136 A 
HETATM   20  F1  UNL     1       4.930   2.253   1.358  1.00  0.00    -0.205 F 
HETATM   21  C12 UNL     1       3.465   0.580   0.553  1.00  0.00     0.080 A 
ENDBRANCH  13  14
ENDBRANCH  12  13
ENDBRANCH   4  12
BRANCH   1  22
HETATM   22  O1  UNL     1      -2.759   2.476   0.535  1.00  0.00    -0.353 OA
HETATM   23  C1  UNL     1      -3.264   3.458  -0.350  1.00  0.00     0.210 C 
ENDBRANCH   1  22
BRANCH  10  24
HETATM   24  O3  UNL     1      -5.055   0.211  -0.009  1.00  0.00    -0.357 OA
HETATM   25  H12 UNL     1      -5.710   0.539   0.659  1.00  0.00     0.218 HD
ENDBRANCH  10  24
TORSDOF 5
