REMARK  10 active torsions:
REMARK  status: ('A' for Active; 'I' for Inactive)
REMARK    1  A    between atoms: O1_2  and  C2_3 
REMARK    2  A    between atoms: C5_6  and  C6_7 
REMARK    3  A    between atoms: C6_7  and  N1_8 
REMARK    4  A    between atoms: N1_8  and  C7_9 
REMARK    5  A    between atoms: C7_9  and  N2_10 
REMARK    6  A    between atoms: N2_10  and  C8_11 
REMARK    7  A    between atoms: C8_11  and  N3_12 
REMARK    8  A    between atoms: N3_12  and  C10_14 
REMARK    9  A    between atoms: C10_14  and  C11_15 
REMARK   10  A    between atoms: C18_24  and  O2_25 
ROOT
HETATM    1  C7  UNL     1      -0.315  -1.438  -1.166  1.00  0.00     0.092 C 
ENDROOT
BRANCH   1   2
HETATM    2  N1  UNL     1       0.841  -0.888  -1.268  1.00  0.00    -0.226 NA
BRANCH   2   3
HETATM    3  C6  UNL     1       1.700  -0.964  -0.096  1.00  0.00     0.196 C 
BRANCH   3   4
HETATM    4  C5  UNL     1       3.090  -0.701  -0.548  1.00  0.00    -0.042 C 
HETATM    5  C4  UNL     1       3.345   0.620  -1.191  1.00  0.00     0.067 C 
HETATM    6  C3  UNL     1       4.768   0.997  -0.931  1.00  0.00     0.017 C 
HETATM    7  C2  UNL     1       5.738   0.161  -0.535  1.00  0.00     0.098 C 
HETATM    8  C18 UNL     1       5.295  -1.235  -0.359  1.00  0.00     0.110 C 
HETATM    9  C17 UNL     1       4.043  -1.589  -0.387  1.00  0.00     0.018 C 
BRANCH   7  10
HETATM   10  O1  UNL     1       7.069   0.493  -0.288  1.00  0.00    -0.353 OA
HETATM   11  C1  UNL     1       7.483   1.616   0.453  1.00  0.00     0.210 C 
ENDBRANCH   7  10
BRANCH   8  12
HETATM   12  O2  UNL     1       6.219  -2.274  -0.149  1.00  0.00    -0.357 OA
HETATM   13  H21 UNL     1       6.817  -2.565  -0.935  1.00  0.00     0.217 HD
ENDBRANCH   8  12
ENDBRANCH   3   4
ENDBRANCH   2   3
ENDBRANCH   1   2
BRANCH   1  14
HETATM   14  N2  UNL     1      -1.541  -1.832  -1.090  1.00  0.00    -0.200 NA
BRANCH  14  15
HETATM   15  C8  UNL     1      -2.086  -1.883   0.242  1.00  0.00     0.433 C 
BRANCH  15  16
HETATM   16  N3  UNL     1      -2.449  -0.586   0.685  1.00  0.00     0.120 N 
HETATM   17  C9  UNL     1      -2.846  -0.630   2.097  1.00  0.00     0.313 C 
BRANCH  16  18
HETATM   18  C10 UNL     1      -3.437   0.126  -0.058  1.00  0.00     0.209 A 
HETATM   19  C12 UNL     1      -4.743  -0.598  -0.104  1.00  0.00     0.017 A 
HETATM   20  C13 UNL     1      -5.941  -0.240   0.326  1.00  0.00    -0.000 A 
HETATM   21  C14 UNL     1      -6.101   1.060   0.962  1.00  0.00     0.014 A 
HETATM   22  C15 UNL     1      -4.984   1.761   1.039  1.00  0.00    -0.009 A 
HETATM   23 BR1  UNL     1      -5.106   3.490   1.864  1.00  0.00    -0.056 Br
HETATM   24  C16 UNL     1      -3.610   1.489   0.612  1.00  0.00     0.095 A 
BRANCH  18  25
HETATM   25  C11 UNL     1      -3.058   0.403  -1.483  1.00  0.00     0.268 C 
HETATM   26  F1  UNL     1      -4.162   1.125  -2.008  1.00  0.00    -0.252 F 
ENDBRANCH  18  25
ENDBRANCH  16  18
ENDBRANCH  15  16
ENDBRANCH  14  15
ENDBRANCH   1  14
TORSDOF 10
