REMARK  5 active torsions:
REMARK  status: ('A' for Active; 'I' for Inactive)
REMARK    1  A    between atoms: O1_2  and  C2_3 
REMARK    2  A    between atoms: C5_6  and  N1_7 
REMARK    3  A    between atoms: C7_11  and  C8_12 
REMARK    4  A    between atoms: C8_12  and  C9_13 
REMARK    5  A    between atoms: C9_13  and  C10_14 
ROOT
HETATM    1  C2  UNL     1      -3.377   0.876   0.168  1.00  0.00     0.105 A 
HETATM    2  C3  UNL     1      -4.168   0.633  -0.934  1.00  0.00     0.018 A 
HETATM    3  C4  UNL     1      -5.635   0.898  -1.022  1.00  0.00     0.055 C 
HETATM    4  C5  UNL     1      -3.318   0.107  -1.911  1.00  0.00     0.115 A 
HETATM    5  N2  UNL     1      -2.064   0.039  -1.407  1.00  0.00    -0.289 N 
HETATM    6  C6  UNL     1      -0.935  -0.406  -2.012  1.00  0.00     0.216 A 
HETATM    7  N3  UNL     1       0.231  -0.386  -1.324  1.00  0.00    -0.248 NA
HETATM    8  C7  UNL     1       0.305   0.059  -0.059  1.00  0.00     0.038 A 
HETATM    9  C16 UNL     1      -0.858   0.502   0.522  1.00  0.00     0.060 A 
HETATM   10  C17 UNL     1      -2.078   0.505  -0.134  1.00  0.00     0.077 A 
ENDROOT
BRANCH   8  11
HETATM   11  C8  UNL     1       1.618   0.078   0.680  1.00  0.00     0.064 C 
BRANCH  11  12
HETATM   12  C9  UNL     1       2.628  -0.465  -0.291  1.00  0.00     0.048 C 
BRANCH  12  13
HETATM   13  C10 UNL     1       4.002  -0.537   0.220  1.00  0.00    -0.019 A 
HETATM   14  C11 UNL     1       4.945   0.401  -0.148  1.00  0.00     0.011 A 
HETATM   15  C12 UNL     1       6.248   0.395   0.294  1.00  0.00     0.020 A 
HETATM   16  C13 UNL     1       6.686  -0.584   1.155  1.00  0.00     0.013 A 
HETATM   17 BR1  UNL     1       8.475  -0.656   1.805  1.00  0.00    -0.051 Br
HETATM   18  C14 UNL     1       5.744  -1.543   1.539  1.00  0.00     0.061 A 
HETATM   19  C15 UNL     1       4.455  -1.518   1.088  1.00  0.00     0.123 A 
HETATM   20  F1  UNL     1       3.571  -2.465   1.481  1.00  0.00    -0.206 F 
ENDBRANCH  12  13
ENDBRANCH  11  12
ENDBRANCH   8  11
BRANCH   1  21
HETATM   21  O1  UNL     1      -3.764   1.397   1.385  1.00  0.00    -0.353 OA
HETATM   22  C1  UNL     1      -4.187   0.538   2.400  1.00  0.00     0.210 C 
ENDBRANCH   1  21
BRANCH   4  23
HETATM   23  N1  UNL     1      -3.798  -0.272  -3.214  1.00  0.00    -0.385 N 
HETATM   24  H7  UNL     1      -4.227   0.419  -3.891  1.00  0.00     0.157 HD
HETATM   25  H8  UNL     1      -3.729  -1.280  -3.533  1.00  0.00     0.157 HD
ENDBRANCH   4  23
TORSDOF 5
