REMARK  4 active torsions:
REMARK  status: ('A' for Active; 'I' for Inactive)
REMARK    1  A    between atoms: O1_2  and  C2_3 
REMARK    2  A    between atoms: C6_9  and  N3_10 
REMARK    3  A    between atoms: N3_10  and  C8_12 
REMARK    4  A    between atoms: C15_22  and  O2_23 
ROOT
HETATM    1  C2  UNL     1       3.409  -0.486   0.235  1.00  0.00     0.103 A 
HETATM    2  C3  UNL     1       2.731  -1.065   1.300  1.00  0.00     0.072 A 
HETATM    3  C4  UNL     1       1.337  -1.112   1.352  1.00  0.00     0.075 A 
HETATM    4  N1  UNL     1       0.710  -1.677   2.391  1.00  0.00    -0.241 NA
HETATM    5  C5  UNL     1      -0.654  -1.693   2.386  1.00  0.00     0.236 A 
HETATM    6  N2  UNL     1      -1.381  -1.167   1.384  1.00  0.00    -0.224 NA
HETATM    7  C6  UNL     1      -0.791  -0.579   0.302  1.00  0.00     0.141 A 
HETATM    8  C13 UNL     1       0.588  -0.578   0.335  1.00  0.00     0.041 A 
HETATM    9  C14 UNL     1       1.228   0.006  -0.739  1.00  0.00     0.057 A 
HETATM   10  C15 UNL     1       2.617   0.039  -0.765  1.00  0.00     0.102 A 
ENDROOT
BRANCH   7  11
HETATM   11  N3  UNL     1      -1.611  -0.050  -0.707  1.00  0.00    -0.342 N 
HETATM   12  C7  UNL     1      -1.563  -0.516  -2.098  1.00  0.00     0.154 C 
BRANCH  11  13
HETATM   13  C8  UNL     1      -2.560   0.999  -0.420  1.00  0.00     0.248 A 
HETATM   14  N4  UNL     1      -3.898   0.549  -0.759  1.00  0.00    -0.371 N 
HETATM   15  C9  UNL     1      -5.013   0.521   0.124  1.00  0.00     0.104 A 
HETATM   16  H10 UNL     1      -4.117   0.198  -1.738  1.00  0.00     0.161 HD
HETATM   17  C10 UNL     1      -4.821   0.942   1.364  1.00  0.00     0.028 A 
HETATM   18 BR1  UNL     1      -6.305   0.913   2.560  1.00  0.00    -0.050 Br
HETATM   19  C11 UNL     1      -3.545   1.427   1.871  1.00  0.00     0.062 A 
HETATM   20  C12 UNL     1      -2.559   1.420   0.986  1.00  0.00     0.137 A 
HETATM   21  F1  UNL     1      -1.339   1.869   1.421  1.00  0.00    -0.207 F 
ENDBRANCH  11  13
ENDBRANCH   7  11
BRANCH  10  22
HETATM   22  O2  UNL     1       3.267   0.625  -1.842  1.00  0.00    -0.353 OA
HETATM   23  C16 UNL     1       2.603   1.206  -2.944  1.00  0.00     0.210 C 
ENDBRANCH  10  22
BRANCH   1  24
HETATM   24  O1  UNL     1       4.773  -0.421   0.149  1.00  0.00    -0.353 OA
HETATM   25  C1  UNL     1       5.622  -0.939   1.139  1.00  0.00     0.210 C 
ENDBRANCH   1  24
TORSDOF 4
