REMARK  6 active torsions:
REMARK  status: ('A' for Active; 'I' for Inactive)
REMARK    1  A    between atoms: C2_2  and  O1_3 
REMARK    2  A    between atoms: C2_2  and  C4_5 
REMARK    3  A    between atoms: C4_5  and  O2_6 
REMARK    4  A    between atoms: C4_5  and  C6_9 
REMARK    5  A    between atoms: O2_6  and  C5_7 
REMARK    6  A    between atoms: C8_11  and  C9_12 
ROOT
HETATM    1  C6  UNL     1      -0.769  -0.895  -0.187  1.00  0.00     0.073 A 
HETATM    2  C7  UNL     1       0.498  -0.386   0.011  1.00  0.00     0.062 A 
HETATM    3  C8  UNL     1       1.537  -1.164   0.475  1.00  0.00     0.070 A 
HETATM    4  N1  UNL     1       1.288  -2.468   0.741  1.00  0.00    -0.241 NA
HETATM    5  C15 UNL     1       0.064  -2.980   0.555  1.00  0.00     0.234 A 
HETATM    6  N2  UNL     1      -0.932  -2.200   0.101  1.00  0.00    -0.243 NA
ENDROOT
BRANCH   1   7
HETATM    7  C4  UNL     1      -1.997  -0.269  -0.658  1.00  0.00     0.230 C 
BRANCH   7   8
HETATM    8  C2  UNL     1      -1.859   1.192  -0.856  1.00  0.00     0.071 C 
HETATM    9  C1  UNL     1      -1.325   2.394  -0.775  1.00  0.00     0.049 C 
BRANCH   8  10
HETATM   10  O1  UNL     1      -2.932   1.738  -1.586  1.00  0.00    -0.358 OA
HETATM   11  C3  UNL     1      -4.060   2.262  -0.941  1.00  0.00     0.209 C 
ENDBRANCH   8  10
ENDBRANCH   7   8
BRANCH   7  12
HETATM   12  O2  UNL     1      -3.130  -0.606   0.056  1.00  0.00    -0.363 OA
BRANCH  12  13
HETATM   13  C5  UNL     1      -4.073  -1.302  -0.670  1.00  0.00     0.254 C 
HETATM   14 BR1  UNL     1      -5.650  -1.782   0.281  1.00  0.00    -0.068 Br
ENDBRANCH  12  13
ENDBRANCH   7  12
ENDBRANCH   1   7
BRANCH   3  15
HETATM   15  C9  UNL     1       2.845  -0.567   0.662  1.00  0.00    -0.007 A 
HETATM   16  C10 UNL     1       3.211   0.725   0.429  1.00  0.00     0.017 A 
HETATM   17  C11 UNL     1       4.463   1.239   0.623  1.00  0.00     0.043 A 
HETATM   18  C12 UNL     1       5.464   0.394   1.095  1.00  0.00     0.116 A 
HETATM   19  F1  UNL     1       6.675   0.961   1.264  1.00  0.00    -0.206 F 
HETATM   20  C13 UNL     1       5.143  -0.922   1.345  1.00  0.00     0.043 A 
HETATM   21  C14 UNL     1       3.864  -1.396   1.135  1.00  0.00     0.017 A 
ENDBRANCH   3  15
TORSDOF 6
