REMARK  5 active torsions:
REMARK  status: ('A' for Active; 'I' for Inactive)
REMARK    1  A    between atoms: O1_2  and  C2_3 
REMARK    2  A    between atoms: C2_3  and  C3_4 
REMARK    3  A    between atoms: C3_4  and  C4_5 
REMARK    4  A    between atoms: C7_10  and  C8_11 
REMARK    5  A    between atoms: C16_21  and  O3_22 
ROOT
HETATM    1  C8  UNL     1      -0.531  -0.023  -0.095  1.00  0.00     0.126 C 
HETATM    2  C9  UNL     1      -1.881   0.448   0.248  1.00  0.00     0.096 C 
HETATM    3  O2  UNL     1      -1.754   1.021   1.446  1.00  0.00    -0.199 OA
HETATM    4  C10 UNL     1      -3.238   0.360  -0.526  1.00  0.00     0.060 A 
HETATM    5  C11 UNL     1      -3.553   1.405  -1.400  1.00  0.00    -0.012 A 
HETATM    6  C12 UNL     1      -3.227   0.113  -2.222  1.00  0.00     0.074 A 
HETATM    7  S1  UNL     1      -2.863  -1.104  -1.155  1.00  0.00    -0.226 SA
HETATM    8  C13 UNL     1      -4.234  -1.355   0.137  1.00  0.00     0.009 A 
HETATM    9  C14 UNL     1      -4.603  -0.420  -0.611  1.00  0.00     0.081 A 
HETATM   10  C15 UNL     1      -1.364  -2.144  -1.127  1.00  0.00     0.085 C 
HETATM   11  C16 UNL     1      -0.299  -1.496  -0.228  1.00  0.00     0.144 C 
ENDROOT
BRANCH   1  12
HETATM   12  C7  UNL     1       0.345   0.280   1.096  1.00  0.00     0.060 A 
HETATM   13  C4  UNL     1       1.578   0.707   0.783  1.00  0.00     0.009 A 
HETATM   14  C5  UNL     1       2.404   0.981   1.838  1.00  0.00     0.131 A 
HETATM   15  N1  UNL     1       1.996   0.829   3.103  1.00  0.00    -0.253 NA
HETATM   16  C6  UNL     1       0.764   0.402   3.410  1.00  0.00     0.232 A 
HETATM   17  N2  UNL     1      -0.027   0.140   2.375  1.00  0.00    -0.245 NA
BRANCH  13  18
HETATM   18  C3  UNL     1       2.027   0.863  -0.570  1.00  0.00     0.039 C 
BRANCH  18  19
HETATM   19  C2  UNL     1       3.180   1.221  -1.041  1.00  0.00     0.135 C 
BRANCH  19  20
HETATM   20  O1  UNL     1       4.335   1.581  -1.656  1.00  0.00    -0.368 OA
HETATM   21  C1  UNL     1       4.530   2.892  -2.186  1.00  0.00     0.208 C 
ENDBRANCH  19  20
ENDBRANCH  18  19
ENDBRANCH  13  18
ENDBRANCH   1  12
BRANCH  11  22
HETATM   22  O3  UNL     1      -0.478  -2.038   1.049  1.00  0.00    -0.389 OA
HETATM   23  C17 UNL     1       0.653  -2.748   1.457  1.00  0.00     0.202 C 
ENDBRANCH  11  22
TORSDOF 5
