REMARK  4 active torsions:
REMARK  status: ('A' for Active; 'I' for Inactive)
REMARK    1  A    between atoms: C3_3  and  C4_4 
REMARK    2  A    between atoms: C3_3  and  O2_23 
REMARK    3  A    between atoms: C7_8  and  C8_9 
REMARK    4  A    between atoms: C13_15  and  N1_16 
ROOT
HETATM    1  C4  UNL     1       2.613   0.111  -1.260  1.00  0.00     0.059 C 
HETATM    2  C5  UNL     1       1.506  -0.250  -0.645  1.00  0.00     0.061 C 
HETATM    3  S1  UNL     1      -0.034  -0.723  -1.530  1.00  0.00    -0.086 SA
HETATM    4  C6  UNL     1      -1.155  -1.119  -0.093  1.00  0.00     0.037 C 
HETATM    5  C7  UNL     1      -2.204  -0.398   0.386  1.00  0.00     0.086 C 
HETATM    6  N2  UNL     1      -1.896   0.475   1.523  1.00  0.00    -0.240 NA
HETATM    7  C14 UNL     1      -0.741   0.832   2.086  1.00  0.00     0.236 C 
HETATM    8  N3  UNL     1       0.626   0.336   1.795  1.00  0.00    -0.217 NA
HETATM    9  C15 UNL     1       0.977  -0.432   0.741  1.00  0.00     0.183 C 
HETATM   10  O1  UNL     1       0.796  -1.869   0.990  1.00  0.00    -0.328 OA
HETATM   11  C16 UNL     1      -0.463  -2.373   0.439  1.00  0.00     0.226 C 
ENDROOT
BRANCH   5  12
HETATM   12  C8  UNL     1      -3.616  -0.259   0.051  1.00  0.00     0.020 A 
HETATM   13  C9  UNL     1      -4.307  -1.399  -0.297  1.00  0.00     0.018 A 
HETATM   14  C10 UNL     1      -5.636  -1.246  -0.625  1.00  0.00     0.025 A 
HETATM   15  C11 UNL     1      -6.191   0.033  -0.585  1.00  0.00     0.036 A 
HETATM   16 CL1  UNL     1      -7.893   0.106  -1.024  1.00  0.00    -0.084 Cl
HETATM   17  C12 UNL     1      -5.432   1.141  -0.223  1.00  0.00     0.053 A 
HETATM   18  C13 UNL     1      -4.103   1.022   0.110  1.00  0.00     0.040 A 
BRANCH  18  19
HETATM   19  N1  UNL     1      -3.322   2.149   0.479  1.00  0.00    -0.398 N 
HETATM   20  H9  UNL     1      -3.261   2.678   1.395  1.00  0.00     0.156 HD
HETATM   21  H10 UNL     1      -2.787   2.352  -0.411  1.00  0.00     0.156 HD
ENDBRANCH  18  19
ENDBRANCH   5  12
BRANCH   1  22
HETATM   22  C3  UNL     1       3.886   0.504  -0.734  1.00  0.00     0.065 C 
HETATM   23  C2  UNL     1       4.816   0.822  -1.614  1.00  0.00     0.006 C 
HETATM   24  C1  UNL     1       6.213   1.261  -1.403  1.00  0.00     0.038 C 
BRANCH  22  25
HETATM   25  O2  UNL     1       4.411   0.640   0.536  1.00  0.00    -0.356 OA
HETATM   26  C17 UNL     1       4.597  -0.439   1.407  1.00  0.00     0.210 C 
ENDBRANCH  22  25
ENDBRANCH   1  22
TORSDOF 4
