REMARK  3 active torsions:
REMARK  status: ('A' for Active; 'I' for Inactive)
REMARK       I    between atoms: C2_2  and  N1_4 
REMARK    1  A    between atoms: N1_4  and  C3_5 
REMARK    2  A    between atoms: C9_12  and  N2_13 
REMARK    3  A    between atoms: N2_13  and  C10_14 
ROOT
HETATM    1  C3  UNL     1      -1.988  -0.465  -0.059  1.00  0.00     0.130 C 
HETATM    2  C4  UNL     1      -2.907   0.471  -0.548  1.00  0.00     0.053 C 
HETATM    3  C5  UNL     1      -2.663   1.959  -0.434  1.00  0.00     0.038 C 
HETATM    4  C6  UNL     1      -1.995   2.711   0.479  1.00  0.00     0.071 C 
HETATM    5  C7  UNL     1      -1.357   3.689  -0.444  1.00  0.00     0.239 C 
HETATM    6  O2  UNL     1       0.085   3.631  -0.176  1.00  0.00    -0.354 OA
HETATM    7  C8  UNL     1       0.975   2.548   0.103  1.00  0.00     0.166 C 
HETATM    8  C9  UNL     1       0.644   1.296   0.559  1.00  0.00     0.082 C 
HETATM    9  C16 UNL     1      -0.498   0.837   1.426  1.00  0.00     0.089 C 
HETATM   10  N3  UNL     1      -0.754  -0.318   0.803  1.00  0.00    -0.231 NA
HETATM   11  C17 UNL     1      -1.245   1.462   2.608  1.00  0.00     0.237 C 
HETATM   12  O3  UNL     1      -1.925   2.584   1.922  1.00  0.00    -0.347 OA
ENDROOT
BRANCH   8  13
HETATM   13  N2  UNL     1       1.332   0.108   0.225  1.00  0.00    -0.353 N 
HETATM   14  H10 UNL     1       0.845  -0.776   0.090  1.00  0.00     0.166 HD
BRANCH  13  15
HETATM   15  C10 UNL     1       2.649  -0.345  -0.037  1.00  0.00     0.032 A 
HETATM   16  C11 UNL     1       3.433  -0.658   1.066  1.00  0.00     0.029 A 
HETATM   17  C12 UNL     1       4.724  -1.110   0.866  1.00  0.00     0.002 A 
HETATM   18  C13 UNL     1       5.202  -1.239  -0.413  1.00  0.00     0.000 A 
HETATM   19  C14 UNL     1       4.461  -0.940  -1.540  1.00  0.00     0.002 A 
HETATM   20  C15 UNL     1       3.173  -0.491  -1.303  1.00  0.00     0.029 A 
ENDBRANCH  13  15
ENDBRANCH   8  13
BRANCH   1  21
HETATM   21  N1  UNL     1      -2.407  -1.699  -0.572  1.00  0.00    -0.312 N 
HETATM   22  C2  UNL     1      -2.856  -2.990  -0.136  1.00  0.00     0.219 C 
HETATM   23  C1  UNL     1      -3.209  -4.054  -1.101  1.00  0.00     0.117 C 
HETATM   24  O1  UNL     1      -2.939  -3.187   1.104  1.00  0.00    -0.274 OA
HETATM   25  H4  UNL     1      -2.363  -1.632  -1.635  1.00  0.00     0.170 HD
ENDBRANCH   1  21
TORSDOF 3
