REMARK  9 active torsions:
REMARK  status: ('A' for Active; 'I' for Inactive)
REMARK    1  A    between atoms: O1_2  and  C2_3 
REMARK    2  A    between atoms: C5_6  and  N1_7 
REMARK    3  A    between atoms: N1_7  and  C6_8 
REMARK    4  A    between atoms: C6_8  and  N2_9 
REMARK    5  A    between atoms: N2_9  and  C7_10 
REMARK    6  A    between atoms: C7_10  and  N3_11 
REMARK    7  A    between atoms: N3_11  and  C8_12 
REMARK    8  A    between atoms: C11_15  and  N4_16 
REMARK       I    between atoms: N4_16  and  C12_17 
REMARK    9  A    between atoms: C17_23  and  O3_24 
ROOT
HETATM    1  C7  UNL     1       0.684   1.269   0.190  1.00  0.00     0.272 C 
ENDROOT
BRANCH   1   2
HETATM    2  N2  UNL     1       0.349  -0.070   0.576  1.00  0.00    -0.263 NA
BRANCH   2   3
HETATM    3  C6  UNL     1      -0.682  -0.649   0.108  1.00  0.00     0.228 C 
BRANCH   3   4
HETATM    4  N1  UNL     1      -1.856  -1.155  -0.496  1.00  0.00    -0.247 NA
BRANCH   4   5
HETATM    5  C5  UNL     1      -2.974  -0.542  -0.343  1.00  0.00     0.042 A 
HETATM    6  C4  UNL     1      -3.138   0.688   0.439  1.00  0.00     0.089 A 
HETATM    7  C3  UNL     1      -4.526   1.163   0.439  1.00  0.00     0.019 A 
HETATM    8  C2  UNL     1      -5.509   0.535  -0.204  1.00  0.00     0.098 A 
HETATM    9  C17 UNL     1      -5.298  -0.690  -0.973  1.00  0.00     0.103 A 
HETATM   10  C16 UNL     1      -4.067  -1.188  -1.023  1.00  0.00     0.067 A 
BRANCH   8  11
HETATM   11  O1  UNL     1      -6.759   1.129  -0.093  1.00  0.00    -0.353 OA
HETATM   12  C1  UNL     1      -7.512   1.451  -1.244  1.00  0.00     0.210 C 
ENDBRANCH   8  11
BRANCH   9  13
HETATM   13  O3  UNL     1      -6.362  -1.309  -1.628  1.00  0.00    -0.353 OA
HETATM   14  C18 UNL     1      -7.230  -2.131  -0.835  1.00  0.00     0.210 C 
ENDBRANCH   9  13
ENDBRANCH   4   5
ENDBRANCH   3   4
ENDBRANCH   2   3
ENDBRANCH   1   2
BRANCH   1  15
HETATM   15  N3  UNL     1       1.763   1.258  -0.804  1.00  0.00    -0.372 N 
HETATM   16  H10 UNL     1       1.612   1.673  -1.755  1.00  0.00     0.161 HD
BRANCH  15  17
HETATM   17  C8  UNL     1       3.030   0.688  -0.499  1.00  0.00     0.029 A 
HETATM   18  C9  UNL     1       4.051   0.684  -1.456  1.00  0.00     0.031 A 
HETATM   19  C10 UNL     1       5.273   0.110  -1.098  1.00  0.00     0.032 A 
HETATM   20  C11 UNL     1       5.488  -0.436   0.140  1.00  0.00     0.034 A 
HETATM   21  C14 UNL     1       4.475  -0.435   1.095  1.00  0.00     0.032 A 
HETATM   22  C15 UNL     1       3.268   0.133   0.741  1.00  0.00     0.031 A 
BRANCH  20  23
HETATM   23  N4  UNL     1       6.785  -0.982   0.351  1.00  0.00    -0.328 N 
HETATM   24  C12 UNL     1       7.851  -0.195   0.868  1.00  0.00     0.218 C 
HETATM   25  C13 UNL     1       9.238  -0.578   1.150  1.00  0.00     0.117 C 
HETATM   26  O2  UNL     1       7.643   1.034   1.152  1.00  0.00    -0.274 OA
HETATM   27  H13 UNL     1       7.052  -1.964   0.152  1.00  0.00     0.169 HD
ENDBRANCH  20  23
ENDBRANCH  15  17
ENDBRANCH   1  15
TORSDOF 9
