REMARK  4 active torsions:
REMARK  status: ('A' for Active; 'I' for Inactive)
REMARK    1  A    between atoms: O1_2  and  C2_3 
REMARK    2  A    between atoms: C2_3  and  C3_4 
REMARK    3  A    between atoms: C7_10  and  O2_11 
REMARK    4  A    between atoms: O2_11  and  C8_12 
ROOT
HETATM    1  C3  UNL     1      -3.373  -0.509  -0.462  1.00  0.00     0.078 C 
HETATM    2  C4  UNL     1      -2.481  -1.389  -0.004  1.00  0.00     0.067 C 
HETATM    3  C5  UNL     1      -1.013  -1.353   0.156  1.00  0.00     0.075 A 
HETATM    4  N1  UNL     1      -0.453  -2.553   0.362  1.00  0.00    -0.241 NA
HETATM    5  C6  UNL     1       0.903  -2.614   0.521  1.00  0.00     0.236 A 
HETATM    6  N2  UNL     1       1.647  -1.494   0.471  1.00  0.00    -0.217 NA
HETATM    7  C7  UNL     1       1.106  -0.284   0.267  1.00  0.00     0.183 A 
HETATM    8  C14 UNL     1      -0.277  -0.164   0.097  1.00  0.00     0.048 A 
HETATM    9  C15 UNL     1      -0.756   1.218  -0.120  1.00  0.00     0.042 C 
HETATM   10  C16 UNL     1      -1.941   1.602  -0.564  1.00  0.00     0.143 C 
HETATM   11  O3  UNL     1      -2.956   0.721  -0.905  1.00  0.00    -0.325 OA
ENDROOT
BRANCH   7  12
HETATM   12  O2  UNL     1       1.872   0.880   0.215  1.00  0.00    -0.291 OA
BRANCH  12  13
HETATM   13  C8  UNL     1       3.246   0.740   0.385  1.00  0.00     0.081 A 
HETATM   14  C9  UNL     1       3.938   0.534  -0.803  1.00  0.00     0.039 A 
HETATM   15  C10 UNL     1       5.302   0.375  -0.827  1.00  0.00     0.025 A 
HETATM   16  C11 UNL     1       6.021   0.415   0.335  1.00  0.00     0.049 A 
HETATM   17 BR1  UNL     1       7.916   0.197   0.338  1.00  0.00    -0.048 Br
HETATM   18  C12 UNL     1       5.343   0.618   1.518  1.00  0.00     0.136 A 
HETATM   19  F1  UNL     1       6.013   0.665   2.683  1.00  0.00    -0.205 F 
HETATM   20  C13 UNL     1       3.970   0.781   1.558  1.00  0.00     0.081 A 
ENDBRANCH  12  13
ENDBRANCH   7  12
BRANCH   1  21
HETATM   21  C2  UNL     1      -4.763  -1.008  -0.427  1.00  0.00     0.232 C 
BRANCH  21  22
HETATM   22  O1  UNL     1      -5.538  -0.213   0.358  1.00  0.00    -0.390 OA
HETATM   23  C1  UNL     1      -5.672   1.099   0.010  1.00  0.00     0.201 C 
ENDBRANCH  21  22
ENDBRANCH   1  21
TORSDOF 4
