REMARK  1 active torsions:
REMARK  status: ('A' for Active; 'I' for Inactive)
REMARK    1  A    between atoms: C3_3  and  C4_4 
ROOT
HETATM    1  C4  UNL     1      -1.985   0.932  -0.140  1.00  0.00     0.070 C 
HETATM    2  N1  UNL     1      -2.574   1.536  -1.145  1.00  0.00    -0.241 NA
HETATM    3  C5  UNL     1      -1.913   2.071  -2.316  1.00  0.00     0.236 C 
HETATM    4  N2  UNL     1      -0.673   1.954  -2.747  1.00  0.00    -0.218 NA
HETATM    5  C6  UNL     1       0.384   1.253  -2.109  1.00  0.00     0.170 C 
HETATM    6  C7  UNL     1       0.507   1.235  -0.767  1.00  0.00     0.074 C 
HETATM    7  C8  UNL     1      -0.575   0.484  -0.085  1.00  0.00     0.019 C 
HETATM    8  C9  UNL     1      -0.445  -0.621   0.620  1.00  0.00     0.148 C 
HETATM    9  O1  UNL     1       0.902  -1.024   0.655  1.00  0.00    -0.359 OA
HETATM   10  C10 UNL     1       1.261  -2.202  -0.086  1.00  0.00     0.217 C 
HETATM   11  C11 UNL     1       2.624  -2.641   0.459  1.00  0.00     0.234 C 
HETATM   12  F1  UNL     1       2.438  -2.785   1.799  1.00  0.00    -0.241 F 
HETATM   13  C12 UNL     1       3.742  -1.782   0.041  1.00  0.00     0.024 C 
HETATM   14 BR1  UNL     1       5.143  -2.579   1.123  1.00  0.00    -0.053 Br
HETATM   15  C13 UNL     1       3.950  -0.790  -0.789  1.00  0.00     0.019 C 
HETATM   16  C14 UNL     1       3.777   0.247  -1.785  1.00  0.00     0.026 C 
HETATM   17  C15 UNL     1       2.681   0.563  -2.432  1.00  0.00     0.144 C 
HETATM   18  O2  UNL     1       1.355   0.543  -2.849  1.00  0.00    -0.304 OA
ENDROOT
BRANCH   1  19
HETATM   19  C3  UNL     1      -2.769   0.662   1.047  1.00  0.00     0.028 C 
HETATM   20  C2  UNL     1      -4.024   1.075   0.941  1.00  0.00    -0.029 C 
HETATM   21  C1  UNL     1      -5.088   0.949   1.981  1.00  0.00     0.036 C 
ENDBRANCH   1  19
TORSDOF 1
