REMARK  5 active torsions:
REMARK  status: ('A' for Active; 'I' for Inactive)
REMARK    1  A    between atoms: O1_2  and  C2_3 
REMARK    2  A    between atoms: C7_9  and  O2_10 
REMARK    3  A    between atoms: N2_11  and  C8_12 
REMARK    4  A    between atoms: C12_16  and  N3_17 
REMARK    5  A    between atoms: N3_17  and  C13_18 
ROOT
HETATM    1  C2  UNL     1      -2.632   0.508  -1.464  1.00  0.00     0.044 C 
HETATM    2  C3  UNL     1      -1.653  -0.149  -0.819  1.00  0.00     0.036 C 
HETATM    3  C4  UNL     1      -1.232   0.262   0.583  1.00  0.00     0.160 A 
HETATM    4  C5  UNL     1      -2.529   0.780   1.157  1.00  0.00     0.039 A 
HETATM    5  N1  UNL     1      -3.212   0.241   2.139  1.00  0.00    -0.263 NA
HETATM    6  C6  UNL     1      -2.771  -0.932   2.788  1.00  0.00     0.172 A 
HETATM    7  C7  UNL     1      -1.632  -1.466   2.376  1.00  0.00     0.157 A 
HETATM    8  N2  UNL     1      -0.837  -0.913   1.334  1.00  0.00    -0.339 N 
HETATM    9  C17 UNL     1      -2.994   2.042   0.472  1.00  0.00     0.064 C 
HETATM   10  C18 UNL     1      -3.387   1.652  -0.930  1.00  0.00     0.070 C 
ENDROOT
BRANCH   8  11
HETATM   11  C8  UNL     1       0.403  -1.656   1.135  1.00  0.00     0.116 A 
HETATM   12  C9  UNL     1       1.254  -1.686   2.341  1.00  0.00    -0.001 A 
HETATM   13  C10 UNL     1       2.529  -1.433   2.576  1.00  0.00    -0.000 A 
HETATM   14  C11 UNL     1       3.322  -1.025   1.423  1.00  0.00     0.024 A 
HETATM   15  C12 UNL     1       2.603  -0.980   0.330  1.00  0.00     0.007 A 
HETATM   16  C16 UNL     1       1.199  -1.216  -0.044  1.00  0.00     0.086 A 
BRANCH  15  17
HETATM   17  N3  UNL     1       3.344  -0.582  -0.845  1.00  0.00    -0.389 N 
HETATM   18  H12 UNL     1       3.394  -1.275  -1.640  1.00  0.00     0.159 HD
BRANCH  17  19
HETATM   19  C13 UNL     1       3.912   0.762  -0.712  1.00  0.00     0.073 C 
HETATM   20  C14 UNL     1       2.815   1.785  -0.497  1.00  0.00     0.031 C 
HETATM   21  C15 UNL     1       4.695   1.179  -1.920  1.00  0.00     0.031 C 
ENDBRANCH  17  19
ENDBRANCH  15  17
ENDBRANCH   8  11
BRANCH   7  22
HETATM   22  O2  UNL     1      -1.455  -2.582   3.164  1.00  0.00    -0.345 OA
HETATM   23  H7  UNL     1      -1.204  -3.502   2.852  1.00  0.00     0.219 HD
ENDBRANCH   7  22
BRANCH   1  24
HETATM   24  O1  UNL     1      -3.135   0.253  -2.755  1.00  0.00    -0.360 OA
HETATM   25  C1  UNL     1      -4.502   0.117  -3.042  1.00  0.00     0.209 C 
ENDBRANCH   1  24
TORSDOF 5
