REMARK  7 active torsions:
REMARK  status: ('A' for Active; 'I' for Inactive)
REMARK    1  A    between atoms: C2_2  and  C3_3 
REMARK    2  A    between atoms: C5_5  and  N1_6 
REMARK    3  A    between atoms: N1_6  and  C6_7 
REMARK    4  A    between atoms: C9_10  and  N2_11 
REMARK       I    between atoms: N2_11  and  C10_12 
REMARK    5  A    between atoms: C16_21  and  O2_22 
REMARK    6  A    between atoms: C16_21  and  C17_23 
REMARK    7  A    between atoms: C17_23  and  O3_24 
ROOT
HETATM    1  C3  UNL     1      -2.591   0.842   0.355  1.00  0.00    -0.019 C 
HETATM    2  C4  UNL     1      -1.379   0.925   0.958  1.00  0.00     0.045 C 
HETATM    3  C5  UNL     1      -1.208  -0.446   1.386  1.00  0.00     0.191 A 
HETATM    4  N3  UNL     1      -0.451  -0.709   2.580  1.00  0.00    -0.241 NA
HETATM    5  C14 UNL     1      -1.224  -1.287   3.417  1.00  0.00     0.230 A 
HETATM    6  N4  UNL     1      -2.568  -1.475   2.921  1.00  0.00    -0.243 NA
HETATM    7  C15 UNL     1      -2.553  -0.963   1.716  1.00  0.00     0.109 A 
HETATM    8  C16 UNL     1      -3.206  -0.531   0.436  1.00  0.00     0.150 C 
ENDROOT
BRANCH   3   9
HETATM    9  N1  UNL     1      -0.582  -1.273   0.313  1.00  0.00    -0.354 N 
HETATM   10  H5  UNL     1      -0.863  -2.126  -0.252  1.00  0.00     0.163 HD
BRANCH   9  11
HETATM   11  C6  UNL     1       0.751  -0.895  -0.089  1.00  0.00     0.030 A 
HETATM   12  C7  UNL     1       1.463  -1.507  -1.103  1.00  0.00     0.031 A 
HETATM   13  C8  UNL     1       2.739  -1.166  -1.478  1.00  0.00     0.032 A 
HETATM   14  C9  UNL     1       3.397  -0.149  -0.828  1.00  0.00     0.034 A 
HETATM   15  C12 UNL     1       2.730   0.489   0.187  1.00  0.00     0.032 A 
HETATM   16  C13 UNL     1       1.465   0.110   0.519  1.00  0.00     0.031 A 
BRANCH  14  17
HETATM   17  N2  UNL     1       4.701   0.118  -1.294  1.00  0.00    -0.328 N 
HETATM   18  C10 UNL     1       5.611   1.096  -0.826  1.00  0.00     0.218 C 
HETATM   19  C11 UNL     1       6.973   1.324  -1.363  1.00  0.00     0.117 C 
HETATM   20  O1  UNL     1       5.314   1.869   0.115  1.00  0.00    -0.274 OA
HETATM   21  H8  UNL     1       5.138  -0.417  -2.075  1.00  0.00     0.169 HD
ENDBRANCH  14  17
ENDBRANCH   9  11
ENDBRANCH   3   9
BRANCH   1  22
HETATM   22  C2  UNL     1      -3.277   1.950  -0.278  1.00  0.00    -0.016 C 
HETATM   23  C1  UNL     1      -4.374   2.264  -0.923  1.00  0.00     0.031 C 
ENDBRANCH   1  22
BRANCH   8  24
HETATM   24  O2  UNL     1      -2.836  -1.334  -0.571  1.00  0.00    -0.376 OA
HETATM   25  H15 UNL     1      -3.539  -1.607  -1.188  1.00  0.00     0.211 HD
ENDBRANCH   8  24
BRANCH   8  26
HETATM   26  C17 UNL     1      -4.713  -0.450   0.632  1.00  0.00     0.213 C 
BRANCH  26  27
HETATM   27  O3  UNL     1      -5.104  -1.781   0.916  1.00  0.00    -0.397 OA
HETATM   28  H18 UNL     1      -4.851  -2.055   1.829  1.00  0.00     0.209 HD
ENDBRANCH  26  27
ENDBRANCH   8  26
TORSDOF 7
