REMARK  3 active torsions:
REMARK  status: ('A' for Active; 'I' for Inactive)
REMARK    1  A    between atoms: O1_2  and  C2_3 
REMARK    2  A    between atoms: C10_13  and  N3_14 
REMARK       I    between atoms: N3_14  and  C11_15 
REMARK    3  A    between atoms: C17_22  and  O3_23 
ROOT
HETATM    1  C2  UNL     1      -4.066  -0.767  -0.153  1.00  0.00     0.103 A 
HETATM    2  C3  UNL     1      -3.679  -2.090  -0.271  1.00  0.00     0.072 A 
HETATM    3  C4  UNL     1      -2.319  -2.388  -0.257  1.00  0.00     0.073 A 
HETATM    4  N1  UNL     1      -1.874  -3.652  -0.377  1.00  0.00    -0.241 NA
HETATM    5  C5  UNL     1      -0.525  -3.832  -0.361  1.00  0.00     0.234 A 
HETATM    6  N2  UNL     1       0.332  -2.803  -0.232  1.00  0.00    -0.240 NA
HETATM    7  C6  UNL     1      -0.076  -1.510  -0.108  1.00  0.00     0.081 A 
HETATM    8  C7  UNL     1       0.997  -0.566   0.015  1.00  0.00    -0.006 A 
HETATM    9  C8  UNL     1       1.213   0.446   0.925  1.00  0.00     0.016 A 
HETATM   10  C9  UNL     1       2.309   1.279   0.869  1.00  0.00     0.030 A 
HETATM   11  C10 UNL     1       3.259   1.142  -0.114  1.00  0.00     0.034 A 
HETATM   12  C13 UNL     1       3.091   0.144  -1.050  1.00  0.00     0.030 A 
HETATM   13  C14 UNL     1       1.993  -0.665  -0.966  1.00  0.00     0.016 A 
HETATM   14  C15 UNL     1      -1.431  -1.341  -0.126  1.00  0.00     0.025 A 
HETATM   15  C16 UNL     1      -1.843  -0.031  -0.012  1.00  0.00     0.055 A 
HETATM   16  C17 UNL     1      -3.170   0.301  -0.021  1.00  0.00     0.102 A 
ENDROOT
BRANCH  16  17
HETATM   17  O3  UNL     1      -3.690   1.585   0.088  1.00  0.00    -0.353 OA
HETATM   18  C18 UNL     1      -2.785   2.654   0.221  1.00  0.00     0.210 C 
ENDBRANCH  16  17
BRANCH  11  19
HETATM   19  N3  UNL     1       4.403   1.977  -0.209  1.00  0.00    -0.328 N 
HETATM   20  C11 UNL     1       5.578   1.540   0.498  1.00  0.00     0.218 C 
HETATM   21  C12 UNL     1       6.901   2.231   0.558  1.00  0.00     0.117 C 
HETATM   22  O2  UNL     1       5.653   0.481   1.184  1.00  0.00    -0.274 OA
HETATM   23  H8  UNL     1       4.559   2.871  -0.707  1.00  0.00     0.169 HD
ENDBRANCH  11  19
BRANCH   1  24
HETATM   24  O1  UNL     1      -5.421  -0.481  -0.168  1.00  0.00    -0.353 OA
HETATM   25  C1  UNL     1      -6.388  -1.485  -0.297  1.00  0.00     0.210 C 
ENDBRANCH   1  24
TORSDOF 3
