REMARK  7 active torsions:
REMARK  status: ('A' for Active; 'I' for Inactive)
REMARK    1  A    between atoms: O1_2  and  C2_3 
REMARK    2  A    between atoms: C5_6  and  C6_7 
REMARK    3  A    between atoms: N1_8  and  C7_9 
REMARK    4  A    between atoms: N2_10  and  C8_11 
REMARK    5  A    between atoms: C8_11  and  N3_12 
REMARK    6  A    between atoms: N3_12  and  C9_13 
REMARK    7  A    between atoms: C13_17  and  N4_18 
REMARK       I    between atoms: N4_18  and  C14_19 
ROOT
HETATM    1  N3  UNL     1       0.973   1.369  -0.516  1.00  0.00     0.114 N 
HETATM    2  H11 UNL     1       0.383   0.918  -1.253  1.00  0.00     0.319 HD
ENDROOT
BRANCH   1   3
HETATM    3  C8  UNL     1       0.295   1.202   0.732  1.00  0.00     0.420 C 
BRANCH   3   4
HETATM    4  N2  UNL     1      -0.977   1.924   0.600  1.00  0.00    -0.253 NA
HETATM    5  C7  UNL     1      -2.095   1.315   0.380  1.00  0.00     0.228 C 
BRANCH   5   6
HETATM    6  N1  UNL     1      -2.097  -0.091   0.262  1.00  0.00    -0.254 NA
HETATM    7  C6  UNL     1      -3.106  -0.816   0.033  1.00  0.00     0.128 C 
BRANCH   7   8
HETATM    8  C5  UNL     1      -4.531  -0.691  -0.194  1.00  0.00     0.004 A 
HETATM    9  C4  UNL     1      -5.366  -1.884  -0.433  1.00  0.00     0.073 A 
HETATM   10  C3  UNL     1      -6.712  -1.267  -0.605  1.00  0.00     0.018 A 
HETATM   11  C2  UNL     1      -6.599   0.046  -0.476  1.00  0.00     0.103 A 
HETATM   12  C18 UNL     1      -5.219   0.436  -0.214  1.00  0.00     0.157 A 
HETATM   13  F1  UNL     1      -4.804   1.710  -0.037  1.00  0.00    -0.203 F 
BRANCH  11  14
HETATM   14  O1  UNL     1      -7.756   0.838  -0.602  1.00  0.00    -0.353 OA
HETATM   15  C1  UNL     1      -8.952   0.502   0.114  1.00  0.00     0.210 C 
ENDBRANCH  11  14
ENDBRANCH   7   8
ENDBRANCH   5   6
ENDBRANCH   3   4
ENDBRANCH   1   3
BRANCH   1  16
HETATM   16  C9  UNL     1       2.264   0.730  -0.599  1.00  0.00     0.268 C 
HETATM   17  C10 UNL     1       2.124  -0.736  -0.395  1.00  0.00     0.012 C 
HETATM   18  C11 UNL     1       2.930  -1.735  -0.073  1.00  0.00     0.001 C 
HETATM   19  C12 UNL     1       4.374  -1.561   0.189  1.00  0.00     0.029 C 
HETATM   20  C13 UNL     1       4.998  -0.449   0.577  1.00  0.00     0.034 C 
HETATM   21  C16 UNL     1       4.379   0.849   0.827  1.00  0.00     0.028 C 
HETATM   22  C17 UNL     1       3.248   1.329   0.337  1.00  0.00     0.014 C 
BRANCH  20  23
HETATM   23  N4  UNL     1       6.400  -0.582   0.752  1.00  0.00    -0.328 N 
HETATM   24  C14 UNL     1       7.141   0.272  -0.081  1.00  0.00     0.218 C 
HETATM   25  C15 UNL     1       8.621   0.327  -0.091  1.00  0.00     0.117 C 
HETATM   26  O2  UNL     1       6.482   1.016  -0.846  1.00  0.00    -0.274 OA
HETATM   27  H16 UNL     1       6.882  -1.227   1.412  1.00  0.00     0.169 HD
ENDBRANCH  20  23
ENDBRANCH   1  16
TORSDOF 7
