REMARK  5 active torsions:
REMARK  status: ('A' for Active; 'I' for Inactive)
REMARK    1  A    between atoms: O1_2  and  C2_3 
REMARK    2  A    between atoms: C6_9  and  O2_10 
REMARK    3  A    between atoms: O2_10  and  C7_11 
REMARK    4  A    between atoms: C10_14  and  N3_15 
REMARK       I    between atoms: N3_15  and  C11_16 
REMARK    5  A    between atoms: C16_22  and  O4_23 
ROOT
HETATM    1  C2  UNL     1       4.044  -0.770  -0.109  1.00  0.00     0.104 A 
HETATM    2  C3  UNL     1       4.330  -1.927   0.482  1.00  0.00     0.072 A 
HETATM    3  C4  UNL     1       3.122  -2.410   1.150  1.00  0.00     0.074 A 
HETATM    4  N1  UNL     1       2.770  -3.434   1.865  1.00  0.00    -0.242 NA
HETATM    5  C5  UNL     1       1.424  -3.543   2.357  1.00  0.00     0.230 A 
HETATM    6  N2  UNL     1       0.499  -2.671   2.137  1.00  0.00    -0.246 NA
HETATM    7  C6  UNL     1       0.722  -1.469   1.359  1.00  0.00     0.291 A 
HETATM    8  C15 UNL     1       2.123  -1.387   0.865  1.00  0.00     0.057 A 
HETATM    9  C16 UNL     1       2.632  -0.413   0.129  1.00  0.00     0.114 A 
ENDROOT
BRANCH   7  10
HETATM   10  O2  UNL     1      -0.204  -1.505   0.294  1.00  0.00    -0.320 OA
BRANCH  10  11
HETATM   11  C7  UNL     1      -1.217  -0.575   0.109  1.00  0.00     0.072 A 
HETATM   12  C8  UNL     1      -1.938  -0.920  -1.040  1.00  0.00     0.039 A 
HETATM   13  C9  UNL     1      -3.025  -0.149  -1.469  1.00  0.00     0.032 A 
HETATM   14  C10 UNL     1      -3.382   0.959  -0.743  1.00  0.00     0.034 A 
HETATM   15  C13 UNL     1      -2.665   1.284   0.382  1.00  0.00     0.032 A 
HETATM   16  C14 UNL     1      -1.597   0.538   0.814  1.00  0.00     0.039 A 
BRANCH  14  17
HETATM   17  N3  UNL     1      -4.466   1.792  -1.104  1.00  0.00    -0.328 N 
HETATM   18  C11 UNL     1      -5.655   1.323  -0.485  1.00  0.00     0.218 C 
HETATM   19  C12 UNL     1      -7.028   1.872  -0.570  1.00  0.00     0.117 C 
HETATM   20  O3  UNL     1      -5.630   0.308   0.254  1.00  0.00    -0.274 OA
HETATM   21  H9  UNL     1      -4.607   2.634  -1.690  1.00  0.00     0.169 HD
ENDBRANCH  14  17
ENDBRANCH  10  11
ENDBRANCH   7  10
BRANCH   9  22
HETATM   22  O4  UNL     1       2.065   0.743  -0.371  1.00  0.00    -0.352 OA
HETATM   23  C17 UNL     1       2.656   2.017  -0.231  1.00  0.00     0.210 C 
ENDBRANCH   9  22
BRANCH   1  24
HETATM   24  O1  UNL     1       5.033  -0.085  -0.826  1.00  0.00    -0.353 OA
HETATM   25  C1  UNL     1       6.238   0.328  -0.180  1.00  0.00     0.210 C 
ENDBRANCH   1  24
TORSDOF 5
