REMARK  7 active torsions:
REMARK  status: ('A' for Active; 'I' for Inactive)
REMARK    1  A    between atoms: O1_2  and  C2_3 
REMARK    2  A    between atoms: C6_9  and  O2_10 
REMARK    3  A    between atoms: O2_10  and  C7_11 
REMARK    4  A    between atoms: C7_11  and  C8_12 
REMARK    5  A    between atoms: C9_13  and  C10_14 
REMARK    6  A    between atoms: C10_14  and  N3_15 
REMARK       I    between atoms: N3_15  and  C11_16 
REMARK    7  A    between atoms: C15_21  and  O4_22 
ROOT
HETATM    1  C2  UNL     1      -4.135   1.232   0.359  1.00  0.00     0.103 A 
HETATM    2  C3  UNL     1      -3.734   1.169  -0.960  1.00  0.00     0.072 A 
HETATM    3  C4  UNL     1      -2.545   0.518  -1.217  1.00  0.00     0.075 A 
HETATM    4  N1  UNL     1      -2.165   0.464  -2.512  1.00  0.00    -0.241 NA
HETATM    5  C5  UNL     1      -1.027  -0.140  -2.899  1.00  0.00     0.236 A 
HETATM    6  N2  UNL     1      -0.221  -0.718  -1.991  1.00  0.00    -0.217 NA
HETATM    7  C6  UNL     1      -0.538  -0.703  -0.662  1.00  0.00     0.178 A 
HETATM    8  C13 UNL     1      -1.726  -0.071  -0.274  1.00  0.00     0.048 A 
HETATM    9  C14 UNL     1      -2.169   0.018   1.040  1.00  0.00     0.057 A 
HETATM   10  C15 UNL     1      -3.353   0.659   1.343  1.00  0.00     0.102 A 
ENDROOT
BRANCH   7  11
HETATM   11  O2  UNL     1       0.139  -1.229   0.413  1.00  0.00    -0.330 OA
BRANCH  11  12
HETATM   12  C7  UNL     1       1.367  -1.924   0.361  1.00  0.00     0.204 C 
BRANCH  12  13
HETATM   13  C8  UNL     1       2.396  -1.018  -0.197  1.00  0.00    -0.003 C 
HETATM   14  C9  UNL     1       2.565   0.209  -0.661  1.00  0.00    -0.009 C 
BRANCH  14  15
HETATM   15  C10 UNL     1       3.639   1.075  -1.216  1.00  0.00     0.149 C 
BRANCH  15  16
HETATM   16  N3  UNL     1       4.920   0.418  -1.280  1.00  0.00    -0.358 N 
HETATM   17  C11 UNL     1       5.385   0.019   0.009  1.00  0.00     0.213 C 
HETATM   18  C12 UNL     1       6.694  -0.684   0.171  1.00  0.00     0.117 C 
HETATM   19  O3  UNL     1       4.879   0.141   1.164  1.00  0.00    -0.274 OA
HETATM   20  H12 UNL     1       5.552   0.189  -2.076  1.00  0.00     0.162 HD
ENDBRANCH  15  16
ENDBRANCH  14  15
ENDBRANCH  12  13
ENDBRANCH  11  12
ENDBRANCH   7  11
BRANCH  10  21
HETATM   21  O4  UNL     1      -3.772   0.733   2.666  1.00  0.00    -0.353 OA
HETATM   22  C16 UNL     1      -2.943   0.133   3.648  1.00  0.00     0.210 C 
ENDBRANCH  10  21
BRANCH   1  23
HETATM   23  O1  UNL     1      -5.310   1.860   0.733  1.00  0.00    -0.353 OA
HETATM   24  C1  UNL     1      -6.132   2.456  -0.251  1.00  0.00     0.210 C 
ENDBRANCH   1  23
TORSDOF 7
