REMARK  7 active torsions:
REMARK  status: ('A' for Active; 'I' for Inactive)
REMARK    1  A    between atoms: C2_2  and  C3_3 
REMARK       I    between atoms: C3_3  and  N1_5 
REMARK    2  A    between atoms: N1_5  and  C4_6 
REMARK    3  A    between atoms: C7_9  and  O2_10 
REMARK    4  A    between atoms: O2_10  and  C8_11 
REMARK    5  A    between atoms: C8_11  and  B1_12 
REMARK    6  A    between atoms: C12_18  and  O3_19 
REMARK    7  A    between atoms: C14_21  and  O4_22 
ROOT
HETATM    1  B1  UNL     1      -2.277  -1.819  -0.506  1.00  0.00     0.356 B 
HETATM    2  N2  UNL     1      -2.220  -2.694  -1.740  1.00  0.00    -0.344 NA
HETATM    3  C9  UNL     1      -3.177  -2.594  -2.592  1.00  0.00     0.208 C 
HETATM    4  N3  UNL     1      -4.275  -1.716  -2.404  1.00  0.00    -0.248 NA
HETATM    5  C10 UNL     1      -4.457  -0.958  -1.379  1.00  0.00     0.039 C 
HETATM    6  C11 UNL     1      -5.628  -0.093  -1.372  1.00  0.00     0.066 C 
HETATM    7  C12 UNL     1      -5.588   0.784  -0.362  1.00  0.00     0.102 C 
HETATM    8  C14 UNL     1      -4.615   0.890   0.696  1.00  0.00     0.095 C 
HETATM    9  C15 UNL     1      -3.618   0.006   0.775  1.00  0.00     0.016 C 
HETATM   10  C16 UNL     1      -3.594  -1.055  -0.208  1.00  0.00     0.052 C 
ENDROOT
BRANCH   1  11
HETATM   11  C8  UNL     1      -0.937  -1.252   0.175  1.00  0.00     0.154 C 
BRANCH  11  12
HETATM   12  O2  UNL     1       0.197  -1.848  -0.379  1.00  0.00    -0.358 OA
BRANCH  12  13
HETATM   13  C7  UNL     1       1.491  -1.587  -0.022  1.00  0.00     0.067 A 
HETATM   14  C6  UNL     1       1.647  -0.652   0.969  1.00  0.00     0.039 A 
HETATM   15  C5  UNL     1       2.932  -0.316   1.403  1.00  0.00     0.032 A 
HETATM   16  C4  UNL     1       3.995  -0.973   0.780  1.00  0.00     0.034 A 
HETATM   17  C18 UNL     1       3.835  -1.921  -0.224  1.00  0.00     0.032 A 
HETATM   18  C17 UNL     1       2.531  -2.225  -0.626  1.00  0.00     0.039 A 
BRANCH  16  19
HETATM   19  N1  UNL     1       5.287  -0.572   1.284  1.00  0.00    -0.327 N 
HETATM   20  C3  UNL     1       5.772   0.538   0.519  1.00  0.00     0.221 C 
HETATM   21  O1  UNL     1       4.930   0.842  -0.373  1.00  0.00    -0.273 OA
HETATM   22  H6  UNL     1       5.860  -0.973   2.085  1.00  0.00     0.169 HD
BRANCH  20  23
HETATM   23  C2  UNL     1       7.092   1.165   0.818  1.00  0.00     0.098 C 
HETATM   24  C1  UNL     1       7.331   2.289  -0.135  1.00  0.00     0.014 C 
ENDBRANCH  20  23
ENDBRANCH  16  19
ENDBRANCH  12  13
ENDBRANCH  11  12
ENDBRANCH   1  11
BRANCH   8  25
HETATM   25  O4  UNL     1      -4.620   1.866   1.682  1.00  0.00    -0.358 OA
HETATM   26  H16 UNL     1      -5.231   1.808   2.474  1.00  0.00     0.217 HD
ENDBRANCH   8  25
BRANCH   7  27
HETATM   27  O3  UNL     1      -6.620   1.730  -0.221  1.00  0.00    -0.353 OA
HETATM   28  C13 UNL     1      -6.449   3.106  -0.452  1.00  0.00     0.210 C 
ENDBRANCH   7  27
TORSDOF 7
