REMARK  2 active torsions:
REMARK  status: ('A' for Active; 'I' for Inactive)
REMARK    1  A    between atoms: O1_2  and  C2_3 
REMARK    2  A    between atoms: C11_16  and  N3_17 
REMARK       I    between atoms: N3_17  and  C12_18 
ROOT
HETATM    1  C2  UNL     1       0.969  -1.416   2.917  1.00  0.00     0.081 C 
HETATM    2  C3  UNL     1       1.547  -1.083   1.734  1.00  0.00     0.051 C 
HETATM    3  C4  UNL     1       1.345   0.280   1.374  1.00  0.00     0.019 A 
HETATM    4  C5  UNL     1       1.616   1.347   0.581  1.00  0.00     0.051 A 
HETATM    5  N1  UNL     1       1.275   2.642   0.706  1.00  0.00    -0.245 NA
HETATM    6  C6  UNL     1       0.518   3.068   1.778  1.00  0.00     0.233 A 
HETATM    7  N2  UNL     1       0.150   2.096   2.671  1.00  0.00    -0.242 NA
HETATM    8  C7  UNL     1       0.590   0.831   2.380  1.00  0.00     0.083 A 
HETATM    9  C8  UNL     1      -0.000  -0.289   3.078  1.00  0.00     0.233 C 
HETATM   10  O2  UNL     1      -1.157  -0.776   2.482  1.00  0.00    -0.349 OA
HETATM   11  C9  UNL     1      -1.405  -0.650   1.193  1.00  0.00     0.339 C 
HETATM   12  O3  UNL     1      -1.521   0.621   0.641  1.00  0.00    -0.365 OA
HETATM   13  C10 UNL     1      -1.805   0.586  -0.685  1.00  0.00     0.199 C 
HETATM   14  C11 UNL     1      -0.864   0.137  -1.722  1.00  0.00     0.131 C 
HETATM   15  C14 UNL     1       0.072   1.262  -2.152  1.00  0.00    -0.003 C 
HETATM   16  C15 UNL     1       1.295   1.592  -1.783  1.00  0.00    -0.022 C 
HETATM   17  C16 UNL     1       2.202   0.920  -0.764  1.00  0.00     0.087 C 
ENDROOT
BRANCH  14  18
HETATM   18  N3  UNL     1      -1.675   0.001  -2.989  1.00  0.00    -0.351 N 
HETATM   19  C12 UNL     1      -1.753  -1.182  -3.816  1.00  0.00     0.214 C 
HETATM   20  C13 UNL     1      -2.646  -1.083  -5.002  1.00  0.00     0.117 C 
HETATM   21  O4  UNL     1      -1.010  -2.005  -3.277  1.00  0.00    -0.274 OA
HETATM   22  H12 UNL     1      -2.172   0.922  -3.185  1.00  0.00     0.163 HD
ENDBRANCH  14  18
BRANCH   1  23
HETATM   23  O1  UNL     1       1.616  -2.599   3.267  1.00  0.00    -0.357 OA
HETATM   24  C1  UNL     1       2.466  -2.535   4.407  1.00  0.00     0.209 C 
ENDBRANCH   1  23
TORSDOF 2
