REMARK  7 active torsions:
REMARK  status: ('A' for Active; 'I' for Inactive)
REMARK    1  A    between atoms: C2_2  and  C14_20 
REMARK    2  A    between atoms: C3_3  and  C4_4 
REMARK    3  A    between atoms: C7_9  and  O1_10 
REMARK    4  A    between atoms: O1_10  and  C8_11 
REMARK    5  A    between atoms: C11_14  and  N3_15 
REMARK    6  A    between atoms: N3_15  and  P1_16 
REMARK    7  A    between atoms: P1_16  and  O2_17 
ROOT
HETATM    1  C4  UNL     1      -1.555  -1.984   0.247  1.00  0.00     0.035 A 
HETATM    2  C5  UNL     1      -2.808  -2.385   0.608  1.00  0.00     0.134 A 
HETATM    3  N1  UNL     1      -3.216  -3.563   0.122  1.00  0.00    -0.253 NA
HETATM    4  C6  UNL     1      -2.430  -4.304  -0.677  1.00  0.00     0.235 A 
HETATM    5  N2  UNL     1      -1.199  -3.886  -1.016  1.00  0.00    -0.217 NA
HETATM    6  C7  UNL     1      -0.707  -2.695  -0.562  1.00  0.00     0.182 A 
ENDROOT
BRANCH   6   7
HETATM    7  O1  UNL     1       0.542  -2.549  -1.069  1.00  0.00    -0.291 OA
BRANCH   7   8
HETATM    8  C8  UNL     1       1.374  -1.505  -0.840  1.00  0.00     0.078 A 
HETATM    9  C9  UNL     1       1.160  -0.388  -1.648  1.00  0.00     0.039 A 
HETATM   10  C10 UNL     1       1.869   0.795  -1.615  1.00  0.00     0.032 A 
HETATM   11  C11 UNL     1       2.883   0.873  -0.694  1.00  0.00     0.033 A 
HETATM   12  C12 UNL     1       3.166  -0.182   0.146  1.00  0.00     0.032 A 
HETATM   13  C13 UNL     1       2.425  -1.339   0.069  1.00  0.00     0.039 A 
BRANCH  11  14
HETATM   14  N3  UNL     1       3.657   2.059  -0.606  1.00  0.00    -0.345 N 
HETATM   15  H9  UNL     1       3.457   2.882  -1.249  1.00  0.00     0.166 HD
BRANCH  14  16
HETATM   16  P1  UNL     1       5.010   2.608   0.385  1.00  0.00     0.113 P 
HETATM   17  H10 UNL     1       4.832   3.876   1.023  1.00  0.00     0.111 HD
BRANCH  16  18
HETATM   18  O2  UNL     1       5.759   1.401   1.338  1.00  0.00    -0.356 OA
HETATM   19  H11 UNL     1       6.007   1.837   2.207  1.00  0.00     0.216 HD
ENDBRANCH  16  18
ENDBRANCH  14  16
ENDBRANCH  11  14
ENDBRANCH   7   8
ENDBRANCH   6   7
BRANCH   1  20
HETATM   20  C3  UNL     1      -1.078  -0.697   0.722  1.00  0.00     0.027 C 
HETATM   21  C2  UNL     1      -1.430   0.596   0.812  1.00  0.00    -0.028 C 
HETATM   22  C1  UNL     1      -0.548   1.651   1.434  1.00  0.00     0.051 C 
BRANCH  21  23
HETATM   23  C14 UNL     1      -2.685   1.191   0.302  1.00  0.00     0.073 A 
HETATM   24  C15 UNL     1      -3.696   0.636  -0.324  1.00  0.00     0.037 A 
HETATM   25  C16 UNL     1      -4.425   1.900  -0.428  1.00  0.00     0.206 A 
HETATM   26  O3  UNL     1      -3.318   2.406   0.237  1.00  0.00    -0.347 OA
ENDBRANCH  21  23
ENDBRANCH   1  20
TORSDOF 7
