REMARK  3 active torsions:
REMARK  status: ('A' for Active; 'I' for Inactive)
REMARK    1  A    between atoms: N1_8  and  C8_9 
REMARK    2  A    between atoms: C13_17  and  C14_18 
REMARK    3  A    between atoms: C14_18  and  O1_21 
ROOT
HETATM    1  C8  UNL     1      -1.980  -0.653   1.621  1.00  0.00     0.166 A 
HETATM    2  N2  UNL     1      -2.442  -1.609   2.480  1.00  0.00    -0.221 NA
HETATM    3  C9  UNL     1      -1.552  -2.427   3.116  1.00  0.00     0.238 A 
HETATM    4  N3  UNL     1      -0.215  -2.389   2.978  1.00  0.00    -0.216 NA
HETATM    5  C10 UNL     1       0.274  -1.442   2.124  1.00  0.00     0.196 A 
HETATM    6  C11 UNL     1      -0.608  -0.581   1.450  1.00  0.00     0.128 A 
HETATM    7  N4  UNL     1      -0.256   0.467   0.516  1.00  0.00    -0.383 N 
HETATM    8  C12 UNL     1       0.957   0.425  -0.282  1.00  0.00     0.133 C 
HETATM    9  C13 UNL     1       2.232   0.444   0.440  1.00  0.00     0.084 C 
HETATM   10  C18 UNL     1       2.422  -0.258   1.702  1.00  0.00     0.190 C 
HETATM   11  O2  UNL     1       1.680  -1.403   1.981  1.00  0.00    -0.332 OA
HETATM   12  H10 UNL     1      -0.957   1.269   0.460  1.00  0.00     0.160 HD
ENDROOT
BRANCH   1  13
HETATM   13  N1  UNL     1      -2.814   0.251   0.907  1.00  0.00    -0.308 N 
HETATM   14  C2  UNL     1      -3.243  -0.211  -0.375  1.00  0.00     0.024 A 
HETATM   15  C1  UNL     1      -2.926  -1.380  -0.915  1.00  0.00     0.064 C 
HETATM   16  C3  UNL     1      -4.104   0.623  -1.210  1.00  0.00    -0.039 A 
HETATM   17  C4  UNL     1      -4.583   0.191  -2.556  1.00  0.00     0.050 C 
HETATM   18  C5  UNL     1      -4.459   1.813  -0.722  1.00  0.00     0.010 A 
HETATM   19  C6  UNL     1      -4.009   2.267   0.591  1.00  0.00     0.018 A 
HETATM   20  C7  UNL     1      -3.227   1.541   1.382  1.00  0.00     0.099 A 
ENDBRANCH   1  13
BRANCH   9  21
HETATM   21  C14 UNL     1       3.269  -0.055  -0.538  1.00  0.00     0.049 C 
HETATM   22  C15 UNL     1       4.255  -0.925  -0.531  1.00  0.00     0.002 C 
HETATM   23  C16 UNL     1       5.216  -1.323  -1.590  1.00  0.00     0.038 C 
BRANCH  21  24
HETATM   24  O1  UNL     1       3.190   0.543  -1.786  1.00  0.00    -0.360 OA
HETATM   25  C17 UNL     1       3.826   1.781  -2.046  1.00  0.00     0.209 C 
ENDBRANCH  21  24
ENDBRANCH   9  21
TORSDOF 3
