REMARK  11 active torsions:
REMARK  status: ('A' for Active; 'I' for Inactive)
REMARK    1  A    between atoms: C2_2  and  C3_3 
REMARK       I    between atoms: C3_3  and  N1_5 
REMARK    2  A    between atoms: N1_5  and  C4_6 
REMARK    3  A    between atoms: C7_9  and  O2_10 
REMARK    4  A    between atoms: O2_10  and  C8_11 
REMARK    5  A    between atoms: C8_11  and  C9_12 
REMARK    6  A    between atoms: C9_12  and  C10_13 
REMARK    7  A    between atoms: C10_13  and  C11_14 
REMARK    8  A    between atoms: C11_14  and  C12_15 
REMARK    9  A    between atoms: C13_16  and  C14_17 
REMARK   10  A    between atoms: C13_16  and  O4_19 
REMARK   11  A    between atoms: C14_17  and  O3_18 
ROOT
HETATM    1  C4  UNL     1       4.020   0.862  -0.483  1.00  0.00     0.034 A 
HETATM    2  C5  UNL     1       2.960   0.247   0.129  1.00  0.00     0.032 A 
HETATM    3  C6  UNL     1       1.653   0.567  -0.118  1.00  0.00     0.039 A 
HETATM    4  C7  UNL     1       1.311   1.548  -1.019  1.00  0.00     0.068 A 
HETATM    5  C16 UNL     1       2.388   2.186  -1.653  1.00  0.00     0.039 A 
HETATM    6  C17 UNL     1       3.716   1.848  -1.389  1.00  0.00     0.032 A 
ENDROOT
BRANCH   4   7
HETATM    7  O2  UNL     1       0.145   2.064  -1.458  1.00  0.00    -0.351 OA
BRANCH   7   8
HETATM    8  C8  UNL     1      -1.174   1.783  -1.170  1.00  0.00     0.175 C 
BRANCH   8   9
HETATM    9  C9  UNL     1      -1.578   0.399  -1.531  1.00  0.00     0.027 C 
BRANCH   9  10
HETATM   10  C10 UNL     1      -3.037   0.105  -1.213  1.00  0.00     0.006 C 
BRANCH  10  11
HETATM   11  C11 UNL     1      -3.357   0.263   0.257  1.00  0.00     0.030 C 
BRANCH  11  12
HETATM   12  C12 UNL     1      -4.772  -0.041   0.461  1.00  0.00     0.008 C 
HETATM   13  C13 UNL     1      -5.453  -0.916   1.172  1.00  0.00     0.065 C 
BRANCH  13  14
HETATM   14  C14 UNL     1      -5.026  -1.990   2.095  1.00  0.00     0.228 C 
BRANCH  14  15
HETATM   15  O3  UNL     1      -3.657  -2.028   2.178  1.00  0.00    -0.394 OA
HETATM   16  H20 UNL     1      -3.290  -2.773   2.681  1.00  0.00     0.209 HD
ENDBRANCH  14  15
ENDBRANCH  13  14
BRANCH  13  17
HETATM   17  O4  UNL     1      -6.837  -0.928   1.131  1.00  0.00    -0.358 OA
HETATM   18  C15 UNL     1      -7.608  -0.159   0.248  1.00  0.00     0.209 C 
ENDBRANCH  13  17
ENDBRANCH  11  12
ENDBRANCH  10  11
ENDBRANCH   9  10
ENDBRANCH   8   9
ENDBRANCH   7   8
ENDBRANCH   4   7
BRANCH   1  19
HETATM   19  N1  UNL     1       5.380   0.553  -0.253  1.00  0.00    -0.327 N 
HETATM   20  C3  UNL     1       5.941  -0.403   0.601  1.00  0.00     0.221 C 
HETATM   21  O1  UNL     1       5.223  -1.140   1.303  1.00  0.00    -0.273 OA
HETATM   22  H6  UNL     1       6.130   1.074  -0.757  1.00  0.00     0.169 HD
BRANCH  20  23
HETATM   23  C2  UNL     1       7.374  -0.667   0.788  1.00  0.00     0.098 C 
HETATM   24  C1  UNL     1       7.632  -1.772   1.778  1.00  0.00     0.014 C 
ENDBRANCH  20  23
ENDBRANCH   1  19
TORSDOF 11
