REMARK  5 active torsions:
REMARK  status: ('A' for Active; 'I' for Inactive)
REMARK    1  A    between atoms: O1_2  and  C2_3 
REMARK    2  A    between atoms: C4_5  and  O2_6 
REMARK    3  A    between atoms: O2_6  and  C5_7 
REMARK    4  A    between atoms: C8_10  and  N1_11 
REMARK       I    between atoms: N1_11  and  C9_12 
REMARK    5  A    between atoms: C15_21  and  O4_23 
ROOT
HETATM    1  C2  UNL     1      -3.360  -0.650   0.426  1.00  0.00     0.101 C 
HETATM    2  C3  UNL     1      -2.092  -0.970   0.413  1.00  0.00     0.048 C 
HETATM    3  C4  UNL     1      -0.790  -0.702  -0.130  1.00  0.00     0.194 C 
HETATM    4  C13 UNL     1      -0.531   0.541  -0.829  1.00  0.00     0.127 C 
HETATM    5  N2  UNL     1      -1.070   1.669  -1.144  1.00  0.00    -0.256 NA
HETATM    6  C14 UNL     1      -2.387   2.171  -0.839  1.00  0.00     0.230 C 
HETATM    7  N3  UNL     1      -3.512   1.625  -0.521  1.00  0.00    -0.238 NA
HETATM    8  C15 UNL     1      -4.107   0.358  -0.296  1.00  0.00     0.201 C 
HETATM    9  C16 UNL     1      -5.382   0.621   0.519  1.00  0.00     0.081 C 
ENDROOT
BRANCH   3  10
HETATM   10  O2  UNL     1       0.287  -0.849   0.810  1.00  0.00    -0.341 OA
BRANCH  10  11
HETATM   11  C5  UNL     1       1.605  -0.645   0.517  1.00  0.00     0.048 C 
HETATM   12  C6  UNL     1       2.104   0.539   0.876  1.00  0.00     0.012 C 
HETATM   13  C7  UNL     1       3.497   1.018   0.679  1.00  0.00     0.086 C 
HETATM   14  C8  UNL     1       4.079   0.195  -0.415  1.00  0.00     0.012 C 
HETATM   15  C11 UNL     1       3.596  -0.987  -0.765  1.00  0.00     0.005 C 
HETATM   16  C12 UNL     1       2.429  -1.698  -0.165  1.00  0.00     0.093 C 
BRANCH  14  17
HETATM   17  N1  UNL     1       5.210   0.719  -1.107  1.00  0.00    -0.331 N 
HETATM   18  C9  UNL     1       6.428   1.023  -0.421  1.00  0.00     0.217 C 
HETATM   19  C10 UNL     1       7.596   1.571  -1.176  1.00  0.00     0.117 C 
HETATM   20  O3  UNL     1       6.565   0.842   0.832  1.00  0.00    -0.274 OA
HETATM   21  H9  UNL     1       5.185   0.901  -2.149  1.00  0.00     0.168 HD
ENDBRANCH  14  17
ENDBRANCH  10  11
ENDBRANCH   3  10
BRANCH   1  22
HETATM   22  O1  UNL     1      -4.134  -1.432   1.303  1.00  0.00    -0.355 OA
HETATM   23  C1  UNL     1      -3.897  -1.358   2.695  1.00  0.00     0.209 C 
ENDBRANCH   1  22
BRANCH   8  24
HETATM   24  O4  UNL     1      -4.451  -0.145  -1.566  1.00  0.00    -0.358 OA
HETATM   25  C17 UNL     1      -5.230  -1.286  -1.477  1.00  0.00     0.205 C 
ENDBRANCH   8  24
TORSDOF 5
