REMARK  9 active torsions:
REMARK  status: ('A' for Active; 'I' for Inactive)
REMARK    1  A    between atoms: O1_2  and  C2_3 
REMARK    2  A    between atoms: C2_3  and  C3_4 
REMARK    3  A    between atoms: C3_4  and  C4_5 
REMARK    4  A    between atoms: C5_6  and  C6_7 
REMARK    5  A    between atoms: C6_7  and  O2_8 
REMARK    6  A    between atoms: C9_13  and  N2_14 
REMARK    7  A    between atoms: N2_14  and  C10_15 
REMARK    8  A    between atoms: C13_18  and  N3_19 
REMARK       I    between atoms: N3_19  and  C14_20 
REMARK    9  A    between atoms: C14_20  and  O4_22 
ROOT
HETATM    1  N2  UNL     1      -0.388  -0.525  -0.495  1.00  0.00    -0.390 N 
HETATM    2  H14 UNL     1      -0.619  -1.479  -0.849  1.00  0.00     0.159 HD
ENDROOT
BRANCH   1   3
HETATM    3  C9  UNL     1      -1.299   0.548  -0.155  1.00  0.00     0.068 C 
HETATM    4  C4  UNL     1      -2.700   0.028  -0.364  1.00  0.00    -0.042 C 
HETATM    5  C5  UNL     1      -3.643   0.959  -1.114  1.00  0.00     0.160 C 
HETATM    6  N1  UNL     1      -3.297   1.078  -2.497  1.00  0.00    -0.294 NA
HETATM    7  C8  UNL     1      -2.118   1.096  -2.946  1.00  0.00    -0.009 C 
HETATM    8  B1  UNL     1      -1.104   1.895  -1.296  1.00  0.00     0.244 B 
BRANCH   4   9
HETATM    9  C3  UNL     1      -2.895  -1.209   0.151  1.00  0.00     0.005 C 
BRANCH   9  10
HETATM   10  C2  UNL     1      -2.772  -2.513   0.804  1.00  0.00     0.194 C 
BRANCH  10  11
HETATM   11  O1  UNL     1      -1.549  -2.787   1.352  1.00  0.00    -0.392 OA
HETATM   12  C1  UNL     1      -1.193  -1.984   2.408  1.00  0.00     0.201 C 
ENDBRANCH  10  11
ENDBRANCH   9  10
ENDBRANCH   4   9
BRANCH   5  13
HETATM   13  C6  UNL     1      -5.059   0.517  -0.961  1.00  0.00     0.198 C 
BRANCH  13  14
HETATM   14  O2  UNL     1      -5.949   1.401  -1.460  1.00  0.00    -0.394 OA
HETATM   15  C7  UNL     1      -5.919   1.735  -2.765  1.00  0.00     0.201 C 
ENDBRANCH  13  14
ENDBRANCH   5  13
ENDBRANCH   1   3
BRANCH   1  16
HETATM   16  C10 UNL     1       1.027  -0.290  -0.346  1.00  0.00     0.027 A 
HETATM   17  C11 UNL     1       2.006  -1.247  -0.643  1.00  0.00     0.031 A 
HETATM   18  C12 UNL     1       3.342  -0.953  -0.476  1.00  0.00     0.032 A 
HETATM   19  C13 UNL     1       3.760   0.279  -0.017  1.00  0.00     0.036 A 
HETATM   20  C16 UNL     1       2.812   1.227   0.278  1.00  0.00     0.032 A 
HETATM   21  C17 UNL     1       1.496   0.943   0.116  1.00  0.00     0.031 A 
BRANCH  19  22
HETATM   22  N3  UNL     1       5.169   0.381   0.085  1.00  0.00    -0.303 N 
HETATM   23  C14 UNL     1       5.930   0.047   1.242  1.00  0.00     0.364 C 
HETATM   24  O3  UNL     1       5.452  -0.380   2.319  1.00  0.00    -0.238 OA
HETATM   25  H17 UNL     1       5.557   0.731  -0.801  1.00  0.00     0.171 HD
BRANCH  23  26
HETATM   26  O4  UNL     1       7.289   0.240   1.071  1.00  0.00    -0.309 OA
HETATM   27  C15 UNL     1       8.260  -0.016   2.066  1.00  0.00     0.215 C 
ENDBRANCH  23  26
ENDBRANCH  19  22
ENDBRANCH   1  16
TORSDOF 9
