REMARK  5 active torsions:
REMARK  status: ('A' for Active; 'I' for Inactive)
REMARK    1  A    between atoms: O1_2  and  C2_3 
REMARK    2  A    between atoms: C6_9  and  O2_10 
REMARK    3  A    between atoms: O2_10  and  C7_11 
REMARK    4  A    between atoms: C10_14  and  N3_15 
REMARK       I    between atoms: N3_15  and  C11_16 
REMARK    5  A    between atoms: C18_24  and  O4_25 
ROOT
HETATM    1  C2  UNL     1      -5.241  -0.130  -0.530  1.00  0.00     0.103 A 
HETATM    2  C3  UNL     1      -4.845  -0.138   0.782  1.00  0.00     0.072 A 
HETATM    3  C4  UNL     1      -3.502  -0.049   1.080  1.00  0.00     0.075 A 
HETATM    4  N1  UNL     1      -3.090  -0.056   2.378  1.00  0.00    -0.241 NA
HETATM    5  C5  UNL     1      -1.787   0.030   2.697  1.00  0.00     0.236 A 
HETATM    6  N2  UNL     1      -0.804   0.127   1.760  1.00  0.00    -0.217 NA
HETATM    7  C6  UNL     1      -1.162   0.138   0.443  1.00  0.00     0.183 A 
HETATM    8  C16 UNL     1      -2.509   0.049   0.129  1.00  0.00     0.049 A 
HETATM    9  C17 UNL     1      -2.975   0.052  -1.176  1.00  0.00     0.057 A 
HETATM   10  C18 UNL     1      -4.296  -0.034  -1.533  1.00  0.00     0.100 A 
ENDROOT
BRANCH   7  11
HETATM   11  O2  UNL     1      -0.327   0.228  -0.652  1.00  0.00    -0.295 OA
BRANCH  11  12
HETATM   12  C7  UNL     1       1.048   0.322  -0.441  1.00  0.00     0.059 C 
HETATM   13  C8  UNL     1       1.561  -0.881  -0.256  1.00  0.00     0.035 C 
HETATM   14  C9  UNL     1       2.976  -1.132  -0.009  1.00  0.00     0.032 C 
HETATM   15  C10 UNL     1       4.016  -0.364  -0.349  1.00  0.00     0.034 C 
HETATM   16  C13 UNL     1       3.953   0.928  -1.061  1.00  0.00     0.026 C 
HETATM   17  C14 UNL     1       2.908   1.720  -1.067  1.00  0.00    -0.018 C 
HETATM   18  C15 UNL     1       1.545   1.721  -0.483  1.00  0.00     0.092 C 
BRANCH  15  19
HETATM   19  N3  UNL     1       5.315  -0.810  -0.004  1.00  0.00    -0.328 N 
HETATM   20  C11 UNL     1       6.324  -0.201   0.826  1.00  0.00     0.218 C 
HETATM   21  C12 UNL     1       7.585  -1.002   0.946  1.00  0.00     0.117 C 
HETATM   22  O3  UNL     1       5.980   0.913   1.319  1.00  0.00    -0.274 OA
HETATM   23  H8  UNL     1       5.446  -1.721  -0.477  1.00  0.00     0.169 HD
ENDBRANCH  15  19
ENDBRANCH  11  12
ENDBRANCH   7  11
BRANCH  10  24
HETATM   24  O4  UNL     1      -4.640  -0.021  -2.890  1.00  0.00    -0.358 OA
HETATM   25  H17 UNL     1      -4.699   0.907  -3.314  1.00  0.00     0.217 HD
ENDBRANCH  10  24
BRANCH   1  26
HETATM   26  O1  UNL     1      -6.562  -0.214  -0.943  1.00  0.00    -0.353 OA
HETATM   27  C1  UNL     1      -7.580  -0.315   0.013  1.00  0.00     0.210 C 
ENDBRANCH   1  26
TORSDOF 5
