REMARK  1 active torsions:
REMARK  status: ('A' for Active; 'I' for Inactive)
REMARK    1  A    between atoms: O1_2  and  C2_3 
ROOT
HETATM    1  C2  UNL     1      -3.265   0.083  -0.736  1.00  0.00     0.378 A 
HETATM    2  N1  UNL     1      -3.433  -1.373  -0.593  1.00  0.00     0.094 N 
HETATM    3  C3  UNL     1      -4.527  -1.875  -0.831  1.00  0.00     0.372 A 
HETATM    4  N2  UNL     1      -3.170  -2.059  -0.424  1.00  0.00    -0.042 NA
HETATM    5  C4  UNL     1      -2.306  -1.158  -0.326  1.00  0.00     0.301 A 
HETATM    6  N3  UNL     1      -1.267  -2.014   0.114  1.00  0.00    -0.373 N 
HETATM    7  C5  UNL     1      -0.225  -2.946  -0.175  1.00  0.00     0.145 C 
HETATM    8  C6  UNL     1       0.403  -3.356   1.153  1.00  0.00    -0.011 C 
HETATM    9  C7  UNL     1       1.570  -2.684   1.300  1.00  0.00    -0.023 C 
HETATM   10  C8  UNL     1       2.573  -1.740   0.834  1.00  0.00     0.020 C 
HETATM   11  C9  UNL     1       2.994  -0.886  -0.119  1.00  0.00    -0.002 C 
HETATM   12  C10 UNL     1       4.287  -0.264   0.308  1.00  0.00     0.006 C 
HETATM   13  C11 UNL     1       3.998   1.270   0.344  1.00  0.00     0.004 C 
HETATM   14  C12 UNL     1       2.819   1.411   1.308  1.00  0.00     0.029 C 
HETATM   15  C13 UNL     1       2.277   2.767   1.389  1.00  0.00    -0.003 C 
HETATM   16  C14 UNL     1       1.062   3.274   1.075  1.00  0.00     0.130 C 
HETATM   17  O2  UNL     1      -0.230   2.963   0.574  1.00  0.00    -0.363 OA
HETATM   18  C15 UNL     1      -0.316   2.009  -0.474  1.00  0.00     0.180 C 
HETATM   19  C16 UNL     1      -1.673   1.510  -0.650  1.00  0.00     0.080 C 
HETATM   20  C17 UNL     1      -1.803   0.263  -0.466  1.00  0.00     0.077 A 
HETATM   21  H6  UNL     1      -1.328  -1.797   1.172  1.00  0.00     0.157 HD
ENDROOT
BRANCH   1  22
HETATM   22  O1  UNL     1      -3.577   0.500  -2.004  1.00  0.00    -0.361 OA
HETATM   23  C1  UNL     1      -4.588   1.456  -2.036  1.00  0.00     0.204 C 
ENDBRANCH   1  22
TORSDOF 1
