REMARK  3 active torsions:
REMARK  status: ('A' for Active; 'I' for Inactive)
REMARK    1  A    between atoms: O1_2  and  C2_3 
REMARK       I    between atoms: C2_3  and  N1_5 
REMARK    2  A    between atoms: N1_5  and  C3_6 
REMARK    3  A    between atoms: C6_10  and  O3_11 
ROOT
HETATM    1  C3  UNL     1       1.527  -0.015  -0.155  1.00  0.00     0.017 C 
HETATM    2  C4  UNL     1       0.778   0.727   0.393  1.00  0.00     0.024 C 
HETATM    3  C5  UNL     1      -0.207   1.581   1.070  1.00  0.00     0.166 C 
HETATM    4 CL1  UNL     1       0.107   3.256   0.406  1.00  0.00    -0.116 Cl
HETATM    5  C6  UNL     1      -1.648   1.220   0.992  1.00  0.00     0.193 C 
HETATM    6  C8  UNL     1      -2.234   1.542  -0.437  1.00  0.00     0.239 C 
HETATM    7  O4  UNL     1      -1.568   0.683  -1.398  1.00  0.00    -0.358 OA
HETATM    8  C9  UNL     1      -2.406   0.471  -2.588  1.00  0.00     0.131 C 
HETATM    9  C10 UNL     1      -2.624  -0.735  -2.102  1.00  0.00     0.004 C 
HETATM   10  C11 UNL     1      -2.817  -2.049  -1.500  1.00  0.00     0.101 C 
HETATM   11  C12 UNL     1      -1.859  -2.279  -0.350  1.00  0.00     0.083 C 
HETATM   12  N2  UNL     1      -2.328  -1.410   0.507  1.00  0.00    -0.138 NA
HETATM   13  C13 UNL     1      -1.832  -1.150   1.799  1.00  0.00     0.199 A 
HETATM   14  N3  UNL     1      -1.880  -0.154   1.097  1.00  0.00    -0.260 N 
HETATM   15  N4  UNL     1      -0.863  -3.298  -0.696  1.00  0.00    -0.382 N 
HETATM   16  C14 UNL     1       0.448  -3.401  -0.083  1.00  0.00     0.126 C 
HETATM   17  C15 UNL     1       1.268  -2.164  -0.355  1.00  0.00     0.020 C 
HETATM   18  C16 UNL     1       2.156  -1.160  -0.703  1.00  0.00     0.052 C 
HETATM   19  H17 UNL     1      -1.141  -3.997  -1.417  1.00  0.00     0.160 HD
ENDROOT
BRANCH   1  20
HETATM   20  N1  UNL     1       2.603   0.865  -0.271  1.00  0.00    -0.306 N 
HETATM   21  C2  UNL     1       3.898   0.655   0.355  1.00  0.00     0.364 C 
HETATM   22  O2  UNL     1       4.308  -0.296   1.075  1.00  0.00    -0.238 OA
HETATM   23  H4  UNL     1       2.768   1.803  -0.750  1.00  0.00     0.171 HD
BRANCH  21  24
HETATM   24  O1  UNL     1       5.060   1.430   0.347  1.00  0.00    -0.309 OA
HETATM   25  C1  UNL     1       6.162   0.907   1.111  1.00  0.00     0.215 C 
ENDBRANCH  21  24
ENDBRANCH   1  20
BRANCH   5  26
HETATM   26  O3  UNL     1      -2.439   1.951   1.894  1.00  0.00    -0.360 OA
HETATM   27  C7  UNL     1      -2.485   3.293   1.761  1.00  0.00     0.205 C 
ENDBRANCH   5  26
TORSDOF 3
