REMARK  6 active torsions:
REMARK  status: ('A' for Active; 'I' for Inactive)
REMARK    1  A    between atoms: O1_2  and  C2_3 
REMARK       I    between atoms: C2_3  and  N1_5 
REMARK    2  A    between atoms: N1_5  and  C3_6 
REMARK    3  A    between atoms: C5_9  and  N2_10 
REMARK    4  A    between atoms: N2_10  and  C6_11 
REMARK    5  A    between atoms: C10_17  and  O3_18 
REMARK    6  A    between atoms: C12_20  and  O4_21 
ROOT
HETATM    1  C6  UNL     1      -0.779  -0.295  -1.790  1.00  0.00     0.142 A 
HETATM    2  N3  UNL     1      -0.222  -1.334  -2.468  1.00  0.00    -0.224 NA
HETATM    3  C7  UNL     1      -0.876  -2.518  -2.555  1.00  0.00     0.236 A 
HETATM    4  N4  UNL     1      -2.096  -2.680  -1.967  1.00  0.00    -0.241 NA
HETATM    5  C8  UNL     1      -2.649  -1.655  -1.298  1.00  0.00     0.075 A 
HETATM    6  C9  UNL     1      -3.864  -1.732  -0.689  1.00  0.00     0.072 A 
HETATM    7  C10 UNL     1      -4.501  -0.714   0.013  1.00  0.00     0.103 A 
HETATM    8  C12 UNL     1      -3.796   0.498   0.081  1.00  0.00     0.102 A 
HETATM    9  C14 UNL     1      -2.555   0.620  -0.523  1.00  0.00     0.057 A 
HETATM   10  C15 UNL     1      -2.009  -0.450  -1.195  1.00  0.00     0.042 A 
ENDROOT
BRANCH   1  11
HETATM   11  N2  UNL     1       0.021   0.907  -1.745  1.00  0.00    -0.341 N 
HETATM   12  H6  UNL     1      -0.180   1.786  -2.265  1.00  0.00     0.167 HD
BRANCH  11  13
HETATM   13  C5  UNL     1       1.177   0.785  -0.882  1.00  0.00     0.019 C 
HETATM   14  C4  UNL     1       1.535  -0.435  -0.349  1.00  0.00    -0.050 C 
HETATM   15  B1  UNL     1       3.329  -0.764  -0.334  1.00  0.00     0.236 B 
HETATM   16  C3  UNL     1       3.747   1.174   0.877  1.00  0.00    -0.034 C 
HETATM   17  C17 UNL     1       2.993   2.040   0.141  1.00  0.00     0.014 C 
HETATM   18  C16 UNL     1       1.881   1.913  -0.631  1.00  0.00     0.029 C 
BRANCH  16  19
HETATM   19  N1  UNL     1       4.544   0.410   1.706  1.00  0.00    -0.317 N 
HETATM   20  C2  UNL     1       5.911   0.264   1.374  1.00  0.00     0.363 C 
HETATM   21  O2  UNL     1       6.278   0.871   0.313  1.00  0.00    -0.238 OA
HETATM   22  H4  UNL     1       4.143  -0.046   2.554  1.00  0.00     0.170 HD
BRANCH  20  23
HETATM   23  O1  UNL     1       6.803  -0.476   2.127  1.00  0.00    -0.309 OA
HETATM   24  C1  UNL     1       8.167  -0.614   1.772  1.00  0.00     0.215 C 
ENDBRANCH  20  23
ENDBRANCH  16  19
ENDBRANCH  11  13
ENDBRANCH   1  11
BRANCH   8  25
HETATM   25  O4  UNL     1      -4.429   1.500   0.770  1.00  0.00    -0.353 OA
HETATM   26  C13 UNL     1      -3.948   2.794   0.974  1.00  0.00     0.210 C 
ENDBRANCH   8  25
BRANCH   7  27
HETATM   27  O3  UNL     1      -5.728  -0.849   0.613  1.00  0.00    -0.353 OA
HETATM   28  C11 UNL     1      -6.421  -2.074   0.537  1.00  0.00     0.210 C 
ENDBRANCH   7  27
TORSDOF 6
