REMARK  9 active torsions:
REMARK  status: ('A' for Active; 'I' for Inactive)
REMARK    1  A    between atoms: O1_2  and  C2_3 
REMARK       I    between atoms: C2_3  and  N1_5 
REMARK    2  A    between atoms: N1_5  and  C3_6 
REMARK    3  A    between atoms: C6_9  and  N2_10 
REMARK    4  A    between atoms: N2_10  and  N3_11 
REMARK    5  A    between atoms: N3_11  and  C7_12 
REMARK    6  A    between atoms: C7_12  and  N4_13 
REMARK    7  A    between atoms: N4_13  and  C8_14 
REMARK    8  A    between atoms: C11_17  and  O3_18 
REMARK    9  A    between atoms: C13_20  and  O4_21 
ROOT
HETATM    1  N2  UNL     1      -0.595   0.860   1.139  1.00  0.00    -0.268 N 
HETATM    2  H8  UNL     1      -0.514   1.823   0.717  1.00  0.00     0.190 HD
ENDROOT
BRANCH   1   3
HETATM    3  C6  UNL     1      -1.886   0.344   0.839  1.00  0.00     0.065 A 
HETATM    4  C5  UNL     1      -2.271   0.170  -0.556  1.00  0.00     0.032 A 
HETATM    5  C4  UNL     1      -3.477  -0.311  -0.753  1.00  0.00     0.022 A 
HETATM    6  C3  UNL     1      -4.502  -0.702   0.238  1.00  0.00     0.209 A 
HETATM    7  N5  UNL     1      -3.958  -0.465   1.560  1.00  0.00    -0.373 N 
HETATM    8  C16 UNL     1      -2.668   0.050   1.866  1.00  0.00     0.116 A 
HETATM    9  H19 UNL     1      -4.602  -0.708   2.343  1.00  0.00     0.161 HD
BRANCH   6  10
HETATM   10  N1  UNL     1      -5.669   0.170   0.097  1.00  0.00    -0.312 N 
HETATM   11  C2  UNL     1      -6.904  -0.470  -0.122  1.00  0.00     0.361 C 
HETATM   12  O2  UNL     1      -7.026  -1.718  -0.196  1.00  0.00    -0.238 OA
HETATM   13  H4  UNL     1      -5.490   1.196   0.170  1.00  0.00     0.167 HD
BRANCH  11  14
HETATM   14  O1  UNL     1      -8.022   0.321  -0.259  1.00  0.00    -0.309 OA
HETATM   15  C1  UNL     1      -9.283  -0.314  -0.481  1.00  0.00     0.215 C 
ENDBRANCH  11  14
ENDBRANCH   6  10
ENDBRANCH   1   3
BRANCH   1  16
HETATM   16  N3  UNL     1       0.138  -0.088   1.898  1.00  0.00    -0.109 NA
BRANCH  16  17
HETATM   17  C7  UNL     1       0.994  -0.748   1.194  1.00  0.00     0.121 C 
BRANCH  17  18
HETATM   18  N4  UNL     1       2.018  -1.242   0.597  1.00  0.00    -0.186 NA
BRANCH  18  19
HETATM   19  C8  UNL     1       3.144  -0.389   0.304  1.00  0.00     0.071 A 
HETATM   20  C9  UNL     1       3.139   0.970   0.063  1.00  0.00     0.035 A 
HETATM   21  C10 UNL     1       4.347   1.586  -0.199  1.00  0.00     0.042 A 
HETATM   22  C11 UNL     1       5.526   0.867  -0.219  1.00  0.00     0.101 A 
HETATM   23  C13 UNL     1       5.553  -0.488   0.019  1.00  0.00     0.103 A 
HETATM   24  C15 UNL     1       4.341  -1.100   0.280  1.00  0.00     0.072 A 
BRANCH  22  25
HETATM   25  O3  UNL     1       6.731   1.506  -0.484  1.00  0.00    -0.353 OA
HETATM   26  C12 UNL     1       6.888   2.866  -0.746  1.00  0.00     0.210 C 
ENDBRANCH  22  25
BRANCH  23  27
HETATM   27  O4  UNL     1       6.766  -1.163  -0.013  1.00  0.00    -0.353 OA
HETATM   28  C14 UNL     1       6.741  -2.564   0.239  1.00  0.00     0.210 C 
ENDBRANCH  23  27
ENDBRANCH  18  19
ENDBRANCH  17  18
ENDBRANCH  16  17
ENDBRANCH   1  16
TORSDOF 9
