REMARK  5 active torsions:
REMARK  status: ('A' for Active; 'I' for Inactive)
REMARK    1  A    between atoms: C2_2  and  O1_3 
REMARK    2  A    between atoms: O1_3  and  C3_4 
REMARK    3  A    between atoms: C6_7  and  C7_8 
REMARK    4  A    between atoms: C13_14  and  C14_15 
REMARK    5  A    between atoms: C18_23  and  O3_24 
ROOT
HETATM    1  C3  UNL     1      -2.617  -0.246   0.474  1.00  0.00     0.103 A 
HETATM    2  C4  UNL     1      -1.240  -0.307   0.397  1.00  0.00     0.055 A 
HETATM    3  C5  UNL     1      -0.599  -1.469   0.044  1.00  0.00     0.025 A 
HETATM    4  C6  UNL     1       0.753  -1.361   0.007  1.00  0.00     0.081 A 
HETATM    5  N2  UNL     1       1.438  -2.489  -0.350  1.00  0.00    -0.240 NA
HETATM    6  C15 UNL     1       0.804  -3.643  -0.645  1.00  0.00     0.234 A 
HETATM    7  N3  UNL     1      -0.556  -3.715  -0.595  1.00  0.00    -0.241 NA
HETATM    8  C16 UNL     1      -1.254  -2.629  -0.251  1.00  0.00     0.073 A 
HETATM    9  C17 UNL     1      -2.645  -2.583  -0.177  1.00  0.00     0.072 A 
HETATM   10  C18 UNL     1      -3.312  -1.407   0.181  1.00  0.00     0.103 A 
ENDROOT
BRANCH   4  11
HETATM   11  C7  UNL     1       1.643  -0.242   0.277  1.00  0.00    -0.006 A 
HETATM   12  C8  UNL     1       1.675   0.595   1.370  1.00  0.00     0.016 A 
HETATM   13  C9  UNL     1       2.564   1.640   1.490  1.00  0.00     0.031 A 
HETATM   14  C10 UNL     1       3.486   1.905   0.501  1.00  0.00     0.037 A 
HETATM   15  C11 UNL     1       3.507   1.102  -0.620  1.00  0.00    -0.002 A 
HETATM   16  N1  UNL     1       4.561   2.647  -0.062  1.00  0.00    -0.374 N 
HETATM   17  C12 UNL     1       2.591   0.050  -0.712  1.00  0.00     0.025 A 
HETATM   18  C13 UNL     1       4.618   1.838  -1.242  1.00  0.00     0.178 A 
HETATM   19  H12 UNL     1       5.088   3.488   0.311  1.00  0.00     0.160 HD
BRANCH  18  20
HETATM   20  C14 UNL     1       5.882   1.027  -1.380  1.00  0.00     0.261 C 
HETATM   21  O2  UNL     1       6.332   1.454  -0.340  1.00  0.00    -0.304 OA
ENDBRANCH  18  20
ENDBRANCH   4  11
BRANCH   1  22
HETATM   22  O1  UNL     1      -3.328   0.866   0.816  1.00  0.00    -0.349 OA
BRANCH  22  23
HETATM   23  C2  UNL     1      -2.777   2.119   1.140  1.00  0.00     0.171 C 
HETATM   24  C1  UNL     1      -1.961   2.747   0.061  1.00  0.00     0.034 C 
ENDBRANCH  22  23
ENDBRANCH   1  22
BRANCH  10  25
HETATM   25  O3  UNL     1      -4.698  -1.394   0.246  1.00  0.00    -0.353 OA
HETATM   26  C19 UNL     1      -5.511  -2.491  -0.024  1.00  0.00     0.210 C 
ENDBRANCH  10  25
TORSDOF 5
