REMARK  7 active torsions:
REMARK  status: ('A' for Active; 'I' for Inactive)
REMARK    1  A    between atoms: O1_2  and  C2_3 
REMARK       I    between atoms: C2_3  and  N1_5 
REMARK    2  A    between atoms: N1_5  and  C3_6 
REMARK    3  A    between atoms: C6_9  and  O3_10 
REMARK    4  A    between atoms: O3_10  and  C7_11 
REMARK    5  A    between atoms: C11_17  and  O4_18 
REMARK    6  A    between atoms: C13_20  and  O5_21 
REMARK    7  A    between atoms: O5_21  and  P1_22 
ROOT
HETATM    1  C7  UNL     1      -0.304  -0.801  -1.419  1.00  0.00     0.183 A 
HETATM    2  N2  UNL     1       0.423  -1.089  -2.491  1.00  0.00    -0.217 NA
HETATM    3  C8  UNL     1      -0.112  -1.389  -3.682  1.00  0.00     0.236 A 
HETATM    4  N3  UNL     1      -1.454  -1.409  -3.839  1.00  0.00    -0.241 NA
HETATM    5  C9  UNL     1      -2.284  -1.129  -2.806  1.00  0.00     0.075 A 
HETATM    6  C10 UNL     1      -3.624  -1.182  -3.087  1.00  0.00     0.072 A 
HETATM    7  C11 UNL     1      -4.475  -0.898  -2.040  1.00  0.00     0.104 A 
HETATM    8  C13 UNL     1      -3.979  -0.583  -0.794  1.00  0.00     0.107 A 
HETATM    9  C15 UNL     1      -2.618  -0.550  -0.586  1.00  0.00     0.058 A 
HETATM   10  C16 UNL     1      -1.692  -0.824  -1.592  1.00  0.00     0.049 A 
ENDROOT
BRANCH   1  11
HETATM   11  O3  UNL     1       0.023  -0.475  -0.139  1.00  0.00    -0.291 OA
BRANCH  11  12
HETATM   12  C6  UNL     1       1.329  -0.388   0.273  1.00  0.00     0.078 A 
HETATM   13  C5  UNL     1       2.551  -0.559  -0.316  1.00  0.00     0.039 A 
HETATM   14  C4  UNL     1       3.720  -0.394   0.388  1.00  0.00     0.032 A 
HETATM   15  C3  UNL     1       3.721  -0.048   1.723  1.00  0.00     0.037 A 
HETATM   16  C18 UNL     1       2.505   0.135   2.360  1.00  0.00     0.032 A 
HETATM   17  C17 UNL     1       1.326  -0.036   1.630  1.00  0.00     0.039 A 
BRANCH  15  18
HETATM   18  N1  UNL     1       5.017   0.081   2.297  1.00  0.00    -0.303 N 
HETATM   19  C2  UNL     1       5.760   1.292   2.323  1.00  0.00     0.364 C 
HETATM   20  O2  UNL     1       5.385   2.399   1.851  1.00  0.00    -0.238 OA
HETATM   21  H4  UNL     1       5.392  -0.802   2.708  1.00  0.00     0.171 HD
BRANCH  19  22
HETATM   22  O1  UNL     1       6.996   1.232   2.918  1.00  0.00    -0.309 OA
HETATM   23  C1  UNL     1       7.868   2.364   3.025  1.00  0.00     0.215 C 
ENDBRANCH  19  22
ENDBRANCH  15  18
ENDBRANCH  11  12
ENDBRANCH   1  11
BRANCH   8  24
HETATM   24  O5  UNL     1      -4.840  -0.301   0.246  1.00  0.00    -0.325 OA
BRANCH  24  25
HETATM   25  P1  UNL     1      -4.329   0.107   1.856  1.00  0.00     0.016 P 
HETATM   26  C14 UNL     1      -3.534   1.754   2.003  1.00  0.00     0.072 C 
HETATM   27  H12 UNL     1      -5.315  -0.180   2.855  1.00  0.00     0.087 HD
ENDBRANCH  24  25
ENDBRANCH   8  24
BRANCH   7  28
HETATM   28  O4  UNL     1      -5.854  -0.920  -2.206  1.00  0.00    -0.353 OA
HETATM   29  C12 UNL     1      -6.464  -1.230  -3.441  1.00  0.00     0.210 C 
ENDBRANCH   7  28
TORSDOF 7
