REMARK  5 active torsions:
REMARK  status: ('A' for Active; 'I' for Inactive)
REMARK    1  A    between atoms: O1_2  and  C2_3 
REMARK       I    between atoms: C2_3  and  N1_5 
REMARK    2  A    between atoms: N1_5  and  C3_6 
REMARK    3  A    between atoms: C6_9  and  C7_10 
REMARK    4  A    between atoms: C11_16  and  O3_17 
REMARK    5  A    between atoms: C13_19  and  O4_20 
ROOT
HETATM    1  C7  UNL     1      -0.646  -1.512   1.101  1.00  0.00     0.082 A 
HETATM    2  N2  UNL     1      -0.653  -2.543   1.999  1.00  0.00    -0.240 NA
HETATM    3  C8  UNL     1      -1.719  -2.867   2.740  1.00  0.00     0.234 A 
HETATM    4  N3  UNL     1      -2.862  -2.149   2.608  1.00  0.00    -0.241 NA
HETATM    5  C9  UNL     1      -2.936  -1.120   1.747  1.00  0.00     0.073 A 
HETATM    6  C10 UNL     1      -4.050  -0.329   1.553  1.00  0.00     0.072 A 
HETATM    7  C11 UNL     1      -4.005   0.715   0.641  1.00  0.00     0.103 A 
HETATM    8  C13 UNL     1      -2.879   1.023  -0.108  1.00  0.00     0.102 A 
HETATM    9  C15 UNL     1      -1.768   0.229   0.089  1.00  0.00     0.055 A 
HETATM   10  C16 UNL     1      -1.824  -0.806   0.996  1.00  0.00     0.025 A 
ENDROOT
BRANCH   1  11
HETATM   11  C6  UNL     1       0.620  -1.352   0.421  1.00  0.00     0.011 A 
HETATM   12  C5  UNL     1       0.917  -1.237  -0.921  1.00  0.00     0.019 A 
HETATM   13  C4  UNL     1       2.212  -1.064  -1.357  1.00  0.00     0.051 A 
HETATM   14  C3  UNL     1       3.275  -0.996  -0.506  1.00  0.00     0.131 A 
HETATM   15  N4  UNL     1       2.986  -1.107   0.783  1.00  0.00    -0.242 NA
HETATM   16  C17 UNL     1       1.738  -1.277   1.261  1.00  0.00     0.132 A 
BRANCH  14  17
HETATM   17  N1  UNL     1       4.565  -0.816  -1.068  1.00  0.00    -0.287 N 
HETATM   18  C2  UNL     1       5.269   0.382  -1.363  1.00  0.00     0.365 C 
HETATM   19  O2  UNL     1       4.760   1.530  -1.128  1.00  0.00    -0.238 OA
HETATM   20  H4  UNL     1       4.974  -1.777  -1.256  1.00  0.00     0.172 HD
BRANCH  18  21
HETATM   21  O1  UNL     1       6.526   0.194  -1.914  1.00  0.00    -0.309 OA
HETATM   22  C1  UNL     1       7.335   1.291  -2.256  1.00  0.00     0.215 C 
ENDBRANCH  18  21
ENDBRANCH  14  17
ENDBRANCH   1  11
BRANCH   8  23
HETATM   23  O4  UNL     1      -2.986   2.083  -0.967  1.00  0.00    -0.353 OA
HETATM   24  C14 UNL     1      -1.965   2.541  -1.800  1.00  0.00     0.210 C 
ENDBRANCH   8  23
BRANCH   7  25
HETATM   25  O3  UNL     1      -5.166   1.463   0.504  1.00  0.00    -0.353 OA
HETATM   26  C12 UNL     1      -6.305   1.137   1.276  1.00  0.00     0.210 C 
ENDBRANCH   7  25
TORSDOF 5
