REMARK  8 active torsions:
REMARK  status: ('A' for Active; 'I' for Inactive)
REMARK    1  A    between atoms: O1_2  and  C2_3 
REMARK       I    between atoms: C2_3  and  N1_5 
REMARK    2  A    between atoms: N1_5  and  C3_6 
REMARK    3  A    between atoms: C6_9  and  N2_10 
REMARK    4  A    between atoms: N2_10  and  C7_11 
REMARK    5  A    between atoms: N3_12  and  C8_13 
REMARK    6  A    between atoms: N4_14  and  C9_15 
REMARK    7  A    between atoms: C14_20  and  O3_21 
REMARK    8  A    between atoms: C16_23  and  O4_24 
ROOT
HETATM    1  C7  UNL     1       0.079  -0.953  -0.550  1.00  0.00     0.208 C 
HETATM    2  N3  UNL     1       0.259  -0.237  -1.638  1.00  0.00    -0.237 NA
ENDROOT
BRANCH   1   3
HETATM    3  N2  UNL     1       1.379  -1.343  -0.107  1.00  0.00    -0.351 N 
HETATM    4  H7  UNL     1       1.736  -2.287   0.245  1.00  0.00     0.166 HD
BRANCH   3   5
HETATM    5  C6  UNL     1       2.595  -0.618   0.014  1.00  0.00     0.033 A 
HETATM    6  C5  UNL     1       2.974  -0.129   1.241  1.00  0.00     0.031 A 
HETATM    7  C4  UNL     1       4.130   0.584   1.469  1.00  0.00     0.032 A 
HETATM    8  C3  UNL     1       4.953   0.813   0.384  1.00  0.00     0.036 A 
HETATM    9  C19 UNL     1       4.602   0.331  -0.881  1.00  0.00     0.032 A 
HETATM   10  C18 UNL     1       3.412  -0.386  -1.046  1.00  0.00     0.031 A 
BRANCH   8  11
HETATM   11  N1  UNL     1       6.211   1.495   0.243  1.00  0.00    -0.303 N 
HETATM   12  C2  UNL     1       7.348   0.651   0.426  1.00  0.00     0.364 C 
HETATM   13  O2  UNL     1       7.304  -0.597   0.693  1.00  0.00    -0.238 OA
HETATM   14  H4  UNL     1       6.494   2.476   0.035  1.00  0.00     0.171 HD
BRANCH  12  15
HETATM   15  O1  UNL     1       8.688   0.963   0.362  1.00  0.00    -0.309 OA
HETATM   16  C1  UNL     1       9.669  -0.038   0.578  1.00  0.00     0.215 C 
ENDBRANCH  12  15
ENDBRANCH   8  11
ENDBRANCH   3   5
ENDBRANCH   1   3
BRANCH   2  17
HETATM   17  C8  UNL     1      -0.915   0.284  -2.292  1.00  0.00     0.233 C 
HETATM   18  N4  UNL     1      -2.119  -0.173  -2.246  1.00  0.00    -0.253 NA
BRANCH  18  19
HETATM   19  C9  UNL     1      -2.476  -1.327  -1.495  1.00  0.00     0.132 C 
HETATM   20  C10 UNL     1      -3.459  -1.362  -0.607  1.00  0.00     0.017 A 
HETATM   21  C11 UNL     1      -3.792  -2.564   0.143  1.00  0.00     0.012 A 
HETATM   22  C16 UNL     1      -4.273  -0.161  -0.327  1.00  0.00     0.109 A 
HETATM   23  C12 UNL     1      -4.764  -2.593   1.030  1.00  0.00    -0.019 A 
HETATM   24  C13 UNL     1      -5.588  -1.419   1.334  1.00  0.00     0.094 A 
HETATM   25  C14 UNL     1      -5.247  -0.210   0.570  1.00  0.00     0.083 A 
BRANCH  25  26
HETATM   26  O3  UNL     1      -5.961   0.956   0.775  1.00  0.00    -0.357 OA
HETATM   27  C15 UNL     1      -7.316   0.842   1.185  1.00  0.00     0.209 C 
ENDBRANCH  25  26
BRANCH  22  28
HETATM   28  O4  UNL     1      -3.923   0.960  -1.067  1.00  0.00    -0.353 OA
HETATM   29  C17 UNL     1      -4.747   2.075  -1.287  1.00  0.00     0.210 C 
ENDBRANCH  22  28
ENDBRANCH  18  19
ENDBRANCH   2  17
TORSDOF 8
