REMARK  1 active torsions:
REMARK  status: ('A' for Active; 'I' for Inactive)
REMARK    1  A    between atoms: O1_2  and  C2_3 
ROOT
HETATM    1  C2  UNL     1       2.826  -1.868   0.565  1.00  0.00     0.060 C 
HETATM    2  C3  UNL     1       3.012  -0.587   0.612  1.00  0.00     0.050 C 
HETATM    3  C4  UNL     1       2.221  -0.430   1.912  1.00  0.00     0.123 A 
HETATM    4  C5  UNL     1       1.717  -1.492   2.514  1.00  0.00     0.010 A 
HETATM    5  C6  UNL     1       1.429  -1.795   1.119  1.00  0.00     0.137 A 
HETATM    6  C7  UNL     1       0.467  -0.824   0.513  1.00  0.00     0.036 C 
HETATM    7  C8  UNL     1      -0.185  -1.141  -0.571  1.00  0.00     0.028 C 
HETATM    8  C9  UNL     1      -0.884  -1.587  -1.813  1.00  0.00     0.026 C 
HETATM    9  C10 UNL     1      -1.864  -0.997  -2.539  1.00  0.00     0.033 C 
HETATM   10 CL1  UNL     1      -2.213  -2.075  -3.933  1.00  0.00    -0.084 Cl
HETATM   11  C11 UNL     1      -2.913   0.090  -2.603  1.00  0.00     0.021 C 
HETATM   12  C12 UNL     1      -3.209   1.003  -1.587  1.00  0.00    -0.006 C 
HETATM   13  C13 UNL     1      -3.584   1.967  -0.628  1.00  0.00     0.147 C 
HETATM   14  N1  UNL     1      -2.582   2.891  -0.134  1.00  0.00    -0.387 N 
HETATM   15  C14 UNL     1      -1.617   2.334   0.781  1.00  0.00     0.041 C 
HETATM   16  C15 UNL     1      -1.158   1.184   0.432  1.00  0.00     0.127 C 
HETATM   17  N2  UNL     1       0.034   0.537   0.967  1.00  0.00    -0.288 N 
HETATM   18  C16 UNL     1       0.643   1.450   2.002  1.00  0.00     0.249 C 
HETATM   19  N3  UNL     1       0.226   2.561   2.369  1.00  0.00    -0.244 NA
HETATM   20  C17 UNL     1      -1.129   2.941   2.038  1.00  0.00     0.211 C 
HETATM   21  O2  UNL     1       1.910   0.854   2.584  1.00  0.00    -0.299 OA
HETATM   22  H13 UNL     1      -2.270   3.883  -0.179  1.00  0.00     0.159 HD
ENDROOT
BRANCH   1  23
HETATM   23  O1  UNL     1       3.777  -2.803   0.099  1.00  0.00    -0.359 OA
HETATM   24  C1  UNL     1       4.721  -2.326  -0.848  1.00  0.00     0.209 C 
ENDBRANCH   1  23
TORSDOF 1
