REMARK  7 active torsions:
REMARK  status: ('A' for Active; 'I' for Inactive)
REMARK       I    between atoms: N1_2  and  C2_3 
REMARK       I    between atoms: C2_3  and  N2_5 
REMARK    1  A    between atoms: N2_5  and  C3_6 
REMARK    2  A    between atoms: C6_9  and  O2_10 
REMARK    3  A    between atoms: O2_10  and  N3_11 
REMARK    4  A    between atoms: N3_11  and  C7_12 
REMARK    5  A    between atoms: C7_12  and  C8_13 
REMARK    6  A    between atoms: C11_16  and  O3_17 
REMARK    7  A    between atoms: C13_19  and  O4_20 
ROOT
HETATM    1  O2  UNL     1      -0.182  -0.706   0.125  1.00  0.00    -0.264 OA
ENDROOT
BRANCH   1   2
HETATM    2  C6  UNL     1       1.091  -0.426   0.639  1.00  0.00     0.092 A 
HETATM    3  C5  UNL     1       1.952  -1.496   0.441  1.00  0.00     0.041 A 
HETATM    4  C4  UNL     1       3.272  -1.424   0.878  1.00  0.00     0.032 A 
HETATM    5  C3  UNL     1       3.644  -0.237   1.507  1.00  0.00     0.036 A 
HETATM    6  C17 UNL     1       2.810   0.826   1.711  1.00  0.00     0.032 A 
HETATM    7  C16 UNL     1       1.512   0.726   1.268  1.00  0.00     0.041 A 
BRANCH   5   8
HETATM    8  N2  UNL     1       5.005  -0.125   1.975  1.00  0.00    -0.309 N 
HETATM    9  C2  UNL     1       5.812   0.419   0.956  1.00  0.00     0.320 C 
HETATM   10  N1  UNL     1       7.219   0.651   1.127  1.00  0.00    -0.347 N 
HETATM   11  O1  UNL     1       5.252   0.704  -0.134  1.00  0.00    -0.247 OA
HETATM   12  C1  UNL     1       8.083   1.211   0.098  1.00  0.00     0.151 C 
HETATM   13  H4  UNL     1       7.685   0.415   2.031  1.00  0.00     0.163 HD
HETATM   14  H5  UNL     1       5.480  -0.361   2.883  1.00  0.00     0.170 HD
ENDBRANCH   5   8
ENDBRANCH   1   2
BRANCH   1  15
HETATM   15  N3  UNL     1      -0.345  -0.812  -1.232  1.00  0.00    -0.196 NA
HETATM   16  H8  UNL     1       0.498  -1.052  -1.760  1.00  0.00     0.154 HD
BRANCH  15  17
HETATM   17  C7  UNL     1      -0.991   0.402  -1.694  1.00  0.00     0.156 C 
BRANCH  17  18
HETATM   18  C8  UNL     1      -2.308   0.541  -1.020  1.00  0.00    -0.040 A 
HETATM   19  C9  UNL     1      -2.583   1.174   0.163  1.00  0.00     0.011 A 
HETATM   20  C10 UNL     1      -3.868   1.218   0.662  1.00  0.00     0.040 A 
HETATM   21  C11 UNL     1      -4.936   0.636   0.010  1.00  0.00     0.101 A 
HETATM   22  C13 UNL     1      -4.696  -0.011  -1.185  1.00  0.00     0.102 A 
HETATM   23  C15 UNL     1      -3.402  -0.040  -1.661  1.00  0.00     0.048 A 
BRANCH  21  24
HETATM   24  O3  UNL     1      -6.228   0.662   0.480  1.00  0.00    -0.353 OA
HETATM   25  C12 UNL     1      -6.511   1.313   1.697  1.00  0.00     0.210 C 
ENDBRANCH  21  24
BRANCH  22  26
HETATM   26  O4  UNL     1      -5.733  -0.614  -1.884  1.00  0.00    -0.353 OA
HETATM   27  C14 UNL     1      -5.443  -1.269  -3.109  1.00  0.00     0.210 C 
ENDBRANCH  22  26
ENDBRANCH  17  18
ENDBRANCH  15  17
ENDBRANCH   1  15
TORSDOF 7
