REMARK  4 active torsions:
REMARK  status: ('A' for Active; 'I' for Inactive)
REMARK    1  A    between atoms: O1_2  and  C2_3 
REMARK       I    between atoms: C2_3  and  N1_5 
REMARK    2  A    between atoms: N1_5  and  C3_6 
REMARK    3  A    between atoms: C4_7  and  C5_8 
REMARK    4  A    between atoms: C14_20  and  O4_21 
ROOT
HETATM    1  C5  UNL     1       0.878  -0.524   0.407  1.00  0.00     0.041 C 
HETATM    2  C6  UNL     1      -0.331  -0.088   0.065  1.00  0.00     0.110 C 
HETATM    3  O3  UNL     1      -0.804   1.082   0.723  1.00  0.00    -0.292 OA
HETATM    4  C7  UNL     1      -1.962   1.787   0.355  1.00  0.00     0.158 C 
HETATM    5  N2  UNL     1      -1.833   3.054  -0.014  1.00  0.00    -0.221 NA
HETATM    6  C8  UNL     1      -2.944   3.833  -0.419  1.00  0.00     0.235 C 
HETATM    7  N3  UNL     1      -4.148   3.311  -0.467  1.00  0.00    -0.245 NA
HETATM    8  C9  UNL     1      -4.280   1.917  -0.109  1.00  0.00     0.059 C 
HETATM    9  C10 UNL     1      -5.004   0.808  -0.034  1.00  0.00    -0.002 C 
HETATM   10  C11 UNL     1      -4.676  -0.058  -1.003  1.00  0.00    -0.003 C 
HETATM   11  C12 UNL     1      -3.397  -0.227  -0.251  1.00  0.00     0.052 C 
HETATM   12  C13 UNL     1      -2.348  -0.873  -0.998  1.00  0.00     0.022 C 
HETATM   13  C14 UNL     1      -1.010  -0.895  -0.961  1.00  0.00     0.099 C 
HETATM   14  C16 UNL     1      -3.218   1.033   0.439  1.00  0.00     0.127 C 
ENDROOT
BRANCH   1  15
HETATM   15  C4  UNL     1       1.628  -1.649  -0.058  1.00  0.00     0.020 C 
HETATM   16  C3  UNL     1       2.824  -1.886   0.434  1.00  0.00     0.093 C 
BRANCH  16  17
HETATM   17  N1  UNL     1       3.259  -0.953   1.418  1.00  0.00    -0.313 N 
HETATM   18  C2  UNL     1       4.406  -0.134   1.319  1.00  0.00     0.364 C 
HETATM   19  O2  UNL     1       5.163  -0.164   0.318  1.00  0.00    -0.238 OA
HETATM   20  H4  UNL     1       2.761  -0.777   2.339  1.00  0.00     0.170 HD
BRANCH  18  21
HETATM   21  O1  UNL     1       4.837   0.773   2.264  1.00  0.00    -0.309 OA
HETATM   22  C1  UNL     1       5.987   1.568   2.122  1.00  0.00     0.215 C 
ENDBRANCH  18  21
ENDBRANCH  16  17
ENDBRANCH   1  15
BRANCH  13  23
HETATM   23  O4  UNL     1      -0.236  -1.632  -1.833  1.00  0.00    -0.353 OA
HETATM   24  C15 UNL     1      -0.787  -2.817  -2.374  1.00  0.00     0.210 C 
ENDBRANCH  13  23
TORSDOF 4
