REMARK  8 active torsions:
REMARK  status: ('A' for Active; 'I' for Inactive)
REMARK    1  A    between atoms: B1_1  and  C1_2 
REMARK    2  A    between atoms: C1_2  and  O1_3 
REMARK    3  A    between atoms: O1_3  and  C2_4 
REMARK    4  A    between atoms: C5_7  and  O2_8 
REMARK    5  A    between atoms: O2_8  and  C6_9 
REMARK    6  A    between atoms: C9_12  and  N1_13 
REMARK       I    between atoms: N1_13  and  C10_14 
REMARK    7  A    between atoms: C10_14  and  O4_16 
REMARK    8  A    between atoms: C17_25  and  O5_26 
ROOT
HETATM    1  C2  UNL     1      -4.084  -0.818  -0.409  1.00  0.00     0.102 A 
HETATM    2  C3  UNL     1      -2.726  -0.591  -0.355  1.00  0.00     0.057 A 
HETATM    3  C4  UNL     1      -2.192   0.678  -0.319  1.00  0.00     0.049 A 
HETATM    4  C5  UNL     1      -0.798   0.777  -0.265  1.00  0.00     0.183 A 
HETATM    5  N2  UNL     1      -0.259   2.030  -0.229  1.00  0.00    -0.217 NA
HETATM    6  C14 UNL     1      -1.047   3.140  -0.245  1.00  0.00     0.236 A 
HETATM    7  N3  UNL     1      -2.381   2.996  -0.297  1.00  0.00    -0.241 NA
HETATM    8  C15 UNL     1      -2.974   1.802  -0.335  1.00  0.00     0.075 A 
HETATM    9  C16 UNL     1      -4.340   1.589  -0.389  1.00  0.00     0.072 A 
HETATM   10  C17 UNL     1      -4.900   0.319  -0.426  1.00  0.00     0.103 A 
ENDROOT
BRANCH   4  11
HETATM   11  O2  UNL     1      -0.033  -0.376  -0.251  1.00  0.00    -0.291 OA
BRANCH  11  12
HETATM   12  C6  UNL     1       1.337  -0.434  -0.200  1.00  0.00     0.078 A 
HETATM   13  C7  UNL     1       1.924  -0.477   1.062  1.00  0.00     0.039 A 
HETATM   14  C8  UNL     1       3.301  -0.537   1.244  1.00  0.00     0.032 A 
HETATM   15  C9  UNL     1       4.121  -0.556   0.135  1.00  0.00     0.037 A 
HETATM   16  C12 UNL     1       3.563  -0.515  -1.101  1.00  0.00     0.032 A 
HETATM   17  C13 UNL     1       2.186  -0.454  -1.298  1.00  0.00     0.039 A 
BRANCH  15  18
HETATM   18  N1  UNL     1       5.513  -0.619   0.415  1.00  0.00    -0.303 N 
HETATM   19  C10 UNL     1       6.447   0.434   0.609  1.00  0.00     0.364 C 
HETATM   20  O3  UNL     1       6.118   1.659   0.550  1.00  0.00    -0.238 OA
HETATM   21  H8  UNL     1       5.735  -1.632   0.454  1.00  0.00     0.171 HD
BRANCH  19  22
HETATM   22  O4  UNL     1       7.746  -0.026   0.868  1.00  0.00    -0.309 OA
HETATM   23  C11 UNL     1       8.760   0.960   1.078  1.00  0.00     0.215 C 
ENDBRANCH  19  22
ENDBRANCH  15  18
ENDBRANCH  11  12
ENDBRANCH   4  11
BRANCH   1  24
HETATM   24  O1  UNL     1      -4.784  -2.006  -0.450  1.00  0.00    -0.358 OA
BRANCH  24  25
HETATM   25  C1  UNL     1      -4.116  -3.231  -0.434  1.00  0.00     0.109 C 
BRANCH  25  26
HETATM   26  B1  UNL     1      -3.271  -3.372   0.887  1.00  0.00     0.166 B 
HETATM   27  H1  UNL     1      -2.175  -3.856   0.837  1.00  0.00    -0.029 HD
HETATM   28  H2  UNL     1      -3.757  -3.119   1.926  1.00  0.00    -0.029 HD
ENDBRANCH  25  26
ENDBRANCH  24  25
ENDBRANCH   1  24
BRANCH  10  29
HETATM   29  O5  UNL     1      -6.284   0.231  -0.479  1.00  0.00    -0.353 OA
HETATM   30  C18 UNL     1      -7.031   1.428  -0.493  1.00  0.00     0.210 C 
ENDBRANCH  10  29
TORSDOF 8
