REMARK  8 active torsions:
REMARK  status: ('A' for Active; 'I' for Inactive)
REMARK    1  A    between atoms: C2_2  and  C3_3 
REMARK    2  A    between atoms: C2_2  and  C15_21 
REMARK    3  A    between atoms: C3_3  and  C4_4 
REMARK    4  A    between atoms: N2_10  and  C8_11 
REMARK    5  A    between atoms: C8_11  and  N3_12 
REMARK    6  A    between atoms: N3_12  and  C9_13 
REMARK    7  A    between atoms: C9_13  and  C11_15 
REMARK    8  A    between atoms: C11_15  and  C12_16 
ROOT
HETATM    1  C12 UNL     1      -4.944   0.751   0.705  1.00  0.00     0.014 C 
HETATM    2  C13 UNL     1      -5.686   0.268   1.680  1.00  0.00     0.217 C 
HETATM    3 CL1  UNL     1      -6.648  -0.527   2.908  1.00  0.00    -0.230 Cl
ENDROOT
BRANCH   1   4
HETATM    4  C11 UNL     1      -4.382  -0.141  -0.283  1.00  0.00     0.025 C 
BRANCH   4   5
HETATM    5  C9  UNL     1      -3.655   0.430  -1.219  1.00  0.00     0.002 C 
HETATM    6  C10 UNL     1      -3.058  -0.468  -2.253  1.00  0.00     0.068 C 
BRANCH   5   7
HETATM    7  N3  UNL     1      -3.487   1.838  -1.181  1.00  0.00    -0.375 N 
HETATM    8  H9  UNL     1      -4.237   2.358  -1.717  1.00  0.00     0.161 HD
BRANCH   7   9
HETATM    9  C8  UNL     1      -2.394   2.466  -0.481  1.00  0.00     0.272 C 
BRANCH   9  10
HETATM   10  N2  UNL     1      -1.120   2.045  -1.026  1.00  0.00    -0.254 NA
HETATM   11  C7  UNL     1      -0.574   1.006  -0.498  1.00  0.00     0.142 C 
HETATM   12  N1  UNL     1      -1.229   0.328   0.575  1.00  0.00    -0.221 NA
HETATM   13  C14 UNL     1       0.734   0.725  -1.188  1.00  0.00     0.199 C 
HETATM   14  C6  UNL     1      -1.071  -0.749   1.267  1.00  0.00     0.253 C 
HETATM   15  O1  UNL     1      -0.162  -1.791   1.297  1.00  0.00    -0.339 OA
HETATM   16  C5  UNL     1       0.833  -2.253   0.438  1.00  0.00     0.233 C 
HETATM   17  C4  UNL     1       1.899  -1.185   0.356  1.00  0.00     0.030 C 
HETATM   18  N4  UNL     1       1.645   0.132  -0.200  1.00  0.00    -0.384 N 
HETATM   19  H18 UNL     1       2.251   0.921   0.179  1.00  0.00     0.159 HD
BRANCH  17  20
HETATM   20  C3  UNL     1       3.149  -1.271   0.757  1.00  0.00     0.033 C 
BRANCH  20  21
HETATM   21  C2  UNL     1       4.558  -0.952   1.053  1.00  0.00    -0.066 C 
HETATM   22  C1  UNL     1       5.422  -1.807   1.642  1.00  0.00     0.019 C 
BRANCH  21  23
HETATM   23  C15 UNL     1       5.018   0.414   0.657  1.00  0.00     0.033 C 
HETATM   24  C16 UNL     1       5.019   0.642  -0.819  1.00  0.00     0.010 C 
ENDBRANCH  21  23
ENDBRANCH  20  21
ENDBRANCH  17  20
ENDBRANCH   9  10
ENDBRANCH   7   9
ENDBRANCH   5   7
ENDBRANCH   4   5
ENDBRANCH   1   4
TORSDOF 8
