REMARK  4 active torsions:
REMARK  status: ('A' for Active; 'I' for Inactive)
REMARK    1  A    between atoms: C2_2  and  O1_3 
REMARK    2  A    between atoms: O1_3  and  C3_4 
REMARK       I    between atoms: C3_4  and  N1_6 
REMARK    3  A    between atoms: N1_6  and  C4_7 
REMARK    4  A    between atoms: N2_11  and  C8_12 
ROOT
HETATM    1  C4  UNL     1       1.127  -1.059  -1.041  1.00  0.00     0.037 A 
HETATM    2  C5  UNL     1       0.875  -2.271  -1.509  1.00  0.00     0.028 A 
HETATM    3  C6  UNL     1      -0.508  -2.714  -1.611  1.00  0.00     0.019 A 
HETATM    4  C7  UNL     1      -1.544  -1.971  -1.260  1.00  0.00     0.093 A 
HETATM    5  N2  UNL     1      -1.220  -0.677  -0.764  1.00  0.00    -0.333 N 
HETATM    6  C13 UNL     1       0.093  -0.091  -0.601  1.00  0.00     0.136 A 
HETATM    7  C14 UNL     1       0.243   0.224   0.863  1.00  0.00     0.039 C 
ENDROOT
BRANCH   5   8
HETATM    8  C8  UNL     1      -2.302   0.186  -0.363  1.00  0.00     0.132 C 
HETATM    9  N3  UNL     1      -3.176  -0.547   0.239  1.00  0.00    -0.226 NA
HETATM   10  C9  UNL     1      -4.441  -0.447   0.885  1.00  0.00     0.234 C 
HETATM   11  N4  UNL     1      -5.427   0.366   0.699  1.00  0.00    -0.252 NA
HETATM   12  C10 UNL     1      -5.635   1.452  -0.197  1.00  0.00     0.142 C 
HETATM   13  C11 UNL     1      -4.879   2.136  -1.073  1.00  0.00     0.154 C 
HETATM   14  O3  UNL     1      -3.536   1.945  -1.375  1.00  0.00    -0.354 OA
HETATM   15  C12 UNL     1      -2.365   1.632  -0.612  1.00  0.00     0.253 C 
ENDBRANCH   5   8
BRANCH   1  16
HETATM   16  N1  UNL     1       2.530  -0.849  -1.033  1.00  0.00    -0.304 N 
HETATM   17  C3  UNL     1       3.342  -0.578   0.088  1.00  0.00     0.364 C 
HETATM   18  O2  UNL     1       3.245  -0.427   1.332  1.00  0.00    -0.238 OA
HETATM   19  H6  UNL     1       3.055  -0.892  -1.944  1.00  0.00     0.171 HD
BRANCH  17  20
HETATM   20  O1  UNL     1       4.713  -0.386  -0.014  1.00  0.00    -0.304 OA
BRANCH  20  21
HETATM   21  C2  UNL     1       5.518  -0.114   1.117  1.00  0.00     0.176 C 
HETATM   22  C1  UNL     1       5.089   1.156   1.819  1.00  0.00     0.034 C 
ENDBRANCH  20  21
ENDBRANCH  17  20
ENDBRANCH   1  16
TORSDOF 4
