REMARK  10 active torsions:
REMARK  status: ('A' for Active; 'I' for Inactive)
REMARK    1  A    between atoms: C2_2  and  N1_3 
REMARK    2  A    between atoms: N1_3  and  C3_4 
REMARK    3  A    between atoms: C3_4  and  O1_5 
REMARK    4  A    between atoms: O1_5  and  C4_6 
REMARK    5  A    between atoms: C7_9  and  C8_10 
REMARK    6  A    between atoms: C8_10  and  C9_11 
REMARK    7  A    between atoms: C9_11  and  N2_12 
REMARK    8  A    between atoms: N2_12  and  C10_13 
REMARK    9  A    between atoms: C10_13  and  O2_14 
REMARK   10  A    between atoms: C15_21  and  O3_22 
ROOT
HETATM    1  C4  UNL     1      -1.903  -1.003   0.061  1.00  0.00     0.105 A 
HETATM    2  C5  UNL     1      -0.740  -0.600   0.672  1.00  0.00     0.055 A 
HETATM    3  C6  UNL     1       0.131  -1.391   1.375  1.00  0.00     0.020 A 
HETATM    4  C7  UNL     1       1.242  -0.778   1.913  1.00  0.00     0.050 A 
HETATM    5  N3  UNL     1       2.059  -1.614   2.606  1.00  0.00    -0.246 NA
HETATM    6  C12 UNL     1       1.792  -2.937   2.746  1.00  0.00     0.234 A 
HETATM    7  N4  UNL     1       0.686  -3.498   2.196  1.00  0.00    -0.241 NA
HETATM    8  C13 UNL     1      -0.170  -2.728   1.496  1.00  0.00     0.073 A 
HETATM    9  C14 UNL     1      -1.326  -3.212   0.908  1.00  0.00     0.072 A 
HETATM   10  C15 UNL     1      -2.188  -2.366   0.197  1.00  0.00     0.103 A 
ENDROOT
BRANCH   4  11
HETATM   11  C8  UNL     1       1.625   0.629   1.786  1.00  0.00     0.090 C 
BRANCH  11  12
HETATM   12  C9  UNL     1       2.287   0.972   0.461  1.00  0.00     0.278 C 
BRANCH  12  13
HETATM   13  N2  UNL     1       3.487   0.241   0.242  1.00  0.00     0.106 N 
HETATM   14  H14 UNL     1       4.188   0.309   0.988  1.00  0.00     0.318 HD
BRANCH  13  15
HETATM   15  C10 UNL     1       4.089   0.597  -1.006  1.00  0.00     0.437 C 
BRANCH  15  16
HETATM   16  O2  UNL     1       5.068   1.519  -0.934  1.00  0.00    -0.368 OA
HETATM   17  C11 UNL     1       4.856   2.742  -0.399  1.00  0.00     0.203 C 
ENDBRANCH  15  16
ENDBRANCH  13  15
ENDBRANCH  12  13
ENDBRANCH  11  12
ENDBRANCH   4  11
BRANCH   1  18
HETATM   18  O1  UNL     1      -2.878  -0.401  -0.666  1.00  0.00    -0.319 OA
BRANCH  18  19
HETATM   19  C3  UNL     1      -2.995   0.920  -1.060  1.00  0.00     0.444 C 
BRANCH  19  20
HETATM   20  N1  UNL     1      -1.954   1.403  -1.936  1.00  0.00     0.106 N 
HETATM   21  H6  UNL     1      -1.060   1.461  -1.429  1.00  0.00     0.318 HD
BRANCH  20  22
HETATM   22  C2  UNL     1      -2.312   2.809  -2.205  1.00  0.00     0.268 C 
HETATM   23  C1  UNL     1      -3.550   2.871  -3.036  1.00  0.00     0.037 C 
ENDBRANCH  20  22
ENDBRANCH  19  20
ENDBRANCH  18  19
ENDBRANCH   1  18
BRANCH  10  24
HETATM   24  O3  UNL     1      -3.314  -3.014  -0.337  1.00  0.00    -0.353 OA
HETATM   25  C16 UNL     1      -3.505  -4.390  -0.142  1.00  0.00     0.210 C 
ENDBRANCH  10  24
TORSDOF 10
