REMARK  6 active torsions:
REMARK  status: ('A' for Active; 'I' for Inactive)
REMARK    1  A    between atoms: C3_3  and  C4_4 
REMARK    2  A    between atoms: C4_4  and  O1_5 
REMARK    3  A    between atoms: O1_5  and  C5_6 
REMARK       I    between atoms: C5_6  and  N1_8 
REMARK    4  A    between atoms: N1_8  and  C6_9 
REMARK    5  A    between atoms: C11_17  and  C12_18 
REMARK    6  A    between atoms: C12_18  and  O3_19 
ROOT
HETATM    1  C6  UNL     1       0.636   1.482   0.589  1.00  0.00     0.244 C 
HETATM    2  C7  UNL     1       0.622   2.961   1.046  1.00  0.00     0.175 C 
HETATM    3  N2  UNL     1      -0.711   3.532   0.686  1.00  0.00    -0.371 N 
HETATM    4  C8  UNL     1      -1.559   3.061  -0.405  1.00  0.00     0.124 C 
HETATM    5  N3  UNL     1      -2.771   3.247   0.152  1.00  0.00    -0.225 NA
HETATM    6  C9  UNL     1      -3.773   2.141   0.372  1.00  0.00     0.235 C 
HETATM    7  N4  UNL     1      -3.710   0.866  -0.043  1.00  0.00    -0.244 NA
HETATM    8  C10 UNL     1      -2.563  -0.045  -0.097  1.00  0.00     0.067 C 
HETATM    9  C11 UNL     1      -2.905  -1.320   0.180  1.00  0.00     0.029 C 
HETATM   10  C14 UNL     1      -1.082   0.167  -0.402  1.00  0.00     0.199 C 
HETATM   11  C15 UNL     1      -1.149   1.076  -1.634  1.00  0.00     0.015 C 
HETATM   12  C16 UNL     1      -1.292   2.442  -1.764  1.00  0.00     0.049 C 
HETATM   13  O4  UNL     1      -0.598   0.902   0.668  1.00  0.00    -0.350 OA
HETATM   14  H12 UNL     1      -1.354   4.287   1.038  1.00  0.00     0.161 HD
ENDROOT
BRANCH   1  15
HETATM   15  N1  UNL     1       1.516   0.715   1.434  1.00  0.00    -0.309 N 
HETATM   16  C5  UNL     1       2.678   0.086   0.927  1.00  0.00     0.362 C 
HETATM   17  O2  UNL     1       2.869   0.249  -0.283  1.00  0.00    -0.238 OA
HETATM   18  H8  UNL     1       1.250   0.646   2.449  1.00  0.00     0.167 HD
BRANCH  16  19
HETATM   19  O1  UNL     1       3.489  -0.640   1.787  1.00  0.00    -0.300 OA
BRANCH  19  20
HETATM   20  C4  UNL     1       4.644  -1.270   1.303  1.00  0.00     0.208 C 
BRANCH  20  21
HETATM   21  C3  UNL     1       4.395  -2.275   0.246  1.00  0.00    -0.005 C 
HETATM   22  C2  UNL     1       4.821  -2.348  -1.011  1.00  0.00    -0.033 C 
HETATM   23  C1  UNL     1       5.706  -1.245  -1.478  1.00  0.00     0.036 C 
ENDBRANCH  20  21
ENDBRANCH  19  20
ENDBRANCH  16  19
ENDBRANCH   1  15
BRANCH   9  24
HETATM   24  C12 UNL     1      -3.747  -2.480   0.528  1.00  0.00     0.196 C 
BRANCH  24  25
HETATM   25  O3  UNL     1      -5.079  -2.197   0.708  1.00  0.00    -0.392 OA
HETATM   26  C13 UNL     1      -5.739  -1.798  -0.436  1.00  0.00     0.201 C 
ENDBRANCH  24  25
ENDBRANCH   9  24
TORSDOF 6
