REMARK  9 active torsions:
REMARK  status: ('A' for Active; 'I' for Inactive)
REMARK    1  A    between atoms: C2_2  and  O1_3 
REMARK    2  A    between atoms: O1_3  and  C3_4 
REMARK       I    between atoms: C3_4  and  N1_6 
REMARK    3  A    between atoms: N1_6  and  C4_7 
REMARK    4  A    between atoms: C7_10  and  N2_11 
REMARK    5  A    between atoms: N2_11  and  C8_12 
REMARK    6  A    between atoms: C10_16  and  C11_17 
REMARK    7  A    between atoms: C11_17  and  O3_18 
REMARK    8  A    between atoms: C14_21  and  C15_22 
REMARK    9  A    between atoms: C15_22  and  O4_23 
ROOT
HETATM    1  N2  UNL     1      -0.760   0.092  -1.363  1.00  0.00    -0.339 N 
HETATM    2  H9  UNL     1      -1.174  -0.219  -2.293  1.00  0.00     0.167 HD
ENDROOT
BRANCH   1   3
HETATM    3  C7  UNL     1       0.605  -0.081  -1.108  1.00  0.00     0.033 A 
HETATM    4  C6  UNL     1       1.400  -0.633  -2.122  1.00  0.00     0.032 A 
HETATM    5  C5  UNL     1       2.735  -0.852  -1.990  1.00  0.00     0.032 A 
HETATM    6  C4  UNL     1       3.420  -0.546  -0.837  1.00  0.00     0.036 A 
HETATM    7  C17 UNL     1       2.648  -0.005   0.162  1.00  0.00     0.032 A 
HETATM    8  C16 UNL     1       1.295   0.218   0.030  1.00  0.00     0.032 A 
BRANCH   6   9
HETATM    9  N1  UNL     1       4.792  -0.799  -0.776  1.00  0.00    -0.303 N 
HETATM   10  C3  UNL     1       5.720  -0.579   0.274  1.00  0.00     0.365 C 
HETATM   11  O2  UNL     1       5.321  -0.086   1.340  1.00  0.00    -0.238 OA
HETATM   12  H6  UNL     1       5.280  -1.222  -1.614  1.00  0.00     0.171 HD
BRANCH  10  13
HETATM   13  O1  UNL     1       7.060  -0.874   0.212  1.00  0.00    -0.304 OA
BRANCH  13  14
HETATM   14  C2  UNL     1       7.891  -0.609   1.328  1.00  0.00     0.176 C 
HETATM   15  C1  UNL     1       7.879   0.866   1.678  1.00  0.00     0.034 C 
ENDBRANCH  13  14
ENDBRANCH  10  13
ENDBRANCH   6   9
ENDBRANCH   1   3
BRANCH   1  16
HETATM   16  C8  UNL     1      -1.682   0.662  -0.463  1.00  0.00     0.158 A 
HETATM   17  N3  UNL     1      -1.284   1.643   0.258  1.00  0.00    -0.156 NA
HETATM   18  N4  UNL     1      -2.153   2.245   1.164  1.00  0.00    -0.287 N 
HETATM   19  C9  UNL     1      -3.507   1.882   1.398  1.00  0.00     0.119 A 
HETATM   20  H10 UNL     1      -1.751   3.037   1.714  1.00  0.00     0.188 HD
HETATM   21  C10 UNL     1      -3.919   0.873   0.656  1.00  0.00    -0.004 A 
HETATM   22  C13 UNL     1      -3.072   0.186  -0.317  1.00  0.00     0.020 A 
HETATM   23  C14 UNL     1      -3.483  -0.831  -1.054  1.00  0.00     0.015 C 
BRANCH  21  24
HETATM   24  C11 UNL     1      -5.325   0.468   0.873  1.00  0.00     0.208 C 
BRANCH  24  25
HETATM   25  O3  UNL     1      -5.885   1.294   1.854  1.00  0.00    -0.391 OA
HETATM   26  C12 UNL     1      -7.215   0.958   2.099  1.00  0.00     0.201 C 
ENDBRANCH  24  25
ENDBRANCH  21  24
BRANCH  23  27
HETATM   27  C15 UNL     1      -4.555  -1.760  -1.442  1.00  0.00     0.192 C 
BRANCH  27  28
HETATM   28  O4  UNL     1      -4.165  -3.085  -1.181  1.00  0.00    -0.397 OA
HETATM   29  H20 UNL     1      -3.217  -3.223  -1.432  1.00  0.00     0.209 HD
ENDBRANCH  27  28
ENDBRANCH  23  27
ENDBRANCH   1  16
TORSDOF 9
