REMARK  4 active torsions:
REMARK  status: ('A' for Active; 'I' for Inactive)
REMARK    1  A    between atoms: C2_2  and  O1_3 
REMARK    2  A    between atoms: O1_3  and  C3_4 
REMARK       I    between atoms: C3_4  and  N1_6 
REMARK    3  A    between atoms: N1_6  and  C4_7 
REMARK    4  A    between atoms: C13_19  and  O3_20 
ROOT
HETATM    1  C4  UNL     1       1.639   0.301  -0.546  1.00  0.00     0.036 C 
HETATM    2  C5  UNL     1       1.925  -0.470   0.468  1.00  0.00     0.026 C 
HETATM    3  C6  UNL     1       0.623  -1.247   0.593  1.00  0.00    -0.018 C 
HETATM    4  C7  UNL     1       0.081  -2.229   1.379  1.00  0.00     0.027 C 
HETATM    5  C8  UNL     1      -0.845  -3.234   1.963  1.00  0.00     0.097 C 
HETATM    6  S1  UNL     1      -2.434  -3.373   0.826  1.00  0.00    -0.081 SA
HETATM    7  N2  UNL     1      -2.255  -4.408  -0.367  1.00  0.00    -0.220 NA
HETATM    8  C9  UNL     1      -2.352  -4.117  -1.707  1.00  0.00     0.241 A 
HETATM    9  N3  UNL     1      -2.605  -2.901  -2.002  1.00  0.00    -0.244 NA
HETATM   10  C10 UNL     1      -2.796  -1.876  -1.097  1.00  0.00     0.062 A 
HETATM   11  C11 UNL     1      -2.911  -0.598  -1.656  1.00  0.00     0.064 A 
HETATM   12  C12 UNL     1      -2.996   0.292  -0.618  1.00  0.00     0.086 A 
HETATM   13  C13 UNL     1      -2.986   0.032   0.741  1.00  0.00     0.138 A 
HETATM   14  C15 UNL     1      -2.875  -1.126   1.468  1.00  0.00     0.068 A 
HETATM   15  C16 UNL     1      -2.820  -1.654   0.172  1.00  0.00     0.108 A 
HETATM   16  O4  UNL     1      -3.091   1.781  -0.701  1.00  0.00    -0.348 OA
HETATM   17  C17 UNL     1      -1.887   2.307  -0.099  1.00  0.00     0.203 C 
HETATM   18  C18 UNL     1      -0.703   1.904  -0.894  1.00  0.00     0.002 C 
HETATM   19  C19 UNL     1       0.391   1.137  -0.691  1.00  0.00     0.027 C 
ENDROOT
BRANCH   1  20
HETATM   20  N1  UNL     1       1.860   1.283  -1.536  1.00  0.00    -0.303 N 
HETATM   21  C3  UNL     1       3.225   1.760  -1.311  1.00  0.00     0.365 C 
HETATM   22  O2  UNL     1       4.092   1.417  -0.438  1.00  0.00    -0.238 OA
HETATM   23  H6  UNL     1       1.683   1.892  -2.343  1.00  0.00     0.171 HD
BRANCH  21  24
HETATM   24  O1  UNL     1       4.040   2.699  -1.916  1.00  0.00    -0.304 OA
BRANCH  24  25
HETATM   25  C2  UNL     1       5.352   2.934  -1.456  1.00  0.00     0.176 C 
HETATM   26  C1  UNL     1       6.135   1.655  -1.579  1.00  0.00     0.034 C 
ENDBRANCH  24  25
ENDBRANCH  21  24
ENDBRANCH   1  20
BRANCH  13  27
HETATM   27  O3  UNL     1      -3.104   0.913   1.781  1.00  0.00    -0.376 OA
HETATM   28  C14 UNL     1      -3.095   0.539   3.123  1.00  0.00     0.203 C 
ENDBRANCH  13  27
TORSDOF 4
