REMARK  5 active torsions:
REMARK  status: ('A' for Active; 'I' for Inactive)
REMARK    1  A    between atoms: C2_2  and  O1_3 
REMARK    2  A    between atoms: O1_3  and  C3_4 
REMARK       I    between atoms: C3_4  and  N1_6 
REMARK    3  A    between atoms: N1_6  and  C4_7 
REMARK    4  A    between atoms: C7_10  and  N2_11 
REMARK    5  A    between atoms: C12_18  and  O3_19 
ROOT
HETATM    1  N2  UNL     1       1.120  -0.084  -1.445  1.00  0.00    -0.281 N 
HETATM    2  N3  UNL     1       1.455   0.695  -2.554  1.00  0.00    -0.291 N 
HETATM    3  C8  UNL     1       2.829   0.749  -2.911  1.00  0.00     0.218 C 
HETATM    4  N4  UNL     1       3.709   0.123  -2.255  1.00  0.00    -0.271 NA
HETATM    5  C9  UNL     1       3.480  -0.713  -1.086  1.00  0.00     0.169 A 
HETATM    6  C10 UNL     1       4.466  -0.210  -0.075  1.00  0.00    -0.024 A 
HETATM    7  C11 UNL     1       5.856  -0.295  -0.649  1.00  0.00     0.049 C 
HETATM    8  C12 UNL     1       4.350   0.266   1.155  1.00  0.00     0.072 A 
HETATM    9  C14 UNL     1       2.964   0.298   1.618  1.00  0.00     0.035 A 
HETATM   10  C15 UNL     1       2.004  -0.128   0.826  1.00  0.00     0.005 A 
HETATM   11  C16 UNL     1       2.085  -0.685  -0.569  1.00  0.00     0.160 A 
HETATM   12  H9  UNL     1       0.871   1.262  -3.190  1.00  0.00     0.188 HD
ENDROOT
BRANCH   1  13
HETATM   13  C7  UNL     1      -0.270  -0.259  -1.215  1.00  0.00     0.051 A 
HETATM   14  C6  UNL     1      -0.776  -1.175  -0.318  1.00  0.00     0.033 A 
HETATM   15  C5  UNL     1      -2.118  -1.366  -0.063  1.00  0.00     0.032 A 
HETATM   16  C4  UNL     1      -3.055  -0.607  -0.733  1.00  0.00     0.036 A 
HETATM   17  C18 UNL     1      -2.608   0.327  -1.644  1.00  0.00     0.032 A 
HETATM   18  C17 UNL     1      -1.253   0.467  -1.851  1.00  0.00     0.033 A 
BRANCH  16  19
HETATM   19  N1  UNL     1      -4.440  -0.775  -0.498  1.00  0.00    -0.303 N 
HETATM   20  C3  UNL     1      -5.193  -0.072   0.480  1.00  0.00     0.365 C 
HETATM   21  O2  UNL     1      -4.824   0.802   1.305  1.00  0.00    -0.238 OA
HETATM   22  H6  UNL     1      -4.922  -1.474  -1.101  1.00  0.00     0.171 HD
BRANCH  20  23
HETATM   23  O1  UNL     1      -6.531  -0.342   0.593  1.00  0.00    -0.304 OA
BRANCH  23  24
HETATM   24  C2  UNL     1      -7.412   0.252   1.493  1.00  0.00     0.176 C 
HETATM   25  C1  UNL     1      -7.535   1.735   1.359  1.00  0.00     0.034 C 
ENDBRANCH  23  24
ENDBRANCH  20  23
ENDBRANCH  16  19
ENDBRANCH   1  13
BRANCH   8  26
HETATM   26  O3  UNL     1       5.401   0.695   1.954  1.00  0.00    -0.356 OA
HETATM   27  C13 UNL     1       6.086  -0.142   2.864  1.00  0.00     0.210 C 
ENDBRANCH   8  26
TORSDOF 5
