REMARK  8 active torsions:
REMARK  status: ('A' for Active; 'I' for Inactive)
REMARK    1  A    between atoms: C2_2  and  O1_3 
REMARK    2  A    between atoms: O1_3  and  C3_4 
REMARK       I    between atoms: C3_4  and  N1_6 
REMARK    3  A    between atoms: N1_6  and  C4_7 
REMARK    4  A    between atoms: C7_10  and  C8_11 
REMARK    5  A    between atoms: C8_11  and  N2_12 
REMARK    6  A    between atoms: N2_12  and  C9_13 
REMARK    7  A    between atoms: C13_19  and  O3_20 
REMARK    8  A    between atoms: C15_22  and  O4_23 
ROOT
HETATM    1  N2  UNL     1      -1.209   0.678   1.290  1.00  0.00    -0.370 N 
HETATM    2  H12 UNL     1      -1.513  -0.058   1.960  1.00  0.00     0.161 HD
ENDROOT
BRANCH   1   3
HETATM    3  C8  UNL     1       0.077   1.294   1.525  1.00  0.00     0.155 C 
BRANCH   3   4
HETATM    4  C7  UNL     1       1.028   1.124   0.431  1.00  0.00    -0.058 C 
HETATM    5  C6  UNL     1       1.459  -0.232  -0.013  1.00  0.00     0.065 C 
HETATM    6  C5  UNL     1       2.917  -0.420  -0.040  1.00  0.00     0.008 C 
HETATM    7  C4  UNL     1       3.704   0.394  -0.722  1.00  0.00     0.038 C 
HETATM    8  P1  UNL     1       2.736   1.707  -1.568  1.00  0.00    -0.053 P 
HETATM    9  C19 UNL     1       1.550   2.189  -0.216  1.00  0.00     0.015 C 
HETATM   10  H23 UNL     1       3.551   2.816  -1.956  1.00  0.00     0.068 HD
BRANCH   7  11
HETATM   11  N1  UNL     1       5.114   0.366  -0.861  1.00  0.00    -0.302 N 
HETATM   12  C3  UNL     1       6.036  -0.526  -0.316  1.00  0.00     0.365 C 
HETATM   13  O2  UNL     1       5.669  -1.458   0.405  1.00  0.00    -0.238 OA
HETATM   14  H6  UNL     1       5.562   1.102  -1.447  1.00  0.00     0.171 HD
BRANCH  12  15
HETATM   15  O1  UNL     1       7.406  -0.460  -0.519  1.00  0.00    -0.304 OA
BRANCH  15  16
HETATM   16  C2  UNL     1       8.314  -1.366   0.039  1.00  0.00     0.176 C 
HETATM   17  C1  UNL     1       8.251  -1.349   1.538  1.00  0.00     0.034 C 
ENDBRANCH  15  16
ENDBRANCH  12  15
ENDBRANCH   7  11
ENDBRANCH   3   4
ENDBRANCH   1   3
BRANCH   1  18
HETATM   18  C9  UNL     1      -1.967   1.114   0.168  1.00  0.00     0.137 A 
HETATM   19  N3  UNL     1      -1.478   2.075  -0.637  1.00  0.00    -0.224 NA
HETATM   20  C10 UNL     1      -2.226   2.457  -1.684  1.00  0.00     0.235 A 
HETATM   21  N4  UNL     1      -3.449   1.945  -1.999  1.00  0.00    -0.241 NA
HETATM   22  C11 UNL     1      -3.983   0.975  -1.218  1.00  0.00     0.075 A 
HETATM   23  C12 UNL     1      -5.212   0.441  -1.511  1.00  0.00     0.072 A 
HETATM   24  C18 UNL     1      -3.221   0.580  -0.144  1.00  0.00     0.041 A 
HETATM   25  C13 UNL     1      -5.738  -0.545  -0.703  1.00  0.00     0.103 A 
HETATM   26  C15 UNL     1      -5.002  -0.970   0.387  1.00  0.00     0.102 A 
HETATM   27  C17 UNL     1      -3.770  -0.403   0.642  1.00  0.00     0.057 A 
BRANCH  25  28
HETATM   28  O3  UNL     1      -6.972  -1.068  -1.013  1.00  0.00    -0.353 OA
HETATM   29  C14 UNL     1      -7.656  -0.576  -2.147  1.00  0.00     0.210 C 
ENDBRANCH  25  28
BRANCH  26  30
HETATM   30  O4  UNL     1      -5.606  -1.965   1.145  1.00  0.00    -0.353 OA
HETATM   31  C16 UNL     1      -4.967  -2.500   2.297  1.00  0.00     0.210 C 
ENDBRANCH  26  30
ENDBRANCH   1  18
TORSDOF 8
