REMARK  7 active torsions:
REMARK  status: ('A' for Active; 'I' for Inactive)
REMARK    1  A    between atoms: C2_2  and  O1_3 
REMARK    2  A    between atoms: O1_3  and  C3_4 
REMARK       I    between atoms: C3_4  and  N1_6 
REMARK    3  A    between atoms: N1_6  and  C4_7 
REMARK    4  A    between atoms: C7_10  and  O3_11 
REMARK    5  A    between atoms: O3_11  and  C8_12 
REMARK    6  A    between atoms: C12_18  and  C13_19 
REMARK    7  A    between atoms: C15_21  and  O4_22 
ROOT
HETATM    1  C8  UNL     1      -1.221   1.034   0.348  1.00  0.00     0.183 A 
HETATM    2  N2  UNL     1      -0.661   2.250   0.440  1.00  0.00    -0.217 NA
HETATM    3  C9  UNL     1      -1.499   3.314   0.306  1.00  0.00     0.236 A 
HETATM    4  N3  UNL     1      -2.817   3.178   0.094  1.00  0.00    -0.241 NA
HETATM    5  C10 UNL     1      -3.415   1.965  -0.004  1.00  0.00     0.073 A 
HETATM    6  C11 UNL     1      -4.768   1.802  -0.222  1.00  0.00     0.042 A 
HETATM    7  C12 UNL     1      -5.324   0.520  -0.313  1.00  0.00    -0.023 A 
HETATM    8  C15 UNL     1      -4.489  -0.561  -0.180  1.00  0.00     0.075 A 
HETATM    9  C17 UNL     1      -3.153  -0.367   0.035  1.00  0.00     0.055 A 
HETATM   10  C18 UNL     1      -2.564   0.871   0.132  1.00  0.00     0.049 A 
ENDROOT
BRANCH   1  11
HETATM   11  O3  UNL     1      -0.494  -0.143   0.464  1.00  0.00    -0.291 OA
BRANCH  11  12
HETATM   12  C7  UNL     1       0.870  -0.208   0.683  1.00  0.00     0.078 A 
HETATM   13  C6  UNL     1       1.439  -0.245   1.921  1.00  0.00     0.039 A 
HETATM   14  C5  UNL     1       2.803  -0.310   2.096  1.00  0.00     0.032 A 
HETATM   15  C4  UNL     1       3.683  -0.341   1.039  1.00  0.00     0.037 A 
HETATM   16  C20 UNL     1       3.076  -0.302  -0.193  1.00  0.00     0.032 A 
HETATM   17  C19 UNL     1       1.716  -0.237  -0.401  1.00  0.00     0.039 A 
BRANCH  15  18
HETATM   18  N1  UNL     1       5.072  -0.407   1.300  1.00  0.00    -0.303 N 
HETATM   19  C3  UNL     1       6.138  -0.448   0.400  1.00  0.00     0.365 C 
HETATM   20  O2  UNL     1       5.936  -0.427  -0.818  1.00  0.00    -0.238 OA
HETATM   21  H6  UNL     1       5.396  -0.431   2.293  1.00  0.00     0.171 HD
BRANCH  19  22
HETATM   22  O1  UNL     1       7.472  -0.513   0.753  1.00  0.00    -0.304 OA
BRANCH  22  23
HETATM   23  C2  UNL     1       8.498  -0.551  -0.251  1.00  0.00     0.176 C 
HETATM   24  C1  UNL     1       8.431   0.685  -1.105  1.00  0.00     0.034 C 
ENDBRANCH  22  23
ENDBRANCH  19  22
ENDBRANCH  15  18
ENDBRANCH  11  12
ENDBRANCH   1  11
BRANCH   8  25
HETATM   25  O4  UNL     1      -5.140  -1.776  -0.287  1.00  0.00    -0.355 OA
HETATM   26  C16 UNL     1      -4.326  -2.931  -0.157  1.00  0.00     0.210 C 
ENDBRANCH   8  25
BRANCH   7  27
HETATM   27  C13 UNL     1      -6.788   0.569  -0.549  1.00  0.00     0.037 C 
HETATM   28  C14 UNL     1      -7.414  -0.801  -0.652  1.00  0.00     0.010 C 
ENDBRANCH   7  27
TORSDOF 7
