REMARK  4 active torsions:
REMARK  status: ('A' for Active; 'I' for Inactive)
REMARK    1  A    between atoms: C6_7  and  N2_8 
REMARK       I    between atoms: N2_8  and  C7_9 
REMARK    2  A    between atoms: C7_9  and  O2_11 
REMARK    3  A    between atoms: O2_11  and  C8_12 
REMARK    4  A    between atoms: C14_18  and  O3_19 
ROOT
HETATM    1  C1  UNL     1      -4.988   0.089  -1.965  1.00  0.00     0.041 C 
HETATM    2  C2  UNL     1      -3.762  -0.052  -1.466  1.00  0.00     0.032 C 
HETATM    3  N1  UNL     1      -2.403   0.205  -1.672  1.00  0.00    -0.262 NA
HETATM    4  C3  UNL     1      -1.639  -0.860  -1.652  1.00  0.00     0.017 C 
HETATM    5  C4  UNL     1      -0.341  -0.949  -2.421  1.00  0.00     0.083 C 
HETATM    6  C5  UNL     1       0.798  -0.743  -1.543  1.00  0.00     0.004 C 
HETATM    7  C6  UNL     1       1.591  -0.550  -0.487  1.00  0.00     0.014 C 
HETATM    8  C10 UNL     1       0.810  -0.577   0.749  1.00  0.00     0.083 C 
HETATM    9  C11 UNL     1       0.739   0.663   1.528  1.00  0.00    -0.024 C 
HETATM   10  C12 UNL     1      -0.522   1.145   1.606  1.00  0.00    -0.022 C 
HETATM   11  C13 UNL     1      -1.460   0.262   0.860  1.00  0.00     0.057 C 
HETATM   12  C14 UNL     1      -2.792   0.327   0.656  1.00  0.00     0.109 C 
HETATM   13  C16 UNL     1      -3.378  -0.722  -0.151  1.00  0.00     0.080 C 
HETATM   14  C17 UNL     1      -2.431  -1.743  -0.769  1.00  0.00     0.069 C 
ENDROOT
BRANCH   7  15
HETATM   15  N2  UNL     1       3.030  -0.413  -0.528  1.00  0.00    -0.306 N 
HETATM   16  C7  UNL     1       3.922   0.628  -0.251  1.00  0.00     0.364 C 
HETATM   17  O1  UNL     1       3.531   1.760   0.119  1.00  0.00    -0.238 OA
HETATM   18  H6  UNL     1       3.296  -1.373  -0.845  1.00  0.00     0.171 HD
BRANCH  16  19
HETATM   19  O2  UNL     1       5.267   0.348  -0.407  1.00  0.00    -0.304 OA
BRANCH  19  20
HETATM   20  C8  UNL     1       6.151   1.440  -0.115  1.00  0.00     0.176 C 
HETATM   21  C9  UNL     1       5.916   1.824   1.328  1.00  0.00     0.034 C 
ENDBRANCH  19  20
ENDBRANCH  16  19
ENDBRANCH   7  15
BRANCH  12  22
HETATM   22  O3  UNL     1      -4.016   1.020   0.882  1.00  0.00    -0.380 OA
HETATM   23  C15 UNL     1      -4.786   0.686   2.046  1.00  0.00     0.202 C 
ENDBRANCH  12  22
TORSDOF 4
