REMARK  3 active torsions:
REMARK  status: ('A' for Active; 'I' for Inactive)
REMARK    1  A    between atoms: C14_18  and  C15_19 
REMARK    2  A    between atoms: C15_19  and  O3_21 
REMARK    3  A    between atoms: C18_24  and  N3_25 
ROOT
HETATM    1  C1  UNL     1       0.023  -2.631  -0.413  1.00  0.00     0.055 C 
HETATM    2  C2  UNL     1       0.808  -1.370  -0.062  1.00  0.00     0.139 C 
HETATM    3  F1  UNL     1       0.783  -0.653  -1.274  1.00  0.00    -0.240 F 
HETATM    4  C3  UNL     1       2.219  -1.658   0.270  1.00  0.00     0.044 C 
HETATM    5  C4  UNL     1       2.978  -0.631  -0.073  1.00  0.00     0.024 C 
HETATM    6  C5  UNL     1       4.311  -0.069  -0.127  1.00  0.00    -0.019 C 
HETATM    7  C6  UNL     1       4.297   1.142  -0.663  1.00  0.00     0.028 C 
HETATM    8  C7  UNL     1       3.016   1.728  -1.108  1.00  0.00     0.062 A 
HETATM    9  C8  UNL     1       2.229   1.765   0.012  1.00  0.00     0.089 A 
HETATM   10  C9  UNL     1       0.934   2.215  -0.128  1.00  0.00     0.173 A 
HETATM   11  N1  UNL     1       0.487   2.609  -1.359  1.00  0.00    -0.217 NA
HETATM   12  C10 UNL     1       1.310   2.554  -2.432  1.00  0.00     0.236 A 
HETATM   13  N2  UNL     1       2.571   2.111  -2.292  1.00  0.00    -0.242 NA
HETATM   14  O1  UNL     1      -0.132   2.367   0.789  1.00  0.00    -0.291 OA
HETATM   15  C11 UNL     1      -1.147   1.396   0.563  1.00  0.00     0.086 A 
HETATM   16  C12 UNL     1      -2.293   2.114   0.200  1.00  0.00     0.039 A 
HETATM   17  C13 UNL     1      -3.499   1.470  -0.101  1.00  0.00     0.021 A 
HETATM   18  C14 UNL     1      -3.540   0.093  -0.033  1.00  0.00     0.038 A 
HETATM   19  C16 UNL     1      -2.393  -0.574   0.327  1.00  0.00     0.030 A 
HETATM   20  C17 UNL     1      -1.188  -0.011   0.633  1.00  0.00     0.013 A 
HETATM   21  C18 UNL     1       0.080  -0.655   1.034  1.00  0.00     0.293 C 
ENDROOT
BRANCH  18  22
HETATM   22  C15 UNL     1      -4.754  -0.654  -0.331  1.00  0.00     0.176 C 
HETATM   23  O2  UNL     1      -5.777  -0.011  -0.653  1.00  0.00    -0.646 OA
BRANCH  22  24
HETATM   24  O3  UNL     1      -4.769  -2.038  -0.257  1.00  0.00    -0.773 OA
HETATM   25  H12 UNL     1      -5.559  -2.598  -0.553  1.00  0.00     0.167 HD
ENDBRANCH  22  24
ENDBRANCH  18  22
BRANCH  21  26
HETATM   26  N3  UNL     1      -0.200  -1.732   2.031  1.00  0.00     0.090 N 
HETATM   27  H15 UNL     1      -0.050  -1.336   2.982  1.00  0.00     0.313 HD
HETATM   28  H16 UNL     1      -1.223  -1.899   1.961  1.00  0.00     0.313 HD
ENDBRANCH  21  26
TORSDOF 3
