REMARK  9 active torsions:
REMARK  status: ('A' for Active; 'I' for Inactive)
REMARK    1  A    between atoms: C2_2  and  O1_3 
REMARK    2  A    between atoms: O1_3  and  C3_4 
REMARK    3  A    between atoms: C3_4  and  C4_6 
REMARK    4  A    between atoms: C4_6  and  N1_7 
REMARK    5  A    between atoms: N1_7  and  C5_8 
REMARK    6  A    between atoms: C5_8  and  C6_9 
REMARK    7  A    between atoms: O3_12  and  C9_13 
REMARK    8  A    between atoms: C13_19  and  O4_20 
REMARK    9  A    between atoms: C14_21  and  O5_22 
ROOT
HETATM    1  C6  UNL     1       1.687   1.308   0.213  1.00  0.00    -0.047 C 
HETATM    2  C7  UNL     1       0.826   0.384   0.497  1.00  0.00     0.014 C 
HETATM    3  C8  UNL     1      -0.512   0.205   0.073  1.00  0.00    -0.034 A 
HETATM    4  O3  UNL     1      -1.796   0.006  -0.303  1.00  0.00     0.000 OA
HETATM    5  C18 UNL     1      -0.992   0.915  -0.963  1.00  0.00     0.050 A 
HETATM    6  P1  UNL     1      -0.409   2.464  -0.933  1.00  0.00    -0.066 P 
HETATM    7  C19 UNL     1       1.457   2.467  -0.677  1.00  0.00     0.076 C 
ENDROOT
BRANCH   4   8
HETATM    8  C9  UNL     1      -2.756  -0.198   0.718  1.00  0.00     0.100 A 
HETATM    9  N2  UNL     1      -2.418  -0.194   2.012  1.00  0.00    -0.239 NA
HETATM   10  C10 UNL     1      -3.366  -0.391   2.917  1.00  0.00     0.234 A 
HETATM   11  N3  UNL     1      -4.676  -0.597   2.591  1.00  0.00    -0.241 NA
HETATM   12  C11 UNL     1      -5.054  -0.607   1.288  1.00  0.00     0.073 A 
HETATM   13  C12 UNL     1      -6.346  -0.805   0.870  1.00  0.00     0.072 A 
HETATM   14  C17 UNL     1      -4.066  -0.403   0.349  1.00  0.00     0.027 A 
HETATM   15  C13 UNL     1      -6.588  -0.788  -0.507  1.00  0.00     0.101 A 
HETATM   16  C14 UNL     1      -5.587  -0.582  -1.465  1.00  0.00     0.102 A 
HETATM   17  C16 UNL     1      -4.307  -0.387  -1.007  1.00  0.00     0.055 A 
BRANCH  15  18
HETATM   18  O4  UNL     1      -7.930  -0.997  -0.875  1.00  0.00    -0.358 OA
HETATM   19  H14 UNL     1      -8.223  -1.955  -0.990  1.00  0.00     0.217 HD
ENDBRANCH  15  18
BRANCH  16  20
HETATM   20  O5  UNL     1      -6.048  -0.605  -2.776  1.00  0.00    -0.353 OA
HETATM   21  C15 UNL     1      -5.113  -0.407  -3.817  1.00  0.00     0.210 C 
ENDBRANCH  16  20
ENDBRANCH   4   8
BRANCH   1  22
HETATM   22  C5  UNL     1       2.973   1.108   0.877  1.00  0.00     0.304 C 
BRANCH  22  23
HETATM   23  N1  UNL     1       3.054  -0.064   1.720  1.00  0.00     0.096 N 
HETATM   24  H8  UNL     1       2.782  -0.923   1.174  1.00  0.00     0.316 HD
BRANCH  23  25
HETATM   25  C4  UNL     1       4.355  -0.200   2.345  1.00  0.00     0.380 C 
BRANCH  25  26
HETATM   26  C3  UNL     1       5.385  -0.512   1.345  1.00  0.00     0.287 C 
HETATM   27  O2  UNL     1       6.562  -0.681   1.687  1.00  0.00    -0.263 OA
BRANCH  26  28
HETATM   28  O1  UNL     1       5.258  -0.664  -0.039  1.00  0.00    -0.321 OA
BRANCH  28  29
HETATM   29  C2  UNL     1       6.418  -0.972  -0.823  1.00  0.00     0.174 C 
HETATM   30  C1  UNL     1       7.423   0.144  -0.645  1.00  0.00     0.034 C 
ENDBRANCH  28  29
ENDBRANCH  26  28
ENDBRANCH  25  26
ENDBRANCH  23  25
ENDBRANCH  22  23
ENDBRANCH   1  22
TORSDOF 9
