REMARK  2 active torsions:
REMARK  status: ('A' for Active; 'I' for Inactive)
REMARK    1  A    between atoms: C2_2  and  C3_3 
REMARK    2  A    between atoms: C15_18  and  O1_19 
ROOT
HETATM    1  C3  UNL     1      -3.726  -1.871  -0.628  1.00  0.00     0.018 C 
HETATM    2  C4  UNL     1      -3.713  -0.693  -0.032  1.00  0.00     0.025 C 
HETATM    3  C5  UNL     1      -3.520   0.551   0.625  1.00  0.00     0.002 C 
HETATM    4  C6  UNL     1      -2.459   1.179   1.120  1.00  0.00     0.007 C 
HETATM    5  C7  UNL     1      -2.506   2.423   1.702  1.00  0.00    -0.052 C 
HETATM    6  C8  UNL     1      -2.790   3.150   2.695  1.00  0.00     0.009 C 
HETATM    7  C9  UNL     1      -1.831   4.286   3.008  1.00  0.00     0.025 C 
HETATM    8  C10 UNL     1      -0.929   4.079   1.955  1.00  0.00     0.010 C 
HETATM    9  C11 UNL     1      -1.752   3.459   0.853  1.00  0.00     0.095 C 
HETATM   10  N1  UNL     1       0.405   4.588   2.346  1.00  0.00    -0.376 N 
HETATM   11  C12 UNL     1       1.556   3.853   1.776  1.00  0.00     0.263 C 
HETATM   12  N2  UNL     1       0.902   2.571   1.386  1.00  0.00    -0.297 N 
HETATM   13  N3  UNL     1       1.776   1.767   0.830  1.00  0.00    -0.194 NA
HETATM   14  C13 UNL     1       3.021   1.931   0.459  1.00  0.00     0.119 C 
HETATM   15  C14 UNL     1       4.317   1.350  -0.183  1.00  0.00     0.127 C 
HETATM   16  C15 UNL     1       3.914  -0.044  -0.701  1.00  0.00     0.025 C 
HETATM   17  C17 UNL     1       2.313  -0.663  -0.535  1.00  0.00     0.088 C 
HETATM   18  C18 UNL     1       2.877  -1.776  -1.210  1.00  0.00     0.023 C 
HETATM   19  C19 UNL     1       2.506  -3.124  -1.760  1.00  0.00     0.175 C 
HETATM   20  O2  UNL     1       1.108  -3.244  -1.496  1.00  0.00    -0.372 OA
HETATM   21  C20 UNL     1       0.554  -4.185  -2.289  1.00  0.00     0.294 C 
HETATM   22  N4  UNL     1      -0.853  -4.350  -1.845  1.00  0.00    -0.322 N 
HETATM   23  C21 UNL     1      -1.554  -3.232  -1.492  1.00  0.00     0.322 C 
HETATM   24  O3  UNL     1      -1.090  -2.137  -1.427  1.00  0.00    -0.247 OA
HETATM   25  N5  UNL     1      -2.844  -2.865  -1.104  1.00  0.00    -0.312 N 
HETATM   26  H11 UNL     1       0.621   5.399   2.949  1.00  0.00     0.161 HD
HETATM   27  H14 UNL     1       0.558   1.638   1.078  1.00  0.00     0.184 HD
HETATM   28  H26 UNL     1      -1.621  -5.001  -1.626  1.00  0.00     0.166 HD
HETATM   29  H27 UNL     1      -3.301  -3.750  -1.323  1.00  0.00     0.170 HD
ENDROOT
BRANCH   1  30
HETATM   30  C2  UNL     1      -5.165  -1.551  -0.645  1.00  0.00     0.045 C 
HETATM   31  C1  UNL     1      -6.413  -2.144  -1.123  1.00  0.00     0.012 C 
ENDBRANCH   1  30
BRANCH  16  32
HETATM   32  O1  UNL     1       5.164  -0.599  -1.311  1.00  0.00    -0.396 OA
HETATM   33  C16 UNL     1       6.221  -0.624  -0.335  1.00  0.00     0.201 C 
ENDBRANCH  16  32
TORSDOF 2
