REMARK  3 active torsions:
REMARK  status: ('A' for Active; 'I' for Inactive)
REMARK    1  A    between atoms: C2_2  and  C3_3 
REMARK    2  A    between atoms: C15_21  and  O4_22 
REMARK    3  A    between atoms: C17_24  and  O5_25 
ROOT
HETATM    1  C3  UNL     1      -2.466   2.227  -0.538  1.00  0.00    -0.057 C 
HETATM    2  C4  UNL     1      -1.647   3.349  -1.014  1.00  0.00     0.003 C 
HETATM    3  C5  UNL     1      -0.363   3.516  -1.219  1.00  0.00    -0.021 C 
HETATM    4  C6  UNL     1       0.954   4.090  -1.566  1.00  0.00     0.068 C 
HETATM    5  P1  UNL     1       1.979   4.013  -0.016  1.00  0.00    -0.020 P 
HETATM    6  C7  UNL     1       3.215   2.705  -0.066  1.00  0.00     0.280 C 
HETATM    7  O1  UNL     1       3.469   2.585   1.143  1.00  0.00    -0.260 OA
HETATM    8  O2  UNL     1       3.768   1.998  -1.094  1.00  0.00    -0.316 OA
HETATM    9  C8  UNL     1       4.725   1.010  -0.973  1.00  0.00     0.205 C 
HETATM   10  C9  UNL     1       4.260  -0.196  -0.237  1.00  0.00     0.195 C 
HETATM   11  O3  UNL     1       3.867   0.073   1.044  1.00  0.00    -0.383 OA
HETATM   12  C10 UNL     1       3.496  -1.058   1.757  1.00  0.00     0.226 C 
HETATM   13  C11 UNL     1       2.400  -1.803   1.149  1.00  0.00     0.061 A 
HETATM   14  C12 UNL     1       1.087  -1.654   1.520  1.00  0.00     0.064 A 
HETATM   15  C13 UNL     1       0.172  -2.445   0.819  1.00  0.00     0.096 A 
HETATM   16  N1  UNL     1       0.488  -3.313  -0.159  1.00  0.00    -0.239 NA
HETATM   17  C14 UNL     1       1.791  -3.424  -0.486  1.00  0.00     0.234 A 
HETATM   18  N2  UNL     1       2.689  -2.675   0.170  1.00  0.00    -0.244 NA
HETATM   19  C15 UNL     1      -1.299  -2.482   0.994  1.00  0.00     0.126 C 
HETATM   20  C17 UNL     1      -1.812  -1.327   0.642  1.00  0.00     0.082 C 
HETATM   21  C19 UNL     1      -1.465  -0.014   0.142  1.00  0.00     0.040 C 
HETATM   22  C20 UNL     1      -2.414   0.895  -0.077  1.00  0.00     0.070 C 
HETATM   23  H9  UNL     1       2.510   5.300   0.372  1.00  0.00     0.068 HD
ENDROOT
BRANCH   1  24
HETATM   24  C2  UNL     1      -3.702   2.681  -0.562  1.00  0.00    -0.024 C 
HETATM   25  C1  UNL     1      -4.899   1.909  -0.165  1.00  0.00     0.036 C 
ENDBRANCH   1  24
BRANCH  20  26
HETATM   26  O5  UNL     1      -3.171  -1.466   0.839  1.00  0.00    -0.357 OA
HETATM   27  C18 UNL     1      -4.012  -1.943  -0.205  1.00  0.00     0.209 C 
ENDBRANCH  20  26
BRANCH  19  28
HETATM   28  O4  UNL     1      -1.906  -3.594   1.454  1.00  0.00    -0.351 OA
HETATM   29  C16 UNL     1      -1.917  -4.865   0.887  1.00  0.00     0.210 C 
ENDBRANCH  19  28
TORSDOF 3
