REMARK  9 active torsions:
REMARK  status: ('A' for Active; 'I' for Inactive)
REMARK    1  A    between atoms: C2_2  and  P1_3 
REMARK    2  A    between atoms: P1_3  and  C3_4 
REMARK    3  A    between atoms: P1_3  and  C16_21 
REMARK    4  A    between atoms: C5_6  and  C6_7 
REMARK    5  A    between atoms: C6_7  and  O1_8 
REMARK    6  A    between atoms: O1_8  and  C7_9 
REMARK    7  A    between atoms: C12_16  and  O2_17 
REMARK    8  A    between atoms: C16_21  and  O4_23 
REMARK    9  A    between atoms: O4_23  and  C17_24 
ROOT
HETATM    1  O1  UNL     1      -0.857   1.015  -0.065  1.00  0.00    -0.333 OA
ENDROOT
BRANCH   1   2
HETATM    2  C6  UNL     1       0.062   1.808  -0.523  1.00  0.00     0.183 C 
BRANCH   2   3
HETATM    3  C5  UNL     1       0.480   1.575  -1.969  1.00  0.00     0.025 A 
HETATM    4  C4  UNL     1       1.464   1.277  -2.806  1.00  0.00     0.007 A 
HETATM    5  C3  UNL     1       2.020   1.282  -1.488  1.00  0.00     0.112 A 
BRANCH   5   6
HETATM    6  P1  UNL     1       3.627   0.814  -1.939  1.00  0.00    -0.038 P 
BRANCH   6   7
HETATM    7  C2  UNL     1       3.185  -0.743  -2.586  1.00  0.00    -0.024 C 
HETATM    8  C1  UNL     1       2.224  -0.981  -3.623  1.00  0.00     0.036 C 
ENDBRANCH   6   7
BRANCH   6   9
HETATM    9  C16 UNL     1       4.903   0.657  -0.631  1.00  0.00     0.276 C 
HETATM   10  O3  UNL     1       5.820   1.498  -0.447  1.00  0.00    -0.260 OA
BRANCH   9  11
HETATM   11  O4  UNL     1       4.897  -0.432   0.227  1.00  0.00    -0.319 OA
BRANCH  11  12
HETATM   12  C17 UNL     1       5.836  -0.624   1.249  1.00  0.00     0.174 C 
HETATM   13  C18 UNL     1       5.847   0.494   2.275  1.00  0.00     0.034 C 
ENDBRANCH  11  12
ENDBRANCH   9  11
ENDBRANCH   6   9
ENDBRANCH   5   6
ENDBRANCH   2   3
ENDBRANCH   1   2
BRANCH   1  14
HETATM   14  C7  UNL     1      -1.751   0.243   0.381  1.00  0.00     0.176 C 
HETATM   15  N1  UNL     1      -0.810  -0.679   0.353  1.00  0.00    -0.218 NA
HETATM   16  C8  UNL     1      -0.964  -2.051   0.746  1.00  0.00     0.229 C 
HETATM   17  N2  UNL     1      -1.788  -2.735   1.515  1.00  0.00    -0.282 NA
HETATM   18  C9  UNL     1      -2.937  -2.333   2.316  1.00  0.00     0.155 C 
HETATM   19  C10 UNL     1      -4.151  -1.993   1.520  1.00  0.00     0.064 C 
HETATM   20  C11 UNL     1      -4.180  -0.523   1.213  1.00  0.00    -0.009 A 
HETATM   21  C12 UNL     1      -4.948   0.565   1.191  1.00  0.00     0.076 A 
HETATM   22  C15 UNL     1      -3.145   0.370   0.737  1.00  0.00     0.029 A 
HETATM   23  C14 UNL     1      -3.908   1.440   0.717  1.00  0.00     0.053 A 
BRANCH  21  24
HETATM   24  O2  UNL     1      -6.301   0.799   1.513  1.00  0.00    -0.355 OA
HETATM   25  C13 UNL     1      -7.211   1.313   0.568  1.00  0.00     0.210 C 
ENDBRANCH  21  24
ENDBRANCH   1  14
TORSDOF 9
