REMARK  9 active torsions:
REMARK  status: ('A' for Active; 'I' for Inactive)
REMARK    1  A    between atoms: C2_2  and  O1_3 
REMARK    2  A    between atoms: O1_3  and  C3_4 
REMARK       I    between atoms: C3_4  and  N1_6 
REMARK    3  A    between atoms: N1_6  and  C4_7 
REMARK    4  A    between atoms: C7_10  and  O3_11 
REMARK    5  A    between atoms: O3_11  and  C8_12 
REMARK    6  A    between atoms: C8_12  and  C9_13 
REMARK    7  A    between atoms: C10_14  and  C11_15 
REMARK    8  A    between atoms: C11_15  and  O4_16 
REMARK    9  A    between atoms: C13_18  and  O5_20 
ROOT
HETATM    1  C4  UNL     1      -2.442  -0.395   0.870  1.00  0.00     0.037 A 
HETATM    2  C5  UNL     1      -1.685  -1.118  -0.030  1.00  0.00     0.032 A 
HETATM    3  C6  UNL     1      -0.700  -0.491  -0.730  1.00  0.00     0.039 A 
HETATM    4  C7  UNL     1      -0.422   0.835  -0.583  1.00  0.00     0.069 A 
HETATM    5  C15 UNL     1      -1.190   1.572   0.330  1.00  0.00     0.039 A 
HETATM    6  C16 UNL     1      -2.210   0.958   1.066  1.00  0.00     0.032 A 
ENDROOT
BRANCH   4   7
HETATM    7  O3  UNL     1       0.503   1.676  -1.166  1.00  0.00    -0.347 OA
BRANCH   7   8
HETATM    8  C8  UNL     1       1.457   1.323  -2.122  1.00  0.00     0.203 C 
BRANCH   8   9
HETATM    9  C9  UNL     1       2.356   0.296  -1.544  1.00  0.00     0.002 C 
HETATM   10  C10 UNL     1       3.674   0.522  -1.433  1.00  0.00     0.038 C 
BRANCH  10  11
HETATM   11  C11 UNL     1       4.808  -0.241  -0.929  1.00  0.00     0.113 C 
HETATM   12  C13 UNL     1       6.081   0.068  -0.861  1.00  0.00     0.172 C 
HETATM   13 CL1  UNL     1       7.146  -1.141  -0.178  1.00  0.00    -0.054 Cl
BRANCH  11  14
HETATM   14  O4  UNL     1       4.288  -1.449  -0.495  1.00  0.00    -0.352 OA
HETATM   15  C12 UNL     1       3.941  -1.710   0.867  1.00  0.00     0.210 C 
ENDBRANCH  11  14
BRANCH  12  16
HETATM   16  O5  UNL     1       6.562   1.285  -1.306  1.00  0.00    -0.343 OA
HETATM   17  C14 UNL     1       6.934   2.332  -0.432  1.00  0.00     0.211 C 
ENDBRANCH  12  16
ENDBRANCH  10  11
ENDBRANCH   8   9
ENDBRANCH   7   8
ENDBRANCH   4   7
BRANCH   1  18
HETATM   18  N1  UNL     1      -3.474  -1.035   1.612  1.00  0.00    -0.303 N 
HETATM   19  C3  UNL     1      -4.785  -1.077   1.058  1.00  0.00     0.365 C 
HETATM   20  O2  UNL     1      -4.847  -0.510  -0.074  1.00  0.00    -0.238 OA
HETATM   21  H6  UNL     1      -3.323  -1.489   2.562  1.00  0.00     0.171 HD
BRANCH  19  22
HETATM   22  O1  UNL     1      -5.872  -1.674   1.691  1.00  0.00    -0.304 OA
BRANCH  22  23
HETATM   23  C2  UNL     1      -7.126  -1.640   1.019  1.00  0.00     0.176 C 
HETATM   24  C1  UNL     1      -7.588  -0.231   0.761  1.00  0.00     0.034 C 
ENDBRANCH  22  23
ENDBRANCH  19  22
ENDBRANCH   1  18
TORSDOF 9
