REMARK  7 active torsions:
REMARK  status: ('A' for Active; 'I' for Inactive)
REMARK    1  A    between atoms: O1_2  and  C2_3 
REMARK    2  A    between atoms: C5_6  and  O2_7 
REMARK    3  A    between atoms: O2_7  and  C6_8 
REMARK    4  A    between atoms: C10_13  and  N1_14 
REMARK    5  A    between atoms: N1_14  and  C11_15 
REMARK    6  A    between atoms: C11_15  and  C12_16 
REMARK    7  A    between atoms: C17_24  and  O4_25 
ROOT
HETATM    1  C2  UNL     1      -3.946   0.368  -0.876  1.00  0.00     0.102 A 
HETATM    2  C3  UNL     1      -2.648  -0.040  -0.630  1.00  0.00     0.057 A 
HETATM    3  C4  UNL     1      -1.525   0.594  -1.121  1.00  0.00     0.048 A 
HETATM    4  C5  UNL     1      -0.237   0.179  -0.882  1.00  0.00     0.178 A 
HETATM    5  N2  UNL     1       0.757   0.895  -1.439  1.00  0.00    -0.217 NA
HETATM    6  C14 UNL     1       0.520   1.977  -2.202  1.00  0.00     0.236 A 
HETATM    7  N3  UNL     1      -0.752   2.406  -2.452  1.00  0.00    -0.241 NA
HETATM    8  C15 UNL     1      -1.795   1.719  -1.914  1.00  0.00     0.075 A 
HETATM    9  C16 UNL     1      -3.038   2.183  -2.202  1.00  0.00     0.072 A 
HETATM   10  C17 UNL     1      -4.134   1.493  -1.672  1.00  0.00     0.101 A 
ENDROOT
BRANCH   4  11
HETATM   11  O2  UNL     1      -0.270  -0.935  -0.082  1.00  0.00    -0.331 OA
BRANCH  11  12
HETATM   12  C6  UNL     1       1.036  -1.587   0.244  1.00  0.00     0.043 A 
HETATM   13  C7  UNL     1       1.331  -3.028  -0.693  1.00  0.00     0.042 A 
HETATM   14  C8  UNL     1       1.653  -2.406   0.005  1.00  0.00    -0.031 A 
HETATM   15  B1  UNL     1       2.372  -0.908   1.642  1.00  0.00     0.274 B 
HETATM   16  C9  UNL     1       2.790   0.034   2.648  1.00  0.00    -0.026 A 
HETATM   17  C10 UNL     1       3.788  -1.013   2.525  1.00  0.00     0.077 A 
HETATM   18  C13 UNL     1       1.683  -0.523   1.495  1.00  0.00    -0.026 A 
BRANCH  17  19
HETATM   19  N1  UNL     1       4.640  -0.853   1.345  1.00  0.00    -0.403 N 
HETATM   20  H8  UNL     1       4.605  -1.654   0.663  1.00  0.00     0.157 HD
BRANCH  19  21
HETATM   21  C11 UNL     1       5.425   0.326   1.207  1.00  0.00     0.141 C 
BRANCH  21  22
HETATM   22  C12 UNL     1       5.280   1.259   0.279  1.00  0.00     0.237 C 
HETATM   23  O3  UNL     1       5.228   1.837  -0.835  1.00  0.00    -0.283 OA
ENDBRANCH  21  22
ENDBRANCH  19  21
ENDBRANCH  17  19
ENDBRANCH  11  12
ENDBRANCH   4  11
BRANCH   1  24
HETATM   24  O1  UNL     1      -5.061  -0.271  -0.382  1.00  0.00    -0.353 OA
HETATM   25  C1  UNL     1      -4.946  -1.424   0.440  1.00  0.00     0.210 C 
ENDBRANCH   1  24
BRANCH  10  26
HETATM   26  O4  UNL     1      -5.429   1.922  -1.933  1.00  0.00    -0.358 OA
HETATM   27  H13 UNL     1      -5.651   2.892  -2.163  1.00  0.00     0.217 HD
ENDBRANCH  10  26
TORSDOF 7
