REMARK  4 active torsions:
REMARK  status: ('A' for Active; 'I' for Inactive)
REMARK    1  A    between atoms: O1_2  and  C2_3 
REMARK    2  A    between atoms: C6_9  and  N3_10 
REMARK    3  A    between atoms: N3_10  and  C8_13 
REMARK    4  A    between atoms: C16_21  and  O3_22 
ROOT
HETATM    1  N3  UNL     1       1.866  -0.403   0.708  1.00  0.00    -0.284 N 
HETATM    2  C7  UNL     1       2.196  -0.142   2.077  1.00  0.00     0.483 C 
HETATM    3  O2  UNL     1       2.543   0.131   3.255  1.00  0.00    -0.391 OA
ENDROOT
BRANCH   1   4
HETATM    4  C6  UNL     1       0.754  -1.270   0.535  1.00  0.00     0.149 A 
HETATM    5  N2  UNL     1       1.075  -2.592   0.450  1.00  0.00    -0.223 NA
HETATM    6  C5  UNL     1       0.135  -3.536   0.285  1.00  0.00     0.236 A 
HETATM    7  N1  UNL     1      -1.172  -3.209   0.195  1.00  0.00    -0.241 NA
HETATM    8  C4  UNL     1      -1.545  -1.930   0.271  1.00  0.00     0.075 A 
HETATM    9  C3  UNL     1      -2.851  -1.474   0.193  1.00  0.00     0.072 A 
HETATM   10  C14 UNL     1      -0.585  -0.955   0.441  1.00  0.00     0.042 A 
HETATM   11  C2  UNL     1      -3.133  -0.132   0.283  1.00  0.00     0.103 A 
HETATM   12  C16 UNL     1      -2.170   0.840   0.454  1.00  0.00     0.102 A 
HETATM   13  C15 UNL     1      -0.867   0.392   0.532  1.00  0.00     0.057 A 
BRANCH  11  14
HETATM   14  O1  UNL     1      -4.466   0.226   0.194  1.00  0.00    -0.353 OA
HETATM   15  C1  UNL     1      -5.521  -0.664   0.023  1.00  0.00     0.210 C 
ENDBRANCH  11  14
BRANCH  12  16
HETATM   16  O3  UNL     1      -2.596   2.150   0.528  1.00  0.00    -0.353 OA
HETATM   17  C17 UNL     1      -1.816   3.286   0.698  1.00  0.00     0.210 C 
ENDBRANCH  12  16
ENDBRANCH   1   4
BRANCH   1  18
HETATM   18  C8  UNL     1       2.668   0.210  -0.310  1.00  0.00     0.042 A 
HETATM   19  C9  UNL     1       3.719  -0.660  -0.622  1.00  0.00     0.030 A 
HETATM   20  C10 UNL     1       4.662  -0.305  -1.595  1.00  0.00     0.002 A 
HETATM   21  C11 UNL     1       4.532   0.909  -2.232  1.00  0.00     0.000 A 
HETATM   22  C12 UNL     1       3.491   1.755  -1.913  1.00  0.00     0.002 A 
HETATM   23  C13 UNL     1       2.564   1.419  -0.963  1.00  0.00     0.030 A 
ENDBRANCH   1  18
TORSDOF 4
