REMARK  1 active torsions:
REMARK  status: ('A' for Active; 'I' for Inactive)
REMARK    1  A    between atoms: C6_6  and  N1_7 
REMARK       I    between atoms: N1_7  and  C7_8 
REMARK       I    between atoms: C7_8  and  N2_10 
ROOT
HETATM    1  N1  UNL     1       1.609   0.503   0.580  1.00  0.00    -0.307 N 
HETATM    2  C7  UNL     1       0.513   0.007  -0.122  1.00  0.00     0.333 C 
HETATM    3  O1  UNL     1       0.408  -0.847  -1.041  1.00  0.00    -0.246 OA
HETATM    4  N2  UNL     1      -0.831   0.470   0.152  1.00  0.00    -0.254 N 
HETATM    5  C8  UNL     1      -1.431   1.472   1.023  1.00  0.00     0.137 C 
HETATM    6  C9  UNL     1      -0.692   2.322   1.919  1.00  0.00     0.119 C 
HETATM    7  N3  UNL     1      -0.093   3.026   2.631  1.00  0.00    -0.190 NA
HETATM    8  C10 UNL     1      -2.731   1.791   1.159  1.00  0.00     0.032 C 
HETATM    9  C11 UNL     1      -3.472   0.712   0.957  1.00  0.00     0.103 C 
HETATM   10  N4  UNL     1      -3.206  -0.681   0.621  1.00  0.00    -0.365 N 
HETATM   11  C12 UNL     1      -3.358  -1.133  -0.870  1.00  0.00     0.032 A 
HETATM   12  C13 UNL     1      -2.774  -2.158  -0.085  1.00  0.00     0.031 A 
HETATM   13  C14 UNL     1      -1.667  -1.276   0.169  1.00  0.00     0.032 A 
HETATM   14  C15 UNL     1      -1.952  -0.069  -0.517  1.00  0.00     0.045 A 
HETATM   15  C16 UNL     1      -2.793   0.663  -1.323  1.00  0.00     0.032 A 
HETATM   16  C17 UNL     1      -3.900  -0.111  -1.629  1.00  0.00     0.031 A 
HETATM   17  H6  UNL     1       1.482   1.217   1.319  1.00  0.00     0.170 HD
HETATM   18  H8  UNL     1      -3.049  -0.578   1.684  1.00  0.00     0.165 HD
ENDROOT
BRANCH   1  19
HETATM   19  C6  UNL     1       2.901  -0.002   0.253  1.00  0.00     0.045 A 
HETATM   20  C2  UNL     1       3.586   0.064  -1.045  1.00  0.00    -0.019 A 
HETATM   21  C1  UNL     1       3.131   0.604  -2.151  1.00  0.00     0.026 C 
HETATM   22  C3  UNL     1       4.869  -0.589  -0.861  1.00  0.00     0.013 A 
HETATM   23  C4  UNL     1       4.950  -1.005   0.411  1.00  0.00     0.003 A 
HETATM   24  C5  UNL     1       3.712  -0.628   1.087  1.00  0.00     0.030 A 
ENDBRANCH   1  19
TORSDOF 1
