REMARK  4 active torsions:
REMARK  status: ('A' for Active; 'I' for Inactive)
REMARK    1  A    between atoms: O1_2  and  C2_3 
REMARK    2  A    between atoms: N3_13  and  C9_14 
REMARK    3  A    between atoms: C12_17  and  C13_18 
REMARK       I    between atoms: C13_18  and  N4_20 
REMARK    4  A    between atoms: N4_20  and  C14_21 
ROOT
HETATM    1  C9  UNL     1      -0.891  -0.014  -0.168  1.00  0.00     0.034 A 
HETATM    2  C10 UNL     1      -0.304  -1.198  -0.524  1.00  0.00     0.030 A 
HETATM    3  C11 UNL     1       1.073  -1.349  -0.619  1.00  0.00     0.019 A 
HETATM    4  C12 UNL     1       1.872  -0.253  -0.342  1.00  0.00     0.032 A 
HETATM    5  C20 UNL     1       1.270   0.921   0.011  1.00  0.00     0.019 A 
HETATM    6  C21 UNL     1      -0.112   1.085   0.110  1.00  0.00     0.030 A 
ENDROOT
BRANCH   1   7
HETATM    7  N3  UNL     1      -2.245   0.227  -0.052  1.00  0.00    -0.326 N 
HETATM    8  C5  UNL     1      -2.879   1.403   0.594  1.00  0.00     0.351 C 
HETATM    9  N2  UNL     1      -3.600   1.760  -0.674  1.00  0.00    -0.293 N 
HETATM   10  O2  UNL     1      -3.830   0.765   1.653  1.00  0.00    -0.305 OA
HETATM   11  N1  UNL     1      -3.839   0.598  -1.688  1.00  0.00    -0.126 NA
HETATM   12  H5  UNL     1      -3.960   2.727  -0.942  1.00  0.00     0.180 HD
HETATM   13  C4  UNL     1      -4.581  -0.340  -0.948  1.00  0.00     0.111 C 
HETATM   14  C3  UNL     1      -5.997  -1.088  -0.280  1.00  0.00     0.089 C 
HETATM   15  C8  UNL     1      -3.140  -0.776  -0.595  1.00  0.00     0.144 C 
HETATM   16  C2  UNL     1      -5.699  -0.136   0.571  1.00  0.00     0.086 C 
HETATM   17  C6  UNL     1      -4.271  -0.477   0.950  1.00  0.00     0.101 C 
HETATM   18  C7  UNL     1      -3.327  -1.444   0.767  1.00  0.00     0.040 C 
BRANCH  16  19
HETATM   19  O1  UNL     1      -6.843   0.666   0.691  1.00  0.00    -0.357 OA
HETATM   20  C1  UNL     1      -7.709   0.568   1.800  1.00  0.00     0.209 C 
ENDBRANCH  16  19
ENDBRANCH   1   7
BRANCH   4  21
HETATM   21  C13 UNL     1       3.301  -0.445  -0.447  1.00  0.00     0.256 C 
HETATM   22  O3  UNL     1       3.744  -1.577  -0.771  1.00  0.00    -0.267 OA
HETATM   23  N4  UNL     1       4.276   0.556  -0.211  1.00  0.00    -0.323 N 
HETATM   24  H11 UNL     1       3.974   1.497   0.054  1.00  0.00     0.169 HD
BRANCH  23  25
HETATM   25  C14 UNL     1       5.677   0.259  -0.342  1.00  0.00     0.035 A 
HETATM   26  C15 UNL     1       6.155  -0.170   0.890  1.00  0.00     0.029 A 
HETATM   27  C16 UNL     1       7.488  -0.530   1.067  1.00  0.00     0.002 A 
HETATM   28  C17 UNL     1       8.329  -0.440  -0.051  1.00  0.00     0.000 A 
HETATM   29  C18 UNL     1       7.834  -0.011  -1.264  1.00  0.00     0.002 A 
HETATM   30  C19 UNL     1       6.528   0.337  -1.423  1.00  0.00     0.029 A 
ENDBRANCH  23  25
ENDBRANCH   4  21
TORSDOF 4
