REMARK  3 active torsions:
REMARK  status: ('A' for Active; 'I' for Inactive)
REMARK       I    between atoms: C1_2  and  N1_3 
REMARK       I    between atoms: C1_2  and  N2_10 
REMARK    1  A    between atoms: N1_3  and  C2_4 
REMARK    2  A    between atoms: N2_10  and  C8_11 
REMARK    3  A    between atoms: C11_14  and  C12_15 
ROOT
HETATM    1  C8  UNL     1       0.598   0.739   0.437  1.00  0.00     0.036 A 
HETATM    2  C9  UNL     1      -0.190   1.024  -0.659  1.00  0.00     0.030 A 
HETATM    3  C10 UNL     1      -1.414   0.428  -0.816  1.00  0.00     0.016 A 
HETATM    4  C11 UNL     1      -1.908  -0.465   0.092  1.00  0.00    -0.006 A 
HETATM    5  C19 UNL     1      -1.100  -0.741   1.191  1.00  0.00     0.016 A 
HETATM    6  C20 UNL     1       0.145  -0.151   1.376  1.00  0.00     0.030 A 
ENDROOT
BRANCH   1   7
HETATM    7  N2  UNL     1       1.887   1.305   0.695  1.00  0.00    -0.309 N 
HETATM    8  C1  UNL     1       3.025   0.640   0.190  1.00  0.00     0.325 C 
HETATM    9  O1  UNL     1       2.766  -0.409  -0.449  1.00  0.00    -0.247 OA
HETATM   10  N1  UNL     1       4.358   1.043   0.343  1.00  0.00    -0.309 N 
HETATM   11  H1  UNL     1       4.409   1.927   0.894  1.00  0.00     0.170 HD
HETATM   12  H7  UNL     1       2.050   2.201   1.245  1.00  0.00     0.170 HD
BRANCH  10  13
HETATM   13  C2  UNL     1       5.541   0.440  -0.126  1.00  0.00     0.036 A 
HETATM   14  C3  UNL     1       5.652  -0.715  -0.860  1.00  0.00     0.029 A 
HETATM   15  C4  UNL     1       6.827  -1.268  -1.297  1.00  0.00     0.002 A 
HETATM   16  C5  UNL     1       8.013  -0.638  -0.991  1.00  0.00     0.000 A 
HETATM   17  C6  UNL     1       7.949   0.526  -0.254  1.00  0.00     0.002 A 
HETATM   18  C7  UNL     1       6.743   1.044   0.163  1.00  0.00     0.029 A 
ENDBRANCH  10  13
ENDBRANCH   1   7
BRANCH   4  19
HETATM   19  C12 UNL     1      -3.186  -1.161   0.037  1.00  0.00     0.079 A 
HETATM   20  N3  UNL     1      -3.135  -2.492   0.328  1.00  0.00    -0.241 NA
HETATM   21  C13 UNL     1      -4.251  -3.222   0.307  1.00  0.00     0.236 A 
HETATM   22  N4  UNL     1      -5.454  -2.713   0.008  1.00  0.00    -0.217 NA
HETATM   23  C14 UNL     1      -5.557  -1.390  -0.289  1.00  0.00     0.174 A 
HETATM   24  C15 UNL     1      -4.415  -0.623  -0.272  1.00  0.00     0.025 A 
HETATM   25  O2  UNL     1      -6.754  -0.803  -0.603  1.00  0.00    -0.334 OA
HETATM   26  C16 UNL     1      -4.439   0.808  -0.580  1.00  0.00     0.047 C 
HETATM   27  C17 UNL     1      -5.761   1.374  -0.103  1.00  0.00     0.031 C 
HETATM   28  C18 UNL     1      -6.950   0.578  -0.530  1.00  0.00     0.178 C 
ENDBRANCH   4  19
TORSDOF 3
