REMARK  6 active torsions:
REMARK  status: ('A' for Active; 'I' for Inactive)
REMARK    1  A    between atoms: C2_2  and  C18_25 
REMARK    2  A    between atoms: C3_3  and  C4_4 
REMARK    3  A    between atoms: C5_5  and  N1_6 
REMARK    4  A    between atoms: N1_6  and  C6_7 
REMARK    5  A    between atoms: C13_17  and  C14_18 
REMARK    6  A    between atoms: C14_18  and  O2_20 
ROOT
HETATM    1  C6  UNL     1      -0.479   0.830  -0.549  1.00  0.00     0.159 A 
HETATM    2  N2  UNL     1      -1.008   1.461  -1.612  1.00  0.00    -0.222 NA
HETATM    3  C7  UNL     1      -0.211   1.730  -2.688  1.00  0.00     0.238 A 
HETATM    4  N3  UNL     1       1.079   1.353  -2.646  1.00  0.00    -0.215 NA
HETATM    5  C8  UNL     1       1.589   0.724  -1.574  1.00  0.00     0.202 A 
HETATM    6  C9  UNL     1       0.827   0.427  -0.458  1.00  0.00     0.129 A 
HETATM    7  N4  UNL     1       1.116  -0.215   0.778  1.00  0.00    -0.379 N 
HETATM    8  C10 UNL     1       2.174  -1.190   0.968  1.00  0.00     0.161 C 
HETATM    9  C11 UNL     1       3.448  -0.698   0.401  1.00  0.00    -0.006 A 
HETATM   10  C12 UNL     1       4.518  -1.019   1.245  1.00  0.00     0.029 A 
HETATM   11  C13 UNL     1       5.840  -0.713   1.025  1.00  0.00     0.038 A 
HETATM   12  C15 UNL     1       6.153  -0.034  -0.118  1.00  0.00     0.021 A 
HETATM   13  C16 UNL     1       5.163   0.309  -0.983  1.00  0.00     0.039 A 
HETATM   14  C17 UNL     1       3.832  -0.016  -0.731  1.00  0.00     0.086 A 
HETATM   15  O3  UNL     1       2.954   0.417  -1.729  1.00  0.00    -0.289 OA
HETATM   16  H9  UNL     1       0.451   0.131   1.504  1.00  0.00     0.160 HD
ENDROOT
BRANCH   1  17
HETATM   17  N1  UNL     1      -1.416   0.615   0.490  1.00  0.00    -0.349 N 
HETATM   18  H7  UNL     1      -1.571   0.224   1.440  1.00  0.00     0.167 HD
BRANCH  17  19
HETATM   19  C5  UNL     1      -2.772   1.039   0.387  1.00  0.00     0.090 C 
HETATM   20  C4  UNL     1      -3.797   0.270   0.068  1.00  0.00     0.017 C 
BRANCH  20  21
HETATM   21  C3  UNL     1      -5.146   0.815  -0.008  1.00  0.00     0.005 C 
HETATM   22  C2  UNL     1      -6.154   0.051  -0.323  1.00  0.00    -0.070 C 
HETATM   23  C1  UNL     1      -6.028  -1.392  -0.624  1.00  0.00     0.044 C 
BRANCH  22  24
HETATM   24  C18 UNL     1      -7.534   0.587  -0.405  1.00  0.00     0.148 C 
HETATM   25 CL1  UNL     1      -8.527  -0.311   0.782  1.00  0.00    -0.126 Cl
ENDBRANCH  22  24
ENDBRANCH  20  21
ENDBRANCH  17  19
ENDBRANCH   1  17
BRANCH  11  26
HETATM   26  C14 UNL     1       6.847  -1.109   1.989  1.00  0.00     0.176 C 
HETATM   27  O1  UNL     1       6.543  -1.729   3.029  1.00  0.00    -0.646 OA
BRANCH  26  28
HETATM   28  O2  UNL     1       8.173  -0.828   1.815  1.00  0.00    -0.773 OA
HETATM   29  H13 UNL     1       8.813  -0.570   2.557  1.00  0.00     0.167 HD
ENDBRANCH  26  28
ENDBRANCH  11  26
TORSDOF 6
