REMARK  2 active torsions:
REMARK  status: ('A' for Active; 'I' for Inactive)
REMARK    1  A    between atoms: O1_2  and  C2_3 
REMARK    2  A    between atoms: C7_8  and  O2_9 
ROOT
HETATM    1  C2  UNL     1       0.332   1.180  -3.911  1.00  0.00     0.103 A 
HETATM    2  C3  UNL     1       0.278   1.052  -2.559  1.00  0.00     0.073 A 
HETATM    3  C4  UNL     1       0.063  -0.030  -1.743  1.00  0.00     0.089 A 
HETATM    4  C5  UNL     1      -0.134  -1.231  -2.477  1.00  0.00     0.088 A 
HETATM    5  C6  UNL     1      -0.094  -1.187  -3.885  1.00  0.00     0.073 A 
HETATM    6  C7  UNL     1       0.129  -0.038  -4.554  1.00  0.00     0.103 A 
HETATM    7  N1  UNL     1      -0.325  -2.508  -2.130  1.00  0.00    -0.254 NA
HETATM    8  C9  UNL     1      -0.350  -2.838  -0.752  1.00  0.00     0.027 A 
HETATM    9  C10 UNL     1      -1.053  -2.441   0.461  1.00  0.00     0.064 A 
HETATM   10  C11 UNL     1      -1.508  -2.274   1.589  1.00  0.00    -0.007 A 
HETATM   11  C12 UNL     1      -0.945  -3.108   2.588  1.00  0.00    -0.044 A 
HETATM   12  C13 UNL     1      -0.241  -3.555   1.513  1.00  0.00     0.043 A 
HETATM   13  C14 UNL     1       0.118  -3.595   0.260  1.00  0.00     0.056 A 
HETATM   14  P1  UNL     1      -1.526  -2.907   4.291  1.00  0.00    -0.001 P 
HETATM   15  C15 UNL     1      -1.095  -1.159   4.831  1.00  0.00     0.247 C 
HETATM   16  O3  UNL     1      -0.857  -0.661   5.984  1.00  0.00    -0.268 OA
HETATM   17  N2  UNL     1      -0.914   0.081   4.132  1.00  0.00    -0.321 N 
HETATM   18  C16 UNL     1       0.065   1.076   3.883  1.00  0.00     0.064 A 
HETATM   19  C17 UNL     1       0.233   1.837   5.051  1.00  0.00     0.032 A 
HETATM   20  C18 UNL     1       1.158   2.886   5.042  1.00  0.00     0.002 A 
HETATM   21  C19 UNL     1       1.881   3.152   3.901  1.00  0.00     0.002 A 
HETATM   22  C20 UNL     1       1.693   2.384   2.763  1.00  0.00     0.034 A 
HETATM   23  C21 UNL     1       0.786   1.349   2.755  1.00  0.00     0.085 A 
HETATM   24  N3  UNL     1       0.628   0.563   1.588  1.00  0.00    -0.240 NA
HETATM   25  C22 UNL     1       0.012   0.860   0.506  1.00  0.00     0.234 C 
HETATM   26  N4  UNL     1      -0.030  -0.042  -0.520  1.00  0.00    -0.240 NA
HETATM   27  H13 UNL     1      -2.982  -3.034   4.289  1.00  0.00     0.071 HD
HETATM   28  H14 UNL     1      -1.909   0.076   3.766  1.00  0.00     0.169 HD
ENDROOT
BRANCH   1  29
HETATM   29  O1  UNL     1       0.553   2.303  -4.645  1.00  0.00    -0.353 OA
HETATM   30  C1  UNL     1       0.777   3.594  -4.162  1.00  0.00     0.210 C 
ENDBRANCH   1  29
BRANCH   6  31
HETATM   31  O2  UNL     1       0.176   0.035  -5.945  1.00  0.00    -0.353 OA
HETATM   32  C8  UNL     1      -0.014  -1.101  -6.719  1.00  0.00     0.210 C 
ENDBRANCH   6  31
TORSDOF 2
