REMARK  3 active torsions:
REMARK  status: ('A' for Active; 'I' for Inactive)
REMARK    1  A    between atoms: O1_2  and  C2_3 
REMARK    2  A    between atoms: C7_10  and  N3_11 
REMARK    3  A    between atoms: C11_15  and  N4_16 
REMARK       I    between atoms: N4_16  and  C12_17 
REMARK       I    between atoms: C12_17  and  N5_19 
ROOT
HETATM    1  N3  UNL     1       1.626  -0.991   0.223  1.00  0.00    -0.354 N 
HETATM    2  C8  UNL     1       0.810   0.181   0.097  1.00  0.00     0.093 C 
HETATM    3  C9  UNL     1      -0.518   0.380   0.183  1.00  0.00    -0.042 C 
HETATM    4  C10 UNL     1      -0.951   1.800  -0.019  1.00  0.00     0.047 C 
HETATM    5  C11 UNL     1      -1.534  -0.644   0.436  1.00  0.00     0.139 C 
HETATM    6  C19 UNL     1      -1.168  -1.705   1.389  1.00  0.00     0.000 C 
HETATM    7  C20 UNL     1       0.044  -2.219   1.487  1.00  0.00    -0.009 C 
HETATM    8  C21 UNL     1       1.413  -2.139   0.925  1.00  0.00     0.152 C 
ENDROOT
BRANCH   1   9
HETATM    9  C7  UNL     1       2.927  -0.966  -0.527  1.00  0.00     0.171 C 
HETATM   10  N2  UNL     1       2.306  -0.921  -1.783  1.00  0.00    -0.247 NA
HETATM   11  C6  UNL     1       2.695  -1.525  -2.831  1.00  0.00     0.101 C 
HETATM   12  C5  UNL     1       3.958  -1.283  -3.049  1.00  0.00     0.149 C 
HETATM   13  N1  UNL     1       4.645  -0.433  -2.159  1.00  0.00    -0.271 NA
HETATM   14  C4  UNL     1       5.505   0.449  -2.510  1.00  0.00     0.119 C 
HETATM   15  C3  UNL     1       6.128   1.248  -1.466  1.00  0.00     0.059 C 
HETATM   16  C2  UNL     1       5.746   0.999  -0.224  1.00  0.00     0.102 C 
HETATM   17  C23 UNL     1       4.748  -0.025   0.079  1.00  0.00     0.102 C 
HETATM   18  C22 UNL     1       3.427   0.229   0.173  1.00  0.00     0.070 C 
HETATM   19  O3  UNL     1       4.957  -1.386   0.316  1.00  0.00    -0.344 OA
HETATM   20  C24 UNL     1       3.788  -2.103  -0.149  1.00  0.00     0.236 C 
BRANCH  16  21
HETATM   21  O1  UNL     1       6.073   1.506   1.022  1.00  0.00    -0.353 OA
HETATM   22  C1  UNL     1       6.586   0.748   2.092  1.00  0.00     0.210 C 
ENDBRANCH  16  21
ENDBRANCH   1   9
BRANCH   5  23
HETATM   23  N4  UNL     1      -2.813  -0.041   0.741  1.00  0.00    -0.331 N 
HETATM   24  C12 UNL     1      -3.949  -0.158  -0.062  1.00  0.00     0.323 C 
HETATM   25  O2  UNL     1      -3.776  -0.851  -1.110  1.00  0.00    -0.247 OA
HETATM   26  N5  UNL     1      -5.163   0.474   0.326  1.00  0.00    -0.302 N 
HETATM   27  C13 UNL     1      -5.306   1.244   1.513  1.00  0.00     0.096 A 
HETATM   28  C17 UNL     1      -6.254   0.258  -0.609  1.00  0.00     0.112 A 
HETATM   29  C14 UNL     1      -6.466   1.803   1.810  1.00  0.00     0.017 A 
HETATM   30  C15 UNL     1      -7.659   1.687   0.981  1.00  0.00    -0.001 A 
HETATM   31  C16 UNL     1      -7.448   0.958  -0.102  1.00  0.00    -0.002 A 
HETATM   32  C18 UNL     1      -5.910   0.651  -2.026  1.00  0.00     0.037 C 
HETATM   33  H12 UNL     1      -2.738   0.478   1.638  1.00  0.00     0.165 HD
ENDBRANCH   5  23
TORSDOF 3
