REMARK  4 active torsions:
REMARK  status: ('A' for Active; 'I' for Inactive)
REMARK    1  A    between atoms: C1_2  and  O2_3 
REMARK    2  A    between atoms: C1_2  and  C2_4 
REMARK    3  A    between atoms: C10_13  and  N2_14 
REMARK    4  A    between atoms: N2_14  and  C11_15 
ROOT
HETATM    1  C2  UNL     1      -2.207   1.707  -1.553  1.00  0.00     0.038 A 
HETATM    2  C3  UNL     1      -2.888   1.979  -0.392  1.00  0.00     0.021 A 
HETATM    3  C4  UNL     1      -3.140   0.846   0.362  1.00  0.00     0.039 A 
HETATM    4  C5  UNL     1      -2.726  -0.398  -0.056  1.00  0.00     0.084 A 
HETATM    5  C6  UNL     1      -2.045  -0.602  -1.234  1.00  0.00    -0.006 A 
HETATM    6  C7  UNL     1      -1.762   0.496  -2.035  1.00  0.00     0.029 A 
HETATM    7  C8  UNL     1      -1.613  -1.944  -1.679  1.00  0.00     0.160 C 
HETATM    8  N1  UNL     1      -1.087  -2.737  -0.605  1.00  0.00    -0.391 N 
HETATM    9  C9  UNL     1       0.033  -2.383   0.170  1.00  0.00     0.134 C 
HETATM   10  C10 UNL     1       1.004  -2.049   0.988  1.00  0.00     0.144 C 
HETATM   11  N3  UNL     1       0.874  -1.828   2.394  1.00  0.00    -0.223 NA
HETATM   12  C17 UNL     1      -0.187  -1.388   2.971  1.00  0.00     0.237 C 
HETATM   13  N4  UNL     1      -1.023  -1.236   1.857  1.00  0.00    -0.230 NA
HETATM   14  C18 UNL     1      -2.249  -1.688   1.908  1.00  0.00     0.260 C 
HETATM   15  O3  UNL     1      -3.009  -1.491   0.745  1.00  0.00    -0.303 OA
HETATM   16  H7  UNL     1      -1.424  -3.668  -0.229  1.00  0.00     0.159 HD
ENDROOT
BRANCH  10  17
HETATM   17  N2  UNL     1       2.407  -1.776   1.039  1.00  0.00    -0.340 N 
HETATM   18  H9  UNL     1       3.089  -2.589   1.129  1.00  0.00     0.167 HD
BRANCH  17  19
HETATM   19  C11 UNL     1       2.913  -0.450   0.972  1.00  0.00     0.035 A 
HETATM   20  C12 UNL     1       4.259  -0.172   1.007  1.00  0.00     0.032 A 
HETATM   21  C13 UNL     1       4.756   1.112   0.943  1.00  0.00     0.046 A 
HETATM   22  C14 UNL     1       3.888   2.205   0.836  1.00  0.00     0.138 A 
HETATM   23  F1  UNL     1       4.345   3.457   0.772  1.00  0.00    -0.204 F 
HETATM   24  C15 UNL     1       2.538   1.880   0.804  1.00  0.00     0.074 A 
HETATM   25 CL1  UNL     1       1.457   3.268   0.669  1.00  0.00    -0.081 Cl
HETATM   26  C16 UNL     1       2.025   0.597   0.868  1.00  0.00     0.056 A 
ENDBRANCH  17  19
ENDBRANCH  10  17
BRANCH   1  27
HETATM   27  C1  UNL     1      -1.933   2.881  -2.368  1.00  0.00     0.176 C 
HETATM   28  O1  UNL     1      -2.298   4.053  -2.027  1.00  0.00    -0.646 OA
BRANCH  27  29
HETATM   29  O2  UNL     1      -1.417   3.514  -3.474  1.00  0.00    -0.773 OA
HETATM   30  H1  UNL     1      -0.429   3.663  -3.626  1.00  0.00     0.167 HD
ENDBRANCH  27  29
ENDBRANCH   1  27
TORSDOF 4
