REMARK  6 active torsions:
REMARK  status: ('A' for Active; 'I' for Inactive)
REMARK    1  A    between atoms: O1_2  and  C2_3 
REMARK    2  A    between atoms: C6_9  and  N3_10 
REMARK    3  A    between atoms: N3_10  and  C8_12 
REMARK    4  A    between atoms: C11_15  and  N4_16 
REMARK       I    between atoms: N4_16  and  C12_17 
REMARK       I    between atoms: C12_17  and  N5_19 
REMARK    5  A    between atoms: N5_19  and  C13_20 
REMARK    6  A    between atoms: C22_30  and  O4_31 
ROOT
HETATM    1  C8  UNL     1       0.546  -1.849   0.732  1.00  0.00     0.035 A 
HETATM    2  C9  UNL     1      -0.002  -1.816  -0.534  1.00  0.00     0.032 A 
HETATM    3  C10 UNL     1      -1.352  -1.872  -0.813  1.00  0.00     0.032 A 
HETATM    4  C11 UNL     1      -2.221  -1.968   0.256  1.00  0.00     0.036 A 
HETATM    5  C18 UNL     1      -1.759  -2.007   1.565  1.00  0.00     0.032 A 
HETATM    6  C19 UNL     1      -0.386  -1.945   1.740  1.00  0.00     0.032 A 
ENDROOT
BRANCH   1   7
HETATM    7  N3  UNL     1       1.934  -1.790   0.989  1.00  0.00    -0.335 N 
HETATM    8  C7  UNL     1       2.377  -1.834   2.373  1.00  0.00     0.158 C 
BRANCH   7   9
HETATM    9  C6  UNL     1       2.835  -1.692  -0.111  1.00  0.00     0.144 A 
HETATM   10  N2  UNL     1       2.781  -2.713  -0.981  1.00  0.00    -0.223 NA
HETATM   11  C5  UNL     1       3.595  -2.695  -2.040  1.00  0.00     0.236 A 
HETATM   12  N1  UNL     1       4.471  -1.701  -2.281  1.00  0.00    -0.241 NA
HETATM   13  C4  UNL     1       4.549  -0.673  -1.437  1.00  0.00     0.075 A 
HETATM   14  C3  UNL     1       5.397   0.398  -1.570  1.00  0.00     0.072 A 
HETATM   15  C20 UNL     1       3.727  -0.668  -0.347  1.00  0.00     0.042 A 
HETATM   16  C2  UNL     1       5.457   1.454  -0.677  1.00  0.00     0.103 A 
HETATM   17  C22 UNL     1       4.605   1.423   0.421  1.00  0.00     0.102 A 
HETATM   18  C21 UNL     1       3.752   0.350   0.558  1.00  0.00     0.057 A 
BRANCH  16  19
HETATM   19  O1  UNL     1       6.355   2.513  -0.887  1.00  0.00    -0.353 OA
HETATM   20  C1  UNL     1       7.157   2.415  -2.037  1.00  0.00     0.210 C 
ENDBRANCH  16  19
BRANCH  17  21
HETATM   21  O4  UNL     1       4.715   2.503   1.270  1.00  0.00    -0.353 OA
HETATM   22  C23 UNL     1       3.893   2.563   2.410  1.00  0.00     0.210 C 
ENDBRANCH  17  21
ENDBRANCH   7   9
ENDBRANCH   1   7
BRANCH   4  23
HETATM   23  N4  UNL     1      -3.621  -2.027  -0.011  1.00  0.00    -0.309 N 
HETATM   24  C12 UNL     1      -4.364  -0.818  -0.082  1.00  0.00     0.326 C 
HETATM   25  O2  UNL     1      -3.677   0.213   0.108  1.00  0.00    -0.247 OA
HETATM   26  N5  UNL     1      -5.753  -0.699  -0.337  1.00  0.00    -0.289 N 
HETATM   27  H12 UNL     1      -6.154  -1.653  -0.467  1.00  0.00     0.172 HD
HETATM   28  H11 UNL     1      -4.167  -2.928  -0.166  1.00  0.00     0.170 HD
BRANCH  26  29
HETATM   29  C13 UNL     1      -6.538   0.460  -0.418  1.00  0.00     0.146 A 
HETATM   30  C14 UNL     1      -6.180   1.705  -0.278  1.00  0.00     0.056 A 
HETATM   31  C15 UNL     1      -7.039   2.865  -0.373  1.00  0.00     0.002 A 
HETATM   32  C16 UNL     1      -8.297   2.626  -0.624  1.00  0.00    -0.000 A 
HETATM   33  C17 UNL     1      -8.840   1.281  -0.805  1.00  0.00     0.204 A 
HETATM   34  O3  UNL     1      -7.876   0.267  -0.681  1.00  0.00    -0.332 OA
ENDBRANCH  26  29
ENDBRANCH   4  23
TORSDOF 6
