REMARK  6 active torsions:
REMARK  status: ('A' for Active; 'I' for Inactive)
REMARK    1  A    between atoms: O1_2  and  C2_3 
REMARK    2  A    between atoms: C6_9  and  C7_10 
REMARK    3  A    between atoms: C10_14  and  N3_15 
REMARK       I    between atoms: N3_15  and  C11_16 
REMARK       I    between atoms: C11_16  and  N4_18 
REMARK    4  A    between atoms: N4_18  and  C12_19 
REMARK    5  A    between atoms: C18_25  and  N5_26 
REMARK    6  A    between atoms: C21_29  and  O3_30 
ROOT
HETATM    1  C7  UNL     1       0.984  -1.465   0.502  1.00  0.00     0.041 C 
HETATM    2  B1  UNL     1       1.869  -1.580   2.027  1.00  0.00     0.201 B 
HETATM    3  C8  UNL     1       0.891   0.127   3.053  1.00  0.00    -0.109 C 
HETATM    4  C9  UNL     1      -0.274  -0.514   3.119  1.00  0.00     0.025 C 
HETATM    5  C10 UNL     1      -1.110  -0.783   1.957  1.00  0.00     0.052 C 
HETATM    6  C18 UNL     1      -0.451  -1.184   0.906  1.00  0.00     0.011 C 
ENDROOT
BRANCH   1   7
HETATM    7  C6  UNL     1       1.448  -0.377  -0.369  1.00  0.00     0.049 A 
HETATM    8  N2  UNL     1       0.431   0.094  -1.166  1.00  0.00    -0.246 NA
HETATM    9  C5  UNL     1       0.573   1.125  -2.017  1.00  0.00     0.234 A 
HETATM   10  N1  UNL     1       1.731   1.796  -2.170  1.00  0.00    -0.241 NA
HETATM   11  C4  UNL     1       2.774   1.397  -1.428  1.00  0.00     0.073 A 
HETATM   12  C3  UNL     1       4.024   1.952  -1.477  1.00  0.00     0.072 A 
HETATM   13  C19 UNL     1       2.588   0.342  -0.574  1.00  0.00     0.020 A 
HETATM   14  C2  UNL     1       5.110   1.522  -0.725  1.00  0.00     0.103 A 
HETATM   15  C21 UNL     1       4.887   0.440   0.137  1.00  0.00     0.102 A 
HETATM   16  C20 UNL     1       3.633  -0.119   0.187  1.00  0.00     0.055 A 
BRANCH  14  17
HETATM   17  O1  UNL     1       6.362   2.115  -0.807  1.00  0.00    -0.353 OA
HETATM   18  C1  UNL     1       6.557   3.198  -1.683  1.00  0.00     0.210 C 
ENDBRANCH  14  17
BRANCH  15  19
HETATM   19  O3  UNL     1       5.970   0.006   0.888  1.00  0.00    -0.353 OA
HETATM   20  C22 UNL     1       5.826  -1.077   1.776  1.00  0.00     0.210 C 
ENDBRANCH  15  19
ENDBRANCH   1   7
BRANCH   6  21
HETATM   21  N5  UNL     1      -1.147  -1.477  -0.293  1.00  0.00    -0.304 NA
HETATM   22  H15 UNL     1      -1.384  -2.510  -0.406  1.00  0.00     0.124 HD
HETATM   23  H16 UNL     1      -1.357  -2.519  -0.353  1.00  0.00     0.124 HD
ENDBRANCH   6  21
BRANCH   5  24
HETATM   24  N3  UNL     1      -2.486  -0.527   2.072  1.00  0.00    -0.307 N 
HETATM   25  C11 UNL     1      -3.630  -0.549   1.280  1.00  0.00     0.325 C 
HETATM   26  O2  UNL     1      -3.502  -0.872   0.099  1.00  0.00    -0.247 OA
HETATM   27  N4  UNL     1      -4.982  -0.260   1.582  1.00  0.00    -0.309 N 
HETATM   28  H9  UNL     1      -5.123   0.021   2.601  1.00  0.00     0.170 HD
HETATM   29  H8  UNL     1      -2.839  -0.227   3.033  1.00  0.00     0.170 HD
BRANCH  27  30
HETATM   30  C12 UNL     1      -5.769  -0.440   0.382  1.00  0.00     0.036 A 
HETATM   31  C13 UNL     1      -6.384  -1.597  -0.042  1.00  0.00     0.029 A 
HETATM   32  C14 UNL     1      -7.096  -1.571  -1.228  1.00  0.00     0.002 A 
HETATM   33  C15 UNL     1      -7.159  -0.397  -1.926  1.00  0.00     0.000 A 
HETATM   34  C16 UNL     1      -6.567   0.797  -1.557  1.00  0.00     0.002 A 
HETATM   35  C17 UNL     1      -5.867   0.733  -0.373  1.00  0.00     0.029 A 
ENDBRANCH  27  30
ENDBRANCH   5  24
TORSDOF 6
