REMARK  6 active torsions:
REMARK  status: ('A' for Active; 'I' for Inactive)
REMARK    1  A    between atoms: O1_2  and  C2_3 
REMARK    2  A    between atoms: C7_10  and  N3_11 
REMARK    3  A    between atoms: N3_11  and  C9_13 
REMARK    4  A    between atoms: C12_16  and  N4_17 
REMARK       I    between atoms: N4_17  and  C13_18 
REMARK       I    between atoms: C13_18  and  N5_20 
REMARK    5  A    between atoms: N5_20  and  C14_21 
REMARK    6  A    between atoms: C24_31  and  O3_32 
ROOT
HETATM    1  C9  UNL     1      -0.384   0.300   1.048  1.00  0.00     0.035 A 
HETATM    2  C10 UNL     1       0.705  -0.530   1.166  1.00  0.00     0.032 A 
HETATM    3  C11 UNL     1       1.918  -0.137   0.641  1.00  0.00     0.032 A 
HETATM    4  C12 UNL     1       2.140   1.049  -0.010  1.00  0.00     0.036 A 
HETATM    5  C20 UNL     1       1.039   1.865  -0.117  1.00  0.00     0.032 A 
HETATM    6  C21 UNL     1      -0.185   1.497   0.399  1.00  0.00     0.032 A 
ENDROOT
BRANCH   1   7
HETATM    7  N3  UNL     1      -1.660  -0.050   1.569  1.00  0.00    -0.335 N 
HETATM    8  C8  UNL     1      -1.840  -1.321   2.247  1.00  0.00     0.158 C 
BRANCH   7   9
HETATM    9  C7  UNL     1      -2.738   0.880   1.403  1.00  0.00     0.144 A 
HETATM   10  C4  UNL     1      -3.842   0.462   0.653  1.00  0.00     0.041 A 
HETATM   11  C3  UNL     1      -3.746  -0.909   0.104  1.00  0.00     0.053 C 
HETATM   12  C5  UNL     1      -4.924   1.337   0.470  1.00  0.00     0.072 A 
HETATM   13  C2  UNL     1      -4.755  -1.749  -0.178  1.00  0.00     0.082 C 
HETATM   14  C24 UNL     1      -6.182  -1.485   0.002  1.00  0.00     0.245 C 
HETATM   15  C23 UNL     1      -6.638  -0.151  -0.437  1.00  0.00     0.017 C 
HETATM   16  C22 UNL     1      -6.172   1.083  -0.285  1.00  0.00     0.031 C 
HETATM   17  N1  UNL     1      -4.920   2.578   1.006  1.00  0.00    -0.241 NA
HETATM   18  C6  UNL     1      -3.825   2.947   1.730  1.00  0.00     0.236 A 
HETATM   19  N2  UNL     1      -2.760   2.120   1.925  1.00  0.00    -0.223 NA
BRANCH  13  20
HETATM   20  O1  UNL     1      -4.117  -2.881  -0.661  1.00  0.00    -0.357 OA
HETATM   21  C1  UNL     1      -4.898  -3.862  -1.308  1.00  0.00     0.209 C 
ENDBRANCH  13  20
BRANCH  14  22
HETATM   22  O3  UNL     1      -6.963  -2.461  -0.614  1.00  0.00    -0.183 OA
HETATM   23  F1  UNL     1      -7.709  -3.084   0.301  1.00  0.00    -0.047 F 
ENDBRANCH  14  22
ENDBRANCH   7   9
ENDBRANCH   1   7
BRANCH   4  24
HETATM   24  N4  UNL     1       3.357   1.507  -0.568  1.00  0.00    -0.309 N 
HETATM   25  C13 UNL     1       4.615   0.871  -0.594  1.00  0.00     0.325 C 
HETATM   26  O2  UNL     1       4.764  -0.243  -0.080  1.00  0.00    -0.247 OA
HETATM   27  N5  UNL     1       5.784   1.414  -1.181  1.00  0.00    -0.309 N 
HETATM   28  H12 UNL     1       5.722   2.371  -1.641  1.00  0.00     0.170 HD
HETATM   29  H11 UNL     1       3.396   2.437  -1.041  1.00  0.00     0.170 HD
BRANCH  27  30
HETATM   30  C14 UNL     1       6.933   0.549  -1.063  1.00  0.00     0.036 A 
HETATM   31  C15 UNL     1       7.039  -0.321  -2.146  1.00  0.00     0.029 A 
HETATM   32  C16 UNL     1       8.087  -1.233  -2.208  1.00  0.00     0.002 A 
HETATM   33  C17 UNL     1       8.983  -1.230  -1.177  1.00  0.00     0.000 A 
HETATM   34  C18 UNL     1       8.887  -0.373  -0.099  1.00  0.00     0.002 A 
HETATM   35  C19 UNL     1       7.853   0.531  -0.033  1.00  0.00     0.029 A 
ENDBRANCH  27  30
ENDBRANCH   4  24
TORSDOF 6
