REMARK  6 active torsions:
REMARK  status: ('A' for Active; 'I' for Inactive)
REMARK    1  A    between atoms: C2_2  and  C3_3 
REMARK    2  A    between atoms: C3_3  and  N1_4 
REMARK    3  A    between atoms: N1_4  and  N2_5 
REMARK    4  A    between atoms: N2_5  and  C5_7 
REMARK    5  A    between atoms: C9_13  and  O1_14 
REMARK    6  A    between atoms: C11_16  and  O2_17 
ROOT
HETATM    1  C5  UNL     1      -0.580  -0.254  -1.304  1.00  0.00     0.157 A 
HETATM    2  N3  UNL     1      -0.823  -0.024  -2.611  1.00  0.00    -0.222 NA
HETATM    3  C6  UNL     1       0.154   0.358  -3.465  1.00  0.00     0.236 A 
HETATM    4  N4  UNL     1       1.434   0.539  -3.088  1.00  0.00    -0.241 NA
HETATM    5  C7  UNL     1       1.720   0.318  -1.781  1.00  0.00     0.075 A 
HETATM    6  C8  UNL     1       3.028   0.496  -1.365  1.00  0.00     0.072 A 
HETATM    7  C9  UNL     1       3.374   0.283  -0.038  1.00  0.00     0.103 A 
HETATM    8  C11 UNL     1       2.407  -0.108   0.867  1.00  0.00     0.102 A 
HETATM    9  C13 UNL     1       1.112  -0.278   0.428  1.00  0.00     0.057 A 
HETATM   10  C14 UNL     1       0.731  -0.075  -0.889  1.00  0.00     0.043 A 
ENDROOT
BRANCH   1  11
HETATM   11  N2  UNL     1      -1.570  -0.654  -0.376  1.00  0.00    -0.283 N 
HETATM   12  C4  UNL     1      -1.742  -1.817   0.481  1.00  0.00     0.179 C 
BRANCH  11  13
HETATM   13  N1  UNL     1      -2.535   0.328  -0.348  1.00  0.00    -0.330 N 
HETATM   14  H6  UNL     1      -2.321   1.176   0.183  1.00  0.00     0.180 HD
BRANCH  13  15
HETATM   15  C3  UNL     1      -3.885  -0.157  -0.144  1.00  0.00     0.166 C 
BRANCH  15  16
HETATM   16  C2  UNL     1      -4.876   0.971  -0.124  1.00  0.00    -0.016 C 
HETATM   17  C1  UNL     1      -5.669   1.245   0.933  1.00  0.00     0.008 C 
ENDBRANCH  15  16
ENDBRANCH  13  15
ENDBRANCH  11  13
ENDBRANCH   1  11
BRANCH   8  18
HETATM   18  O2  UNL     1       2.782  -0.314   2.190  1.00  0.00    -0.353 OA
HETATM   19  C12 UNL     1       1.780  -0.715   3.109  1.00  0.00     0.210 C 
ENDBRANCH   8  18
BRANCH   7  20
HETATM   20  O1  UNL     1       4.697   0.460   0.396  1.00  0.00    -0.353 OA
HETATM   21  C10 UNL     1       5.692   0.856  -0.508  1.00  0.00     0.210 C 
ENDBRANCH   7  20
TORSDOF 6
