REMARK  6 active torsions:
REMARK  status: ('A' for Active; 'I' for Inactive)
REMARK    1  A    between atoms: C2_2  and  O1_3 
REMARK    2  A    between atoms: O1_3  and  C3_4 
REMARK    3  A    between atoms: C7_9  and  O3_10 
REMARK    4  A    between atoms: O3_10  and  C8_11 
REMARK    5  A    between atoms: C11_14  and  N1_15 
REMARK       I    between atoms: N1_15  and  C12_16 
REMARK       I    between atoms: C12_16  and  N2_18 
REMARK    6  A    between atoms: N2_18  and  C13_19 
ROOT
HETATM    1  C8  UNL     1      -0.110  -1.204  -0.144  1.00  0.00     0.078 A 
HETATM    2  C9  UNL     1       0.551  -2.437  -0.202  1.00  0.00     0.039 A 
HETATM    3  C10 UNL     1       1.914  -2.523  -0.275  1.00  0.00     0.032 A 
HETATM    4  C11 UNL     1       2.715  -1.423  -0.296  1.00  0.00     0.036 A 
HETATM    5  C19 UNL     1       2.061  -0.225  -0.239  1.00  0.00     0.032 A 
HETATM    6  C20 UNL     1       0.695  -0.085  -0.164  1.00  0.00     0.039 A 
ENDROOT
BRANCH   1   7
HETATM    7  O3  UNL     1      -1.478  -1.289  -0.073  1.00  0.00    -0.291 OA
BRANCH   7   8
HETATM    8  C7  UNL     1      -2.377  -0.259  -0.007  1.00  0.00     0.179 A 
HETATM    9  C6  UNL     1      -3.705  -0.685   0.055  1.00  0.00     0.027 A 
HETATM   10  C5  UNL     1      -4.093  -2.128   0.049  1.00  0.00     0.071 C 
HETATM   11  C22 UNL     1      -4.733   0.223   0.126  1.00  0.00     0.101 A 
HETATM   12  C4  UNL     1      -5.585  -2.213  -0.177  1.00  0.00     0.176 C 
HETATM   13  O2  UNL     1      -6.282  -1.387   0.730  1.00  0.00    -0.355 OA
HETATM   14  C3  UNL     1      -6.182  -0.107   0.197  1.00  0.00     0.313 C 
HETATM   15  N4  UNL     1      -4.477   1.550   0.137  1.00  0.00    -0.241 NA
HETATM   16  C21 UNL     1      -3.198   1.953   0.077  1.00  0.00     0.236 A 
HETATM   17  N3  UNL     1      -2.187   1.072   0.007  1.00  0.00    -0.217 NA
BRANCH  14  18
HETATM   18  O1  UNL     1      -6.916   0.851   0.844  1.00  0.00    -0.356 OA
BRANCH  18  19
HETATM   19  C2  UNL     1      -7.864   1.470   0.043  1.00  0.00     0.167 C 
HETATM   20  C1  UNL     1      -8.575   2.495   0.923  1.00  0.00     0.033 C 
ENDBRANCH  18  19
ENDBRANCH  14  18
ENDBRANCH   7   8
ENDBRANCH   1   7
BRANCH   4  21
HETATM   21  N1  UNL     1       4.120  -1.580  -0.373  1.00  0.00    -0.309 N 
HETATM   22  C12 UNL     1       5.146  -0.628  -0.408  1.00  0.00     0.325 C 
HETATM   23  O4  UNL     1       4.855   0.589  -0.369  1.00  0.00    -0.247 OA
HETATM   24  N2  UNL     1       6.527  -0.902  -0.486  1.00  0.00    -0.309 N 
HETATM   25  H14 UNL     1       6.830  -1.918  -0.522  1.00  0.00     0.170 HD
HETATM   26  H13 UNL     1       4.518  -2.552  -0.412  1.00  0.00     0.170 HD
BRANCH  24  27
HETATM   27  C13 UNL     1       7.455   0.174  -0.514  1.00  0.00     0.036 A 
HETATM   28  C14 UNL     1       7.855   0.533   0.776  1.00  0.00     0.029 A 
HETATM   29  C15 UNL     1       8.751   1.553   0.995  1.00  0.00     0.002 A 
HETATM   30  C16 UNL     1       9.262   2.234  -0.105  1.00  0.00     0.000 A 
HETATM   31  C17 UNL     1       8.871   1.885  -1.384  1.00  0.00     0.002 A 
HETATM   32  C18 UNL     1       7.972   0.860  -1.588  1.00  0.00     0.029 A 
ENDBRANCH  24  27
ENDBRANCH   4  21
TORSDOF 6
