REMARK  3 active torsions:
REMARK  status: ('A' for Active; 'I' for Inactive)
REMARK    1  A    between atoms: O1_2  and  C2_3 
REMARK    2  A    between atoms: C13_17  and  N3_18 
REMARK       I    between atoms: N3_18  and  C14_19 
REMARK       I    between atoms: C14_19  and  N4_21 
REMARK    3  A    between atoms: N4_21  and  C15_22 
ROOT
HETATM    1  C2  UNL     1      -5.200  -0.111   0.195  1.00  0.00     0.103 A 
HETATM    2  C3  UNL     1      -5.241   1.253   0.337  1.00  0.00     0.072 A 
HETATM    3  C4  UNL     1      -4.080   1.982   0.426  1.00  0.00     0.075 A 
HETATM    4  N1  UNL     1      -4.261   3.334   0.570  1.00  0.00    -0.241 NA
HETATM    5  C5  UNL     1      -3.073   4.016   0.652  1.00  0.00     0.236 A 
HETATM    6  N2  UNL     1      -1.836   3.489   0.602  1.00  0.00    -0.217 NA
HETATM    7  C6  UNL     1      -1.623   2.180   0.462  1.00  0.00     0.178 A 
HETATM    8  C7  UNL     1      -2.795   1.475   0.386  1.00  0.00     0.048 A 
HETATM    9  C8  UNL     1      -3.041   0.132   0.247  1.00  0.00     0.057 A 
HETATM   10  C9  UNL     1      -4.059  -0.858   0.132  1.00  0.00     0.103 A 
HETATM   11  O2  UNL     1      -3.179  -1.926   0.032  1.00  0.00    -0.345 OA
HETATM   12  C10 UNL     1      -2.262  -1.787  -1.031  1.00  0.00     0.203 C 
HETATM   13  C11 UNL     1      -1.121  -2.608  -1.162  1.00  0.00    -0.002 C 
HETATM   14  C12 UNL     1      -0.026  -1.771  -1.104  1.00  0.00    -0.002 C 
HETATM   15  C13 UNL     1       0.648  -0.482  -0.982  1.00  0.00     0.133 C 
HETATM   16  C21 UNL     1      -0.159   0.780  -0.923  1.00  0.00     0.206 C 
HETATM   17  O4  UNL     1      -0.745   1.092   0.338  1.00  0.00    -0.331 OA
ENDROOT
BRANCH  15  18
HETATM   18  N3  UNL     1       1.735  -0.461  -0.005  1.00  0.00    -0.333 N 
HETATM   19  C14 UNL     1       3.120  -0.396  -0.351  1.00  0.00     0.321 C 
HETATM   20  O3  UNL     1       3.425  -0.353  -1.559  1.00  0.00    -0.247 OA
HETATM   21  N4  UNL     1       4.023  -0.386   0.745  1.00  0.00    -0.309 N 
HETATM   22  H13 UNL     1       3.689  -0.424   1.736  1.00  0.00     0.170 HD
HETATM   23  H12 UNL     1       1.421  -0.499   1.000  1.00  0.00     0.165 HD
BRANCH  21  24
HETATM   24  C15 UNL     1       5.434  -0.322   0.533  1.00  0.00     0.036 A 
HETATM   25  C16 UNL     1       6.003   0.954   0.470  1.00  0.00     0.029 A 
HETATM   26  C17 UNL     1       7.381   1.106   0.265  1.00  0.00     0.002 A 
HETATM   27  C18 UNL     1       8.153  -0.026   0.128  1.00  0.00     0.000 A 
HETATM   28  C19 UNL     1       7.615  -1.273   0.186  1.00  0.00     0.002 A 
HETATM   29  C20 UNL     1       6.249  -1.438   0.389  1.00  0.00     0.029 A 
ENDBRANCH  21  24
ENDBRANCH  15  18
BRANCH   1  30
HETATM   30  O1  UNL     1      -6.052  -1.194   0.069  1.00  0.00    -0.353 OA
HETATM   31  C1  UNL     1      -7.435  -1.129   0.057  1.00  0.00     0.210 C 
ENDBRANCH   1  30
TORSDOF 3
