REMARK  7 active torsions:
REMARK  status: ('A' for Active; 'I' for Inactive)
REMARK    1  A    between atoms: O1_2  and  C2_3 
REMARK    2  A    between atoms: N1_7  and  C6_8 
REMARK    3  A    between atoms: C9_11  and  N2_12 
REMARK    4  A    between atoms: N2_12  and  C10_13 
REMARK    5  A    between atoms: C10_13  and  C11_14 
REMARK    6  A    between atoms: C16_19  and  O2_20 
REMARK    7  A    between atoms: C22_27  and  C23_28 
ROOT
HETATM    1  C2  UNL     1       4.124   1.134  -0.485  1.00  0.00     0.080 A 
HETATM    2  C3  UNL     1       2.902   0.700  -0.190  1.00  0.00     0.047 A 
HETATM    3  C4  UNL     1       2.768  -0.655   0.272  1.00  0.00    -0.027 A 
HETATM    4  C5  UNL     1       1.515  -1.038   0.532  1.00  0.00     0.096 C 
HETATM    5  N1  UNL     1       0.941  -2.246   0.991  1.00  0.00    -0.360 N 
HETATM    6  C18 UNL     1       1.725  -3.466   1.013  1.00  0.00     0.273 C 
HETATM    7  N3  UNL     1       2.672  -3.573  -0.032  1.00  0.00    -0.285 NA
HETATM    8  C19 UNL     1       3.663  -2.830  -0.370  1.00  0.00     0.098 C 
HETATM    9  C20 UNL     1       3.891  -1.623   0.468  1.00  0.00     0.084 A 
HETATM   10  C21 UNL     1       5.174  -1.021   0.104  1.00  0.00     0.004 A 
HETATM   11  C22 UNL     1       5.238   0.216  -0.318  1.00  0.00     0.011 A 
ENDROOT
BRANCH   5  12
HETATM   12  C6  UNL     1      -0.439  -2.192   1.427  1.00  0.00     0.134 A 
HETATM   13  C7  UNL     1      -0.605  -1.238   2.575  1.00  0.00     0.005 A 
HETATM   14  C8  UNL     1      -1.468  -0.280   2.270  1.00  0.00     0.027 A 
HETATM   15  C9  UNL     1      -1.945  -0.515   0.902  1.00  0.00     0.026 A 
HETATM   16  C17 UNL     1      -1.356  -1.603   0.431  1.00  0.00     0.031 A 
BRANCH  15  17
HETATM   17  N2  UNL     1      -2.887   0.437   0.423  1.00  0.00    -0.386 N 
HETATM   18  H9  UNL     1      -2.663   1.471   0.418  1.00  0.00     0.160 HD
BRANCH  17  19
HETATM   19  C10 UNL     1      -4.111  -0.207  -0.023  1.00  0.00     0.161 C 
BRANCH  19  20
HETATM   20  C11 UNL     1      -5.127   0.730  -0.527  1.00  0.00    -0.007 A 
HETATM   21  C12 UNL     1      -6.238   1.054   0.254  1.00  0.00     0.011 A 
HETATM   22  C13 UNL     1      -7.236   1.912  -0.123  1.00  0.00     0.001 A 
HETATM   23  C14 UNL     1      -7.158   2.516  -1.374  1.00  0.00     0.003 A 
HETATM   24  C15 UNL     1      -6.064   2.219  -2.187  1.00  0.00     0.037 A 
HETATM   25  C16 UNL     1      -5.085   1.349  -1.762  1.00  0.00     0.073 A 
BRANCH  25  26
HETATM   26  O2  UNL     1      -4.011   1.076  -2.595  1.00  0.00    -0.360 OA
HETATM   27  H16 UNL     1      -3.622   1.884  -3.074  1.00  0.00     0.217 HD
ENDBRANCH  25  26
ENDBRANCH  19  20
ENDBRANCH  17  19
ENDBRANCH  15  17
ENDBRANCH   5  12
BRANCH   1  28
HETATM   28  O1  UNL     1       4.312   2.428  -0.937  1.00  0.00    -0.355 OA
HETATM   29  C1  UNL     1       3.347   3.412  -0.681  1.00  0.00     0.210 C 
ENDBRANCH   1  28
BRANCH  11  30
HETATM   30  C23 UNL     1       6.541   0.726  -0.651  1.00  0.00     0.121 C 
HETATM   31  N4  UNL     1       7.704   0.169  -0.610  1.00  0.00    -0.311 NA
HETATM   32  H24 UNL     1       7.866  -0.813  -0.301  1.00  0.00     0.186 HD
ENDBRANCH  11  30
TORSDOF 7
