REMARK  5 active torsions:
REMARK  status: ('A' for Active; 'I' for Inactive)
REMARK    1  A    between atoms: C6_8  and  O1_9 
REMARK    2  A    between atoms: O1_9  and  C7_10 
REMARK    3  A    between atoms: C10_13  and  N3_14 
REMARK       I    between atoms: N3_14  and  C11_15 
REMARK       I    between atoms: C11_15  and  N4_17 
REMARK    4  A    between atoms: N4_17  and  C12_18 
REMARK    5  A    between atoms: C22_28  and  O3_29 
ROOT
HETATM    1  C7  UNL     1      -0.894  -0.761   0.596  1.00  0.00     0.078 A 
HETATM    2  C8  UNL     1      -0.120   0.136   1.335  1.00  0.00     0.039 A 
HETATM    3  C9  UNL     1       1.248  -0.032   1.424  1.00  0.00     0.032 A 
HETATM    4  C10 UNL     1       1.914  -1.070   0.803  1.00  0.00     0.036 A 
HETATM    5  C18 UNL     1       1.133  -1.940   0.082  1.00  0.00     0.032 A 
HETATM    6  C19 UNL     1      -0.239  -1.799  -0.026  1.00  0.00     0.039 A 
ENDROOT
BRANCH   1   7
HETATM    7  O1  UNL     1      -2.238  -0.536   0.551  1.00  0.00    -0.291 OA
BRANCH   7   8
HETATM    8  C6  UNL     1      -2.913   0.222  -0.373  1.00  0.00     0.179 A 
HETATM    9  N2  UNL     1      -2.173   0.809  -1.341  1.00  0.00    -0.217 NA
HETATM   10  C5  UNL     1      -2.780   1.573  -2.287  1.00  0.00     0.236 A 
HETATM   11  N1  UNL     1      -4.133   1.726  -2.229  1.00  0.00    -0.241 NA
HETATM   12  C4  UNL     1      -4.862   1.139  -1.263  1.00  0.00     0.069 A 
HETATM   13  C3  UNL     1      -6.309   1.343  -1.256  1.00  0.00     0.037 A 
HETATM   14  C20 UNL     1      -4.270   0.355  -0.286  1.00  0.00     0.027 A 
HETATM   15  C2  UNL     1      -6.953   0.732  -0.274  1.00  0.00    -0.053 A 
HETATM   16  C1  UNL     1      -8.432   0.885  -0.191  1.00  0.00     0.046 C 
HETATM   17  C22 UNL     1      -6.452  -0.123   0.819  1.00  0.00     0.151 A 
HETATM   18  C21 UNL     1      -4.975  -0.337   0.822  1.00  0.00     0.081 A 
BRANCH  17  19
HETATM   19  O3  UNL     1      -6.819   0.332   2.082  1.00  0.00    -0.391 OA
HETATM   20  H20 UNL     1      -6.172   0.008   2.756  1.00  0.00     0.210 HD
ENDBRANCH  17  19
ENDBRANCH   7   8
ENDBRANCH   1   7
BRANCH   4  21
HETATM   21  N3  UNL     1       3.323  -1.164   0.949  1.00  0.00    -0.309 N 
HETATM   22  C11 UNL     1       4.324  -0.591   0.128  1.00  0.00     0.325 C 
HETATM   23  O2  UNL     1       4.089   0.106  -0.878  1.00  0.00    -0.247 OA
HETATM   24  N4  UNL     1       5.637  -0.895   0.576  1.00  0.00    -0.309 N 
HETATM   25  H9  UNL     1       5.897  -1.471   1.408  1.00  0.00     0.170 HD
HETATM   26  H8  UNL     1       3.469  -1.749   1.793  1.00  0.00     0.170 HD
BRANCH  24  27
HETATM   27  C12 UNL     1       6.794  -0.417  -0.105  1.00  0.00     0.036 A 
HETATM   28  C13 UNL     1       7.319   0.814   0.286  1.00  0.00     0.029 A 
HETATM   29  C14 UNL     1       8.438   1.358  -0.314  1.00  0.00     0.002 A 
HETATM   30  C15 UNL     1       9.078   0.674  -1.344  1.00  0.00     0.000 A 
HETATM   31  C16 UNL     1       8.560  -0.542  -1.730  1.00  0.00     0.002 A 
HETATM   32  C17 UNL     1       7.433  -1.098  -1.131  1.00  0.00     0.029 A 
ENDBRANCH  24  27
ENDBRANCH   4  21
TORSDOF 5
