REMARK  2 active torsions:
REMARK  status: ('A' for Active; 'I' for Inactive)
REMARK    1  A    between atoms: C2_2  and  C3_3 
REMARK    2  A    between atoms: C10_11  and  O1_12 
ROOT
HETATM    1  C3  UNL     1      -3.672  -2.098  -0.961  1.00  0.00    -0.003 C 
HETATM    2  C4  UNL     1      -2.507  -2.753  -0.694  1.00  0.00     0.080 C 
HETATM    3  C5  UNL     1      -1.540  -2.090   0.202  1.00  0.00     0.020 C 
HETATM    4  C6  UNL     1      -0.380  -2.693   0.494  1.00  0.00     0.057 C 
HETATM    5  N1  UNL     1       0.849  -2.543   1.246  1.00  0.00    -0.390 N 
HETATM    6  C7  UNL     1       1.685  -1.677   0.508  1.00  0.00     0.144 C 
HETATM    7  C8  UNL     1       3.051  -1.597   0.930  1.00  0.00     0.004 C 
HETATM    8  C9  UNL     1       4.374  -1.389   1.076  1.00  0.00     0.031 C 
HETATM    9  C10 UNL     1       4.692  -0.643  -0.290  1.00  0.00     0.283 C 
HETATM   10  O2  UNL     1       3.701   0.103  -0.600  1.00  0.00    -0.354 OA
HETATM   11  C12 UNL     1       2.820   0.906  -0.878  1.00  0.00     0.200 C 
HETATM   12  C13 UNL     1       2.363   1.911   0.170  1.00  0.00     0.028 C 
HETATM   13  C14 UNL     1       1.141   2.085   0.787  1.00  0.00     0.056 C 
HETATM   14  C15 UNL     1       0.754   3.109   1.790  1.00  0.00     0.228 C 
HETATM   15  O3  UNL     1      -0.324   3.902   1.294  1.00  0.00    -0.369 OA
HETATM   16  C16 UNL     1      -1.560   3.282   0.972  1.00  0.00     0.093 A 
HETATM   17  C17 UNL     1      -2.173   3.051   2.162  1.00  0.00     0.014 A 
HETATM   18  C18 UNL     1      -3.359   2.441   1.695  1.00  0.00     0.024 A 
HETATM   19  C19 UNL     1      -3.227   2.427   0.339  1.00  0.00     0.021 A 
HETATM   20  C20 UNL     1      -2.208   2.883  -0.443  1.00  0.00     0.082 A 
HETATM   21  C21 UNL     1      -0.969   3.504  -0.207  1.00  0.00     0.046 A 
HETATM   22  N2  UNL     1      -4.422   1.721  -0.141  1.00  0.00    -0.312 N 
HETATM   23  C22 UNL     1      -3.868   0.444  -0.356  1.00  0.00     0.324 C 
HETATM   24  O4  UNL     1      -2.682   0.432  -0.107  1.00  0.00    -0.247 OA
HETATM   25  N3  UNL     1      -4.403  -0.812  -0.805  1.00  0.00    -0.316 N 
HETATM   26  N4  UNL     1       0.381   0.921   0.338  1.00  0.00    -0.265 NA
HETATM   27  C23 UNL     1       1.041  -0.268   0.441  1.00  0.00     0.119 C 
HETATM   28  H7  UNL     1       0.983  -3.044   2.158  1.00  0.00     0.159 HD
HETATM   29  H24 UNL     1      -5.326   2.233  -0.209  1.00  0.00     0.170 HD
HETATM   30  H25 UNL     1      -5.410  -0.757  -1.017  1.00  0.00     0.170 HD
ENDROOT
BRANCH   1  31
HETATM   31  C2  UNL     1      -4.453  -3.013  -1.884  1.00  0.00     0.017 C 
HETATM   32  C1  UNL     1      -5.703  -2.385  -2.149  1.00  0.00     0.042 C 
ENDBRANCH   1  31
BRANCH   9  33
HETATM   33  O1  UNL     1       4.923  -1.621  -1.227  1.00  0.00    -0.363 OA
HETATM   34  C11 UNL     1       6.166  -1.825  -1.731  1.00  0.00     0.205 C 
ENDBRANCH   9  33
TORSDOF 2
