REMARK  6 active torsions:
REMARK  status: ('A' for Active; 'I' for Inactive)
REMARK    1  A    between atoms: O1_2  and  C2_3 
REMARK    2  A    between atoms: C5_6  and  N1_7 
REMARK       I    between atoms: N1_7  and  C6_8 
REMARK       I    between atoms: C6_8  and  N2_10 
REMARK    3  A    between atoms: N2_10  and  C7_11 
REMARK    4  A    between atoms: C10_14  and  C11_15 
REMARK    5  A    between atoms: C15_21  and  C16_22 
REMARK    6  A    between atoms: C16_22  and  N5_23 
ROOT
HETATM    1  C7  UNL     1       0.319  -0.115  -0.635  1.00  0.00     0.036 A 
HETATM    2  C8  UNL     1      -0.715  -0.031  -1.542  1.00  0.00     0.030 A 
HETATM    3  C9  UNL     1      -2.019  -0.027  -1.139  1.00  0.00     0.016 A 
HETATM    4  C10 UNL     1      -2.454  -0.100   0.147  1.00  0.00    -0.007 A 
HETATM    5  C19 UNL     1      -1.404  -0.185   1.043  1.00  0.00     0.016 A 
HETATM    6  C20 UNL     1      -0.079  -0.193   0.674  1.00  0.00     0.030 A 
ENDROOT
BRANCH   1   7
HETATM    7  N2  UNL     1       1.639  -0.112  -1.141  1.00  0.00    -0.309 N 
HETATM    8  C6  UNL     1       2.843  -0.184  -0.429  1.00  0.00     0.325 C 
HETATM    9  N1  UNL     1       4.098  -0.173  -1.034  1.00  0.00    -0.309 N 
HETATM   10  O2  UNL     1       2.818  -0.264   0.804  1.00  0.00    -0.247 OA
HETATM   11  H6  UNL     1       4.077  -0.103  -2.095  1.00  0.00     0.170 HD
HETATM   12  H7  UNL     1       1.764  -0.047  -2.185  1.00  0.00     0.170 HD
BRANCH   9  13
HETATM   13  C5  UNL     1       5.374  -0.239  -0.435  1.00  0.00     0.036 A 
HETATM   14  C4  UNL     1       5.702  -0.332   0.872  1.00  0.00     0.032 A 
HETATM   15  C3  UNL     1       6.977  -0.393   1.389  1.00  0.00     0.039 A 
HETATM   16  C2  UNL     1       8.046  -0.360   0.533  1.00  0.00     0.068 A 
HETATM   17  C22 UNL     1       7.778  -0.267  -0.804  1.00  0.00     0.039 A 
HETATM   18  C21 UNL     1       6.500  -0.209  -1.264  1.00  0.00     0.032 A 
BRANCH  16  19
HETATM   19  O1  UNL     1       9.331  -0.421   1.048  1.00  0.00    -0.356 OA
HETATM   20  C1  UNL     1      10.424  -0.385   0.140  1.00  0.00     0.210 C 
ENDBRANCH  16  19
ENDBRANCH   9  13
ENDBRANCH   1   7
BRANCH   4  21
HETATM   21  C11 UNL     1      -3.756  -0.033   0.774  1.00  0.00     0.074 C 
HETATM   22  N3  UNL     1      -3.748  -0.299   2.061  1.00  0.00    -0.241 NA
HETATM   23  C12 UNL     1      -4.640  -0.392   3.153  1.00  0.00     0.233 C 
HETATM   24  N4  UNL     1      -5.886  -0.767   3.151  1.00  0.00    -0.254 NA
HETATM   25  C13 UNL     1      -6.787  -1.201   2.130  1.00  0.00     0.118 C 
HETATM   26  C14 UNL     1      -6.963  -0.922   0.825  1.00  0.00     0.028 C 
HETATM   27  C15 UNL     1      -6.189   0.022  -0.024  1.00  0.00    -0.021 C 
HETATM   28  C17 UNL     1      -4.906   0.366  -0.029  1.00  0.00    -0.024 C 
HETATM   29  C18 UNL     1      -4.575   1.421  -1.007  1.00  0.00     0.051 C 
BRANCH  27  30
HETATM   30  C16 UNL     1      -7.046   0.652  -1.026  1.00  0.00     0.305 C 
BRANCH  30  31
HETATM   31  N5  UNL     1      -8.131   1.419  -0.429  1.00  0.00     0.082 N 
HETATM   32  H15 UNL     1      -7.735   1.838   0.433  1.00  0.00     0.313 HD
HETATM   33  H16 UNL     1      -8.411   2.193  -1.057  1.00  0.00     0.313 HD
ENDBRANCH  30  31
ENDBRANCH  27  30
ENDBRANCH   4  21
TORSDOF 6
