REMARK  9 active torsions:
REMARK  status: ('A' for Active; 'I' for Inactive)
REMARK    1  A    between atoms: O1_2  and  C2_3 
REMARK    2  A    between atoms: C5_6  and  N1_7 
REMARK       I    between atoms: N1_7  and  C6_8 
REMARK       I    between atoms: C6_8  and  N2_10 
REMARK    3  A    between atoms: N2_10  and  C7_11 
REMARK    4  A    between atoms: C11_15  and  N3_16 
REMARK    5  A    between atoms: N3_16  and  C12_17 
REMARK    6  A    between atoms: C15_22  and  C16_23 
REMARK    7  A    between atoms: C16_23  and  C17_24 
REMARK    8  A    between atoms: C16_23  and  O4_26 
REMARK    9  A    between atoms: C17_24  and  O3_25 
ROOT
HETATM    1  C7  UNL     1       1.932  -0.680   0.191  1.00  0.00     0.036 C 
HETATM    2  C8  UNL     1       1.246  -1.821   0.044  1.00  0.00     0.029 C 
HETATM    3  C9  UNL     1      -0.156  -1.996  -0.370  1.00  0.00     0.001 C 
HETATM    4  C10 UNL     1      -1.085  -1.048  -0.192  1.00  0.00     0.002 C 
HETATM    5  C11 UNL     1      -1.038   0.315   0.400  1.00  0.00     0.129 C 
HETATM    6  C20 UNL     1       0.178   1.069   0.065  1.00  0.00     0.004 C 
HETATM    7  C21 UNL     1       1.436   0.675  -0.030  1.00  0.00     0.028 C 
ENDROOT
BRANCH   5   8
HETATM    8  N3  UNL     1      -2.230   1.019  -0.086  1.00  0.00    -0.367 N 
HETATM    9  H12 UNL     1      -2.175   1.907  -0.657  1.00  0.00     0.161 HD
BRANCH   8  10
HETATM   10  C12 UNL     1      -3.498   0.434   0.259  1.00  0.00     0.107 A 
HETATM   11  N4  UNL     1      -3.548  -0.372   1.246  1.00  0.00    -0.229 NA
HETATM   12  C13 UNL     1      -4.776  -0.990   1.642  1.00  0.00     0.235 A 
HETATM   13  N5  UNL     1      -5.841  -0.717   0.981  1.00  0.00    -0.246 NA
HETATM   14  C14 UNL     1      -5.891   0.154  -0.119  1.00  0.00     0.041 A 
HETATM   15  C15 UNL     1      -7.027   0.385  -0.751  1.00  0.00     0.034 C 
HETATM   16  C19 UNL     1      -4.676   0.825  -0.586  1.00  0.00     0.137 A 
BRANCH  15  17
HETATM   17  C16 UNL     1      -8.334  -0.222  -0.391  1.00  0.00     0.169 C 
BRANCH  17  18
HETATM   18  C17 UNL     1      -9.397   0.868  -0.409  1.00  0.00     0.200 C 
BRANCH  18  19
HETATM   19  O3  UNL     1      -9.055   1.881   0.488  1.00  0.00    -0.398 OA
HETATM   20  H18 UNL     1      -9.824   2.442   0.716  1.00  0.00     0.209 HD
ENDBRANCH  18  19
ENDBRANCH  17  18
BRANCH  17  21
HETATM   21  O4  UNL     1      -8.225  -0.768   0.875  1.00  0.00    -0.385 OA
HETATM   22  C18 UNL     1      -8.459  -2.130   0.831  1.00  0.00     0.202 C 
ENDBRANCH  17  21
ENDBRANCH  15  17
ENDBRANCH   8  10
ENDBRANCH   5   8
BRANCH   1  23
HETATM   23  N2  UNL     1       3.282  -0.850   0.608  1.00  0.00    -0.309 N 
HETATM   24  C6  UNL     1       4.431  -0.430  -0.108  1.00  0.00     0.325 C 
HETATM   25  N1  UNL     1       5.615  -0.749   0.581  1.00  0.00    -0.309 N 
HETATM   26  O2  UNL     1       4.386   0.148  -1.206  1.00  0.00    -0.247 OA
HETATM   27  H6  UNL     1       5.710  -1.231   1.501  1.00  0.00     0.170 HD
HETATM   28  H7  UNL     1       3.250  -1.338   1.530  1.00  0.00     0.170 HD
BRANCH  25  29
HETATM   29  C5  UNL     1       6.933  -0.459   0.123  1.00  0.00     0.036 A 
HETATM   30  C4  UNL     1       7.418   0.778   0.532  1.00  0.00     0.032 A 
HETATM   31  C3  UNL     1       8.667   1.239   0.192  1.00  0.00     0.039 A 
HETATM   32  C2  UNL     1       9.460   0.406  -0.597  1.00  0.00     0.068 A 
HETATM   33  C23 UNL     1       8.992  -0.824  -1.011  1.00  0.00     0.039 A 
HETATM   34  C22 UNL     1       7.730  -1.249  -0.647  1.00  0.00     0.032 A 
BRANCH  32  35
HETATM   35  O1  UNL     1      10.723   0.810  -0.972  1.00  0.00    -0.356 OA
HETATM   36  C1  UNL     1      11.282   2.040  -0.601  1.00  0.00     0.210 C 
ENDBRANCH  32  35
ENDBRANCH  25  29
ENDBRANCH   1  23
TORSDOF 9
