REMARK  7 active torsions:
REMARK  status: ('A' for Active; 'I' for Inactive)
REMARK    1  A    between atoms: C3_3  and  C4_4 
REMARK    2  A    between atoms: C5_5  and  C6_6 
REMARK    3  A    between atoms: C9_9  and  B1_10 
REMARK    4  A    between atoms: B1_10  and  C10_11 
REMARK    5  A    between atoms: C11_12  and  N1_13 
REMARK       I    between atoms: N1_13  and  C12_14 
REMARK       I    between atoms: C12_14  and  N2_16 
REMARK    6  A    between atoms: N2_16  and  C13_17 
REMARK    7  A    between atoms: C16_20  and  O2_21 
ROOT
HETATM    1  C4  UNL     1      -5.322   0.469   0.112  1.00  0.00    -0.026 C 
HETATM    2  C5  UNL     1      -4.050   0.883   0.405  1.00  0.00    -0.020 C 
HETATM    3  C8  UNL     1      -2.869   0.178  -0.222  1.00  0.00     0.053 C 
HETATM    4  C9  UNL     1      -1.654   0.176   0.236  1.00  0.00    -0.076 C 
HETATM    5  N3  UNL     1      -2.902  -0.682  -1.370  1.00  0.00    -0.286 N 
HETATM    6  C20 UNL     1      -3.870  -0.391  -2.519  1.00  0.00     0.208 C 
HETATM    7  C21 UNL     1      -4.903  -1.225  -1.679  1.00  0.00     0.056 C 
HETATM    8  C22 UNL     1      -5.698  -0.701  -0.763  1.00  0.00     0.041 C 
HETATM    9  N4  UNL     1      -4.579  -2.569  -2.064  1.00  0.00    -0.245 NA
HETATM   10  C23 UNL     1      -3.266  -2.947  -1.833  1.00  0.00     0.223 C 
HETATM   11  N5  UNL     1      -2.212  -1.935  -1.423  1.00  0.00    -0.291 N 
HETATM   12  H26 UNL     1      -1.266  -1.655  -1.142  1.00  0.00     0.188 HD
ENDROOT
BRANCH   4  13
HETATM   13  B1  UNL     1      -0.277  -0.221   1.315  1.00  0.00     0.215 B 
BRANCH  13  14
HETATM   14  C10 UNL     1       0.663  -0.518   2.853  1.00  0.00    -0.064 C 
HETATM   15  C11 UNL     1       1.794  -1.152   2.586  1.00  0.00     0.077 C 
BRANCH  15  16
HETATM   16  N1  UNL     1       2.242  -1.559   1.299  1.00  0.00    -0.320 N 
HETATM   17  C12 UNL     1       3.498  -1.011   0.849  1.00  0.00     0.324 C 
HETATM   18  O1  UNL     1       4.113  -0.209   1.630  1.00  0.00    -0.247 OA
HETATM   19  N2  UNL     1       4.174  -1.256  -0.402  1.00  0.00    -0.309 N 
HETATM   20  H14 UNL     1       3.639  -1.923  -1.024  1.00  0.00     0.170 HD
HETATM   21  H13 UNL     1       1.819  -2.203   0.589  1.00  0.00     0.169 HD
BRANCH  19  22
HETATM   22  C13 UNL     1       5.426  -0.559  -0.566  1.00  0.00     0.036 A 
HETATM   23  C14 UNL     1       5.629   0.692  -1.112  1.00  0.00     0.032 A 
HETATM   24  C15 UNL     1       6.919   1.177  -1.174  1.00  0.00     0.039 A 
HETATM   25  C16 UNL     1       7.988   0.437  -0.704  1.00  0.00     0.068 A 
HETATM   26  C18 UNL     1       7.804  -0.807  -0.159  1.00  0.00     0.039 A 
HETATM   27  C19 UNL     1       6.501  -1.300  -0.094  1.00  0.00     0.032 A 
BRANCH  25  28
HETATM   28  O2  UNL     1       9.233   0.998  -0.807  1.00  0.00    -0.356 OA
HETATM   29  C17 UNL     1      10.449   0.443  -0.403  1.00  0.00     0.210 C 
ENDBRANCH  25  28
ENDBRANCH  19  22
ENDBRANCH  15  16
ENDBRANCH  13  14
ENDBRANCH   4  13
BRANCH   2  30
HETATM   30  C6  UNL     1      -3.590   1.893   1.293  1.00  0.00     0.037 C 
HETATM   31  C7  UNL     1      -2.801   2.965   0.495  1.00  0.00     0.010 C 
ENDBRANCH   2  30
BRANCH   1  32
HETATM   32  C3  UNL     1      -6.389   1.133   0.700  1.00  0.00     0.007 C 
HETATM   33  C2  UNL     1      -7.619   1.389   0.956  1.00  0.00    -0.030 C 
HETATM   34  C1  UNL     1      -8.404   0.418   0.178  1.00  0.00     0.036 C 
ENDBRANCH   1  32
TORSDOF 7
