REMARK  6 active torsions:
REMARK  status: ('A' for Active; 'I' for Inactive)
REMARK    1  A    between atoms: O1_2  and  C2_3 
REMARK    2  A    between atoms: C5_6  and  N1_7 
REMARK       I    between atoms: N1_7  and  C6_8 
REMARK       I    between atoms: C6_8  and  N2_10 
REMARK    3  A    between atoms: N2_10  and  C7_11 
REMARK    4  A    between atoms: C10_14  and  N3_15 
REMARK    5  A    between atoms: N3_15  and  C11_16 
REMARK    6  A    between atoms: C16_23  and  O3_25 
ROOT
HETATM    1  C7  UNL     1       1.137  -0.845  -0.080  1.00  0.00     0.036 A 
HETATM    2  C8  UNL     1       0.809  -0.072  -1.139  1.00  0.00     0.032 A 
HETATM    3  C9  UNL     1      -0.463   0.217  -1.576  1.00  0.00     0.032 A 
HETATM    4  C10 UNL     1      -1.520  -0.310  -0.897  1.00  0.00     0.033 A 
HETATM    5  C21 UNL     1      -1.255  -1.123   0.212  1.00  0.00     0.032 A 
HETATM    6  C22 UNL     1       0.042  -1.375   0.599  1.00  0.00     0.032 A 
ENDROOT
BRANCH   4   7
HETATM    7  N3  UNL     1      -2.942  -0.171  -1.133  1.00  0.00    -0.340 N 
HETATM    8  H10 UNL     1      -3.643  -0.777  -1.614  1.00  0.00     0.167 HD
BRANCH   7   9
HETATM    9  C11 UNL     1      -3.489   1.031  -0.593  1.00  0.00     0.138 A 
HETATM   10  N4  UNL     1      -2.766   2.122  -0.605  1.00  0.00    -0.224 NA
HETATM   11  C12 UNL     1      -3.345   3.302  -0.064  1.00  0.00     0.230 A 
HETATM   12  N5  UNL     1      -4.536   3.410   0.441  1.00  0.00    -0.269 NA
HETATM   13  C13 UNL     1      -5.451   2.300   0.510  1.00  0.00     0.168 A 
HETATM   14  C14 UNL     1      -5.984   2.105   1.872  1.00  0.00     0.004 C 
HETATM   15  C20 UNL     1      -4.826   1.065   0.029  1.00  0.00     0.016 A 
HETATM   16  C15 UNL     1      -6.672   0.948   1.966  1.00  0.00     0.013 C 
HETATM   17  C16 UNL     1      -6.860  -0.016   0.807  1.00  0.00     0.093 C 
HETATM   18  C17 UNL     1      -7.934   0.435  -0.117  1.00  0.00     0.055 C 
HETATM   19  C19 UNL     1      -5.498  -0.090   0.162  1.00  0.00     0.028 C 
BRANCH  17  20
HETATM   20  O3  UNL     1      -7.070  -1.248   1.405  1.00  0.00    -0.377 OA
HETATM   21  C18 UNL     1      -7.259  -2.302   0.557  1.00  0.00     0.203 C 
ENDBRANCH  17  20
ENDBRANCH   7   9
ENDBRANCH   4   7
BRANCH   1  22
HETATM   22  N2  UNL     1       2.419  -1.146   0.411  1.00  0.00    -0.309 N 
HETATM   23  C6  UNL     1       3.666  -0.679  -0.015  1.00  0.00     0.325 C 
HETATM   24  N1  UNL     1       4.891  -1.051   0.552  1.00  0.00    -0.309 N 
HETATM   25  O2  UNL     1       3.691   0.131  -0.971  1.00  0.00    -0.247 OA
HETATM   26  H6  UNL     1       4.803  -1.736   1.340  1.00  0.00     0.170 HD
HETATM   27  H7  UNL     1       2.492  -1.820   1.220  1.00  0.00     0.170 HD
BRANCH  24  28
HETATM   28  C5  UNL     1       6.198  -0.641   0.216  1.00  0.00     0.036 A 
HETATM   29  C4  UNL     1       6.580   0.253  -0.751  1.00  0.00     0.032 A 
HETATM   30  C3  UNL     1       7.881   0.604  -1.020  1.00  0.00     0.039 A 
HETATM   31  C2  UNL     1       8.915   0.057  -0.305  1.00  0.00     0.068 A 
HETATM   32  C24 UNL     1       8.571  -0.843   0.674  1.00  0.00     0.039 A 
HETATM   33  C23 UNL     1       7.268  -1.162   0.905  1.00  0.00     0.032 A 
BRANCH  31  34
HETATM   34  O1  UNL     1      10.201   0.424  -0.590  1.00  0.00    -0.356 OA
HETATM   35  C1  UNL     1      11.370  -0.023   0.026  1.00  0.00     0.210 C 
ENDBRANCH  31  34
ENDBRANCH  24  28
ENDBRANCH   1  22
TORSDOF 6
