REMARK  9 active torsions:
REMARK  status: ('A' for Active; 'I' for Inactive)
REMARK    1  A    between atoms: O1_2  and  C2_3 
REMARK    2  A    between atoms: C2_3  and  C3_4 
REMARK    3  A    between atoms: C4_5  and  C5_6 
REMARK    4  A    between atoms: C5_6  and  N1_7 
REMARK    5  A    between atoms: N1_7  and  C6_8 
REMARK    6  A    between atoms: C9_11  and  O2_12 
REMARK    7  A    between atoms: C13_16  and  C14_17 
REMARK    8  A    between atoms: C15_18  and  N2_19 
REMARK    9  A    between atoms: N2_19  and  C16_20 
ROOT
HETATM    1  C2  UNL     1      -0.851  -3.109   0.106  1.00  0.00     0.068 C 
HETATM    2  C13 UNL     1      -2.150  -2.948   0.293  1.00  0.00     0.038 C 
ENDROOT
BRANCH   1   3
HETATM    3  O1  UNL     1      -0.306  -4.301  -0.377  1.00  0.00    -0.356 OA
HETATM    4  C1  UNL     1      -0.982  -5.519  -0.248  1.00  0.00     0.210 C 
ENDBRANCH   1   3
BRANCH   1   5
HETATM    5  C3  UNL     1       0.146  -2.083   0.375  1.00  0.00     0.034 C 
HETATM    6  C4  UNL     1       1.453  -2.188   0.208  1.00  0.00    -0.005 C 
BRANCH   6   7
HETATM    7  C5  UNL     1       2.419  -1.099   0.503  1.00  0.00     0.147 C 
BRANCH   7   8
HETATM    8  N1  UNL     1       3.185  -0.679  -0.638  1.00  0.00    -0.386 N 
HETATM    9  H8  UNL     1       3.029  -1.132  -1.566  1.00  0.00     0.160 HD
BRANCH   8  10
HETATM   10  C6  UNL     1       4.158   0.358  -0.497  1.00  0.00     0.028 A 
HETATM   11  C7  UNL     1       4.345   0.939   0.741  1.00  0.00     0.032 A 
HETATM   12  C8  UNL     1       5.301   1.949   0.852  1.00  0.00     0.039 A 
HETATM   13  C9  UNL     1       6.034   2.345  -0.258  1.00  0.00     0.068 A 
HETATM   14  C11 UNL     1       5.836   1.753  -1.497  1.00  0.00     0.039 A 
HETATM   15  C12 UNL     1       4.888   0.755  -1.597  1.00  0.00     0.032 A 
BRANCH  13  16
HETATM   16  O2  UNL     1       7.001   3.337  -0.240  1.00  0.00    -0.356 OA
HETATM   17  C10 UNL     1       7.283   4.005   0.969  1.00  0.00     0.210 C 
ENDBRANCH  13  16
ENDBRANCH   8  10
ENDBRANCH   7   8
ENDBRANCH   6   7
ENDBRANCH   1   5
BRANCH   2  18
HETATM   18  C14 UNL     1      -2.755  -1.723   0.794  1.00  0.00     0.020 C 
HETATM   19  C15 UNL     1      -4.045  -1.636   0.954  1.00  0.00     0.089 C 
BRANCH  19  20
HETATM   20  N2  UNL     1      -4.766  -0.522   1.426  1.00  0.00    -0.352 N 
HETATM   21  H19 UNL     1      -5.089  -0.245   2.389  1.00  0.00     0.166 HD
BRANCH  20  22
HETATM   22  C16 UNL     1      -5.135   0.422   0.405  1.00  0.00     0.129 C 
HETATM   23  N3  UNL     1      -5.300  -0.128  -0.757  1.00  0.00    -0.226 NA
HETATM   24  C17 UNL     1      -5.654   0.342  -2.053  1.00  0.00     0.234 C 
HETATM   25  N4  UNL     1      -5.697   1.486  -2.669  1.00  0.00    -0.252 NA
HETATM   26  C18 UNL     1      -5.390   2.825  -2.283  1.00  0.00     0.142 C 
HETATM   27  C19 UNL     1      -4.954   3.420  -1.195  1.00  0.00     0.154 C 
HETATM   28  O3  UNL     1      -4.668   2.740  -0.039  1.00  0.00    -0.354 OA
HETATM   29  C20 UNL     1      -5.261   1.852   0.863  1.00  0.00     0.253 C 
ENDBRANCH  20  22
ENDBRANCH  19  20
ENDBRANCH   2  18
TORSDOF 9
