REMARK  6 active torsions:
REMARK  status: ('A' for Active; 'I' for Inactive)
REMARK    1  A    between atoms: C3_3  and  N1_4 
REMARK       I    between atoms: N1_4  and  C4_5 
REMARK       I    between atoms: C4_5  and  N2_7 
REMARK    2  A    between atoms: N2_7  and  C5_8 
REMARK    3  A    between atoms: C8_11  and  O2_12 
REMARK    4  A    between atoms: O2_12  and  C9_13 
REMARK    5  A    between atoms: C13_19  and  O3_21 
REMARK    6  A    between atoms: C15_22  and  O4_23 
ROOT
HETATM    1  C9  UNL     1      -2.210  -0.670   0.605  1.00  0.00     0.181 A 
HETATM    2  N3  UNL     1      -1.596  -1.698   1.217  1.00  0.00    -0.217 NA
HETATM    3  C10 UNL     1      -2.237  -2.626   1.951  1.00  0.00     0.234 A 
HETATM    4  N4  UNL     1      -3.575  -2.492   2.060  1.00  0.00    -0.258 NA
HETATM    5  C11 UNL     1      -4.204  -1.472   1.455  1.00  0.00     0.006 A 
HETATM    6  C12 UNL     1      -3.562  -0.513   0.700  1.00  0.00     0.049 A 
HETATM    7  C13 UNL     1      -4.199   0.622   0.018  1.00  0.00     0.133 A 
HETATM    8  C14 UNL     1      -3.560   1.950   0.446  1.00  0.00     0.059 C 
HETATM    9  C15 UNL     1      -5.666   0.660   0.213  1.00  0.00     0.070 A 
HETATM   10  C17 UNL     1      -6.441  -0.167   0.897  1.00  0.00    -0.040 A 
HETATM   11  B1  UNL     1      -5.769  -1.374   1.624  1.00  0.00     0.246 B 
HETATM   12  H19 UNL     1      -6.372  -2.300   2.013  1.00  0.00    -0.015 HD
ENDROOT
BRANCH   1  13
HETATM   13  O2  UNL     1      -1.397   0.215  -0.125  1.00  0.00    -0.291 OA
BRANCH  13  14
HETATM   14  C8  UNL     1      -0.041  -0.005  -0.178  1.00  0.00     0.078 A 
HETATM   15  C7  UNL     1       0.803   0.542   0.758  1.00  0.00     0.039 A 
HETATM   16  C6  UNL     1       2.153   0.283   0.650  1.00  0.00     0.032 A 
HETATM   17  C5  UNL     1       2.755  -0.483  -0.320  1.00  0.00     0.036 A 
HETATM   18  C19 UNL     1       1.868  -1.007  -1.231  1.00  0.00     0.032 A 
HETATM   19  C18 UNL     1       0.514  -0.783  -1.172  1.00  0.00     0.039 A 
BRANCH  17  20
HETATM   20  N2  UNL     1       4.120  -0.758  -0.447  1.00  0.00    -0.309 N 
HETATM   21  C4  UNL     1       5.203  -0.352   0.335  1.00  0.00     0.324 C 
HETATM   22  N1  UNL     1       6.562  -0.698   0.105  1.00  0.00    -0.319 N 
HETATM   23  O1  UNL     1       5.005   0.373   1.323  1.00  0.00    -0.247 OA
HETATM   24  H6  UNL     1       6.788  -1.309  -0.717  1.00  0.00     0.170 HD
HETATM   25  H7  UNL     1       4.442  -1.367  -1.248  1.00  0.00     0.170 HD
BRANCH  22  26
HETATM   26  C3  UNL     1       7.507  -0.164   1.042  1.00  0.00     0.088 C 
HETATM   27  C2  UNL     1       8.499   0.634   0.687  1.00  0.00    -0.014 C 
HETATM   28  C1  UNL     1       8.662   1.007  -0.730  1.00  0.00     0.037 C 
ENDBRANCH  22  26
ENDBRANCH  17  20
ENDBRANCH  13  14
ENDBRANCH   1  13
BRANCH   7  29
HETATM   29  O3  UNL     1      -3.964   0.559  -1.370  1.00  0.00    -0.378 OA
HETATM   30  H14 UNL     1      -4.078  -0.364  -1.658  1.00  0.00     0.211 HD
ENDBRANCH   7  29
BRANCH   9  31
HETATM   31  O4  UNL     1      -6.330   1.727  -0.419  1.00  0.00    -0.358 OA
HETATM   32  C16 UNL     1      -6.915   1.480  -1.693  1.00  0.00     0.209 C 
ENDBRANCH   9  31
TORSDOF 6
