REMARK  3 active torsions:
REMARK  status: ('A' for Active; 'I' for Inactive)
REMARK    1  A    between atoms: C1_2  and  C2_4 
REMARK    2  A    between atoms: C10_16  and  N4_17 
REMARK    3  A    between atoms: N4_17  and  C11_18 
ROOT
HETATM    1  C2  UNL     1      -2.139  -1.865   0.197  1.00  0.00     0.006 C 
HETATM    2  C3  UNL     1      -0.880  -1.675   0.010  1.00  0.00     0.005 C 
HETATM    3  C4  UNL     1      -0.116  -0.430  -0.496  1.00  0.00     0.156 C 
HETATM    4  N1  UNL     1      -1.190   0.574  -0.692  1.00  0.00    -0.346 N 
HETATM    5  C5  UNL     1      -2.506   0.593  -1.370  1.00  0.00     0.097 C 
HETATM    6  C6  UNL     1      -3.150   0.376  -0.185  1.00  0.00    -0.036 C 
HETATM    7  C7  UNL     1      -3.744   1.411   0.742  1.00  0.00     0.213 C 
HETATM    8  O2  UNL     1      -2.821   2.421   1.134  1.00  0.00    -0.328 OA
HETATM    9  C8  UNL     1      -1.418   2.501   0.927  1.00  0.00     0.197 A 
HETATM   10  N2  UNL     1      -0.747   3.435   1.580  1.00  0.00    -0.216 NA
HETATM   11  C9  UNL     1       0.588   3.540   1.405  1.00  0.00     0.238 A 
HETATM   12  N3  UNL     1       1.326   2.754   0.596  1.00  0.00    -0.222 NA
HETATM   13  C10 UNL     1       0.744   1.759  -0.127  1.00  0.00     0.161 A 
HETATM   14  C17 UNL     1      -0.610   1.691   0.085  1.00  0.00     0.134 A 
HETATM   15  C18 UNL     1      -3.293  -0.999   0.412  1.00  0.00     0.081 C 
ENDROOT
BRANCH  13  16
HETATM   16  N4  UNL     1       1.352   0.857  -1.047  1.00  0.00    -0.339 N 
HETATM   17  H8  UNL     1       0.812   0.921  -1.980  1.00  0.00     0.167 HD
BRANCH  16  18
HETATM   18  C11 UNL     1       2.584   0.101  -0.749  1.00  0.00     0.035 A 
HETATM   19  C12 UNL     1       3.093   0.312   0.500  1.00  0.00     0.032 A 
HETATM   20  C13 UNL     1       4.226  -0.381   0.831  1.00  0.00     0.046 A 
HETATM   21  C14 UNL     1       4.801  -1.250  -0.085  1.00  0.00     0.138 A 
HETATM   22  F1  UNL     1       5.918  -1.906   0.296  1.00  0.00    -0.204 F 
HETATM   23  C15 UNL     1       4.212  -1.398  -1.329  1.00  0.00     0.074 A 
HETATM   24 CL2  UNL     1       5.034  -2.517  -2.384  1.00  0.00    -0.081 Cl
HETATM   25  C16 UNL     1       3.067  -0.727  -1.728  1.00  0.00     0.056 A 
ENDBRANCH  16  18
ENDBRANCH  13  16
BRANCH   1  26
HETATM   26  C1  UNL     1      -2.453  -3.319   0.177  1.00  0.00     0.248 C 
HETATM   27  O1  UNL     1      -3.646  -3.604   0.348  1.00  0.00    -0.274 OA
HETATM   28 CL1  UNL     1      -1.270  -4.573  -0.070  1.00  0.00    -0.039 Cl
ENDBRANCH   1  26
TORSDOF 3
