REMARK  3 active torsions:
REMARK  status: ('A' for Active; 'I' for Inactive)
REMARK    1  A    between atoms: C1_2  and  C2_3 
REMARK    2  A    between atoms: C7_8  and  N1_9 
REMARK    3  A    between atoms: N1_9  and  C8_10 
ROOT
HETATM    1  C2  UNL     1      -2.579   1.391  -0.456  1.00  0.00    -0.011 A 
HETATM    2  C3  UNL     1      -2.204   2.551   0.078  1.00  0.00     0.011 A 
HETATM    3  C4  UNL     1      -1.318   2.319   1.238  1.00  0.00     0.005 A 
HETATM    4  C5  UNL     1      -1.210   1.001   1.335  1.00  0.00    -0.062 A 
HETATM    5  C6  UNL     1      -0.506   0.090   2.231  1.00  0.00     0.115 C 
HETATM    6  C7  UNL     1       0.653  -0.583   1.557  1.00  0.00     0.128 C 
HETATM    7  N2  UNL     1       1.109  -1.735   1.181  1.00  0.00    -0.160 NA
HETATM    8  N3  UNL     1       0.372  -2.922   1.408  1.00  0.00    -0.269 N 
HETATM    9  C14 UNL     1      -1.067  -2.821   1.414  1.00  0.00     0.247 C 
HETATM   10  N4  UNL     1      -1.461  -2.241   0.355  1.00  0.00    -0.173 NA
HETATM   11  N5  UNL     1      -2.785  -1.964   0.007  1.00  0.00    -0.312 N 
HETATM   12  C15 UNL     1      -2.955  -0.729   0.790  1.00  0.00     0.155 C 
HETATM   13  C16 UNL     1      -1.963   0.252   0.316  1.00  0.00     0.070 A 
HETATM   14  H11 UNL     1       1.279  -3.432   1.484  1.00  0.00     0.190 HD
HETATM   15  H13 UNL     1      -3.597  -2.328  -0.576  1.00  0.00     0.182 HD
ENDROOT
BRANCH   6  16
HETATM   16  N1  UNL     1       1.616   0.422   1.177  1.00  0.00    -0.343 N 
HETATM   17  H6  UNL     1       1.826   1.390   1.507  1.00  0.00     0.167 HD
BRANCH  16  18
HETATM   18  C8  UNL     1       2.624   0.335   0.149  1.00  0.00     0.035 A 
HETATM   19  C9  UNL     1       3.919  -0.131   0.351  1.00  0.00     0.029 A 
HETATM   20  C10 UNL     1       4.745  -0.140  -0.757  1.00  0.00     0.004 A 
HETATM   21  C11 UNL     1       4.344   0.278  -1.989  1.00  0.00     0.024 A 
HETATM   22  C12 UNL     1       3.045   0.746  -2.190  1.00  0.00     0.036 A 
HETATM   23 CL1  UNL     1       2.501   1.290  -3.760  1.00  0.00    -0.084 Cl
HETATM   24  C13 UNL     1       2.210   0.760  -1.092  1.00  0.00     0.053 A 
ENDBRANCH  16  18
ENDBRANCH   6  16
BRANCH   1  25
HETATM   25  C1  UNL     1      -3.465   1.286  -1.628  1.00  0.00     0.266 C 
HETATM   26  O1  UNL     1      -3.853   2.395  -2.102  1.00  0.00    -0.302 OA
ENDBRANCH   1  25
TORSDOF 3
