REMARK  8 active torsions:
REMARK  status: ('A' for Active; 'I' for Inactive)
REMARK    1  A    between atoms: C5_5  and  C6_6 
REMARK       I    between atoms: C6_6  and  N1_8 
REMARK    2  A    between atoms: N1_8  and  C7_9 
REMARK    3  A    between atoms: N2_12  and  O2_13 
REMARK    4  A    between atoms: C13_17  and  N3_18 
REMARK    5  A    between atoms: N3_18  and  C15_20 
REMARK    6  A    between atoms: C15_20  and  C16_21 
REMARK    7  A    between atoms: C20_27  and  O3_28 
REMARK    8  A    between atoms: C22_30  and  O4_31 
ROOT
HETATM    1  C1  UNL     1      -1.606   3.093  -1.445  1.00  0.00     0.045 C 
HETATM    2  C2  UNL     1      -0.332   2.782  -1.218  1.00  0.00    -0.030 A 
HETATM    3  C3  UNL     1       0.841   3.596  -1.538  1.00  0.00     0.010 A 
HETATM    4  C4  UNL     1       1.944   2.974  -1.171  1.00  0.00     0.020 A 
HETATM    5  C5  UNL     1       1.516   1.708  -0.588  1.00  0.00     0.059 A 
HETATM    6  C13 UNL     1       0.219   1.585  -0.608  1.00  0.00     0.052 A 
ENDROOT
BRANCH   6   7
HETATM    7  N3  UNL     1      -0.658   0.538  -0.159  1.00  0.00    -0.378 N 
HETATM    8  C14 UNL     1      -1.306   0.916   1.107  1.00  0.00     0.150 C 
BRANCH   7   9
HETATM    9  C15 UNL     1      -0.966  -0.761  -0.753  1.00  0.00     0.182 C 
BRANCH   9  10
HETATM   10  C16 UNL     1      -1.947  -1.469   0.085  1.00  0.00     0.066 A 
HETATM   11  N4  UNL     1      -1.552  -2.474   0.903  1.00  0.00    -0.244 NA
HETATM   12  C17 UNL     1      -2.421  -3.147   1.694  1.00  0.00     0.234 A 
HETATM   13  N5  UNL     1      -3.729  -2.809   1.671  1.00  0.00    -0.241 NA
HETATM   14  C18 UNL     1      -4.195  -1.827   0.887  1.00  0.00     0.073 A 
HETATM   15  C19 UNL     1      -5.531  -1.463   0.843  1.00  0.00     0.072 A 
HETATM   16  C25 UNL     1      -3.304  -1.142   0.080  1.00  0.00     0.022 A 
HETATM   17  C20 UNL     1      -5.939  -0.435   0.003  1.00  0.00     0.103 A 
HETATM   18  C22 UNL     1      -5.066   0.258  -0.807  1.00  0.00     0.102 A 
HETATM   19  C24 UNL     1      -3.732  -0.124  -0.747  1.00  0.00     0.055 A 
BRANCH  17  20
HETATM   20  O3  UNL     1      -7.281  -0.102  -0.011  1.00  0.00    -0.353 OA
HETATM   21  C21 UNL     1      -8.262  -0.732   0.765  1.00  0.00     0.210 C 
ENDBRANCH  17  20
BRANCH  18  22
HETATM   22  O4  UNL     1      -5.581   1.264  -1.606  1.00  0.00    -0.353 OA
HETATM   23  C23 UNL     1      -4.862   2.069  -2.488  1.00  0.00     0.210 C 
ENDBRANCH  18  22
ENDBRANCH   9  10
ENDBRANCH   7   9
ENDBRANCH   6   7
BRANCH   5  24
HETATM   24  C6  UNL     1       2.418   0.699  -0.047  1.00  0.00     0.258 C 
HETATM   25  O1  UNL     1       2.186  -0.419   0.478  1.00  0.00    -0.267 OA
HETATM   26  N1  UNL     1       3.842   0.907  -0.062  1.00  0.00    -0.323 N 
HETATM   27  H5  UNL     1       4.270   1.795  -0.463  1.00  0.00     0.169 HD
BRANCH  26  28
HETATM   28  C7  UNL     1       4.740  -0.065   0.459  1.00  0.00     0.034 A 
HETATM   29  C8  UNL     1       5.566  -0.475  -0.485  1.00  0.00     0.025 A 
HETATM   30  C9  UNL     1       6.612  -1.501  -0.189  1.00  0.00     0.184 A 
HETATM   31  N2  UNL     1       6.591  -1.948   1.169  1.00  0.00    -0.267 N 
HETATM   32  C11 UNL     1       5.688  -1.486   2.159  1.00  0.00     0.119 A 
HETATM   33  C12 UNL     1       4.789  -0.574   1.822  1.00  0.00     0.048 A 
BRANCH  31  34
HETATM   34  O2  UNL     1       7.545  -2.877   1.404  1.00  0.00    -0.283 OA
HETATM   35  C10 UNL     1       8.813  -2.306   1.389  1.00  0.00     0.237 C 
ENDBRANCH  31  34
ENDBRANCH  26  28
ENDBRANCH   5  24
TORSDOF 8
