REMARK  1 active torsions:
REMARK  status: ('A' for Active; 'I' for Inactive)
REMARK    1  A    between atoms: C10_15  and  O3_16 
ROOT
HETATM    1  O1  UNL     1       1.584  -1.538   0.224  1.00  0.00    -0.247 OA
HETATM    2  C1  UNL     1       1.941  -2.699   0.455  1.00  0.00     0.322 C 
HETATM    3  N1  UNL     1       3.222  -2.028   0.469  1.00  0.00    -0.309 N 
HETATM    4  C2  UNL     1       3.411  -0.604   0.248  1.00  0.00     0.036 A 
HETATM    5  C3  UNL     1       4.074  -0.082  -0.835  1.00  0.00     0.032 A 
HETATM    6  C4  UNL     1       4.149   1.284  -0.963  1.00  0.00     0.039 A 
HETATM    7  C5  UNL     1       3.566   2.090  -0.016  1.00  0.00     0.076 A 
HETATM    8  C6  UNL     1       2.895   1.595   1.083  1.00  0.00     0.039 A 
HETATM    9  C7  UNL     1       2.821   0.223   1.211  1.00  0.00     0.032 A 
HETATM   10  O2  UNL     1       3.577   3.489  -0.053  1.00  0.00    -0.304 OA
HETATM   11  C8  UNL     1       2.366   4.195  -0.103  1.00  0.00     0.260 C 
HETATM   12  N2  UNL     1       1.299   3.475  -0.173  1.00  0.00    -0.230 NA
HETATM   13  C9  UNL     1      -0.017   3.933  -0.233  1.00  0.00     0.237 C 
HETATM   14  N3  UNL     1      -0.763   2.862  -0.128  1.00  0.00    -0.218 NA
HETATM   15  C10 UNL     1      -2.168   2.938  -0.149  1.00  0.00     0.163 C 
HETATM   16  C11 UNL     1      -2.999   1.917  -0.164  1.00  0.00     0.057 C 
HETATM   17  C12 UNL     1      -2.724   0.509  -0.164  1.00  0.00     0.001 C 
HETATM   18  C13 UNL     1      -3.541  -0.516  -0.178  1.00  0.00    -0.016 C 
HETATM   19  C14 UNL     1      -3.188  -1.943  -0.177  1.00  0.00     0.058 C 
HETATM   20  C15 UNL     1      -2.736  -2.435   1.175  1.00  0.00    -0.017 C 
HETATM   21  C16 UNL     1      -1.567  -3.078   1.401  1.00  0.00     0.026 C 
HETATM   22  C17 UNL     1      -0.678  -2.904   0.232  1.00  0.00     0.346 C 
HETATM   23  N4  UNL     1      -1.330  -3.409  -0.922  1.00  0.00     0.111 N 
HETATM   24  C18 UNL     1      -2.321  -2.389  -1.303  1.00  0.00     0.285 C 
HETATM   25  N5  UNL     1       0.680  -3.361   0.442  1.00  0.00    -0.310 N 
HETATM   26  H1  UNL     1       3.758  -2.898   0.669  1.00  0.00     0.170 HD
HETATM   27  H16 UNL     1      -1.886  -4.292  -0.739  1.00  0.00     0.319 HD
HETATM   28  H19 UNL     1       0.891  -4.367   0.631  1.00  0.00     0.166 HD
ENDROOT
BRANCH  15  29
HETATM   29  O3  UNL     1      -2.742   4.223  -0.153  1.00  0.00    -0.345 OA
HETATM   30  H8  UNL     1      -2.980   4.619   0.751  1.00  0.00     0.219 HD
ENDBRANCH  15  29
TORSDOF 1
