REMARK  7 active torsions:
REMARK  status: ('A' for Active; 'I' for Inactive)
REMARK    1  A    between atoms: O1_2  and  C2_3 
REMARK    2  A    between atoms: C7_9  and  N1_10 
REMARK    3  A    between atoms: N1_10  and  C9_12 
REMARK    4  A    between atoms: C12_15  and  N2_16 
REMARK    5  A    between atoms: N2_16  and  C13_17 
REMARK    6  A    between atoms: C13_17  and  C15_19 
REMARK    7  A    between atoms: C16_20  and  O3_21 
ROOT
HETATM    1  C9  UNL     1       0.125   0.533   1.585  1.00  0.00     0.035 A 
HETATM    2  C10 UNL     1      -0.020  -0.093   0.358  1.00  0.00     0.032 A 
HETATM    3  C11 UNL     1      -1.215  -0.257  -0.305  1.00  0.00     0.031 A 
HETATM    4  C12 UNL     1      -2.379   0.235   0.277  1.00  0.00     0.028 A 
HETATM    5  C20 UNL     1      -2.275   0.866   1.500  1.00  0.00     0.031 A 
HETATM    6  C21 UNL     1      -1.058   1.008   2.131  1.00  0.00     0.032 A 
ENDROOT
BRANCH   1   7
HETATM    7  N1  UNL     1       1.409   0.658   2.233  1.00  0.00    -0.336 N 
HETATM    8  C8  UNL     1       1.395   1.351   3.509  1.00  0.00     0.158 C 
BRANCH   7   9
HETATM    9  C7  UNL     1       2.494   0.102   1.562  1.00  0.00     0.131 C 
HETATM   10  C6  UNL     1       3.445   1.175   1.294  1.00  0.00     0.049 C 
HETATM   11  C5  UNL     1       4.593   1.527   0.751  1.00  0.00     0.003 C 
HETATM   12  C4  UNL     1       5.894   2.060   0.169  1.00  0.00     0.196 C 
HETATM   13  O2  UNL     1       5.881   1.855  -1.216  1.00  0.00    -0.376 OA
HETATM   14  C3  UNL     1       6.384   0.848  -1.955  1.00  0.00     0.259 C 
HETATM   15  C2  UNL     1       6.275  -0.495  -2.072  1.00  0.00     0.080 C 
HETATM   16  C24 UNL     1       5.704  -1.839  -1.680  1.00  0.00     0.053 C 
HETATM   17  C23 UNL     1       4.859  -2.534  -0.874  1.00  0.00     0.142 C 
HETATM   18  N5  UNL     1       3.926  -2.786   0.107  1.00  0.00    -0.275 NA
HETATM   19  C22 UNL     1       3.118  -2.115   0.794  1.00  0.00     0.229 C 
HETATM   20  N4  UNL     1       2.339  -1.123   1.393  1.00  0.00    -0.225 NA
BRANCH  15  21
HETATM   21  O1  UNL     1       7.183  -0.637  -3.105  1.00  0.00    -0.387 OA
HETATM   22  C1  UNL     1       8.454  -1.259  -2.917  1.00  0.00     0.202 C 
ENDBRANCH  15  21
ENDBRANCH   7   9
ENDBRANCH   1   7
BRANCH   4  23
HETATM   23  N2  UNL     1      -3.609   0.036  -0.387  1.00  0.00    -0.382 N 
HETATM   24  H14 UNL     1      -3.628  -0.493  -1.307  1.00  0.00     0.160 HD
BRANCH  23  25
HETATM   25  C13 UNL     1      -4.911   0.507   0.079  1.00  0.00     0.113 C 
HETATM   26  C14 UNL     1      -5.033   1.997   0.059  1.00  0.00     0.037 C 
BRANCH  25  27
HETATM   27  C15 UNL     1      -5.999  -0.084  -0.728  1.00  0.00    -0.004 A 
HETATM   28  C16 UNL     1      -6.887  -0.905  -0.177  1.00  0.00     0.069 A 
HETATM   29  C17 UNL     1      -8.040  -1.583  -0.844  1.00  0.00     0.183 A 
HETATM   30  N3  UNL     1      -8.055  -1.217  -2.233  1.00  0.00    -0.393 N 
HETATM   31  C18 UNL     1      -7.135  -0.348  -2.869  1.00  0.00     0.084 A 
HETATM   32  H22 UNL     1      -8.868  -1.708  -2.675  1.00  0.00     0.159 HD
HETATM   33  C19 UNL     1      -6.174   0.174  -2.139  1.00  0.00     0.028 A 
BRANCH  28  34
HETATM   34  O3  UNL     1      -6.819  -1.231   1.179  1.00  0.00    -0.363 OA
HETATM   35  H19 UNL     1      -7.238  -0.639   1.892  1.00  0.00     0.217 HD
ENDBRANCH  28  34
ENDBRANCH  25  27
ENDBRANCH  23  25
ENDBRANCH   4  23
TORSDOF 7
