REMARK  8 active torsions:
REMARK  status: ('A' for Active; 'I' for Inactive)
REMARK    1  A    between atoms: C2_2  and  N1_3 
REMARK    2  A    between atoms: C2_2  and  N4_24 
REMARK    3  A    between atoms: N1_3  and  C3_4 
REMARK    4  A    between atoms: C6_7  and  O1_8 
REMARK    5  A    between atoms: O1_8  and  C7_9 
REMARK    6  A    between atoms: C9_13  and  O2_14 
REMARK    7  A    between atoms: C20_27  and  O4_28 
REMARK    8  A    between atoms: C23_31  and  O5_32 
ROOT
HETATM    1  C3  UNL     1       1.183   0.014   0.822  1.00  0.00     0.033 A 
HETATM    2  C4  UNL     1       0.488   0.141  -0.359  1.00  0.00     0.032 A 
HETATM    3  C5  UNL     1      -0.835  -0.217  -0.457  1.00  0.00     0.039 A 
HETATM    4  C6  UNL     1      -1.516  -0.719   0.629  1.00  0.00     0.078 A 
HETATM    5  C16 UNL     1      -0.801  -0.845   1.828  1.00  0.00     0.039 A 
HETATM    6  C17 UNL     1       0.546  -0.478   1.922  1.00  0.00     0.032 A 
ENDROOT
BRANCH   4   7
HETATM    7  O1  UNL     1      -2.805  -1.148   0.818  1.00  0.00    -0.291 OA
BRANCH   7   8
HETATM    8  C7  UNL     1      -3.742  -1.146  -0.178  1.00  0.00     0.182 A 
HETATM    9  N2  UNL     1      -3.342  -1.593  -1.320  1.00  0.00    -0.217 NA
HETATM   10  C8  UNL     1      -4.339  -1.585  -2.362  1.00  0.00     0.233 A 
HETATM   11  N3  UNL     1      -5.555  -1.205  -2.333  1.00  0.00    -0.237 NA
HETATM   12  C9  UNL     1      -6.129  -0.688  -1.133  1.00  0.00     0.208 A 
HETATM   13  C10 UNL     1      -6.838   0.623  -1.311  1.00  0.00     0.243 C 
HETATM   14  C15 UNL     1      -5.127  -0.694  -0.072  1.00  0.00     0.054 A 
HETATM   15  O3  UNL     1      -7.780   0.892  -0.316  1.00  0.00    -0.357 OA
HETATM   16  C11 UNL     1      -7.581   0.756   1.059  1.00  0.00     0.141 C 
HETATM   17  C12 UNL     1      -6.570   0.263   1.783  1.00  0.00    -0.039 C 
HETATM   18  C13 UNL     1      -6.669   0.262   3.279  1.00  0.00     0.050 C 
HETATM   19  C14 UNL     1      -5.366  -0.277   1.161  1.00  0.00     0.025 C 
BRANCH  12  20
HETATM   20  O2  UNL     1      -7.136  -1.607  -0.754  1.00  0.00    -0.363 OA
HETATM   21  H7  UNL     1      -7.216  -1.533   0.215  1.00  0.00     0.213 HD
ENDBRANCH  12  20
ENDBRANCH   7   8
ENDBRANCH   4   7
BRANCH   1  22
HETATM   22  N1  UNL     1       2.537   0.392   0.886  1.00  0.00    -0.345 N 
HETATM   23  H3  UNL     1       3.106   0.314   1.756  1.00  0.00     0.167 HD
BRANCH  22  24
HETATM   24  C2  UNL     1       3.282   0.915  -0.207  1.00  0.00     0.090 C 
HETATM   25  C1  UNL     1       3.048   1.734  -1.221  1.00  0.00     0.084 C 
BRANCH  24  26
HETATM   26  N4  UNL     1       4.649   0.575  -0.414  1.00  0.00    -0.292 N 
HETATM   27  C18 UNL     1       5.031  -0.408  -1.369  1.00  0.00     0.099 A 
HETATM   28  C19 UNL     1       6.330  -0.639  -1.473  1.00  0.00     0.026 A 
HETATM   29  C20 UNL     1       7.427  -0.005  -0.722  1.00  0.00     0.172 A 
HETATM   30  C22 UNL     1       6.861   0.975   0.213  1.00  0.00     0.065 A 
HETATM   31  C23 UNL     1       5.587   1.284   0.398  1.00  0.00     0.146 A 
BRANCH  29  32
HETATM   32  O4  UNL     1       8.435   0.518  -1.517  1.00  0.00    -0.383 OA
HETATM   33  C21 UNL     1       9.666  -0.085  -1.284  1.00  0.00     0.202 C 
ENDBRANCH  29  32
BRANCH  31  34
HETATM   34  O5  UNL     1       5.181   2.238   1.322  1.00  0.00    -0.346 OA
HETATM   35  H24 UNL     1       5.186   3.234   1.075  1.00  0.00     0.219 HD
ENDBRANCH  31  34
ENDBRANCH  24  26
ENDBRANCH  22  24
ENDBRANCH   1  22
TORSDOF 8
