REMARK  8 active torsions:
REMARK  status: ('A' for Active; 'I' for Inactive)
REMARK    1  A    between atoms: O1_2  and  C2_3 
REMARK    2  A    between atoms: C7_8  and  O2_9 
REMARK    3  A    between atoms: C9_12  and  O4_13 
REMARK    4  A    between atoms: O4_13  and  C10_14 
REMARK    5  A    between atoms: C13_17  and  N1_18 
REMARK    6  A    between atoms: N1_18  and  C14_19 
REMARK    7  A    between atoms: C14_19  and  N2_20 
REMARK    8  A    between atoms: C17_23  and  O5_24 
ROOT
HETATM    1  C10 UNL     1       0.249  -0.648  -0.411  1.00  0.00     0.080 A 
HETATM    2  C11 UNL     1       0.246  -0.716   0.964  1.00  0.00     0.039 A 
HETATM    3  C12 UNL     1       1.300  -1.245   1.671  1.00  0.00     0.032 A 
HETATM    4  C13 UNL     1       2.434  -1.744   1.022  1.00  0.00     0.029 A 
HETATM    5  C21 UNL     1       2.397  -1.659  -0.334  1.00  0.00     0.032 A 
HETATM    6  C22 UNL     1       1.372  -1.140  -1.086  1.00  0.00     0.039 A 
ENDROOT
BRANCH   1   7
HETATM    7  O4  UNL     1      -0.753  -0.137  -1.225  1.00  0.00    -0.272 OA
BRANCH   7   8
HETATM    8  C9  UNL     1      -1.918   0.388  -0.734  1.00  0.00     0.299 A 
HETATM    9  O3  UNL     1      -3.205  -0.061  -1.092  1.00  0.00    -0.270 OA
HETATM   10  C5  UNL     1      -4.433   0.415  -0.650  1.00  0.00     0.111 A 
HETATM   11  C4  UNL     1      -4.707   1.432   0.245  1.00  0.00     0.095 A 
HETATM   12  C6  UNL     1      -5.428  -0.313  -1.267  1.00  0.00     0.079 A 
HETATM   13  C3  UNL     1      -6.006   1.755   0.553  1.00  0.00     0.074 A 
HETATM   14  N4  UNL     1      -3.744   2.242   0.933  1.00  0.00    -0.239 NA
HETATM   15  C2  UNL     1      -7.029   1.031  -0.059  1.00  0.00     0.103 A 
HETATM   16  C7  UNL     1      -6.732   0.014  -0.954  1.00  0.00     0.104 A 
HETATM   17  C23 UNL     1      -2.446   2.187   0.855  1.00  0.00     0.238 A 
HETATM   18  N3  UNL     1      -1.570   1.335   0.086  1.00  0.00    -0.195 NA
BRANCH  15  19
HETATM   19  O1  UNL     1      -8.364   1.336   0.235  1.00  0.00    -0.353 OA
HETATM   20  C1  UNL     1      -8.581   2.391   1.162  1.00  0.00     0.210 C 
ENDBRANCH  15  19
BRANCH  16  21
HETATM   21  O2  UNL     1      -7.797  -0.654  -1.516  1.00  0.00    -0.353 OA
HETATM   22  C8  UNL     1      -7.632  -1.716  -2.448  1.00  0.00     0.210 C 
ENDBRANCH  16  21
ENDBRANCH   7   8
ENDBRANCH   1   7
BRANCH   4  23
HETATM   23  N1  UNL     1       3.491  -2.287   1.792  1.00  0.00    -0.373 N 
HETATM   24  H11 UNL     1       3.377  -2.311   2.834  1.00  0.00     0.161 HD
BRANCH  23  25
HETATM   25  C14 UNL     1       4.742  -2.828   1.314  1.00  0.00     0.250 C 
BRANCH  25  26
HETATM   26  N2  UNL     1       5.499  -1.789   0.686  1.00  0.00    -0.350 N 
HETATM   27  C15 UNL     1       5.711  -0.722   1.635  1.00  0.00     0.091 A 
HETATM   28  C16 UNL     1       6.410   0.366   1.268  1.00  0.00     0.026 A 
HETATM   29  C17 UNL     1       7.012   0.601  -0.053  1.00  0.00     0.169 A 
HETATM   30  C19 UNL     1       6.728  -0.553  -0.927  1.00  0.00     0.026 A 
HETATM   31  C20 UNL     1       6.051  -1.634  -0.614  1.00  0.00     0.091 A 
BRANCH  29  32
HETATM   32  O5  UNL     1       6.489   1.795  -0.543  1.00  0.00    -0.383 OA
HETATM   33  C18 UNL     1       7.482   2.747  -0.756  1.00  0.00     0.202 C 
ENDBRANCH  29  32
ENDBRANCH  25  26
ENDBRANCH  23  25
ENDBRANCH   4  23
TORSDOF 8
