REMARK  6 active torsions:
REMARK  status: ('A' for Active; 'I' for Inactive)
REMARK    1  A    between atoms: O1_2  and  C2_3 
REMARK    2  A    between atoms: N2_9  and  C7_10 
REMARK    3  A    between atoms: C10_13  and  O2_14 
REMARK    4  A    between atoms: O2_14  and  C11_15 
REMARK    5  A    between atoms: C14_20  and  C15_21 
REMARK    6  A    between atoms: C20_27  and  O4_28 
ROOT
HETATM    1  C7  UNL     1       0.161   0.617  -0.801  1.00  0.00     0.035 A 
HETATM    2  C8  UNL     1       0.925   0.624  -1.954  1.00  0.00     0.032 A 
HETATM    3  C9  UNL     1       2.286   0.544  -1.760  1.00  0.00     0.039 A 
HETATM    4  C10 UNL     1       2.964   0.459  -0.559  1.00  0.00     0.077 A 
HETATM    5  C18 UNL     1       2.103   0.461   0.553  1.00  0.00     0.039 A 
HETATM    6  C19 UNL     1       0.732   0.537   0.452  1.00  0.00     0.032 A 
ENDROOT
BRANCH   1   7
HETATM    7  N2  UNL     1      -1.259   0.683  -0.915  1.00  0.00    -0.316 N 
HETATM    8  C6  UNL     1      -1.816   1.003  -2.192  1.00  0.00     0.251 C 
HETATM    9  N1  UNL     1      -3.223   1.077  -2.299  1.00  0.00    -0.383 N 
HETATM   10  C5  UNL     1      -4.449   0.423  -2.392  1.00  0.00     0.081 C 
HETATM   11  H7  UNL     1      -3.585   2.094  -2.294  1.00  0.00     0.160 HD
HETATM   12  C4  UNL     1      -5.591  -0.086  -2.068  1.00  0.00     0.002 C 
HETATM   13  C3  UNL     1      -5.912   0.082  -0.667  1.00  0.00     0.080 C 
HETATM   14  C2  UNL     1      -6.409   0.122   0.555  1.00  0.00     0.056 C 
HETATM   15  C23 UNL     1      -5.445   0.779   1.442  1.00  0.00     0.057 C 
HETATM   16  C22 UNL     1      -4.241   1.254   1.124  1.00  0.00     0.142 C 
HETATM   17  O5  UNL     1      -3.194   1.512   0.206  1.00  0.00    -0.314 OA
HETATM   18  C20 UNL     1      -2.252   0.448   0.093  1.00  0.00     0.378 C 
BRANCH  14  19
HETATM   19  O1  UNL     1      -7.487  -0.207   1.405  1.00  0.00    -0.359 OA
HETATM   20  C1  UNL     1      -8.641  -0.684   0.697  1.00  0.00     0.209 C 
ENDBRANCH  14  19
BRANCH  18  21
HETATM   21  O4  UNL     1      -2.919  -0.767  -0.202  1.00  0.00    -0.349 OA
HETATM   22  C21 UNL     1      -2.602  -1.620   0.855  1.00  0.00     0.206 C 
ENDBRANCH  18  21
ENDBRANCH   1   7
BRANCH   4  23
HETATM   23  O2  UNL     1       4.307   0.390  -0.670  1.00  0.00    -0.295 OA
BRANCH  23  24
HETATM   24  C11 UNL     1       5.288   0.313   0.264  1.00  0.00     0.157 A 
HETATM   25  N3  UNL     1       5.519   1.510  -0.196  1.00  0.00    -0.221 NA
HETATM   26  C12 UNL     1       6.611   2.275   0.363  1.00  0.00     0.229 A 
HETATM   27  N4  UNL     1       7.329   1.780   1.285  1.00  0.00    -0.282 NA
HETATM   28  C13 UNL     1       7.185   0.470   1.884  1.00  0.00     0.167 A 
HETATM   29  C14 UNL     1       6.066  -0.342   1.341  1.00  0.00     0.115 A 
BRANCH  29  30
HETATM   30  C15 UNL     1       6.519  -1.682   0.818  1.00  0.00    -0.021 A 
HETATM   31  C16 UNL     1       6.474  -2.483  -0.226  1.00  0.00     0.141 A 
HETATM   32  O3  UNL     1       7.232  -3.421   0.422  1.00  0.00    -0.358 OA
HETATM   33  C17 UNL     1       7.372  -2.631   1.560  1.00  0.00     0.211 A 
ENDBRANCH  29  30
ENDBRANCH  23  24
ENDBRANCH   4  23
TORSDOF 6
