REMARK  6 active torsions:
REMARK  status: ('A' for Active; 'I' for Inactive)
REMARK    1  A    between atoms: C1_2  and  O2_3 
REMARK    2  A    between atoms: C1_2  and  C2_4 
REMARK    3  A    between atoms: C3_5  and  C4_6 
REMARK    4  A    between atoms: C4_6  and  N1_7 
REMARK    5  A    between atoms: C11_16  and  N4_17 
REMARK    6  A    between atoms: N4_17  and  C12_18 
ROOT
HETATM    1  N1  UNL     1       1.135  -1.034  -0.377  1.00  0.00    -0.345 N 
HETATM    2  C5  UNL     1       1.817  -2.071   0.297  1.00  0.00    -0.004 A 
HETATM    3  C6  UNL     1       2.334  -3.087   0.939  1.00  0.00     0.047 A 
HETATM    4  C7  UNL     1       0.975  -3.439   1.378  1.00  0.00     0.056 A 
HETATM    5  C8  UNL     1       1.465  -2.062   1.956  1.00  0.00     0.069 A 
HETATM    6  C9  UNL     1      -0.163  -2.977   0.528  1.00  0.00     0.071 A 
HETATM    7  N2  UNL     1      -1.297  -3.668   0.541  1.00  0.00    -0.244 NA
HETATM    8  C10 UNL     1      -2.427  -3.259  -0.064  1.00  0.00     0.235 A 
HETATM    9  N3  UNL     1      -2.491  -2.064  -0.759  1.00  0.00    -0.222 NA
HETATM   10  C11 UNL     1      -1.314  -1.334  -0.783  1.00  0.00     0.158 A 
HETATM   11  C18 UNL     1      -0.108  -1.744  -0.155  1.00  0.00     0.106 A 
ENDROOT
BRANCH  10  12
HETATM   12  N4  UNL     1      -1.495  -0.161  -1.529  1.00  0.00    -0.339 N 
HETATM   13  H11 UNL     1      -1.190   0.157  -2.512  1.00  0.00     0.167 HD
BRANCH  12  14
HETATM   14  C12 UNL     1      -2.280   0.863  -0.874  1.00  0.00     0.035 A 
HETATM   15  C13 UNL     1      -2.829   0.612   0.401  1.00  0.00     0.032 A 
HETATM   16  C14 UNL     1      -3.602   1.575   1.023  1.00  0.00     0.046 A 
HETATM   17  C15 UNL     1      -3.877   2.800   0.462  1.00  0.00     0.138 A 
HETATM   18  F1  UNL     1      -4.648   3.722   1.091  1.00  0.00    -0.204 F 
HETATM   19  C16 UNL     1      -3.344   3.059  -0.783  1.00  0.00     0.074 A 
HETATM   20 CL1  UNL     1      -3.672   4.595  -1.503  1.00  0.00    -0.081 Cl
HETATM   21  C17 UNL     1      -2.562   2.101  -1.430  1.00  0.00     0.056 A 
ENDBRANCH  12  14
ENDBRANCH  10  12
BRANCH   1  22
HETATM   22  C4  UNL     1       1.611   0.149  -1.055  1.00  0.00     0.156 C 
BRANCH  22  23
HETATM   23  C3  UNL     1       2.218   1.169  -0.210  1.00  0.00    -0.000 C 
HETATM   24  C2  UNL     1       3.473   1.586  -0.349  1.00  0.00     0.079 C 
BRANCH  24  25
HETATM   25  C1  UNL     1       4.387   2.537   0.272  1.00  0.00     0.165 C 
HETATM   26  O1  UNL     1       5.572   2.824   0.039  1.00  0.00    -0.647 OA
BRANCH  25  27
HETATM   27  O2  UNL     1       3.850   3.280   1.334  1.00  0.00    -0.773 OA
HETATM   28  H1  UNL     1       4.170   4.230   1.539  1.00  0.00     0.167 HD
ENDBRANCH  25  27
ENDBRANCH  24  25
ENDBRANCH  22  23
ENDBRANCH   1  22
TORSDOF 6
