REMARK  2 active torsions:
REMARK  status: ('A' for Active; 'I' for Inactive)
REMARK    1  A    between atoms: O1_2  and  C2_3 
REMARK    2  A    between atoms: C11_13  and  O3_14 
ROOT
HETATM    1  C2  UNL     1      -4.647   0.436  -0.911  1.00  0.00     0.047 C 
HETATM    2  C3  UNL     1      -3.520   0.754  -1.623  1.00  0.00     0.010 C 
HETATM    3  C4  UNL     1      -2.286   0.021  -2.078  1.00  0.00     0.066 C 
HETATM    4  C5  UNL     1      -1.153   0.401  -1.137  1.00  0.00    -0.039 C 
HETATM    5  C6  UNL     1      -0.104   1.099  -1.764  1.00  0.00     0.005 C 
HETATM    6  C7  UNL     1       1.157   1.701  -1.359  1.00  0.00     0.196 C 
HETATM    7  O2  UNL     1       2.276   1.183  -1.919  1.00  0.00    -0.383 OA
HETATM    8  C8  UNL     1       3.419   1.605  -1.215  1.00  0.00     0.209 C 
HETATM    9  C9  UNL     1       3.486   1.059   0.175  1.00  0.00    -0.003 A 
HETATM   10  C10 UNL     1       4.839   0.762   0.466  1.00  0.00     0.048 A 
HETATM   11  C11 UNL     1       5.383   0.223   1.634  1.00  0.00     0.068 A 
HETATM   12  C13 UNL     1       4.492  -0.062   2.646  1.00  0.00     0.039 A 
HETATM   13  C14 UNL     1       3.158   0.204   2.425  1.00  0.00     0.035 A 
HETATM   14  C15 UNL     1       2.646   0.733   1.270  1.00  0.00     0.065 A 
HETATM   15  N1  UNL     1       1.262   0.949   1.277  1.00  0.00    -0.255 NA
HETATM   16  C16 UNL     1       0.412   0.237   0.684  1.00  0.00     0.047 C 
HETATM   17  C17 UNL     1       1.016  -0.912  -0.047  1.00  0.00     0.068 C 
HETATM   18  C18 UNL     1      -0.995   0.099   0.367  1.00  0.00     0.303 C 
HETATM   19  N2  UNL     1      -1.484  -1.203   0.769  1.00  0.00     0.122 N 
HETATM   20  C19 UNL     1      -2.122  -2.501   1.072  1.00  0.00     0.445 A 
HETATM   21  O4  UNL     1      -2.458  -1.616   0.269  1.00  0.00    -0.124 OA
HETATM   22  N3  UNL     1      -3.230  -3.382   0.735  1.00  0.00    -0.358 N 
HETATM   23  C20 UNL     1      -4.302  -3.236  -0.245  1.00  0.00     0.124 C 
HETATM   24  C21 UNL     1      -5.221  -2.110   0.084  1.00  0.00     0.020 C 
HETATM   25  C22 UNL     1      -5.184  -0.801  -0.265  1.00  0.00     0.059 C 
HETATM   26  H22 UNL     1      -0.792  -1.617   1.526  1.00  0.00     0.326 HD
HETATM   27  H23 UNL     1      -2.623  -3.767   1.488  1.00  0.00     0.158 HD
ENDROOT
BRANCH   1  28
HETATM   28  O1  UNL     1      -5.789   1.096  -0.479  1.00  0.00    -0.360 OA
HETATM   29  C1  UNL     1      -5.711   1.941   0.660  1.00  0.00     0.209 C 
ENDBRANCH   1  28
BRANCH  11  30
HETATM   30  O3  UNL     1       6.693  -0.050   1.886  1.00  0.00    -0.356 OA
HETATM   31  C12 UNL     1       7.700   0.205   0.927  1.00  0.00     0.210 C 
ENDBRANCH  11  30
TORSDOF 2
