REMARK  7 active torsions:
REMARK  status: ('A' for Active; 'I' for Inactive)
REMARK    1  A    between atoms: O1_2  and  C2_3 
REMARK    2  A    between atoms: C5_6  and  N1_7 
REMARK       I    between atoms: N1_7  and  C6_8 
REMARK       I    between atoms: C6_8  and  N2_10 
REMARK    3  A    between atoms: N2_10  and  C7_11 
REMARK    4  A    between atoms: C8_12  and  O3_13 
REMARK    5  A    between atoms: O3_13  and  C9_14 
REMARK    6  A    between atoms: C13_20  and  O4_21 
REMARK    7  A    between atoms: C19_27  and  O5_28 
ROOT
HETATM    1  C7  UNL     1       0.325  -1.563  -0.258  1.00  0.00     0.066 A 
HETATM    2  C8  UNL     1      -0.840  -1.674  -0.862  1.00  0.00     0.085 A 
HETATM    3  C18 UNL     1      -1.537  -2.920  -1.154  1.00  0.00     0.103 A 
HETATM    4  C19 UNL     1      -0.877  -4.179  -0.736  1.00  0.00     0.150 A 
HETATM    5  C21 UNL     1       0.414  -4.030  -0.068  1.00  0.00     0.007 A 
HETATM    6  C22 UNL     1       0.925  -2.828   0.130  1.00  0.00     0.030 A 
ENDROOT
BRANCH   1   7
HETATM    7  N2  UNL     1       0.863  -0.273  -0.051  1.00  0.00    -0.306 N 
HETATM    8  C6  UNL     1       2.078   0.101   0.563  1.00  0.00     0.325 C 
HETATM    9  N1  UNL     1       2.539   1.417   0.729  1.00  0.00    -0.309 N 
HETATM   10  O2  UNL     1       2.835  -0.795   1.011  1.00  0.00    -0.247 OA
HETATM   11  H6  UNL     1       1.939   2.207   0.368  1.00  0.00     0.170 HD
HETATM   12  H7  UNL     1       0.337   0.562  -0.374  1.00  0.00     0.171 HD
BRANCH   9  13
HETATM   13  C5  UNL     1       3.817   1.493   1.393  1.00  0.00     0.036 A 
HETATM   14  C4  UNL     1       4.953   1.462   0.591  1.00  0.00     0.032 A 
HETATM   15  C3  UNL     1       6.253   1.525   1.073  1.00  0.00     0.039 A 
HETATM   16  C2  UNL     1       6.395   1.623   2.423  1.00  0.00     0.068 A 
HETATM   17  C24 UNL     1       5.290   1.657   3.266  1.00  0.00     0.039 A 
HETATM   18  C23 UNL     1       4.007   1.593   2.766  1.00  0.00     0.032 A 
BRANCH  16  19
HETATM   19  O1  UNL     1       7.615   1.694   3.056  1.00  0.00    -0.356 OA
HETATM   20  C1  UNL     1       8.873   1.681   2.455  1.00  0.00     0.210 C 
ENDBRANCH  16  19
ENDBRANCH   9  13
ENDBRANCH   1   7
BRANCH   2  21
HETATM   21  O3  UNL     1      -1.577  -0.579  -1.311  1.00  0.00    -0.293 OA
BRANCH  21  22
HETATM   22  C9  UNL     1      -2.730  -0.241  -0.614  1.00  0.00     0.183 A 
HETATM   23  N3  UNL     1      -3.202  -0.879   0.463  1.00  0.00    -0.217 NA
HETATM   24  C10 UNL     1      -4.319  -0.523   1.109  1.00  0.00     0.236 A 
HETATM   25  N4  UNL     1      -4.995   0.542   0.634  1.00  0.00    -0.241 NA
HETATM   26  C11 UNL     1      -4.587   1.242  -0.448  1.00  0.00     0.075 A 
HETATM   27  C12 UNL     1      -5.359   2.303  -0.832  1.00  0.00     0.069 A 
HETATM   28  C17 UNL     1      -3.432   0.850  -1.092  1.00  0.00     0.046 A 
HETATM   29  C13 UNL     1      -4.956   3.033  -1.939  1.00  0.00     0.070 A 
HETATM   30  C15 UNL     1      -3.808   2.683  -2.620  1.00  0.00     0.038 A 
HETATM   31  C16 UNL     1      -3.045   1.601  -2.207  1.00  0.00     0.021 A 
BRANCH  29  32
HETATM   32  O4  UNL     1      -5.578   4.139  -2.505  1.00  0.00    -0.356 OA
HETATM   33  C14 UNL     1      -6.768   4.624  -1.924  1.00  0.00     0.210 C 
ENDBRANCH  29  32
ENDBRANCH  21  22
ENDBRANCH   2  21
BRANCH   4  34
HETATM   34  O5  UNL     1      -1.697  -4.948   0.117  1.00  0.00    -0.387 OA
HETATM   35  C20 UNL     1      -1.965  -6.195  -0.462  1.00  0.00     0.202 C 
ENDBRANCH   4  34
TORSDOF 7
