REMARK  6 active torsions:
REMARK  status: ('A' for Active; 'I' for Inactive)
REMARK    1  A    between atoms: O1_2  and  C2_3 
REMARK    2  A    between atoms: C7_10  and  N3_11 
REMARK    3  A    between atoms: N3_11  and  C8_12 
REMARK    4  A    between atoms: C9_13  and  N4_14 
REMARK       I    between atoms: N4_14  and  C10_15 
REMARK       I    between atoms: C10_15  and  N5_17 
REMARK    5  A    between atoms: N5_17  and  C11_18 
REMARK    6  A    between atoms: C16_23  and  O3_24 
ROOT
HETATM    1  C8  UNL     1      -0.613   2.057  -1.741  1.00  0.00     0.057 A 
HETATM    2  C9  UNL     1       0.540   2.619  -1.564  1.00  0.00     0.044 A 
HETATM    3  C18 UNL     1       0.470   3.859  -2.354  1.00  0.00     0.093 A 
HETATM    4  C19 UNL     1      -0.851   3.899  -2.975  1.00  0.00    -0.076 A 
HETATM    5  C20 UNL     1      -1.103   5.094  -3.820  1.00  0.00     0.044 C 
HETATM    6  C21 UNL     1      -1.495   2.809  -2.600  1.00  0.00     0.034 A 
ENDROOT
BRANCH   1   7
HETATM    7  N3  UNL     1      -1.149   0.843  -1.241  1.00  0.00    -0.339 N 
HETATM    8  H7  UNL     1      -0.812   0.016  -1.776  1.00  0.00     0.167 HD
BRANCH   7   9
HETATM    9  C7  UNL     1      -2.040   0.896  -0.136  1.00  0.00     0.142 A 
HETATM   10  N2  UNL     1      -2.324   2.106   0.371  1.00  0.00    -0.224 NA
HETATM   11  C6  UNL     1      -3.155   2.275   1.416  1.00  0.00     0.236 A 
HETATM   12  N1  UNL     1      -3.747   1.223   2.007  1.00  0.00    -0.241 NA
HETATM   13  C5  UNL     1      -3.478  -0.011   1.515  1.00  0.00     0.072 A 
HETATM   14  C4  UNL     1      -4.074  -1.100   2.107  1.00  0.00     0.035 A 
HETATM   15  C22 UNL     1      -2.634  -0.193   0.452  1.00  0.00     0.041 A 
HETATM   16  C3  UNL     1      -3.804  -2.358   1.611  1.00  0.00     0.039 A 
HETATM   17  C2  UNL     1      -2.957  -2.531   0.545  1.00  0.00     0.069 A 
HETATM   18  C23 UNL     1      -2.366  -1.429  -0.038  1.00  0.00     0.054 A 
BRANCH  17  19
HETATM   19  O1  UNL     1      -2.673  -3.766   0.035  1.00  0.00    -0.356 OA
HETATM   20  C1  UNL     1      -3.189  -4.984   0.511  1.00  0.00     0.210 C 
ENDBRANCH  17  19
ENDBRANCH   7   9
ENDBRANCH   1   7
BRANCH   2  21
HETATM   21  N4  UNL     1       1.699   2.274  -0.829  1.00  0.00    -0.310 N 
HETATM   22  C10 UNL     1       1.951   1.139  -0.021  1.00  0.00     0.325 C 
HETATM   23  O2  UNL     1       1.094   0.262   0.128  1.00  0.00    -0.247 OA
HETATM   24  N5  UNL     1       3.158   0.884   0.681  1.00  0.00    -0.306 N 
HETATM   25  H9  UNL     1       3.941   1.599   0.597  1.00  0.00     0.171 HD
HETATM   26  H8  UNL     1       2.534   2.890  -0.828  1.00  0.00     0.170 HD
BRANCH  24  27
HETATM   27  C11 UNL     1       3.233  -0.330   1.457  1.00  0.00     0.069 A 
HETATM   28  C12 UNL     1       2.832  -0.290   2.767  1.00  0.00     0.032 A 
HETATM   29  C13 UNL     1       2.899  -1.448   3.524  1.00  0.00     0.002 A 
HETATM   30  C14 UNL     1       3.368  -2.597   2.923  1.00  0.00     0.003 A 
HETATM   31  C15 UNL     1       3.771  -2.642   1.608  1.00  0.00     0.039 A 
HETATM   32  C16 UNL     1       3.711  -1.488   0.831  1.00  0.00     0.095 A 
BRANCH  32  33
HETATM   33  O3  UNL     1       4.084  -1.389  -0.505  1.00  0.00    -0.354 OA
HETATM   34  C17 UNL     1       4.569  -2.569  -1.134  1.00  0.00     0.210 C 
ENDBRANCH  32  33
ENDBRANCH  24  27
ENDBRANCH   2  21
TORSDOF 6
