REMARK  4 active torsions:
REMARK  status: ('A' for Active; 'I' for Inactive)
REMARK    1  A    between atoms: O1_2  and  C2_3 
REMARK    2  A    between atoms: N3_10  and  C7_11 
REMARK    3  A    between atoms: C11_15  and  N4_16 
REMARK       I    between atoms: N4_16  and  C12_17 
REMARK       I    between atoms: C12_17  and  N5_19 
REMARK    4  A    between atoms: N5_19  and  C13_20 
ROOT
HETATM    1  C7  UNL     1       0.885  -0.957  -0.965  1.00  0.00     0.038 A 
HETATM    2  C8  UNL     1       0.845  -2.334  -0.549  1.00  0.00     0.030 A 
HETATM    3  C9  UNL     1      -0.400  -2.816  -0.253  1.00  0.00     0.004 A 
HETATM    4  C10 UNL     1      -1.509  -2.028  -0.352  1.00  0.00     0.029 A 
HETATM    5  C11 UNL     1      -1.534  -0.724  -0.738  1.00  0.00     0.038 A 
HETATM    6  C19 UNL     1      -0.313  -0.172  -1.052  1.00  0.00     0.059 A 
ENDROOT
BRANCH   1   7
HETATM    7  N3  UNL     1       2.093  -0.295  -1.392  1.00  0.00    -0.328 N 
HETATM    8  C6  UNL     1       2.233   0.743  -2.437  1.00  0.00     0.280 C 
HETATM    9  N2  UNL     1       3.529   1.211  -2.677  1.00  0.00    -0.263 NA
HETATM   10  C5  UNL     1       4.643   1.712  -2.169  1.00  0.00     0.229 C 
HETATM   11  N1  UNL     1       5.539   1.013  -1.210  1.00  0.00    -0.242 NA
HETATM   12  C4  UNL     1       5.204   0.006  -0.377  1.00  0.00     0.062 C 
HETATM   13  C3  UNL     1       5.650   0.631   0.920  1.00  0.00     0.064 C 
HETATM   14  C21 UNL     1       4.490  -1.301  -0.783  1.00  0.00     0.061 C 
HETATM   15  C2  UNL     1       4.985   0.371   2.079  1.00  0.00     0.051 C 
HETATM   16  C24 UNL     1       3.934  -0.486   2.662  1.00  0.00     0.091 C 
HETATM   17  C23 UNL     1       2.674  -0.640   1.899  1.00  0.00    -0.018 C 
HETATM   18  C22 UNL     1       2.277  -0.686   0.629  1.00  0.00     0.026 C 
HETATM   19  C20 UNL     1       3.175  -0.859  -0.578  1.00  0.00     0.038 C 
BRANCH  15  20
HETATM   20  O1  UNL     1       5.633   1.321   2.900  1.00  0.00    -0.360 OA
HETATM   21  C1  UNL     1       6.987   0.964   3.214  1.00  0.00     0.209 C 
ENDBRANCH  15  20
ENDBRANCH   1   7
BRANCH   5  22
HETATM   22  N4  UNL     1      -2.656   0.120  -0.852  1.00  0.00    -0.309 N 
HETATM   23  C12 UNL     1      -4.011  -0.195  -0.592  1.00  0.00     0.325 C 
HETATM   24  O2  UNL     1      -4.300  -1.352  -0.212  1.00  0.00    -0.247 OA
HETATM   25  N5  UNL     1      -5.061   0.711  -0.734  1.00  0.00    -0.309 N 
HETATM   26  H12 UNL     1      -4.765   1.670  -1.056  1.00  0.00     0.170 HD
HETATM   27  H11 UNL     1      -2.523   1.101  -1.161  1.00  0.00     0.170 HD
BRANCH  25  28
HETATM   28  C13 UNL     1      -6.440   0.531  -0.511  1.00  0.00     0.036 A 
HETATM   29  C14 UNL     1      -7.089  -0.600  -0.095  1.00  0.00     0.029 A 
HETATM   30  C15 UNL     1      -8.440  -0.734   0.111  1.00  0.00     0.002 A 
HETATM   31  C16 UNL     1      -9.253   0.349  -0.113  1.00  0.00     0.000 A 
HETATM   32  C17 UNL     1      -8.661   1.518  -0.534  1.00  0.00     0.002 A 
HETATM   33  C18 UNL     1      -7.302   1.591  -0.722  1.00  0.00     0.029 A 
ENDBRANCH  25  28
ENDBRANCH   5  22
TORSDOF 4
