REMARK  2 active torsions:
REMARK  status: ('A' for Active; 'I' for Inactive)
REMARK    1  A    between atoms: O1_2  and  C2_3 
REMARK    2  A    between atoms: C13_16  and  O2_17 
ROOT
HETATM    1  C2  UNL     1       2.370  -0.358   1.757  1.00  0.00     0.098 C 
HETATM    2  C3  UNL     1       2.233  -1.698   1.811  1.00  0.00     0.017 C 
HETATM    3  C4  UNL     1       0.977  -2.048   1.177  1.00  0.00     0.069 C 
HETATM    4  C5  UNL     1       0.867  -2.695  -0.004  1.00  0.00     0.001 A 
HETATM    5  C6  UNL     1       1.158  -3.738  -0.800  1.00  0.00     0.032 A 
HETATM    6  C7  UNL     1       0.201  -3.347  -1.797  1.00  0.00     0.276 A 
HETATM    7  C8  UNL     1      -0.633  -3.145  -2.837  1.00  0.00     0.076 A 
HETATM    8  C9  UNL     1      -0.587  -2.304  -1.745  1.00  0.00     0.437 A 
HETATM    9  C10 UNL     1      -0.114  -1.669  -0.299  1.00  0.00     0.489 A 
HETATM   10  N1  UNL     1      -0.368  -2.124  -1.216  1.00  0.00     0.237 N 
HETATM   11  N2  UNL     1      -0.969  -0.706  -1.132  1.00  0.00     0.349 N 
HETATM   12  C11 UNL     1      -0.588   0.298  -0.542  1.00  0.00     0.221 C 
HETATM   13  C12 UNL     1       0.529   0.595   0.318  1.00  0.00     0.083 C 
HETATM   14  C13 UNL     1       1.604   0.707   1.141  1.00  0.00     0.103 C 
HETATM   15  C15 UNL     1      -1.561   1.443  -0.769  1.00  0.00     0.025 A 
HETATM   16  C16 UNL     1      -1.094   2.663  -0.532  1.00  0.00     0.016 A 
HETATM   17  C17 UNL     1      -1.905   3.752  -0.629  1.00  0.00     0.001 A 
HETATM   18  C18 UNL     1      -3.219   3.832  -0.950  1.00  0.00     0.002 A 
HETATM   19  C19 UNL     1      -3.793   2.629  -1.214  1.00  0.00     0.025 A 
HETATM   20  C20 UNL     1      -2.950   1.609  -1.109  1.00  0.00     0.029 A 
HETATM   21  N3  UNL     1      -2.851   0.271  -1.429  1.00  0.00    -0.201 NA
HETATM   22  C21 UNL     1      -3.393  -1.036  -1.828  1.00  0.00     0.433 C 
HETATM   23  O3  UNL     1      -4.491  -1.291  -2.037  1.00  0.00    -0.243 OA
HETATM   24  N4  UNL     1      -2.039  -1.644  -1.787  1.00  0.00     0.241 N 
HETATM   25  H17 UNL     1      -3.880   0.312  -1.553  1.00  0.00     0.138 HD
HETATM   26  H18 UNL     1      -2.910  -2.300  -1.955  1.00  0.00     0.335 HD
ENDROOT
BRANCH   1  27
HETATM   27  O1  UNL     1       3.505  -0.243   2.410  1.00  0.00    -0.353 OA
HETATM   28  C1  UNL     1       3.892  -0.738   3.633  1.00  0.00     0.210 C 
ENDBRANCH   1  27
BRANCH  14  29
HETATM   29  O2  UNL     1       2.298   1.867   1.618  1.00  0.00    -0.353 OA
HETATM   30  C14 UNL     1       2.586   2.887   0.633  1.00  0.00     0.210 C 
ENDBRANCH  14  29
TORSDOF 2
