REMARK  3 active torsions:
REMARK  status: ('A' for Active; 'I' for Inactive)
REMARK    1  A    between atoms: C9_9  and  O1_10 
REMARK    2  A    between atoms: C11_12  and  O2_13 
REMARK    3  A    between atoms: N3_20  and  C16_21 
ROOT
HETATM    1  C1  UNL     1      -5.495   2.383   0.954  1.00  0.00     0.038 C 
HETATM    2  C2  UNL     1      -4.092   2.848   0.838  1.00  0.00    -0.006 C 
HETATM    3  C3  UNL     1      -3.057   2.032   0.849  1.00  0.00     0.010 C 
HETATM    4  C4  UNL     1      -1.642   2.414   0.740  1.00  0.00     0.063 C 
HETATM    5  C5  UNL     1      -0.683   1.862  -0.213  1.00  0.00     0.064 C 
HETATM    6  C6  UNL     1      -0.000   0.563  -0.077  1.00  0.00     0.021 C 
HETATM    7  C7  UNL     1       1.282   0.543  -0.459  1.00  0.00     0.019 A 
HETATM    8  C8  UNL     1       2.280  -0.488  -0.469  1.00  0.00     0.055 A 
HETATM    9  C9  UNL     1       3.512  -0.587  -0.915  1.00  0.00     0.102 A 
HETATM   10  C11 UNL     1       4.050   0.598  -1.560  1.00  0.00     0.103 A 
HETATM   11  C13 UNL     1       3.299   1.675  -1.664  1.00  0.00     0.073 A 
HETATM   12  C14 UNL     1       1.936   1.708  -1.145  1.00  0.00     0.084 A 
HETATM   13  N1  UNL     1       1.369   2.817  -1.405  1.00  0.00    -0.173 NA
HETATM   14  C15 UNL     1       1.914   3.885  -2.015  1.00  0.00     0.206 C 
HETATM   15  N2  UNL     1       2.364   4.810  -2.531  1.00  0.00    -0.170 NA
HETATM   16  N3  UNL     1      -0.191  -0.852   0.332  1.00  0.00    -0.374 N 
HETATM   17  C18 UNL     1      -0.597  -2.020  -0.438  1.00  0.00     0.125 C 
HETATM   18  C19 UNL     1      -1.401  -2.952   0.391  1.00  0.00    -0.003 C 
HETATM   19  C20 UNL     1      -2.699  -3.377   0.244  1.00  0.00    -0.009 C 
HETATM   20  C21 UNL     1      -3.588  -2.437  -0.611  1.00  0.00     0.154 C 
HETATM   21  N4  UNL     1      -2.701  -1.397  -0.716  1.00  0.00    -0.328 N 
HETATM   22  C22 UNL     1      -1.514  -1.577  -1.584  1.00  0.00     0.157 C 
HETATM   23  C23 UNL     1      -2.874  -0.274   0.005  1.00  0.00     0.323 C 
HETATM   24  O3  UNL     1      -2.870   0.564  -0.842  1.00  0.00    -0.247 OA
HETATM   25  N5  UNL     1      -3.053   0.643   1.041  1.00  0.00    -0.313 N 
HETATM   26  H29 UNL     1      -3.209   0.582   2.042  1.00  0.00     0.170 HD
ENDROOT
BRANCH  10  27
HETATM   27  O2  UNL     1       5.342   0.575  -2.054  1.00  0.00    -0.353 OA
HETATM   28  C12 UNL     1       6.470   0.264  -1.261  1.00  0.00     0.210 C 
ENDBRANCH  10  27
BRANCH  16  29
HETATM   29  C16 UNL     1       0.180  -0.889   1.697  1.00  0.00     0.119 C 
HETATM   30  C17 UNL     1      -0.946  -1.126   2.646  1.00  0.00     0.026 C 
ENDBRANCH  16  29
BRANCH   9  31
HETATM   31  O1  UNL     1       4.242  -1.755  -0.770  1.00  0.00    -0.353 OA
HETATM   32  C10 UNL     1       4.374  -2.458   0.443  1.00  0.00     0.210 C 
ENDBRANCH   9  31
TORSDOF 3
