REMARK  7 active torsions:
REMARK  status: ('A' for Active; 'I' for Inactive)
REMARK    1  A    between atoms: O1_2  and  C2_3 
REMARK    2  A    between atoms: C4_5  and  N1_6 
REMARK    3  A    between atoms: N1_6  and  O2_7 
REMARK    4  A    between atoms: N1_6  and  C6_9 
REMARK    5  A    between atoms: C10_13  and  N2_14 
REMARK       I    between atoms: N2_14  and  C11_15 
REMARK       I    between atoms: C11_15  and  N3_17 
REMARK    6  A    between atoms: N3_17  and  C12_18 
REMARK    7  A    between atoms: C15_21  and  O4_22 
ROOT
HETATM    1  C6  UNL     1      -1.490  -1.228   0.753  1.00  0.00     0.060 A 
HETATM    2  C7  UNL     1      -1.213  -2.394   1.410  1.00  0.00     0.032 A 
HETATM    3  C8  UNL     1       0.106  -2.758   1.514  1.00  0.00     0.005 A 
HETATM    4  C9  UNL     1       1.080  -1.960   0.968  1.00  0.00     0.029 A 
HETATM    5  C10 UNL     1       0.831  -0.784   0.302  1.00  0.00     0.038 A 
HETATM    6  C19 UNL     1      -0.498  -0.441   0.211  1.00  0.00     0.061 A 
ENDROOT
BRANCH   1   7
HETATM    7  N1  UNL     1      -2.836  -0.795   0.610  1.00  0.00    -0.245 N 
BRANCH   7   8
HETATM    8  C4  UNL     1      -3.464   0.333   0.003  1.00  0.00     0.193 A 
HETATM    9  C3  UNL     1      -4.420  -0.057  -1.080  1.00  0.00     0.044 A 
HETATM   10  C2  UNL     1      -5.682   0.345  -0.855  1.00  0.00     0.080 A 
HETATM   11  C23 UNL     1      -5.742   1.068   0.425  1.00  0.00     0.039 A 
HETATM   12  C20 UNL     1      -4.379   1.055   0.943  1.00  0.00     0.074 A 
HETATM   13  C22 UNL     1      -6.693   1.666   1.127  1.00  0.00     0.101 A 
HETATM   14  N4  UNL     1      -4.035   1.597   2.058  1.00  0.00    -0.271 NA
HETATM   15  C21 UNL     1      -4.986   2.281   2.915  1.00  0.00     0.270 A 
HETATM   16  N5  UNL     1      -6.301   2.262   2.358  1.00  0.00    -0.380 N 
HETATM   17  H24 UNL     1      -7.037   2.743   2.934  1.00  0.00     0.160 HD
BRANCH  10  18
HETATM   18  O1  UNL     1      -6.852   0.189  -1.602  1.00  0.00    -0.355 OA
HETATM   19  C1  UNL     1      -6.856  -0.193  -2.967  1.00  0.00     0.210 C 
ENDBRANCH  10  18
ENDBRANCH   7   8
BRANCH   7  20
HETATM   20  O2  UNL     1      -3.861  -1.520   1.118  1.00  0.00    -0.282 OA
HETATM   21  C5  UNL     1      -4.223  -2.538   0.264  1.00  0.00     0.238 C 
ENDBRANCH   7  20
ENDBRANCH   1   7
BRANCH   5  22
HETATM   22  N2  UNL     1       1.776   0.088  -0.285  1.00  0.00    -0.309 N 
HETATM   23  C11 UNL     1       3.185  -0.039  -0.327  1.00  0.00     0.325 C 
HETATM   24  O3  UNL     1       3.741  -1.023   0.202  1.00  0.00    -0.247 OA
HETATM   25  N3  UNL     1       4.066   0.889  -0.942  1.00  0.00    -0.309 N 
HETATM   26  H13 UNL     1       3.637   1.740  -1.402  1.00  0.00     0.170 HD
HETATM   27  H12 UNL     1       1.470   0.949  -0.763  1.00  0.00     0.170 HD
BRANCH  25  28
HETATM   28  C12 UNL     1       5.467   0.632  -0.907  1.00  0.00     0.036 A 
HETATM   29  C13 UNL     1       6.051   1.193   0.221  1.00  0.00     0.032 A 
HETATM   30  C14 UNL     1       7.406   1.073   0.469  1.00  0.00     0.039 A 
HETATM   31  C15 UNL     1       8.198   0.376  -0.431  1.00  0.00     0.068 A 
HETATM   32  C17 UNL     1       7.604  -0.173  -1.543  1.00  0.00     0.039 A 
HETATM   33  C18 UNL     1       6.266  -0.067  -1.809  1.00  0.00     0.032 A 
BRANCH  31  34
HETATM   34  O4  UNL     1       9.559   0.234  -0.217  1.00  0.00    -0.356 OA
HETATM   35  C16 UNL     1      10.138   0.813   0.940  1.00  0.00     0.210 C 
ENDBRANCH  31  34
ENDBRANCH  25  28
ENDBRANCH   5  22
TORSDOF 7
