REMARK  3 active torsions:
REMARK  status: ('A' for Active; 'I' for Inactive)
REMARK    1  A    between atoms: O1_9  and  C8_10 
REMARK    2  A    between atoms: C12_16  and  C13_17 
REMARK    3  A    between atoms: C15_19  and  O2_20 
ROOT
HETATM    1  C1  UNL     1       6.204   0.582  -0.304  1.00  0.00     0.063 C 
HETATM    2  C2  UNL     1       4.958   0.790   0.083  1.00  0.00     0.088 C 
HETATM    3  N1  UNL     1       4.513   2.147  -0.004  1.00  0.00    -0.374 N 
HETATM    4  C3  UNL     1       3.579   2.283   1.065  1.00  0.00     0.148 C 
HETATM    5  C4  UNL     1       2.649   3.424   0.941  1.00  0.00    -0.011 C 
HETATM    6  C5  UNL     1       1.580   2.589   0.602  1.00  0.00    -0.023 C 
HETATM    7  C6  UNL     1       1.093   1.170   0.339  1.00  0.00     0.062 A 
HETATM    8  C7  UNL     1       1.656  -0.094   0.311  1.00  0.00    -0.002 A 
HETATM    9  O1  UNL     1       0.305  -0.213   0.020  1.00  0.00     0.000 OA
HETATM   10  C19 UNL     1       2.855  -1.037   0.447  1.00  0.00     0.073 A 
HETATM   11  C20 UNL     1       2.765  -1.858   1.667  1.00  0.00     0.009 A 
HETATM   12  C21 UNL     1       2.750  -3.168   1.400  1.00  0.00    -0.001 A 
HETATM   13  C22 UNL     1       2.830  -3.221  -0.064  1.00  0.00    -0.001 A 
HETATM   14  C23 UNL     1       2.891  -2.003  -0.634  1.00  0.00     0.009 A 
HETATM   15  N4  UNL     1       4.040  -0.213   0.549  1.00  0.00    -0.361 N 
HETATM   16  H3  UNL     1       4.791   2.883  -0.676  1.00  0.00     0.161 HD
HETATM   17  H24 UNL     1       4.653  -0.314   1.418  1.00  0.00     0.162 HD
ENDROOT
BRANCH   9  18
HETATM   18  C8  UNL     1      -0.546  -1.222   0.372  1.00  0.00     0.100 A 
HETATM   19  N2  UNL     1      -0.387  -2.361   1.061  1.00  0.00    -0.239 NA
HETATM   20  C9  UNL     1      -1.378  -3.231   1.296  1.00  0.00     0.234 A 
HETATM   21  N3  UNL     1      -2.626  -2.980   0.827  1.00  0.00    -0.241 NA
HETATM   22  C10 UNL     1      -2.881  -1.850   0.117  1.00  0.00     0.071 A 
HETATM   23  C11 UNL     1      -4.183  -1.698  -0.305  1.00  0.00     0.042 A 
HETATM   24  C18 UNL     1      -1.835  -0.970  -0.109  1.00  0.00     0.027 A 
HETATM   25  C12 UNL     1      -4.464  -0.555  -1.024  1.00  0.00    -0.023 A 
HETATM   26  C15 UNL     1      -3.482   0.371  -1.293  1.00  0.00     0.075 A 
HETATM   27  C17 UNL     1      -2.208   0.143  -0.835  1.00  0.00     0.053 A 
BRANCH  25  28
HETATM   28  C13 UNL     1      -5.859  -0.304  -1.517  1.00  0.00     0.037 C 
HETATM   29  C14 UNL     1      -6.530   0.747  -0.623  1.00  0.00     0.010 C 
ENDBRANCH  25  28
BRANCH  26  30
HETATM   30  O2  UNL     1      -3.818   1.497  -2.016  1.00  0.00    -0.355 OA
HETATM   31  C16 UNL     1      -2.877   2.491  -2.335  1.00  0.00     0.210 C 
ENDBRANCH  26  30
ENDBRANCH   9  18
TORSDOF 3
