REMARK  6 active torsions:
REMARK  status: ('A' for Active; 'I' for Inactive)
REMARK    1  A    between atoms: C2_2  and  C3_3 
REMARK    2  A    between atoms: C4_4  and  N1_5 
REMARK       I    between atoms: N1_5  and  C5_6 
REMARK       I    between atoms: C5_6  and  N2_8 
REMARK    3  A    between atoms: N2_8  and  C6_9 
REMARK    4  A    between atoms: C12_15  and  O2_16 
REMARK    5  A    between atoms: O2_16  and  C13_17 
REMARK    6  A    between atoms: C18_25  and  O4_26 
ROOT
HETATM    1  C3  UNL     1      -1.641  -0.656  -2.486  1.00  0.00    -0.007 A 
HETATM    2  C4  UNL     1      -1.089  -0.552  -1.298  1.00  0.00     0.080 A 
HETATM    3  C12 UNL     1       0.191  -0.713  -1.960  1.00  0.00     0.106 A 
HETATM    4  C21 UNL     1      -0.359  -0.817  -3.151  1.00  0.00     0.053 A 
ENDROOT
BRANCH   3   5
HETATM    5  O2  UNL     1       1.488  -0.742  -1.491  1.00  0.00    -0.289 OA
BRANCH   5   6
HETATM    6  C13 UNL     1       2.176   0.371  -1.027  1.00  0.00     0.181 A 
HETATM    7  N3  UNL     1       1.658   1.604  -0.980  1.00  0.00    -0.217 NA
HETATM    8  C14 UNL     1       2.330   2.687  -0.527  1.00  0.00     0.236 A 
HETATM    9  N4  UNL     1       3.595   2.470  -0.108  1.00  0.00    -0.241 NA
HETATM   10  C15 UNL     1       4.146   1.264  -0.139  1.00  0.00     0.075 A 
HETATM   11  C16 UNL     1       3.458   0.144  -0.604  1.00  0.00     0.048 A 
HETATM   12  C20 UNL     1       5.517   1.098   0.328  1.00  0.00     0.096 A 
HETATM   13  C17 UNL     1       4.068  -1.204  -0.639  1.00  0.00     0.223 A 
HETATM   14  O3  UNL     1       5.377  -1.190  -0.162  1.00  0.00    -0.326 OA
HETATM   15  C18 UNL     1       6.076  -0.105   0.300  1.00  0.00     0.182 A 
BRANCH  15  16
HETATM   16  O4  UNL     1       7.384  -0.284   0.740  1.00  0.00    -0.336 OA
HETATM   17  C19 UNL     1       8.472   0.357   0.093  1.00  0.00     0.212 C 
ENDBRANCH  15  16
ENDBRANCH   5   6
ENDBRANCH   3   5
BRANCH   2  18
HETATM   18  N1  UNL     1      -1.517  -0.367   0.029  1.00  0.00    -0.305 N 
HETATM   19  C5  UNL     1      -2.855  -0.230   0.437  1.00  0.00     0.325 C 
HETATM   20  O1  UNL     1      -3.736  -0.271  -0.425  1.00  0.00    -0.247 OA
HETATM   21  N2  UNL     1      -3.216  -0.049   1.789  1.00  0.00    -0.309 N 
HETATM   22  H5  UNL     1      -2.409  -0.029   2.448  1.00  0.00     0.170 HD
HETATM   23  H4  UNL     1      -0.792  -0.327   0.775  1.00  0.00     0.171 HD
BRANCH  21  24
HETATM   24  C6  UNL     1      -4.513   0.101   2.321  1.00  0.00     0.036 A 
HETATM   25  C7  UNL     1      -5.715   0.114   1.664  1.00  0.00     0.029 A 
HETATM   26  C8  UNL     1      -6.950   0.266   2.254  1.00  0.00     0.002 A 
HETATM   27  C9  UNL     1      -7.023   0.423   3.621  1.00  0.00     0.000 A 
HETATM   28  C10 UNL     1      -5.842   0.417   4.322  1.00  0.00     0.002 A 
HETATM   29  C11 UNL     1      -4.635   0.261   3.684  1.00  0.00     0.029 A 
ENDBRANCH  21  24
ENDBRANCH   2  18
BRANCH   1  30
HETATM   30  C2  UNL     1      -2.902  -0.656  -3.195  1.00  0.00    -0.013 C 
HETATM   31  C1  UNL     1      -3.172  -0.790  -4.478  1.00  0.00     0.032 C 
ENDBRANCH   1  30
TORSDOF 6
