REMARK  7 active torsions:
REMARK  status: ('A' for Active; 'I' for Inactive)
REMARK    1  A    between atoms: O1_2  and  C2_3 
REMARK    2  A    between atoms: C6_9  and  O2_10 
REMARK    3  A    between atoms: O2_10  and  C7_11 
REMARK    4  A    between atoms: C10_14  and  C11_15 
REMARK       I    between atoms: C11_15  and  N3_17 
REMARK    5  A    between atoms: N3_17  and  C12_18 
REMARK    6  A    between atoms: C18_24  and  N4_25 
REMARK    7  A    between atoms: C21_28  and  O4_29 
ROOT
HETATM    1  C7  UNL     1       0.026   0.128  -1.549  1.00  0.00     0.101 A 
HETATM    2  C8  UNL     1       0.251   0.092  -2.851  1.00  0.00     0.018 A 
HETATM    3  C9  UNL     1       1.694   0.090  -3.085  1.00  0.00     0.077 A 
HETATM    4  C10 UNL     1       2.328   0.129  -1.748  1.00  0.00     0.042 A 
HETATM    5  C18 UNL     1       1.324   0.150  -0.910  1.00  0.00     0.072 A 
ENDROOT
BRANCH   1   6
HETATM    6  O2  UNL     1      -1.266   0.138  -1.046  1.00  0.00    -0.289 OA
BRANCH   6   7
HETATM    7  C6  UNL     1      -1.712  -0.615   0.021  1.00  0.00     0.183 A 
HETATM    8  N2  UNL     1      -1.001  -1.482   0.764  1.00  0.00    -0.217 NA
HETATM    9  C5  UNL     1      -1.524  -2.170   1.785  1.00  0.00     0.236 A 
HETATM   10  N1  UNL     1      -2.833  -1.994   2.098  1.00  0.00    -0.241 NA
HETATM   11  C4  UNL     1      -3.610  -1.134   1.392  1.00  0.00     0.075 A 
HETATM   12  C3  UNL     1      -4.941  -0.982   1.742  1.00  0.00     0.072 A 
HETATM   13  C19 UNL     1      -3.043  -0.435   0.339  1.00  0.00     0.049 A 
HETATM   14  C2  UNL     1      -5.721  -0.091   0.999  1.00  0.00     0.103 A 
HETATM   15  C21 UNL     1      -5.199   0.626  -0.056  1.00  0.00     0.102 A 
HETATM   16  C20 UNL     1      -3.873   0.437  -0.361  1.00  0.00     0.057 A 
BRANCH  14  17
HETATM   17  O1  UNL     1      -7.063   0.094   1.315  1.00  0.00    -0.353 OA
HETATM   18  C1  UNL     1      -7.692  -0.594   2.379  1.00  0.00     0.210 C 
ENDBRANCH  14  17
BRANCH  15  19
HETATM   19  O4  UNL     1      -6.027   1.495  -0.755  1.00  0.00    -0.353 OA
HETATM   20  C22 UNL     1      -5.468   2.220  -1.835  1.00  0.00     0.210 C 
ENDBRANCH  15  19
ENDBRANCH   6   7
ENDBRANCH   1   6
BRANCH   5  21
HETATM   21  N4  UNL     1       1.354   0.189   0.510  1.00  0.00    -0.396 N 
HETATM   22  H15 UNL     1       1.502  -0.388   1.370  1.00  0.00     0.156 HD
HETATM   23  H16 UNL     1       1.225   0.878   1.305  1.00  0.00     0.156 HD
ENDBRANCH   5  21
BRANCH   4  24
HETATM   24  C11 UNL     1       3.758   0.141  -1.475  1.00  0.00     0.254 C 
HETATM   25  O3  UNL     1       4.528   0.116  -2.476  1.00  0.00    -0.268 OA
HETATM   26  N3  UNL     1       4.373   0.179  -0.227  1.00  0.00    -0.323 N 
HETATM   27  H9  UNL     1       3.680   0.199   0.554  1.00  0.00     0.169 HD
BRANCH  26  28
HETATM   28  C12 UNL     1       5.738   0.194   0.140  1.00  0.00     0.035 A 
HETATM   29  C13 UNL     1       6.823   0.174  -0.695  1.00  0.00     0.029 A 
HETATM   30  C14 UNL     1       8.138   0.190  -0.296  1.00  0.00     0.002 A 
HETATM   31  C15 UNL     1       8.404   0.228   1.054  1.00  0.00     0.000 A 
HETATM   32  C16 UNL     1       7.370   0.249   1.934  1.00  0.00     0.002 A 
HETATM   33  C17 UNL     1       6.090   0.232   1.471  1.00  0.00     0.029 A 
ENDBRANCH  26  28
ENDBRANCH   4  24
TORSDOF 7
