REMARK  2 active torsions:
REMARK  status: ('A' for Active; 'I' for Inactive)
REMARK    1  A    between atoms: C4_4  and  N1_5 
REMARK       I    between atoms: N1_5  and  C5_6 
REMARK       I    between atoms: C5_6  and  N2_8 
REMARK    2  A    between atoms: N2_8  and  C6_9 
ROOT
HETATM    1  C1  UNL     1       0.266  -0.780   2.351  1.00  0.00     0.032 C 
HETATM    2  C2  UNL     1      -0.445   0.532   2.349  1.00  0.00     0.083 C 
HETATM    3  C3  UNL     1       0.462   1.526   1.597  1.00  0.00     0.081 C 
HETATM    4  C4  UNL     1       0.612   1.005   0.197  1.00  0.00     0.014 C 
HETATM    5  C12 UNL     1       0.231   1.235  -1.039  1.00  0.00     0.024 C 
HETATM    6  C13 UNL     1       0.260   0.865  -2.492  1.00  0.00     0.199 C 
HETATM    7  O2  UNL     1      -1.024   0.563  -2.934  1.00  0.00    -0.367 OA
HETATM    8  C14 UNL     1      -1.869   1.611  -2.791  1.00  0.00     0.310 C 
HETATM    9  N3  UNL     1      -3.243   1.296  -3.168  1.00  0.00    -0.290 N 
HETATM   10  N4  UNL     1      -4.070   0.370  -2.553  1.00  0.00    -0.182 NA
HETATM   11  C15 UNL     1      -3.920  -0.199  -1.431  1.00  0.00     0.060 C 
HETATM   12  C16 UNL     1      -3.052  -0.332  -0.233  1.00  0.00     0.054 C 
HETATM   13  C17 UNL     1      -3.001   0.280   0.959  1.00  0.00     0.010 C 
HETATM   14  C18 UNL     1      -4.096   0.857   1.778  1.00  0.00     0.083 C 
HETATM   15  C19 UNL     1      -5.066  -0.195   2.090  1.00  0.00    -0.020 C 
HETATM   16  C20 UNL     1      -5.759  -1.001   1.303  1.00  0.00     0.000 C 
HETATM   17  P1  UNL     1      -5.731  -1.895  -0.270  1.00  0.00    -0.101 P 
HETATM   18  C21 UNL     1      -5.205  -0.879  -1.709  1.00  0.00     0.096 C 
HETATM   19  N5  UNL     1      -1.725   0.446   1.621  1.00  0.00    -0.388 N 
HETATM   20  H19 UNL     1      -3.924   1.618  -3.901  1.00  0.00     0.184 HD
HETATM   21  H25 UNL     1      -4.840  -3.065  -0.189  1.00  0.00     0.062 HD
HETATM   22  H28 UNL     1      -1.811   1.314   1.000  1.00  0.00     0.159 HD
ENDROOT
BRANCH   4  23
HETATM   23  N1  UNL     1       1.385  -0.117  -0.181  1.00  0.00    -0.313 N 
HETATM   24  C5  UNL     1       2.788  -0.009   0.059  1.00  0.00     0.325 C 
HETATM   25  O1  UNL     1       3.165   1.075   0.573  1.00  0.00    -0.247 OA
HETATM   26  N2  UNL     1       3.771  -0.989  -0.223  1.00  0.00    -0.309 N 
HETATM   27  H8  UNL     1       3.361  -1.843  -0.644  1.00  0.00     0.170 HD
HETATM   28  H7  UNL     1       1.153  -1.067  -0.616  1.00  0.00     0.170 HD
BRANCH  26  29
HETATM   29  C6  UNL     1       5.168  -0.940  -0.009  1.00  0.00     0.036 A 
HETATM   30  C7  UNL     1       5.895   0.086   0.529  1.00  0.00     0.029 A 
HETATM   31  C8  UNL     1       7.261   0.064   0.708  1.00  0.00     0.002 A 
HETATM   32  C9  UNL     1       7.959  -1.051   0.329  1.00  0.00     0.000 A 
HETATM   33  C10 UNL     1       7.282  -2.097  -0.210  1.00  0.00     0.002 A 
HETATM   34  C11 UNL     1       5.917  -2.037  -0.373  1.00  0.00     0.029 A 
ENDBRANCH  26  29
ENDBRANCH   4  23
TORSDOF 2
