REMARK  3 active torsions:
REMARK  status: ('A' for Active; 'I' for Inactive)
REMARK    1  A    between atoms: C2_2  and  C3_3 
REMARK    2  A    between atoms: C13_15  and  O1_16 
REMARK    3  A    between atoms: C15_18  and  O2_19 
ROOT
HETATM    1  C3  UNL     1       2.743   1.570  -2.140  1.00  0.00     0.041 C 
HETATM    2  C4  UNL     1       1.947   1.614  -1.041  1.00  0.00    -0.002 C 
HETATM    3  C5  UNL     1       1.801   1.690   0.449  1.00  0.00     0.036 C 
HETATM    4  C6  UNL     1       0.715   1.751   1.265  1.00  0.00     0.089 C 
HETATM    5  N1  UNL     1      -0.589   1.805   1.822  1.00  0.00    -0.359 N 
HETATM    6  C7  UNL     1      -0.528   2.741   2.984  1.00  0.00     0.152 C 
HETATM    7  C8  UNL     1      -1.457   0.952   1.006  1.00  0.00     0.224 A 
HETATM    8  N2  UNL     1      -1.629   2.198   0.612  1.00  0.00    -0.056 NA
HETATM    9  C9  UNL     1      -1.908   2.526  -0.671  1.00  0.00     0.641 A 
HETATM   10  C10 UNL     1      -1.749   1.176  -0.409  1.00  0.00     0.252 A 
HETATM   11  C11 UNL     1      -1.588  -0.132  -0.115  1.00  0.00     0.106 A 
HETATM   12  C12 UNL     1      -1.671  -1.211  -1.014  1.00  0.00     0.035 A 
HETATM   13  C13 UNL     1      -1.471  -2.416  -0.438  1.00  0.00     0.099 A 
HETATM   14  C15 UNL     1      -1.208  -2.604   0.889  1.00  0.00     0.101 A 
HETATM   15  C17 UNL     1      -1.123  -1.565   1.761  1.00  0.00     0.048 A 
HETATM   16  C18 UNL     1      -1.312  -0.336   1.251  1.00  0.00    -0.002 A 
HETATM   17  C19 UNL     1      -0.982   1.268  -1.721  1.00  0.00     0.242 C 
HETATM   18  O3  UNL     1      -1.200   1.237  -2.941  1.00  0.00    -0.277 OA
HETATM   19  N3  UNL     1       0.486   1.443  -1.248  1.00  0.00    -0.230 NA
HETATM   20  H19 UNL     1       0.702   1.451  -2.248  1.00  0.00     0.136 HD
ENDROOT
BRANCH   1  21
HETATM   21  C2  UNL     1       3.835   1.635  -1.245  1.00  0.00    -0.030 C 
HETATM   22  C1  UNL     1       4.694   1.594  -2.300  1.00  0.00     0.042 C 
ENDBRANCH   1  21
BRANCH  13  23
HETATM   23  O1  UNL     1      -1.526  -3.564  -1.182  1.00  0.00    -0.353 OA
HETATM   24  C14 UNL     1      -1.779  -3.589  -2.578  1.00  0.00     0.210 C 
ENDBRANCH  13  23
BRANCH  14  25
HETATM   25  O2  UNL     1      -0.998  -3.754   1.559  1.00  0.00    -0.353 OA
HETATM   26  C16 UNL     1      -0.725  -3.973   2.915  1.00  0.00     0.210 C 
ENDBRANCH  14  25
TORSDOF 3
