REMARK  3 active torsions:
REMARK  status: ('A' for Active; 'I' for Inactive)
REMARK    1  A    between atoms: O1_2  and  C2_3 
REMARK    2  A    between atoms: C6_8  and  O2_9 
REMARK    3  A    between atoms: C16_24  and  O5_25 
ROOT
HETATM    1  C2  UNL     1       3.502  -0.264   0.223  1.00  0.00     0.121 A 
HETATM    2  C3  UNL     1       2.261   0.268  -0.125  1.00  0.00     0.055 A 
HETATM    3  C4  UNL     1       1.222   0.076   0.794  1.00  0.00     0.029 A 
HETATM    4  C5  UNL     1       1.485  -0.611   1.960  1.00  0.00     0.163 A 
HETATM    5  N1  UNL     1       2.707  -1.099   2.233  1.00  0.00    -0.202 NA
HETATM    6  C6  UNL     1       3.761  -0.950   1.389  1.00  0.00     0.200 A 
HETATM    7  N2  UNL     1       0.404  -0.785   2.867  1.00  0.00    -0.217 NA
HETATM    8  C8  UNL     1      -0.755  -0.302   2.569  1.00  0.00     0.255 A 
HETATM    9  O3  UNL     1      -1.017   0.388   1.397  1.00  0.00    -0.327 OA
HETATM   10  C9  UNL     1      -0.087   0.655   0.393  1.00  0.00     0.119 A 
HETATM   11  C10 UNL     1       0.148   2.162   0.253  1.00  0.00     0.168 C 
HETATM   12  N3  UNL     1      -0.936   2.937   0.825  1.00  0.00    -0.340 N 
HETATM   13  C11 UNL     1      -2.329   2.971   0.465  1.00  0.00     0.320 C 
HETATM   14  O4  UNL     1      -2.996   3.834   1.106  1.00  0.00    -0.247 OA
HETATM   15  N4  UNL     1      -3.172   2.268  -0.448  1.00  0.00    -0.308 N 
HETATM   16  C12 UNL     1      -2.986   0.994  -1.055  1.00  0.00     0.042 C 
HETATM   17  C13 UNL     1      -4.191   0.925  -1.610  1.00  0.00     0.030 C 
HETATM   18  C14 UNL     1      -4.739  -0.148  -2.425  1.00  0.00     0.001 C 
HETATM   19  C15 UNL     1      -4.276  -1.387  -2.454  1.00  0.00     0.008 C 
HETATM   20  C16 UNL     1      -3.191  -2.177  -1.818  1.00  0.00     0.164 C 
HETATM   21  C17 UNL     1      -2.036  -1.308  -1.461  1.00  0.00     0.018 C 
HETATM   22  C18 UNL     1      -1.921  -0.027  -1.148  1.00  0.00    -0.029 C 
HETATM   23  C19 UNL     1      -0.452   0.037  -0.935  1.00  0.00     0.086 C 
HETATM   24  H11 UNL     1      -0.709   3.584   1.624  1.00  0.00     0.164 HD
HETATM   25  H12 UNL     1      -4.061   2.757  -0.715  1.00  0.00     0.170 HD
ENDROOT
BRANCH   1  26
HETATM   26  O1  UNL     1       4.535  -0.091  -0.657  1.00  0.00    -0.352 OA
HETATM   27  C1  UNL     1       4.424   0.590  -1.892  1.00  0.00     0.210 C 
ENDBRANCH   1  26
BRANCH   6  28
HETATM   28  O2  UNL     1       5.023  -1.447   1.659  1.00  0.00    -0.337 OA
HETATM   29  C7  UNL     1       5.271  -2.153   2.868  1.00  0.00     0.211 C 
ENDBRANCH   6  28
BRANCH  20  30
HETATM   30  O5  UNL     1      -2.785  -3.190  -2.671  1.00  0.00    -0.388 OA
HETATM   31  H17 UNL     1      -3.221  -4.031  -2.378  1.00  0.00     0.210 HD
ENDBRANCH  20  30
TORSDOF 3
