REMARK  5 active torsions:
REMARK  status: ('A' for Active; 'I' for Inactive)
REMARK    1  A    between atoms: O1_2  and  C2_3 
REMARK    2  A    between atoms: C2_3  and  C3_4 
REMARK    3  A    between atoms: C3_4  and  C4_5 
REMARK    4  A    between atoms: C4_5  and  O3_22 
REMARK    5  A    between atoms: C5_6  and  C6_7 
ROOT
HETATM    1  C6  UNL     1       0.727  -1.067   1.741  1.00  0.00     0.188 C 
HETATM    2  O2  UNL     1       0.692  -2.092   0.739  1.00  0.00    -0.324 OA
HETATM    3  C7  UNL     1      -0.381  -1.414   0.197  1.00  0.00     0.164 C 
HETATM    4  N1  UNL     1      -1.253  -0.846  -0.661  1.00  0.00    -0.266 NA
HETATM    5  C8  UNL     1      -1.697   0.468  -0.966  1.00  0.00     0.195 C 
HETATM    6  C9  UNL     1      -2.976   0.823  -0.078  1.00  0.00     0.112 A 
HETATM    7  C10 UNL     1      -3.456   1.666   1.086  1.00  0.00     0.109 A 
HETATM    8  S1  UNL     1      -2.465   0.603   1.407  1.00  0.00    -0.112 SA
HETATM    9  C11 UNL     1      -1.645  -0.278   1.646  1.00  0.00    -0.094 C 
HETATM   10  C12 UNL     1      -0.712  -1.284   1.886  1.00  0.00     0.136 C 
HETATM   11  C13 UNL     1      -1.294  -2.637   2.044  1.00  0.00     0.007 C 
HETATM   12  C14 UNL     1      -2.403  -2.838   1.354  1.00  0.00    -0.001 C 
HETATM   13  C15 UNL     1      -3.456  -2.485   0.475  1.00  0.00     0.017 C 
HETATM   14  C16 UNL     1      -3.868  -1.463  -0.232  1.00  0.00     0.084 C 
HETATM   15  N2  UNL     1      -3.862  -0.165  -0.763  1.00  0.00    -0.378 N 
HETATM   16  H15 UNL     1      -4.292   0.366  -1.521  1.00  0.00     0.160 HD
ENDROOT
BRANCH   1  17
HETATM   17  C5  UNL     1       1.046   0.217   1.133  1.00  0.00     0.044 C 
HETATM   18  C4  UNL     1       1.863   0.562   0.194  1.00  0.00     0.068 C 
BRANCH  18  19
HETATM   19  C3  UNL     1       2.053   1.891  -0.288  1.00  0.00     0.060 C 
BRANCH  19  20
HETATM   20  C2  UNL     1       2.440   2.925  -0.916  1.00  0.00     0.137 C 
BRANCH  20  21
HETATM   21  O1  UNL     1       3.396   2.711  -1.884  1.00  0.00    -0.368 OA
HETATM   22  C1  UNL     1       4.779   2.845  -1.716  1.00  0.00     0.208 C 
ENDBRANCH  20  21
ENDBRANCH  19  20
ENDBRANCH  18  19
BRANCH  18  23
HETATM   23  O3  UNL     1       2.816   0.184  -0.736  1.00  0.00    -0.356 OA
HETATM   24  C17 UNL     1       2.882  -1.145  -1.186  1.00  0.00     0.210 C 
ENDBRANCH  18  23
ENDBRANCH   1  17
TORSDOF 5
