REMARK  8 active torsions:
REMARK  status: ('A' for Active; 'I' for Inactive)
REMARK    1  A    between atoms: O1_2  and  C2_3 
REMARK    2  A    between atoms: C5_6  and  N1_7 
REMARK    3  A    between atoms: C6_8  and  N2_9 
REMARK    4  A    between atoms: C7_10  and  C8_11 
REMARK    5  A    between atoms: C8_11  and  N3_12 
REMARK    6  A    between atoms: N3_12  and  C10_14 
REMARK    7  A    between atoms: C10_14  and  C11_15 
REMARK    8  A    between atoms: C13_18  and  O2_19 
ROOT
HETATM    1  C2  UNL     1      -4.574   0.082   0.697  1.00  0.00     0.101 A 
HETATM    2  C3  UNL     1      -3.533  -0.555   1.348  1.00  0.00     0.042 A 
HETATM    3  C4  UNL     1      -2.248  -0.357   0.880  1.00  0.00     0.031 A 
HETATM    4  C5  UNL     1      -1.925   0.448  -0.215  1.00  0.00     0.026 A 
HETATM    5  C12 UNL     1      -2.989   1.064  -0.836  1.00  0.00     0.068 A 
HETATM    6  C13 UNL     1      -4.274   0.882  -0.388  1.00  0.00     0.103 A 
ENDROOT
BRANCH   4   7
HETATM    7  N1  UNL     1      -0.603   0.624  -0.665  1.00  0.00    -0.374 NA
HETATM    8  C6  UNL     1       0.377   0.009  -0.169  1.00  0.00     0.366 C 
BRANCH   8   9
HETATM    9  N2  UNL     1       0.967  -0.893   0.723  1.00  0.00    -0.384 NA
HETATM   10  C7  UNL     1       2.203  -1.251   0.647  1.00  0.00     0.276 C 
BRANCH  10  11
HETATM   11  C8  UNL     1       3.335  -0.922  -0.254  1.00  0.00     0.163 C 
BRANCH  11  12
HETATM   12  N3  UNL     1       4.542  -0.560   0.387  1.00  0.00    -0.410 N 
HETATM   13  C9  UNL     1       4.580   0.667   1.099  1.00  0.00     0.143 C 
BRANCH  12  14
HETATM   14  C10 UNL     1       5.755  -1.058  -0.135  1.00  0.00     0.148 C 
BRANCH  14  15
HETATM   15  C11 UNL     1       6.986  -0.617   0.617  1.00  0.00     0.241 C 
HETATM   16  F1  UNL     1       6.940  -1.030   1.933  1.00  0.00    -0.254 F 
ENDBRANCH  14  15
ENDBRANCH  12  14
ENDBRANCH  11  12
ENDBRANCH  10  11
ENDBRANCH   8   9
ENDBRANCH   4   7
BRANCH   6  17
HETATM   17  O2  UNL     1      -5.369   1.474  -0.973  1.00  0.00    -0.353 OA
HETATM   18  C14 UNL     1      -5.238   2.324  -2.093  1.00  0.00     0.210 C 
ENDBRANCH   6  17
BRANCH   1  19
HETATM   19  O1  UNL     1      -5.869  -0.111   1.160  1.00  0.00    -0.353 OA
HETATM   20  C1  UNL     1      -6.065  -0.949   2.276  1.00  0.00     0.210 C 
ENDBRANCH   1  19
TORSDOF 8
