REMARK  4 active torsions:
REMARK  status: ('A' for Active; 'I' for Inactive)
REMARK    1  A    between atoms: N3_12  and  C8_13 
REMARK    2  A    between atoms: C12_17  and  N4_18 
REMARK    3  A    between atoms: N4_18  and  C13_19 
REMARK    4  A    between atoms: C13_19  and  C14_20 
ROOT
HETATM    1  C1  UNL     1       4.458   1.574   2.419  1.00  0.00     0.000 C 
HETATM    2  O1  UNL     1       4.006   0.506   1.580  1.00  0.00     0.000 OA
HETATM    3  C2  UNL     1       2.715   0.532   1.013  1.00  0.00    -0.014 A 
HETATM    4  C3  UNL     1       3.674   0.263   0.175  1.00  0.00    -0.007 A 
HETATM    5  O2  UNL     1       5.004   0.209   0.627  1.00  0.00     0.000 OA
HETATM    6  C4  UNL     1       5.693  -1.018   0.750  1.00  0.00     0.000 C 
HETATM    7  C5  UNL     1       3.644  -0.025  -1.305  1.00  0.00     0.259 C 
HETATM    8  N1  UNL     1       2.434  -0.002  -1.922  1.00  0.00    -0.437 NA
HETATM    9  C6  UNL     1       1.374   0.017  -2.396  1.00  0.00     0.292 C 
HETATM   10  N2  UNL     1       0.668  -0.020  -1.136  1.00  0.00    -0.226 NA
HETATM   11  C7  UNL     1       0.147   1.152  -0.838  1.00  0.00     0.216 C 
HETATM   12  N3  UNL     1      -0.429   0.733   0.395  1.00  0.00    -0.317 N 
HETATM   13  C16 UNL     1       0.333   0.894   1.576  1.00  0.00     0.099 C 
HETATM   14  C17 UNL     1       1.604   0.826   1.895  1.00  0.00     0.030 C 
ENDROOT
BRANCH  12  15
HETATM   15  C8  UNL     1      -1.730   0.170   0.390  1.00  0.00     0.041 A 
HETATM   16  C9  UNL     1      -2.390  -0.265   1.538  1.00  0.00     0.030 A 
HETATM   17  C10 UNL     1      -3.664  -0.810   1.500  1.00  0.00     0.004 A 
HETATM   18  C11 UNL     1      -4.317  -0.929   0.277  1.00  0.00     0.029 A 
HETATM   19  C12 UNL     1      -3.689  -0.506  -0.873  1.00  0.00     0.030 A 
HETATM   20  C15 UNL     1      -2.423   0.025  -0.764  1.00  0.00     0.059 A 
BRANCH  19  21
HETATM   21  N4  UNL     1      -4.313  -0.605  -2.139  1.00  0.00    -0.384 N 
HETATM   22  H14 UNL     1      -3.807  -0.278  -2.993  1.00  0.00     0.160 HD
BRANCH  21  23
HETATM   23  C13 UNL     1      -5.644  -1.147  -2.313  1.00  0.00     0.189 C 
BRANCH  23  24
HETATM   24  C14 UNL     1      -6.584  -0.300  -1.534  1.00  0.00     0.250 C 
HETATM   25  O3  UNL     1      -7.800  -0.358  -1.375  1.00  0.00    -0.305 OA
ENDBRANCH  23  24
ENDBRANCH  21  23
ENDBRANCH  19  21
ENDBRANCH  12  15
TORSDOF 4
