REMARK  7 active torsions:
REMARK  status: ('A' for Active; 'I' for Inactive)
REMARK    1  A    between atoms: O1_2  and  C2_3 
REMARK    2  A    between atoms: C5_6  and  N1_7 
REMARK       I    between atoms: N1_7  and  C6_8 
REMARK       I    between atoms: C6_8  and  N2_10 
REMARK    3  A    between atoms: N2_10  and  C7_11 
REMARK    4  A    between atoms: C12_16  and  N3_17 
REMARK    5  A    between atoms: N3_17  and  C14_19 
REMARK    6  A    between atoms: C18_25  and  O3_26 
REMARK    7  A    between atoms: C20_28  and  O4_29 
ROOT
HETATM    1  C7  UNL     1       0.472  -0.395   0.146  1.00  0.00     0.029 C 
HETATM    2  C8  UNL     1      -0.065  -1.629   0.091  1.00  0.00     0.044 A 
HETATM    3  C9  UNL     1      -0.956  -2.778   0.121  1.00  0.00    -0.012 A 
HETATM    4  C10 UNL     1      -2.076  -2.122  -0.101  1.00  0.00    -0.021 A 
HETATM    5  C11 UNL     1      -1.364  -0.893  -0.184  1.00  0.00     0.056 A 
HETATM    6  C12 UNL     1      -0.843  -0.003   0.801  1.00  0.00     0.141 C 
ENDROOT
BRANCH   6   7
HETATM    7  N3  UNL     1      -1.068   1.395   0.642  1.00  0.00    -0.359 N 
HETATM    8  C13 UNL     1      -0.349   2.540   1.143  1.00  0.00     0.152 C 
BRANCH   7   9
HETATM    9  C14 UNL     1      -2.183   1.830  -0.145  1.00  0.00     0.140 A 
HETATM   10  N4  UNL     1      -1.845   2.557  -1.247  1.00  0.00    -0.224 NA
HETATM   11  C15 UNL     1      -2.753   3.041  -2.104  1.00  0.00     0.236 A 
HETATM   12  N5  UNL     1      -4.068   2.802  -1.871  1.00  0.00    -0.241 NA
HETATM   13  C16 UNL     1      -4.477   2.091  -0.802  1.00  0.00     0.075 A 
HETATM   14  C17 UNL     1      -5.802   1.817  -0.516  1.00  0.00     0.072 A 
HETATM   15  C23 UNL     1      -3.522   1.604   0.064  1.00  0.00     0.041 A 
HETATM   16  C18 UNL     1      -6.105   1.078   0.610  1.00  0.00     0.103 A 
HETATM   17  C20 UNL     1      -5.139   0.594   1.473  1.00  0.00     0.102 A 
HETATM   18  C22 UNL     1      -3.819   0.868   1.185  1.00  0.00     0.057 A 
BRANCH  16  19
HETATM   19  O3  UNL     1      -7.466   0.823   0.862  1.00  0.00    -0.353 OA
HETATM   20  C19 UNL     1      -8.442   1.310  -0.007  1.00  0.00     0.210 C 
ENDBRANCH  16  19
BRANCH  17  21
HETATM   21  O4  UNL     1      -5.589  -0.134   2.565  1.00  0.00    -0.353 OA
HETATM   22  C21 UNL     1      -4.673  -0.668   3.505  1.00  0.00     0.210 C 
ENDBRANCH  17  21
ENDBRANCH   7   9
ENDBRANCH   6   7
BRANCH   1  23
HETATM   23  N2  UNL     1       1.683   0.314  -0.027  1.00  0.00    -0.313 N 
HETATM   24  C6  UNL     1       2.848  -0.400  -0.394  1.00  0.00     0.324 C 
HETATM   25  N1  UNL     1       4.108   0.176  -0.598  1.00  0.00    -0.309 N 
HETATM   26  O2  UNL     1       2.691  -1.633  -0.533  1.00  0.00    -0.247 OA
HETATM   27  H6  UNL     1       4.089   1.208  -0.447  1.00  0.00     0.170 HD
HETATM   28  H7  UNL     1       1.731   1.340   0.107  1.00  0.00     0.170 HD
BRANCH  25  29
HETATM   29  C5  UNL     1       5.333  -0.437  -0.962  1.00  0.00     0.036 A 
HETATM   30  C4  UNL     1       5.542  -1.773  -1.200  1.00  0.00     0.032 A 
HETATM   31  C3  UNL     1       6.730  -2.333  -1.548  1.00  0.00     0.039 A 
HETATM   32  C2  UNL     1       7.843  -1.533  -1.686  1.00  0.00     0.068 A 
HETATM   33  C25 UNL     1       7.672  -0.184  -1.455  1.00  0.00     0.039 A 
HETATM   34  C24 UNL     1       6.443   0.330  -1.104  1.00  0.00     0.032 A 
BRANCH  32  35
HETATM   35  O1  UNL     1       9.119  -1.951  -2.034  1.00  0.00    -0.356 OA
HETATM   36  C1  UNL     1       9.396  -3.317  -2.291  1.00  0.00     0.210 C 
ENDBRANCH  32  35
ENDBRANCH  25  29
ENDBRANCH   1  23
TORSDOF 7
