REMARK  7 active torsions:
REMARK  status: ('A' for Active; 'I' for Inactive)
REMARK    1  A    between atoms: O1_2  and  C2_3 
REMARK    2  A    between atoms: C2_3  and  C3_4 
REMARK    3  A    between atoms: C4_5  and  O2_6 
REMARK    4  A    between atoms: O2_6  and  C5_7 
REMARK    5  A    between atoms: C19_28  and  C20_29 
REMARK    6  A    between atoms: C20_29  and  C21_30 
REMARK    7  A    between atoms: C21_30  and  O5_31 
ROOT
HETATM    1  C5  UNL     1       0.330  -0.615   0.090  1.00  0.00     0.062 C 
HETATM    2  C6  UNL     1       0.285   0.524   0.883  1.00  0.00     0.052 C 
HETATM    3  C7  UNL     1       0.152   1.822   1.634  1.00  0.00     0.284 C 
HETATM    4  N1  UNL     1       1.373   2.065   2.559  1.00  0.00     0.158 N 
HETATM    5  C8  UNL     1       2.492   1.141   2.017  1.00  0.00     0.500 A 
HETATM    6  O3  UNL     1       3.313   0.399   1.474  1.00  0.00    -0.120 OA
HETATM    7  N2  UNL     1       3.675   0.486   2.632  1.00  0.00     0.146 N 
HETATM    8  C9  UNL     1       4.562  -0.591   2.091  1.00  0.00     0.206 C 
HETATM    9  C10 UNL     1       4.102  -1.915   1.993  1.00  0.00     0.113 C 
HETATM   10  O4  UNL     1       3.320  -3.117   2.041  1.00  0.00    -0.320 OA
HETATM   11  C11 UNL     1       3.131  -3.813   0.758  1.00  0.00     0.139 C 
HETATM   12  C12 UNL     1       2.172  -2.980   0.682  1.00  0.00     0.004 C 
HETATM   13  C13 UNL     1       1.903  -2.047   1.757  1.00  0.00     0.026 C 
HETATM   14  C14 UNL     1       1.162  -1.472   0.828  1.00  0.00     0.109 C 
HETATM   15  P1  UNL     1       5.429  -3.018   1.224  1.00  0.00    -0.062 P 
HETATM   16  C15 UNL     1       7.044  -2.176   1.689  1.00  0.00     0.065 C 
HETATM   17  C16 UNL     1       6.729  -0.790   1.843  1.00  0.00    -0.020 C 
HETATM   18  C17 UNL     1       5.833   0.137   2.024  1.00  0.00     0.040 C 
HETATM   19  H8  UNL     1       1.573   1.461   1.865  1.00  0.00     0.423 HD
HETATM   20  H9  UNL     1       3.837   0.990   3.596  1.00  0.00     0.331 HD
HETATM   21  H14 UNL     1       5.300  -2.742  -0.248  1.00  0.00     0.065 HD
ENDROOT
BRANCH   1  22
HETATM   22  O2  UNL     1      -0.430   0.116  -0.625  1.00  0.00    -0.327 OA
BRANCH  22  23
HETATM   23  C4  UNL     1      -0.978   0.873  -1.426  1.00  0.00     0.180 A 
HETATM   24  C3  UNL     1      -2.251   0.645  -0.940  1.00  0.00     0.067 A 
HETATM   25  C19 UNL     1      -3.314   1.357  -1.593  1.00  0.00     0.072 A 
HETATM   26  N4  UNL     1      -2.991   2.167  -2.602  1.00  0.00    -0.241 NA
HETATM   27  C18 UNL     1      -1.708   2.365  -3.062  1.00  0.00     0.236 A 
HETATM   28  N3  UNL     1      -0.685   1.692  -2.444  1.00  0.00    -0.217 NA
BRANCH  24  29
HETATM   29  C2  UNL     1      -2.790  -0.117  -0.019  1.00  0.00     0.152 C 
BRANCH  29  30
HETATM   30  O1  UNL     1      -4.092  -0.277   0.390  1.00  0.00    -0.367 OA
HETATM   31  C1  UNL     1      -4.635  -1.494   0.849  1.00  0.00     0.208 C 
ENDBRANCH  29  30
ENDBRANCH  24  29
BRANCH  25  32
HETATM   32  C20 UNL     1      -4.601   1.516  -1.435  1.00  0.00     0.032 C 
BRANCH  32  33
HETATM   33  C21 UNL     1      -5.760   2.238  -2.085  1.00  0.00     0.196 C 
BRANCH  33  34
HETATM   34  O5  UNL     1      -5.717   1.740  -3.455  1.00  0.00    -0.392 OA
HETATM   35  C22 UNL     1      -6.729   2.373  -4.140  1.00  0.00     0.201 C 
ENDBRANCH  33  34
ENDBRANCH  32  33
ENDBRANCH  25  32
ENDBRANCH  22  23
ENDBRANCH   1  22
TORSDOF 7
