REMARK  9 active torsions:
REMARK  status: ('A' for Active; 'I' for Inactive)
REMARK    1  A    between atoms: C2_2  and  N1_3 
REMARK    2  A    between atoms: C2_2  and  N4_22 
REMARK    3  A    between atoms: C6_7  and  C7_8 
REMARK    4  A    between atoms: C7_8  and  O1_9 
REMARK    5  A    between atoms: O1_9  and  C8_10 
REMARK    6  A    between atoms: C10_14  and  O2_15 
REMARK    7  A    between atoms: C13_18  and  C14_19 
REMARK    8  A    between atoms: C14_19  and  O3_20 
REMARK    9  A    between atoms: C19_26  and  O4_27 
ROOT
HETATM    1  N1  UNL     1       1.714   2.114   0.891  1.00  0.00    -0.338 N 
HETATM    2  C3  UNL     1       1.937   2.746   2.200  1.00  0.00     0.134 C 
HETATM    3  C4  UNL     1       0.547   2.953   2.705  1.00  0.00     0.049 C 
HETATM    4  C5  UNL     1      -0.216   1.861   2.024  1.00  0.00     0.002 C 
HETATM    5  C6  UNL     1       0.489   1.409   0.991  1.00  0.00     0.033 C 
ENDROOT
BRANCH   5   6
HETATM    6  C7  UNL     1       0.101   0.342   0.061  1.00  0.00     0.234 C 
BRANCH   6   7
HETATM    7  O1  UNL     1      -1.166  -0.212   0.360  1.00  0.00    -0.328 OA
BRANCH   7   8
HETATM    8  C8  UNL     1      -1.786  -1.220  -0.326  1.00  0.00     0.176 A 
HETATM    9  N2  UNL     1      -0.934  -2.074  -0.774  1.00  0.00    -0.218 NA
HETATM   10  C9  UNL     1      -1.477  -3.164  -1.504  1.00  0.00     0.233 A 
HETATM   11  N3  UNL     1      -2.690  -3.397  -1.768  1.00  0.00    -0.246 NA
HETATM   12  C10 UNL     1      -3.777  -2.537  -1.342  1.00  0.00     0.282 A 
HETATM   13  C12 UNL     1      -3.236  -1.406  -0.581  1.00  0.00     0.043 A 
HETATM   14  C13 UNL     1      -3.957  -0.422  -0.033  1.00  0.00     0.015 C 
BRANCH  12  15
HETATM   15  O2  UNL     1      -4.668  -3.253  -0.535  1.00  0.00    -0.365 OA
HETATM   16  C11 UNL     1      -5.834  -3.470  -1.260  1.00  0.00     0.204 C 
ENDBRANCH  12  15
BRANCH  14  17
HETATM   17  C14 UNL     1      -5.352   0.022   0.113  1.00  0.00     0.195 C 
BRANCH  17  18
HETATM   18  O3  UNL     1      -5.728   0.092   1.427  1.00  0.00    -0.392 OA
HETATM   19  C15 UNL     1      -5.000   0.952   2.195  1.00  0.00     0.201 C 
ENDBRANCH  17  18
ENDBRANCH  14  17
ENDBRANCH   7   8
ENDBRANCH   6   7
ENDBRANCH   5   6
BRANCH   1  20
HETATM   20  C2  UNL     1       2.564   2.198  -0.243  1.00  0.00     0.093 C 
HETATM   21  C1  UNL     1       2.237   3.238  -0.981  1.00  0.00     0.085 C 
BRANCH  20  22
HETATM   22  N4  UNL     1       3.638   1.349  -0.628  1.00  0.00    -0.276 N 
HETATM   23  C16 UNL     1       4.253   1.699  -1.771  1.00  0.00     0.102 A 
HETATM   24  C17 UNL     1       5.308   0.877  -2.166  1.00  0.00     0.021 A 
HETATM   25  C18 UNL     1       5.720  -0.231  -1.454  1.00  0.00     0.044 A 
HETATM   26  C19 UNL     1       5.031  -0.533  -0.274  1.00  0.00     0.137 A 
HETATM   27  C21 UNL     1       3.987   0.284   0.114  1.00  0.00     0.286 A 
HETATM   28  O5  UNL     1       3.305   0.100   1.156  1.00  0.00    -0.265 OA
BRANCH  26  29
HETATM   29  O4  UNL     1       5.337  -1.602   0.525  1.00  0.00    -0.351 OA
HETATM   30  C20 UNL     1       6.378  -2.521   0.252  1.00  0.00     0.210 C 
ENDBRANCH  26  29
ENDBRANCH  20  22
ENDBRANCH   1  20
TORSDOF 9
