REMARK  3 active torsions:
REMARK  status: ('A' for Active; 'I' for Inactive)
REMARK    1  A    between atoms: C1_2  and  C2_3 
REMARK    2  A    between atoms: C11_13  and  N1_14 
REMARK    3  A    between atoms: N1_14  and  C12_15 
ROOT
HETATM    1  C2  UNL     1       3.879   1.576  -1.578  1.00  0.00     0.016 C 
HETATM    2  C3  UNL     1       3.389   0.220  -1.912  1.00  0.00     0.012 C 
HETATM    3  C4  UNL     1       2.559  -0.651  -1.311  1.00  0.00     0.012 C 
HETATM    4  C5  UNL     1       1.784  -0.581  -0.023  1.00  0.00     0.204 C 
HETATM    5  O2  UNL     1       0.812  -1.527  -0.009  1.00  0.00    -0.375 OA
HETATM    6  C6  UNL     1       1.169  -2.844  -0.132  1.00  0.00     0.174 C 
HETATM    7  C7  UNL     1      -0.194  -3.564  -0.063  1.00  0.00     0.025 C 
HETATM    8  C8  UNL     1      -1.545  -3.553   0.056  1.00  0.00     0.022 C 
HETATM    9  C9  UNL     1      -2.648  -2.584   0.223  1.00  0.00    -0.023 C 
HETATM   10  C10 UNL     1      -3.141  -1.337   0.356  1.00  0.00    -0.002 C 
HETATM   11  C11 UNL     1      -3.542   0.083   0.494  1.00  0.00     0.131 C 
HETATM   12  C14 UNL     1      -2.582   1.046  -0.158  1.00  0.00     0.026 C 
HETATM   13  C15 UNL     1      -1.346   0.893   0.389  1.00  0.00     0.140 C 
HETATM   14  O4  UNL     1      -0.022   0.820   0.884  1.00  0.00    -0.322 OA
HETATM   15  C16 UNL     1       1.061   0.752   0.002  1.00  0.00     0.115 C 
HETATM   16  C17 UNL     1       0.948   1.970  -0.437  1.00  0.00     0.115 C 
HETATM   17  N2  UNL     1       1.894   2.693  -0.822  1.00  0.00    -0.280 NA
HETATM   18  C18 UNL     1       3.333   2.761  -0.860  1.00  0.00     0.192 C 
ENDROOT
BRANCH  11  19
HETATM   19  N1  UNL     1      -3.639   0.467   1.883  1.00  0.00    -0.358 N 
HETATM   20  H11 UNL     1      -3.457  -0.259   2.608  1.00  0.00     0.162 HD
BRANCH  19  21
HETATM   21  C12 UNL     1      -3.956   1.744   2.382  1.00  0.00     0.166 A 
HETATM   22  C13 UNL     1      -3.615   3.042   2.246  1.00  0.00     0.200 A 
HETATM   23  O3  UNL     1      -4.589   2.715   3.142  1.00  0.00    -0.300 OA
ENDBRANCH  19  21
ENDBRANCH  11  19
BRANCH   1  24
HETATM   24  C1  UNL     1       5.081   1.832  -2.000  1.00  0.00     0.230 C 
HETATM   25  O1  UNL     1       6.167   1.946  -2.576  1.00  0.00    -0.283 OA
ENDBRANCH   1  24
TORSDOF 3
