REMARK  5 active torsions:
REMARK  status: ('A' for Active; 'I' for Inactive)
REMARK    1  A    between atoms: O1_2  and  C2_3 
REMARK    2  A    between atoms: C7_8  and  O2_9 
REMARK    3  A    between atoms: C11_16  and  N3_17 
REMARK    4  A    between atoms: N3_17  and  C12_18 
REMARK    5  A    between atoms: C12_18  and  C13_19 
ROOT
HETATM    1  C2  UNL     1       4.240  -0.527  -0.937  1.00  0.00     0.102 A 
HETATM    2  C3  UNL     1       2.996  -0.646  -1.461  1.00  0.00     0.051 A 
HETATM    3  C4  UNL     1       2.023   0.362  -1.485  1.00  0.00    -0.004 A 
HETATM    4  C5  UNL     1       2.366   1.601  -0.919  1.00  0.00     0.088 A 
HETATM    5  C6  UNL     1       3.643   1.779  -0.363  1.00  0.00     0.077 A 
HETATM    6  C7  UNL     1       4.523   0.722  -0.391  1.00  0.00     0.104 A 
HETATM    7  O3  UNL     1       1.417   2.628  -0.920  1.00  0.00    -0.289 OA
HETATM    8  C9  UNL     1       0.138   2.473  -0.356  1.00  0.00     0.201 A 
HETATM    9  N1  UNL     1      -0.411   3.313   0.521  1.00  0.00    -0.215 NA
HETATM   10  C10 UNL     1      -1.617   3.174   1.063  1.00  0.00     0.237 A 
HETATM   11  N2  UNL     1      -2.405   2.119   0.745  1.00  0.00    -0.227 NA
HETATM   12  C11 UNL     1      -1.928   1.203  -0.147  1.00  0.00     0.139 A 
HETATM   13  C19 UNL     1      -0.669   1.406  -0.673  1.00  0.00     0.123 A 
HETATM   14  N4  UNL     1      -0.433   0.308  -1.548  1.00  0.00    -0.379 N 
HETATM   15  C20 UNL     1       0.798  -0.143  -2.149  1.00  0.00     0.161 C 
HETATM   16  H16 UNL     1      -1.276  -0.290  -1.811  1.00  0.00     0.160 HD
ENDROOT
BRANCH  12  17
HETATM   17  N3  UNL     1      -2.852   0.197  -0.370  1.00  0.00    -0.251 NA
HETATM   18  H10 UNL     1      -2.149  -0.526   0.023  1.00  0.00     0.134 HD
BRANCH  17  19
HETATM   19  C12 UNL     1      -3.631  -0.942  -0.505  1.00  0.00     0.071 C 
BRANCH  19  20
HETATM   20  C13 UNL     1      -4.348  -1.375   0.545  1.00  0.00    -0.042 A 
HETATM   21  C14 UNL     1      -5.171  -2.556   0.460  1.00  0.00     0.035 A 
HETATM   22  C15 UNL     1      -5.969  -3.060   1.388  1.00  0.00     0.072 A 
HETATM   23 CL1  UNL     1      -6.908  -4.505   1.123  1.00  0.00    -0.081 Cl
HETATM   24  C16 UNL     1      -6.007  -2.357   2.663  1.00  0.00     0.134 A 
HETATM   25  F1  UNL     1      -6.781  -2.764   3.695  1.00  0.00    -0.205 F 
HETATM   26  C17 UNL     1      -5.258  -1.297   2.794  1.00  0.00     0.022 A 
HETATM   27  C18 UNL     1      -4.319  -0.640   1.829  1.00  0.00     0.070 A 
ENDBRANCH  19  20
ENDBRANCH  17  19
ENDBRANCH  12  17
BRANCH   6  28
HETATM   28  O2  UNL     1       5.761   0.977   0.178  1.00  0.00    -0.353 OA
HETATM   29  C8  UNL     1       6.054   2.262   0.730  1.00  0.00     0.210 C 
ENDBRANCH   6  28
BRANCH   1  30
HETATM   30  O1  UNL     1       5.254  -1.452  -0.865  1.00  0.00    -0.353 OA
HETATM   31  C1  UNL     1       5.107  -2.752  -1.376  1.00  0.00     0.210 C 
ENDBRANCH   1  30
TORSDOF 5
