REMARK  5 active torsions:
REMARK  status: ('A' for Active; 'I' for Inactive)
REMARK    1  A    between atoms: C2_2  and  C3_3 
REMARK    2  A    between atoms: C3_3  and  C4_4 
REMARK    3  A    between atoms: C4_4  and  N1_5 
REMARK       I    between atoms: N1_5  and  C5_6 
REMARK       I    between atoms: C5_6  and  N2_8 
REMARK    4  A    between atoms: N2_8  and  C6_9 
REMARK    5  A    between atoms: C15_19  and  O2_20 
ROOT
HETATM    1  C6  UNL     1      -0.779  -0.087   1.882  1.00  0.00     0.038 A 
HETATM    2  C7  UNL     1      -0.528  -1.460   1.893  1.00  0.00     0.032 A 
HETATM    3  C8  UNL     1       0.331  -1.922   0.920  1.00  0.00     0.042 A 
HETATM    4  C9  UNL     1       0.934  -1.135  -0.031  1.00  0.00     0.104 A 
HETATM    5  C10 UNL     1       0.688   0.222  -0.044  1.00  0.00     0.070 A 
HETATM    6  C11 UNL     1      -0.171   0.677   0.932  1.00  0.00     0.062 A 
HETATM    7  N3  UNL     1       1.155   1.280  -0.872  1.00  0.00    -0.339 N 
HETATM    8  C12 UNL     1       2.096   1.169  -1.929  1.00  0.00     0.125 C 
HETATM    9  C13 UNL     1       3.262   1.671  -1.456  1.00  0.00     0.026 C 
HETATM   10  C14 UNL     1       4.393   1.610  -2.455  1.00  0.00     0.067 C 
HETATM   11  C15 UNL     1       5.539   0.861  -1.764  1.00  0.00     0.147 C 
HETATM   12  C17 UNL     1       5.063  -0.078  -0.787  1.00  0.00     0.009 C 
HETATM   13  C18 UNL     1       4.018  -0.867  -0.593  1.00  0.00     0.057 C 
HETATM   14  C19 UNL     1       2.824  -1.081  -1.448  1.00  0.00     0.170 C 
HETATM   15  N4  UNL     1       1.903  -1.152  -2.294  1.00  0.00    -0.217 NA
HETATM   16  C20 UNL     1       1.925  -0.509  -3.533  1.00  0.00     0.238 C 
HETATM   17  N5  UNL     1       2.028   0.726  -3.273  1.00  0.00    -0.225 NA
HETATM   18  O3  UNL     1       1.781  -1.870  -0.925  1.00  0.00    -0.290 OA
HETATM   19  H15 UNL     1       0.881   2.271  -0.803  1.00  0.00     0.167 HD
ENDROOT
BRANCH   1  20
HETATM   20  N2  UNL     1      -1.669   0.403   2.888  1.00  0.00    -0.309 N 
HETATM   21  C5  UNL     1      -3.032   0.389   2.442  1.00  0.00     0.320 C 
HETATM   22  N1  UNL     1      -4.129   0.811   3.213  1.00  0.00    -0.343 N 
HETATM   23  O1  UNL     1      -3.145  -0.049   1.270  1.00  0.00    -0.247 OA
HETATM   24  H10 UNL     1      -3.939   1.168   4.196  1.00  0.00     0.164 HD
HETATM   25  H11 UNL     1      -1.475   0.759   3.871  1.00  0.00     0.170 HD
BRANCH  22  26
HETATM   26  C4  UNL     1      -5.497   0.782   2.728  1.00  0.00     0.124 C 
BRANCH  26  27
HETATM   27  C3  UNL     1      -5.867  -0.656   2.382  1.00  0.00     0.019 C 
BRANCH  27  28
HETATM   28  C2  UNL     1      -7.311  -0.717   1.866  1.00  0.00    -0.003 C 
HETATM   29  C1  UNL     1      -7.562  -2.193   1.556  1.00  0.00     0.005 C 
ENDBRANCH  27  28
ENDBRANCH  26  27
ENDBRANCH  22  26
ENDBRANCH   1  20
BRANCH  11  30
HETATM   30  O2  UNL     1       6.452   0.443  -2.648  1.00  0.00    -0.387 OA
HETATM   31  C16 UNL     1       7.691   1.080  -2.608  1.00  0.00     0.202 C 
ENDBRANCH  11  30
TORSDOF 5
