REMARK  2 active torsions:
REMARK  status: ('A' for Active; 'I' for Inactive)
REMARK    1  A    between atoms: O1_2  and  C2_3 
REMARK    2  A    between atoms: C14_18  and  O3_19 
ROOT
HETATM    1  C2  UNL     1      -2.967  -0.761   0.168  1.00  0.00     0.098 A 
HETATM    2  C3  UNL     1      -2.077  -1.684   0.500  1.00  0.00     0.018 A 
HETATM    3  C4  UNL     1      -0.619  -1.570   0.685  1.00  0.00     0.073 A 
HETATM    4  C5  UNL     1      -0.218  -0.181   0.436  1.00  0.00     0.001 A 
HETATM    5  C6  UNL     1       1.025   0.227   0.527  1.00  0.00     0.177 C 
HETATM    6  N1  UNL     1       1.331   1.673   0.252  1.00  0.00    -0.219 NA
HETATM    7  C7  UNL     1       2.279   2.144  -0.585  1.00  0.00     0.210 C 
HETATM    8  N2  UNL     1       3.652   1.684  -0.952  1.00  0.00    -0.354 N 
HETATM    9  C8  UNL     1       4.287   0.506  -0.370  1.00  0.00     0.016 C 
HETATM   10  C9  UNL     1       4.937  -0.549  -0.983  1.00  0.00     0.028 C 
HETATM   11  C10 UNL     1       4.150  -1.711  -0.328  1.00  0.00     0.035 C 
HETATM   12  C11 UNL     1       3.257  -1.038   0.487  1.00  0.00     0.061 C 
HETATM   13  C12 UNL     1       4.281  -0.031   1.098  1.00  0.00     0.122 C 
HETATM   14  O2  UNL     1       1.886  -0.942   0.906  1.00  0.00    -0.295 OA
HETATM   15  C13 UNL     1      -1.173   0.856   0.070  1.00  0.00     0.051 A 
HETATM   16  C14 UNL     1      -2.458   0.580  -0.054  1.00  0.00     0.101 A 
HETATM   17  H8  UNL     1       4.411   1.940  -1.594  1.00  0.00     0.166 HD
ENDROOT
BRANCH  16  18
HETATM   18  O3  UNL     1      -3.427   1.534  -0.404  1.00  0.00    -0.353 OA
HETATM   19  C15 UNL     1      -3.808   2.468   0.589  1.00  0.00     0.210 C 
ENDBRANCH  16  18
BRANCH   1  20
HETATM   20  O1  UNL     1      -4.283  -1.194   0.073  1.00  0.00    -0.353 OA
HETATM   21  C1  UNL     1      -4.871  -1.726  -1.093  1.00  0.00     0.210 C 
ENDBRANCH   1  20
TORSDOF 2
