REMARK  8 active torsions:
REMARK  status: ('A' for Active; 'I' for Inactive)
REMARK    1  A    between atoms: C2_2  and  C3_3 
REMARK    2  A    between atoms: C2_2  and  O3_29 
REMARK    3  A    between atoms: C3_3  and  C4_4 
REMARK    4  A    between atoms: C5_5  and  C6_6 
REMARK    5  A    between atoms: C9_11  and  O1_12 
REMARK    6  A    between atoms: O1_12  and  C10_13 
REMARK    7  A    between atoms: C13_16  and  N3_17 
REMARK       I    between atoms: N3_17  and  C14_18 
REMARK       I    between atoms: C14_18  and  N4_20 
REMARK    8  A    between atoms: N4_20  and  C15_21 
ROOT
HETATM    1  C10 UNL     1       0.382  -1.934   0.133  1.00  0.00     0.178 A 
HETATM    2  C11 UNL     1       1.270  -2.182  -1.033  1.00  0.00     0.011 A 
HETATM    3  C12 UNL     1       2.221  -1.262  -1.179  1.00  0.00     0.028 A 
HETATM    4  C13 UNL     1       2.023  -0.331  -0.106  1.00  0.00     0.035 A 
HETATM    5  C21 UNL     1       0.989  -0.664   0.672  1.00  0.00     0.039 A 
ENDROOT
BRANCH   1   6
HETATM    6  O1  UNL     1      -0.935  -1.726  -0.275  1.00  0.00    -0.320 OA
BRANCH   6   7
HETATM    7  C9  UNL     1      -1.989  -2.430   0.241  1.00  0.00     0.178 A 
HETATM    8  C6  UNL     1      -3.244  -2.131  -0.241  1.00  0.00     0.034 A 
HETATM    9  C7  UNL     1      -4.240  -2.878   0.326  1.00  0.00     0.133 A 
HETATM   10  N1  UNL     1      -4.016  -3.813   1.262  1.00  0.00    -0.253 NA
HETATM   11  C8  UNL     1      -2.780  -4.070   1.700  1.00  0.00     0.235 A 
HETATM   12  N2  UNL     1      -1.775  -3.367   1.178  1.00  0.00    -0.217 NA
BRANCH   8  13
HETATM   13  C5  UNL     1      -3.415  -1.108  -1.249  1.00  0.00     0.013 C 
HETATM   14  C4  UNL     1      -4.482  -0.638  -1.851  1.00  0.00    -0.019 C 
BRANCH  14  15
HETATM   15  C3  UNL     1      -5.925  -0.631  -2.063  1.00  0.00     0.090 C 
BRANCH  15  16
HETATM   16  C2  UNL     1      -6.523   0.711  -1.764  1.00  0.00     0.040 C 
HETATM   17  C1  UNL     1      -7.197   1.632  -2.394  1.00  0.00     0.046 C 
BRANCH  16  18
HETATM   18  O3  UNL     1      -6.246   0.991  -0.436  1.00  0.00    -0.361 OA
HETATM   19  C22 UNL     1      -6.943   1.926   0.330  1.00  0.00     0.209 C 
ENDBRANCH  16  18
ENDBRANCH  15  16
ENDBRANCH  14  15
ENDBRANCH   8  13
ENDBRANCH   6   7
ENDBRANCH   1   6
BRANCH   4  20
HETATM   20  N3  UNL     1       2.787   0.835   0.165  1.00  0.00    -0.309 N 
HETATM   21  C14 UNL     1       4.178   0.762   0.447  1.00  0.00     0.325 C 
HETATM   22  O2  UNL     1       4.692  -0.360   0.445  1.00  0.00    -0.247 OA
HETATM   23  N4  UNL     1       4.975   1.904   0.723  1.00  0.00    -0.309 N 
HETATM   24  H13 UNL     1       4.416   2.784   0.688  1.00  0.00     0.170 HD
HETATM   25  H12 UNL     1       2.316   1.769   0.158  1.00  0.00     0.170 HD
BRANCH  23  26
HETATM   26  C15 UNL     1       6.347   1.975   1.018  1.00  0.00     0.036 A 
HETATM   27  C16 UNL     1       6.913   3.208   1.249  1.00  0.00     0.031 A 
HETATM   28  C17 UNL     1       8.248   3.362   1.546  1.00  0.00     0.021 A 
HETATM   29  C18 UNL     1       9.106   2.290   1.633  1.00  0.00     0.011 A 
HETATM   30 BR1  UNL     1      10.946   2.535   2.046  1.00  0.00    -0.051 Br
HETATM   31  C19 UNL     1       8.575   1.038   1.408  1.00  0.00     0.021 A 
HETATM   32  C20 UNL     1       7.234   0.931   1.113  1.00  0.00     0.031 A 
ENDBRANCH  23  26
ENDBRANCH   4  20
TORSDOF 8
