REMARK  5 active torsions:
REMARK  status: ('A' for Active; 'I' for Inactive)
REMARK    1  A    between atoms: C4_6  and  O1_7 
REMARK    2  A    between atoms: O1_7  and  C5_8 
REMARK    3  A    between atoms: C8_11  and  N3_12 
REMARK       I    between atoms: N3_12  and  C9_13 
REMARK       I    between atoms: C9_13  and  N4_15 
REMARK    4  A    between atoms: N4_15  and  C10_16 
REMARK    5  A    between atoms: C18_25  and  C19_26 
ROOT
HETATM    1  C5  UNL     1      -1.232   0.131   0.132  1.00  0.00     0.078 A 
HETATM    2  C6  UNL     1      -0.535  -1.004   0.550  1.00  0.00     0.039 A 
HETATM    3  C7  UNL     1       0.795  -0.969   0.932  1.00  0.00     0.032 A 
HETATM    4  C8  UNL     1       1.465   0.245   0.898  1.00  0.00     0.036 A 
HETATM    5  C16 UNL     1       0.775   1.373   0.484  1.00  0.00     0.032 A 
HETATM    6  C17 UNL     1      -0.542   1.321   0.109  1.00  0.00     0.039 A 
ENDROOT
BRANCH   4   7
HETATM    7  N3  UNL     1       2.839   0.353   1.279  1.00  0.00    -0.309 N 
HETATM    8  C9  UNL     1       3.838   0.185   0.299  1.00  0.00     0.325 C 
HETATM    9  O2  UNL     1       3.428  -0.049  -0.846  1.00  0.00    -0.247 OA
HETATM   10  N4  UNL     1       5.233   0.265   0.537  1.00  0.00    -0.309 N 
HETATM   11  H8  UNL     1       5.428   0.467   1.543  1.00  0.00     0.170 HD
HETATM   12  H7  UNL     1       3.143   0.556   2.278  1.00  0.00     0.170 HD
BRANCH  10  13
HETATM   13  C10 UNL     1       6.307   0.115  -0.363  1.00  0.00     0.036 A 
HETATM   14  C11 UNL     1       7.589   0.239   0.111  1.00  0.00     0.031 A 
HETATM   15  C12 UNL     1       8.692   0.106  -0.702  1.00  0.00     0.021 A 
HETATM   16  C13 UNL     1       8.568  -0.161  -2.049  1.00  0.00     0.011 A 
HETATM   17 BR1  UNL     1      10.171  -0.321  -3.066  1.00  0.00    -0.051 Br
HETATM   18  C14 UNL     1       7.287  -0.289  -2.545  1.00  0.00     0.021 A 
HETATM   19  C15 UNL     1       6.220  -0.151  -1.709  1.00  0.00     0.031 A 
ENDBRANCH  10  13
ENDBRANCH   4   7
BRANCH   1  20
HETATM   20  O1  UNL     1      -2.550  -0.127  -0.204  1.00  0.00    -0.291 OA
BRANCH  20  21
HETATM   21  C4  UNL     1      -3.477  -0.020   0.820  1.00  0.00     0.179 A 
HETATM   22  N2  UNL     1      -3.084   0.318   2.062  1.00  0.00    -0.217 NA
HETATM   23  C3  UNL     1      -3.975   0.425   3.062  1.00  0.00     0.236 A 
HETATM   24  N1  UNL     1      -5.258   0.177   2.754  1.00  0.00    -0.246 NA
HETATM   25  C2  UNL     1      -5.699  -0.164   1.527  1.00  0.00     0.043 A 
HETATM   26  C1  UNL     1      -7.165  -0.415   1.314  1.00  0.00     0.071 C 
HETATM   27  C18 UNL     1      -4.783  -0.279   0.473  1.00  0.00     0.028 A 
BRANCH  27  28
HETATM   28  C19 UNL     1      -5.345  -0.651  -0.807  1.00  0.00     0.073 C 
HETATM   29  C20 UNL     1      -5.830   0.576  -1.593  1.00  0.00     0.179 C 
HETATM   30  O3  UNL     1      -5.635  -0.241  -2.736  1.00  0.00    -0.390 OA
HETATM   31  C21 UNL     1      -4.504  -0.729  -2.025  1.00  0.00     0.179 C 
ENDBRANCH  27  28
ENDBRANCH  20  21
ENDBRANCH   1  20
TORSDOF 5
