REMARK  7 active torsions:
REMARK  status: ('A' for Active; 'I' for Inactive)
REMARK    1  A    between atoms: C2_2  and  C3_3 
REMARK    2  A    between atoms: C3_3  and  C4_4 
REMARK    3  A    between atoms: C4_4  and  N1_5 
REMARK       I    between atoms: N1_5  and  C5_6 
REMARK       I    between atoms: C5_6  and  N2_8 
REMARK    4  A    between atoms: N2_8  and  C6_9 
REMARK    5  A    between atoms: C10_14  and  O3_15 
REMARK    6  A    between atoms: O3_15  and  C11_16 
REMARK    7  A    between atoms: C16_23  and  O4_24 
ROOT
HETATM    1  C6  UNL     1       0.918  -1.172  -1.046  1.00  0.00     0.036 C 
HETATM    2  C7  UNL     1       0.526  -2.402  -0.782  1.00  0.00     0.031 C 
HETATM    3  C8  UNL     1      -0.340  -2.989   0.233  1.00  0.00     0.026 C 
HETATM    4  C9  UNL     1      -0.903  -2.592   1.384  1.00  0.00     0.138 C 
HETATM    5  O2  UNL     1      -0.784  -1.343   1.978  1.00  0.00    -0.328 OA
HETATM    6  C10 UNL     1      -1.019  -0.022   1.627  1.00  0.00     0.298 C 
HETATM    7  C20 UNL     1      -0.113   0.547   0.614  1.00  0.00     0.036 C 
HETATM    8  C21 UNL     1       0.635   0.123  -0.413  1.00  0.00     0.030 C 
ENDROOT
BRANCH   6   9
HETATM    9  O3  UNL     1      -2.381   0.268   1.315  1.00  0.00    -0.298 OA
BRANCH   9  10
HETATM   10  C11 UNL     1      -3.091   1.134   2.142  1.00  0.00     0.181 A 
HETATM   11  N3  UNL     1      -2.571   1.733   3.244  1.00  0.00    -0.217 NA
HETATM   12  C12 UNL     1      -3.317   2.562   4.001  1.00  0.00     0.236 A 
HETATM   13  N4  UNL     1      -4.597   2.805   3.668  1.00  0.00    -0.241 NA
HETATM   14  C13 UNL     1      -5.179   2.245   2.587  1.00  0.00     0.072 A 
HETATM   15  C14 UNL     1      -6.503   2.512   2.265  1.00  0.00     0.035 A 
HETATM   16  C19 UNL     1      -4.409   1.384   1.799  1.00  0.00     0.048 A 
HETATM   17  C15 UNL     1      -7.030   1.891   1.130  1.00  0.00     0.039 A 
HETATM   18  C16 UNL     1      -6.269   1.041   0.350  1.00  0.00     0.069 A 
HETATM   19  C18 UNL     1      -4.958   0.788   0.687  1.00  0.00     0.055 A 
BRANCH  18  20
HETATM   20  O4  UNL     1      -6.969   0.525  -0.731  1.00  0.00    -0.356 OA
HETATM   21  C17 UNL     1      -6.357  -0.365  -1.642  1.00  0.00     0.210 C 
ENDBRANCH  18  20
ENDBRANCH   9  10
ENDBRANCH   6   9
BRANCH   1  22
HETATM   22  N2  UNL     1       1.800  -1.015  -2.171  1.00  0.00    -0.309 N 
HETATM   23  C5  UNL     1       3.065  -0.445  -1.829  1.00  0.00     0.320 C 
HETATM   24  N1  UNL     1       4.083  -0.205  -2.789  1.00  0.00    -0.343 N 
HETATM   25  O1  UNL     1       3.160  -0.192  -0.615  1.00  0.00    -0.247 OA
HETATM   26  H10 UNL     1       3.912  -0.452  -3.805  1.00  0.00     0.164 HD
HETATM   27  H11 UNL     1       1.596  -1.276  -3.181  1.00  0.00     0.170 HD
BRANCH  24  28
HETATM   28  C4  UNL     1       5.349   0.369  -2.417  1.00  0.00     0.124 C 
BRANCH  28  29
HETATM   29  C3  UNL     1       6.015  -0.537  -1.422  1.00  0.00     0.019 C 
BRANCH  29  30
HETATM   30  C2  UNL     1       7.361  -0.005  -0.977  1.00  0.00    -0.003 C 
HETATM   31  C1  UNL     1       7.909  -1.015   0.018  1.00  0.00     0.005 C 
ENDBRANCH  29  30
ENDBRANCH  28  29
ENDBRANCH  24  28
ENDBRANCH   1  22
TORSDOF 7
