REMARK  7 active torsions:
REMARK  status: ('A' for Active; 'I' for Inactive)
REMARK       I    between atoms: C1_2  and  N1_3 
REMARK       I    between atoms: C1_2  and  N2_11 
REMARK    1  A    between atoms: N1_3  and  C2_4 
REMARK    2  A    between atoms: C3_5  and  C4_6 
REMARK    3  A    between atoms: C5_7  and  S1_8 
REMARK    4  A    between atoms: S1_8  and  C6_9 
REMARK    5  A    between atoms: N2_11  and  C7_12 
REMARK    6  A    between atoms: C10_15  and  O2_16 
REMARK    7  A    between atoms: O2_16  and  C11_17 
ROOT
HETATM    1  C7  UNL     1       0.042  -1.802  -0.203  1.00  0.00     0.036 A 
HETATM    2  C8  UNL     1      -0.293  -0.597  -0.836  1.00  0.00     0.032 A 
HETATM    3  C9  UNL     1      -1.595  -0.090  -0.784  1.00  0.00     0.039 A 
HETATM    4  C10 UNL     1      -2.578  -0.765  -0.108  1.00  0.00     0.078 A 
HETATM    5  C18 UNL     1      -2.229  -1.963   0.517  1.00  0.00     0.039 A 
HETATM    6  C19 UNL     1      -0.944  -2.481   0.475  1.00  0.00     0.032 A 
ENDROOT
BRANCH   1   7
HETATM    7  N2  UNL     1       1.410  -2.055  -0.430  1.00  0.00    -0.309 N 
HETATM    8  C1  UNL     1       2.451  -1.578   0.412  1.00  0.00     0.324 C 
HETATM    9  O1  UNL     1       2.287  -0.887   1.449  1.00  0.00    -0.247 OA
HETATM   10  N1  UNL     1       3.762  -1.936   0.004  1.00  0.00    -0.319 N 
HETATM   11  H1  UNL     1       3.947  -2.519  -0.852  1.00  0.00     0.170 HD
HETATM   12  H8  UNL     1       1.575  -2.629  -1.282  1.00  0.00     0.170 HD
BRANCH  10  13
HETATM   13  C2  UNL     1       4.959  -1.546   0.710  1.00  0.00     0.092 C 
HETATM   14  C3  UNL     1       5.806  -0.821   0.003  1.00  0.00     0.018 C 
BRANCH  14  15
HETATM   15  C4  UNL     1       7.067  -0.339   0.555  1.00  0.00     0.008 C 
HETATM   16  C5  UNL     1       7.930   0.392  -0.144  1.00  0.00     0.047 C 
BRANCH  16  17
HETATM   17  S1  UNL     1       9.479   1.036   0.396  1.00  0.00    -0.110 SA
BRANCH  17  18
HETATM   18  C6  UNL     1       9.664   2.798   0.005  1.00  0.00     0.300 C 
HETATM   19  F1  UNL     1       8.725   3.480   0.770  1.00  0.00    -0.244 F 
ENDBRANCH  17  18
ENDBRANCH  16  17
ENDBRANCH  14  15
ENDBRANCH  10  13
ENDBRANCH   1   7
BRANCH   4  20
HETATM   20  O2  UNL     1      -3.896  -0.498   0.092  1.00  0.00    -0.291 OA
BRANCH  20  21
HETATM   21  C11 UNL     1      -4.629   0.571  -0.324  1.00  0.00     0.181 A 
HETATM   22  N3  UNL     1      -4.137   1.583  -1.031  1.00  0.00    -0.217 NA
HETATM   23  C12 UNL     1      -4.877   2.623  -1.430  1.00  0.00     0.236 A 
HETATM   24  N4  UNL     1      -6.184   2.681  -1.121  1.00  0.00    -0.241 NA
HETATM   25  C13 UNL     1      -6.703   1.673  -0.409  1.00  0.00     0.072 A 
HETATM   26  C14 UNL     1      -5.987   0.578   0.028  1.00  0.00     0.048 A 
HETATM   27  C17 UNL     1      -8.120   1.744  -0.079  1.00  0.00     0.056 A 
HETATM   28  C15 UNL     1      -6.530  -0.549   0.813  1.00  0.00     0.220 A 
HETATM   29  O3  UNL     1      -7.901  -0.343   1.053  1.00  0.00    -0.358 OA
HETATM   30  C16 UNL     1      -8.632   0.749   0.622  1.00  0.00     0.137 A 
ENDBRANCH  20  21
ENDBRANCH   4  20
TORSDOF 7
