REMARK  5 active torsions:
REMARK  status: ('A' for Active; 'I' for Inactive)
REMARK    1  A    between atoms: O1_2  and  C2_3 
REMARK    2  A    between atoms: C6_9  and  O2_10 
REMARK    3  A    between atoms: O2_10  and  C7_11 
REMARK       I    between atoms: N3_14  and  C10_15 
REMARK       I    between atoms: C10_15  and  N4_17 
REMARK    4  A    between atoms: N4_17  and  C11_18 
REMARK    5  A    between atoms: C21_30  and  O4_31 
ROOT
HETATM    1  C7  UNL     1       0.024  -0.530   0.398  1.00  0.00     0.091 C 
HETATM    2  C8  UNL     1       0.594   0.485   1.003  1.00  0.00     0.028 C 
HETATM    3  C9  UNL     1       1.867   0.665   0.748  1.00  0.00     0.116 C 
HETATM    4  N3  UNL     1       2.755  -0.281   0.153  1.00  0.00    -0.284 N 
HETATM    5  C10 UNL     1       4.137  -0.007   0.103  1.00  0.00     0.331 C 
HETATM    6  O3  UNL     1       4.516   1.085   0.600  1.00  0.00    -0.246 OA
HETATM    7  N4  UNL     1       5.053  -0.919  -0.479  1.00  0.00    -0.305 N 
HETATM    8  C17 UNL     1       2.144  -1.461  -0.357  1.00  0.00     0.104 C 
HETATM    9  C18 UNL     1       0.825  -1.579  -0.238  1.00  0.00     0.056 C 
HETATM   10  H7  UNL     1       4.758  -1.823  -0.893  1.00  0.00     0.171 HD
ENDROOT
BRANCH   1  11
HETATM   11  O2  UNL     1      -1.375  -0.581   0.376  1.00  0.00    -0.290 OA
BRANCH  11  12
HETATM   12  C6  UNL     1      -2.041   0.620   0.192  1.00  0.00     0.183 A 
HETATM   13  N2  UNL     1      -1.415   1.817   0.035  1.00  0.00    -0.217 NA
HETATM   14  C5  UNL     1      -2.157   2.949  -0.140  1.00  0.00     0.236 A 
HETATM   15  N1  UNL     1      -3.520   2.917  -0.164  1.00  0.00    -0.241 NA
HETATM   16  C4  UNL     1      -4.163   1.745  -0.011  1.00  0.00     0.075 A 
HETATM   17  C3  UNL     1      -5.537   1.732  -0.037  1.00  0.00     0.072 A 
HETATM   18  C19 UNL     1      -3.420   0.594   0.168  1.00  0.00     0.049 A 
HETATM   19  C2  UNL     1      -6.244   0.558   0.115  1.00  0.00     0.103 A 
HETATM   20  C21 UNL     1      -5.529  -0.629   0.298  1.00  0.00     0.102 A 
HETATM   21  C20 UNL     1      -4.145  -0.580   0.319  1.00  0.00     0.057 A 
BRANCH  19  22
HETATM   22  O1  UNL     1      -7.626   0.410   0.107  1.00  0.00    -0.353 OA
HETATM   23  C1  UNL     1      -8.421   1.552  -0.071  1.00  0.00     0.210 C 
ENDBRANCH  19  22
BRANCH  20  24
HETATM   24  O4  UNL     1      -6.175  -1.859   0.459  1.00  0.00    -0.353 OA
HETATM   25  C22 UNL     1      -5.351  -2.983   0.635  1.00  0.00     0.210 C 
ENDBRANCH  20  24
ENDBRANCH  11  12
ENDBRANCH   1  11
BRANCH   7  26
HETATM   26  C11 UNL     1       6.414  -0.537  -0.471  1.00  0.00     0.075 A 
HETATM   27  C12 UNL     1       7.134  -0.925   0.626  1.00  0.00     0.036 A 
HETATM   28  C13 UNL     1       8.472  -0.596   0.719  1.00  0.00     0.044 A 
HETATM   29  C14 UNL     1       9.038   0.123  -0.315  1.00  0.00     0.119 A 
HETATM   30  F1  UNL     1      10.363   0.427  -0.181  1.00  0.00    -0.206 F 
HETATM   31  C15 UNL     1       8.345   0.542  -1.454  1.00  0.00     0.086 A 
HETATM   32  C16 UNL     1       7.013   0.180  -1.483  1.00  0.00     0.146 A 
HETATM   33  F2  UNL     1       6.257   0.549  -2.562  1.00  0.00    -0.204 F 
ENDBRANCH   7  26
TORSDOF 5
