REMARK  8 active torsions:
REMARK  status: ('A' for Active; 'I' for Inactive)
REMARK    1  A    between atoms: O1_2  and  C2_3 
REMARK    2  A    between atoms: C3_4  and  C4_5 
REMARK    3  A    between atoms: C6_7  and  O2_8 
REMARK    4  A    between atoms: O2_8  and  C7_9 
REMARK    5  A    between atoms: C10_12  and  N1_13 
REMARK       I    between atoms: N1_13  and  C11_14 
REMARK       I    between atoms: C11_14  and  N2_16 
REMARK    6  A    between atoms: N2_16  and  C12_17 
REMARK    7  A    between atoms: C13_18  and  C14_19 
REMARK    8  A    between atoms: C15_20  and  C16_21 
ROOT
HETATM    1  C7  UNL     1      -1.458   0.174  -0.582  1.00  0.00     0.078 A 
HETATM    2  C8  UNL     1      -1.033   0.106   0.722  1.00  0.00     0.039 A 
HETATM    3  C9  UNL     1       0.225  -0.286   1.085  1.00  0.00     0.032 A 
HETATM    4  C10 UNL     1       1.136  -0.637   0.125  1.00  0.00     0.036 A 
HETATM    5  C17 UNL     1       0.748  -0.582  -1.218  1.00  0.00     0.032 A 
HETATM    6  C18 UNL     1      -0.546  -0.178  -1.570  1.00  0.00     0.039 A 
ENDROOT
BRANCH   4   7
HETATM    7  N1  UNL     1       2.480  -1.067   0.339  1.00  0.00    -0.309 N 
HETATM    8  C11 UNL     1       3.506  -0.084   0.379  1.00  0.00     0.324 C 
HETATM    9  O3  UNL     1       3.269   1.142   0.235  1.00  0.00    -0.247 OA
HETATM   10  N2  UNL     1       4.806  -0.607   0.594  1.00  0.00    -0.319 N 
HETATM   11  H10 UNL     1       5.016  -1.633   0.716  1.00  0.00     0.170 HD
HETATM   12  H9  UNL     1       2.637  -2.092   0.456  1.00  0.00     0.170 HD
BRANCH  10  13
HETATM   13  C12 UNL     1       6.070   0.036   0.697  1.00  0.00     0.092 C 
HETATM   14  C13 UNL     1       6.853  -0.038   1.779  1.00  0.00     0.017 C 
BRANCH  14  15
HETATM   15  C14 UNL     1       6.410  -0.811   2.925  1.00  0.00    -0.000 C 
HETATM   16  C15 UNL     1       7.128  -0.921   4.008  1.00  0.00     0.004 C 
BRANCH  16  17
HETATM   17  C16 UNL     1       8.452  -0.332   4.297  1.00  0.00     0.249 C 
HETATM   18  F1  UNL     1       9.393  -1.332   4.562  1.00  0.00    -0.251 F 
ENDBRANCH  16  17
ENDBRANCH  14  15
ENDBRANCH  10  13
ENDBRANCH   4   7
BRANCH   1  19
HETATM   19  O2  UNL     1      -2.671   0.544  -1.087  1.00  0.00    -0.292 OA
BRANCH  19  20
HETATM   20  C6  UNL     1      -3.727  -0.302  -1.321  1.00  0.00     0.173 A 
HETATM   21  C5  UNL     1      -4.910   0.180  -1.840  1.00  0.00     0.090 A 
HETATM   22  C4  UNL     1      -6.014  -0.585  -2.107  1.00  0.00     0.064 A 
HETATM   23  N4  UNL     1      -5.902  -1.895  -1.831  1.00  0.00    -0.242 NA
HETATM   24  C19 UNL     1      -4.784  -2.404  -1.330  1.00  0.00     0.236 A 
HETATM   25  N3  UNL     1      -3.706  -1.639  -1.073  1.00  0.00    -0.217 NA
BRANCH  22  26
HETATM   26  C3  UNL     1      -7.261  -0.081  -2.656  1.00  0.00     0.055 C 
HETATM   27  C2  UNL     1      -7.479   1.183  -2.965  1.00  0.00     0.136 C 
BRANCH  27  28
HETATM   28  O1  UNL     1      -6.771   2.367  -2.919  1.00  0.00    -0.368 OA
HETATM   29  C1  UNL     1      -7.125   3.477  -2.123  1.00  0.00     0.208 C 
ENDBRANCH  27  28
ENDBRANCH  22  26
ENDBRANCH  19  20
ENDBRANCH   1  19
TORSDOF 8
