REMARK  7 active torsions:
REMARK  status: ('A' for Active; 'I' for Inactive)
REMARK    1  A    between atoms: O1_2  and  C2_3 
REMARK    2  A    between atoms: C5_6  and  O2_7 
REMARK    3  A    between atoms: O2_7  and  C6_8 
REMARK    4  A    between atoms: C9_11  and  N1_12 
REMARK       I    between atoms: N1_12  and  C10_13 
REMARK       I    between atoms: C10_13  and  N2_15 
REMARK    5  A    between atoms: N2_15  and  C11_16 
REMARK    6  A    between atoms: C14_19  and  C15_20 
REMARK    7  A    between atoms: C21_29  and  O4_30 
ROOT
HETATM    1  C6  UNL     1      -1.275   1.353   0.006  1.00  0.00     0.069 A 
HETATM    2  C7  UNL     1      -0.833   1.159  -1.275  1.00  0.00     0.039 A 
HETATM    3  C8  UNL     1       0.411   1.569  -1.697  1.00  0.00     0.032 A 
HETATM    4  C9  UNL     1       1.282   2.206  -0.833  1.00  0.00     0.036 A 
HETATM    5  C18 UNL     1       0.866   2.419   0.473  1.00  0.00     0.032 A 
HETATM    6  C19 UNL     1      -0.399   1.995   0.880  1.00  0.00     0.039 A 
ENDROOT
BRANCH   4   7
HETATM    7  N1  UNL     1       2.562   2.622  -1.295  1.00  0.00    -0.309 N 
HETATM    8  C10 UNL     1       3.647   1.694  -1.183  1.00  0.00     0.325 C 
HETATM    9  O3  UNL     1       3.365   0.564  -0.673  1.00  0.00    -0.247 OA
HETATM   10  N2  UNL     1       5.019   1.878  -1.575  1.00  0.00    -0.309 N 
HETATM   11  H11 UNL     1       5.183   2.838  -1.989  1.00  0.00     0.170 HD
HETATM   12  H10 UNL     1       2.847   3.535  -1.722  1.00  0.00     0.170 HD
BRANCH  10  13
HETATM   13  C11 UNL     1       5.872   0.741  -1.328  1.00  0.00     0.036 A 
HETATM   14  C12 UNL     1       6.097  -0.285  -2.224  1.00  0.00     0.030 A 
HETATM   15  C13 UNL     1       6.940  -1.309  -1.848  1.00  0.00     0.018 A 
HETATM   16  C14 UNL     1       7.559  -1.339  -0.614  1.00  0.00     0.048 A 
HETATM   17  C16 UNL     1       7.346  -0.311   0.311  1.00  0.00     0.018 A 
HETATM   18  C17 UNL     1       6.501   0.705  -0.081  1.00  0.00     0.030 A 
BRANCH  16  19
HETATM   19  C15 UNL     1       8.466  -2.441  -0.212  1.00  0.00     0.417 C 
HETATM   20  F1  UNL     1       8.462  -2.615   1.171  1.00  0.00    -0.166 F 
HETATM   21  F2  UNL     1       8.049  -3.663  -0.728  1.00  0.00    -0.166 F 
HETATM   22  F3  UNL     1       9.755  -2.242  -0.633  1.00  0.00    -0.166 F 
ENDBRANCH  16  19
ENDBRANCH  10  13
ENDBRANCH   4   7
BRANCH   1  23
HETATM   23  O2  UNL     1      -2.439   1.042   0.643  1.00  0.00    -0.342 OA
BRANCH  23  24
HETATM   24  C5  UNL     1      -3.563   0.390   0.099  1.00  0.00     0.158 A 
HETATM   25  C4  UNL     1      -4.793   1.244   0.109  1.00  0.00     0.066 A 
HETATM   26  C3  UNL     1      -5.895   0.531   0.796  1.00  0.00     0.015 A 
HETATM   27  C2  UNL     1      -6.094  -0.631   1.395  1.00  0.00     0.097 A 
HETATM   28  C21 UNL     1      -4.889  -1.460   1.383  1.00  0.00     0.100 A 
HETATM   29  C20 UNL     1      -3.857  -0.889   0.783  1.00  0.00     0.045 A 
BRANCH  27  30
HETATM   30  O1  UNL     1      -7.210  -1.177   2.009  1.00  0.00    -0.353 OA
HETATM   31  C1  UNL     1      -8.388  -0.476   2.262  1.00  0.00     0.210 C 
ENDBRANCH  27  30
BRANCH  28  32
HETATM   32  O4  UNL     1      -4.727  -2.730   1.914  1.00  0.00    -0.353 OA
HETATM   33  C22 UNL     1      -5.762  -3.688   1.866  1.00  0.00     0.210 C 
ENDBRANCH  28  32
ENDBRANCH  23  24
ENDBRANCH   1  23
TORSDOF 7
