REMARK  7 active torsions:
REMARK  status: ('A' for Active; 'I' for Inactive)
REMARK    1  A    between atoms: C2_2  and  C3_3 
REMARK    2  A    between atoms: C4_4  and  N1_5 
REMARK       I    between atoms: N1_5  and  C5_6 
REMARK       I    between atoms: C5_6  and  N2_8 
REMARK    3  A    between atoms: N2_8  and  C6_9 
REMARK    4  A    between atoms: C9_12  and  O2_13 
REMARK    5  A    between atoms: O2_13  and  C10_14 
REMARK    6  A    between atoms: C14_20  and  O3_21 
REMARK    7  A    between atoms: C16_23  and  O4_24 
ROOT
HETATM    1  C6  UNL     1       2.445   0.443  -1.239  1.00  0.00     0.036 A 
HETATM    2  C7  UNL     1       2.058   1.063  -0.072  1.00  0.00     0.032 A 
HETATM    3  C8  UNL     1       0.700   1.125   0.252  1.00  0.00     0.039 A 
HETATM    4  C9  UNL     1      -0.193   0.552  -0.630  1.00  0.00     0.078 A 
HETATM    5  C20 UNL     1       0.168  -0.075  -1.803  1.00  0.00     0.039 A 
HETATM    6  C21 UNL     1       1.528  -0.122  -2.101  1.00  0.00     0.032 A 
ENDROOT
BRANCH   4   7
HETATM    7  O2  UNL     1      -1.566   0.562  -0.395  1.00  0.00    -0.291 OA
BRANCH   7   8
HETATM    8  C10 UNL     1      -2.219  -0.441   0.298  1.00  0.00     0.183 A 
HETATM    9  N3  UNL     1      -1.454  -1.452   0.747  1.00  0.00    -0.217 NA
HETATM   10  C11 UNL     1      -2.044  -2.449   1.425  1.00  0.00     0.236 A 
HETATM   11  N4  UNL     1      -3.388  -2.433   1.652  1.00  0.00    -0.241 NA
HETATM   12  C12 UNL     1      -4.131  -1.405   1.189  1.00  0.00     0.075 A 
HETATM   13  C13 UNL     1      -5.497  -1.419   1.437  1.00  0.00     0.072 A 
HETATM   14  C19 UNL     1      -3.565  -0.349   0.481  1.00  0.00     0.049 A 
HETATM   15  C14 UNL     1      -6.235  -0.359   0.956  1.00  0.00     0.103 A 
HETATM   16  C16 UNL     1      -5.692   0.695   0.252  1.00  0.00     0.102 A 
HETATM   17  C18 UNL     1      -4.321   0.707   0.005  1.00  0.00     0.057 A 
BRANCH  15  18
HETATM   18  O3  UNL     1      -7.605  -0.346   1.188  1.00  0.00    -0.353 OA
HETATM   19  C15 UNL     1      -8.305  -1.337   1.882  1.00  0.00     0.210 C 
ENDBRANCH  15  18
BRANCH  16  20
HETATM   20  O4  UNL     1      -6.497   1.708  -0.190  1.00  0.00    -0.353 OA
HETATM   21  C17 UNL     1      -5.955   2.802  -0.916  1.00  0.00     0.210 C 
ENDBRANCH  16  20
ENDBRANCH   7   8
ENDBRANCH   4   7
BRANCH   1  22
HETATM   22  N2  UNL     1       3.855   0.466  -1.419  1.00  0.00    -0.309 N 
HETATM   23  C5  UNL     1       4.824  -0.482  -0.992  1.00  0.00     0.324 C 
HETATM   24  N1  UNL     1       6.151  -0.127  -1.352  1.00  0.00    -0.319 N 
HETATM   25  O1  UNL     1       4.536  -1.531  -0.358  1.00  0.00    -0.247 OA
HETATM   26  H6  UNL     1       6.417   0.736  -1.876  1.00  0.00     0.170 HD
HETATM   27  H7  UNL     1       4.069   1.341  -1.944  1.00  0.00     0.170 HD
BRANCH  24  28
HETATM   28  C4  UNL     1       7.244  -0.967  -1.001  1.00  0.00     0.092 C 
HETATM   29  C3  UNL     1       8.237  -0.509  -0.222  1.00  0.00     0.016 C 
BRANCH  29  30
HETATM   30  C2  UNL     1       9.431  -1.224   0.238  1.00  0.00    -0.009 C 
HETATM   31  C1  UNL     1      10.370  -0.703   1.007  1.00  0.00     0.011 C 
ENDBRANCH  29  30
ENDBRANCH  24  28
ENDBRANCH   1  22
TORSDOF 7
