REMARK  3 active torsions:
REMARK  status: ('A' for Active; 'I' for Inactive)
REMARK    1  A    between atoms: O1_2  and  C2_3 
REMARK    2  A    between atoms: C8_10  and  B1_11 
REMARK    3  A    between atoms: B1_11  and  C9_12 
ROOT
HETATM    1  C2  UNL     1      -1.055   2.181  -0.184  1.00  0.00     0.082 C 
HETATM    2  C3  UNL     1      -0.117   3.071  -0.390  1.00  0.00     0.072 C 
HETATM    3  C4  UNL     1       1.318   2.653  -0.308  1.00  0.00     0.074 C 
HETATM    4  C5  UNL     1       2.179   2.983   0.689  1.00  0.00     0.029 C 
HETATM    5  C6  UNL     1       3.139   1.878   1.078  1.00  0.00     0.145 C 
HETATM    6  N1  UNL     1       2.548   0.610   1.264  1.00  0.00    -0.406 N 
HETATM    7  C7  UNL     1       2.272  -0.283   0.251  1.00  0.00     0.151 C 
HETATM    8  C8  UNL     1       1.837   0.398  -1.064  1.00  0.00     0.012 C 
HETATM    9  O2  UNL     1       1.789   1.799  -1.419  1.00  0.00    -0.330 OA
HETATM   10  C10 UNL     1       0.945  -1.034   0.560  1.00  0.00    -0.031 C 
HETATM   11  C11 UNL     1       1.355  -2.237   0.822  1.00  0.00     0.012 C 
HETATM   12  C12 UNL     1       0.185  -3.106   1.141  1.00  0.00     0.044 C 
HETATM   13  C13 UNL     1      -1.024  -3.708   1.383  1.00  0.00     0.137 C 
HETATM   14  F1  UNL     1      -1.239  -5.021   1.808  1.00  0.00    -0.204 F 
HETATM   15  C14 UNL     1      -2.335  -3.098   0.994  1.00  0.00     0.070 C 
HETATM   16 CL1  UNL     1      -3.716  -4.049   1.609  1.00  0.00    -0.081 Cl
HETATM   17  C15 UNL     1      -3.073  -2.191   0.441  1.00  0.00     0.026 C 
HETATM   18  C16 UNL     1      -2.163  -1.227  -0.163  1.00  0.00     0.198 C 
HETATM   19  O3  UNL     1      -2.189   0.094   0.290  1.00  0.00    -0.371 OA
HETATM   20  C17 UNL     1      -0.944   0.775   0.136  1.00  0.00     0.112 C 
HETATM   21  C18 UNL     1      -0.078  -0.140   0.350  1.00  0.00     0.108 C 
HETATM   22  H8  UNL     1       2.011   0.507   2.146  1.00  0.00     0.154 HD
ENDROOT
BRANCH   8  23
HETATM   23  B1  UNL     1       1.255  -0.533  -2.482  1.00  0.00     0.264 B 
BRANCH  23  24
HETATM   24  C9  UNL     1       0.787  -1.902  -3.497  1.00  0.00     0.024 C 
HETATM   25  N2  UNL     1       1.317  -2.947  -3.997  1.00  0.00    -0.328 NA
HETATM   26  H11 UNL     1       0.756  -3.607  -4.587  1.00  0.00     0.184 HD
ENDBRANCH  23  24
ENDBRANCH   8  23
BRANCH   1  27
HETATM   27  O1  UNL     1      -2.261   2.772  -0.311  1.00  0.00    -0.357 OA
HETATM   28  C1  UNL     1      -2.726   3.891   0.385  1.00  0.00     0.209 C 
ENDBRANCH   1  27
TORSDOF 3
