REMARK  6 active torsions:
REMARK  status: ('A' for Active; 'I' for Inactive)
REMARK    1  A    between atoms: N1_2  and  C2_3 
REMARK    2  A    between atoms: C2_3  and  N2_4 
REMARK    3  A    between atoms: N2_4  and  C3_5 
REMARK    4  A    between atoms: C4_6  and  C5_7 
REMARK    5  A    between atoms: C9_13  and  O1_14 
REMARK    6  A    between atoms: C11_16  and  O2_17 
ROOT
HETATM    1  C5  UNL     1       0.526  -0.444   0.220  1.00  0.00     0.072 A 
HETATM    2  N3  UNL     1       1.453   0.434   0.640  1.00  0.00    -0.241 NA
HETATM    3  C6  UNL     1       1.127   1.724   0.943  1.00  0.00     0.234 A 
HETATM    4  N4  UNL     1      -0.155   2.180   0.833  1.00  0.00    -0.241 NA
HETATM    5  C7  UNL     1      -1.130   1.346   0.417  1.00  0.00     0.073 A 
HETATM    6  C8  UNL     1      -2.445   1.733   0.282  1.00  0.00     0.072 A 
HETATM    7  C9  UNL     1      -3.447   0.892  -0.141  1.00  0.00     0.103 A 
HETATM    8  C11 UNL     1      -3.075  -0.419  -0.441  1.00  0.00     0.102 A 
HETATM    9  C13 UNL     1      -1.751  -0.790  -0.300  1.00  0.00     0.055 A 
HETATM   10  C14 UNL     1      -0.754   0.060   0.125  1.00  0.00     0.024 A 
ENDROOT
BRANCH   1  11
HETATM   11  C4  UNL     1       0.924  -1.787  -0.084  1.00  0.00     0.049 C 
HETATM   12  C3  UNL     1       2.203  -2.085   0.069  1.00  0.00     0.087 C 
BRANCH  12  13
HETATM   13  N2  UNL     1       3.288  -1.307   0.489  1.00  0.00    -0.375 N 
HETATM   14  H7  UNL     1       3.189  -0.991   1.481  1.00  0.00     0.160 HD
BRANCH  13  15
HETATM   15  C2  UNL     1       4.442  -0.957  -0.339  1.00  0.00     0.391 C 
BRANCH  15  16
HETATM   16  N1  UNL     1       5.322  -0.156   0.472  1.00  0.00     0.096 N 
HETATM   17  C1  UNL     1       4.682   1.039   0.926  1.00  0.00     0.308 C 
HETATM   18  H4  UNL     1       6.276  -0.035   0.079  1.00  0.00     0.317 HD
ENDBRANCH  15  16
ENDBRANCH  13  15
ENDBRANCH  12  13
ENDBRANCH   1  11
BRANCH   8  19
HETATM   19  O2  UNL     1      -4.076  -1.278  -0.869  1.00  0.00    -0.353 OA
HETATM   20  C12 UNL     1      -3.710  -2.608  -1.176  1.00  0.00     0.210 C 
ENDBRANCH   8  19
BRANCH   7  21
HETATM   21  O1  UNL     1      -4.761   1.273  -0.278  1.00  0.00    -0.353 OA
HETATM   22  C10 UNL     1      -5.155   2.586   0.019  1.00  0.00     0.210 C 
ENDBRANCH   7  21
TORSDOF 6
