REMARK  2 active torsions:
REMARK  status: ('A' for Active; 'I' for Inactive)
REMARK    1  A    between atoms: C2_3  and  C3_4 
REMARK       I    between atoms: N4_15  and  C11_16 
REMARK       I    between atoms: C11_16  and  N5_18 
REMARK    2  A    between atoms: N5_18  and  C12_19 
ROOT
HETATM    1  N1  UNL     1      -3.198  -3.529   2.506  1.00  0.00    -0.197 NA
HETATM    2  C1  UNL     1      -3.195  -2.362   2.542  1.00  0.00     0.059 C 
HETATM    3  C2  UNL     1      -3.167  -0.896   2.580  1.00  0.00     0.134 C 
ENDROOT
BRANCH   3   4
HETATM    4  C3  UNL     1      -3.614  -0.288   1.325  1.00  0.00    -0.008 C 
HETATM    5  C4  UNL     1      -4.707   0.524   1.419  1.00  0.00     0.064 C 
HETATM    6  C5  UNL     1      -5.444   1.310   0.366  1.00  0.00     0.102 C 
HETATM    7  N2  UNL     1      -5.503   1.634  -0.911  1.00  0.00    -0.217 NA
HETATM    8  C6  UNL     1      -6.494   2.479  -1.386  1.00  0.00     0.200 A 
HETATM    9  N3  UNL     1      -5.449   2.544  -2.118  1.00  0.00    -0.201 NA
HETATM   10  C7  UNL     1      -4.218   1.865  -2.001  1.00  0.00     0.286 C 
HETATM   11  O1  UNL     1      -4.196   0.483  -2.201  1.00  0.00    -0.336 OA
HETATM   12  C8  UNL     1      -3.147  -0.334  -1.770  1.00  0.00     0.068 C 
HETATM   13  C9  UNL     1      -2.020  -0.065  -2.447  1.00  0.00     0.029 C 
HETATM   14  C24 UNL     1      -3.116  -1.399  -0.721  1.00  0.00     0.041 C 
HETATM   15  C10 UNL     1      -0.590  -0.204  -2.042  1.00  0.00     0.158 C 
HETATM   16  N4  UNL     1      -0.432  -0.523  -0.625  1.00  0.00    -0.327 N 
HETATM   17  C11 UNL     1       0.988  -0.487  -0.448  1.00  0.00     0.323 C 
HETATM   18  C22 UNL     1      -1.164  -0.846   0.596  1.00  0.00     0.162 C 
HETATM   19  O2  UNL     1       1.746  -0.222  -1.419  1.00  0.00    -0.247 OA
HETATM   20  N5  UNL     1       1.622  -0.735   0.779  1.00  0.00    -0.309 N 
HETATM   21  H11 UNL     1       1.035  -0.959   1.613  1.00  0.00     0.170 HD
HETATM   22  C23 UNL     1      -2.596  -0.861   0.405  1.00  0.00    -0.053 C 
BRANCH  20  23
HETATM   23  C12 UNL     1       3.044  -0.628   0.643  1.00  0.00     0.037 A 
HETATM   24  C13 UNL     1       3.619  -1.840   0.308  1.00  0.00     0.030 A 
HETATM   25  C14 UNL     1       5.005  -1.889   0.141  1.00  0.00     0.014 A 
HETATM   26  C15 UNL     1       5.710  -0.720   0.323  1.00  0.00    -0.026 A 
HETATM   27  C16 UNL     1       7.087  -0.689   0.175  1.00  0.00     0.012 A 
HETATM   28  C20 UNL     1       5.115   0.489   0.659  1.00  0.00    -0.024 A 
HETATM   29  C17 UNL     1       7.837   0.457   0.346  1.00  0.00     0.001 A 
HETATM   30  C18 UNL     1       7.172   1.624   0.681  1.00  0.00     0.001 A 
HETATM   31  C19 UNL     1       5.796   1.667   0.845  1.00  0.00     0.012 A 
HETATM   32  C21 UNL     1       3.730   0.531   0.824  1.00  0.00     0.042 A 
ENDBRANCH  20  23
ENDBRANCH   3   4
TORSDOF 2
