REMARK  2 active torsions:
REMARK  status: ('A' for Active; 'I' for Inactive)
REMARK    1  A    between atoms: C13_17  and  N2_18 
REMARK       I    between atoms: N2_18  and  C14_19 
REMARK       I    between atoms: C14_19  and  N3_21 
REMARK    2  A    between atoms: N3_21  and  C15_22 
ROOT
HETATM    1  C1  UNL     1       5.171  -1.375   2.279  1.00  0.00     0.000 C 
HETATM    2  O1  UNL     1       4.032  -0.927   1.543  1.00  0.00     0.000 OA
HETATM    3  C2  UNL     1       3.935  -1.168   0.188  1.00  0.00    -0.035 A 
HETATM    4  C3  UNL     1       3.583   0.031   0.603  1.00  0.00     0.032 A 
HETATM    5  C4  UNL     1       3.197   1.398   1.191  1.00  0.00     0.072 A 
HETATM    6  C5  UNL     1       1.829   1.501   0.518  1.00  0.00    -0.062 A 
HETATM    7  C6  UNL     1       2.904   2.011  -0.027  1.00  0.00     0.154 A 
HETATM    8  O2  UNL     1       4.065   2.492  -0.488  1.00  0.00    -0.352 OA
HETATM    9  C7  UNL     1       5.175   1.781  -1.071  1.00  0.00     0.387 C 
HETATM   10  N1  UNL     1       4.960   0.518  -1.429  1.00  0.00    -0.436 NA
HETATM   11  C8  UNL     1       4.930  -0.595  -1.870  1.00  0.00     0.187 C 
HETATM   12  C9  UNL     1       3.808  -1.374  -1.309  1.00  0.00     0.203 C 
HETATM   13  O3  UNL     1       2.657  -0.775  -1.855  1.00  0.00    -0.372 OA
HETATM   14  C10 UNL     1       1.761  -1.733  -2.304  1.00  0.00     0.196 C 
HETATM   15  C11 UNL     1       0.537  -1.837  -1.523  1.00  0.00    -0.003 C 
HETATM   16  C12 UNL     1      -0.243  -1.415  -0.521  1.00  0.00    -0.003 C 
HETATM   17  C13 UNL     1       0.066  -0.252   0.399  1.00  0.00     0.044 C 
HETATM   18  C22 UNL     1       0.656   0.837   0.982  1.00  0.00     0.122 C 
ENDROOT
BRANCH  17  19
HETATM   19  N2  UNL     1      -0.921  -0.118   1.476  1.00  0.00    -0.334 N 
HETATM   20  C14 UNL     1      -2.214   0.097   0.871  1.00  0.00     0.321 C 
HETATM   21  O4  UNL     1      -2.334   0.135  -0.406  1.00  0.00    -0.247 OA
HETATM   22  N3  UNL     1      -3.477   0.284   1.548  1.00  0.00    -0.309 N 
HETATM   23  H17 UNL     1      -3.413   0.268   2.591  1.00  0.00     0.170 HD
HETATM   24  H16 UNL     1      -1.091  -0.121   2.508  1.00  0.00     0.165 HD
BRANCH  22  25
HETATM   25  C15 UNL     1      -4.683   0.475   0.815  1.00  0.00     0.036 A 
HETATM   26  C16 UNL     1      -5.322  -0.743   0.583  1.00  0.00     0.030 A 
HETATM   27  C17 UNL     1      -6.512  -0.784  -0.121  1.00  0.00     0.009 A 
HETATM   28  C18 UNL     1      -7.027   0.436  -0.577  1.00  0.00    -0.062 A 
HETATM   29  C19 UNL     1      -8.304   0.383  -1.332  1.00  0.00     0.048 C 
HETATM   30  C20 UNL     1      -6.401   1.650  -0.352  1.00  0.00     0.009 A 
HETATM   31  C21 UNL     1      -5.203   1.665   0.360  1.00  0.00     0.030 A 
ENDBRANCH  22  25
ENDBRANCH  17  19
TORSDOF 2
