REMARK  5 active torsions:
REMARK  status: ('A' for Active; 'I' for Inactive)
REMARK    1  A    between atoms: O1_2  and  C2_3 
REMARK    2  A    between atoms: O2_7  and  C6_8 
REMARK    3  A    between atoms: C9_11  and  N1_12 
REMARK       I    between atoms: N1_12  and  C10_13 
REMARK       I    between atoms: C10_13  and  N2_15 
REMARK    4  A    between atoms: N2_15  and  C11_16 
REMARK    5  A    between atoms: C25_32  and  N4_33 
ROOT
HETATM    1  C6  UNL     1      -1.598   0.191   0.218  1.00  0.00    -0.026 A 
HETATM    2  C7  UNL     1      -0.569   1.102   0.077  1.00  0.00     0.014 A 
HETATM    3  C8  UNL     1       0.769   0.887   0.318  1.00  0.00     0.030 A 
HETATM    4  C9  UNL     1       1.110  -0.392   0.752  1.00  0.00     0.036 A 
HETATM    5  C18 UNL     1       0.123  -1.368   0.921  1.00  0.00     0.030 A 
HETATM    6  C19 UNL     1      -1.230  -1.073   0.652  1.00  0.00     0.014 A 
ENDROOT
BRANCH   1   7
HETATM    7  O2  UNL     1      -2.933   0.139   0.044  1.00  0.00     0.000 OA
HETATM    8  C5  UNL     1      -3.756   1.246  -0.415  1.00  0.00     0.106 A 
HETATM    9  C4  UNL     1      -4.277   0.509   0.594  1.00  0.00     0.040 A 
HETATM   10  N3  UNL     1      -4.761   2.146  -0.561  1.00  0.00    -0.263 NA
HETATM   11  C2  UNL     1      -4.449  -0.242  -0.456  1.00  0.00     0.106 A 
HETATM   12  C3  UNL     1      -3.283   0.801  -0.362  1.00  0.00     0.073 A 
HETATM   13  C25 UNL     1      -5.181   0.168   1.337  1.00  0.00     0.073 A 
HETATM   14  C23 UNL     1      -5.569  -0.672   0.449  1.00  0.00     0.031 A 
HETATM   15  C24 UNL     1      -6.358  -0.699   1.593  1.00  0.00     0.039 A 
HETATM   16  C22 UNL     1      -6.500  -1.204  -0.641  1.00  0.00     0.042 C 
HETATM   17  C21 UNL     1      -7.051   0.040  -1.363  1.00  0.00     0.177 C 
HETATM   18  O4  UNL     1      -6.001   0.905  -1.817  1.00  0.00    -0.345 OA
HETATM   19  C20 UNL     1      -5.851   2.154  -1.175  1.00  0.00     0.246 C 
BRANCH  13  20
HETATM   20  N4  UNL     1      -4.686   1.049   2.148  1.00  0.00    -0.328 NA
HETATM   21  H24 UNL     1      -3.865   1.603   1.902  1.00  0.00     0.180 HD
ENDBRANCH  13  20
BRANCH  11  22
HETATM   22  O1  UNL     1      -4.483  -0.983  -1.667  1.00  0.00    -0.381 OA
HETATM   23  C1  UNL     1      -3.679  -2.104  -1.836  1.00  0.00     0.202 C 
ENDBRANCH  11  22
ENDBRANCH   1   7
BRANCH   4  24
HETATM   24  N1  UNL     1       2.445  -0.802   0.970  1.00  0.00    -0.309 N 
HETATM   25  C10 UNL     1       3.656  -0.141   0.732  1.00  0.00     0.325 C 
HETATM   26  O3  UNL     1       3.593   1.000   0.265  1.00  0.00    -0.247 OA
HETATM   27  N2  UNL     1       4.911  -0.695   0.986  1.00  0.00    -0.309 N 
HETATM   28  H8  UNL     1       4.876  -1.653   1.387  1.00  0.00     0.170 HD
HETATM   29  H7  UNL     1       2.591  -1.764   1.382  1.00  0.00     0.170 HD
BRANCH  27  30
HETATM   30  C11 UNL     1       6.185  -0.128   0.775  1.00  0.00     0.036 A 
HETATM   31  C12 UNL     1       7.294  -0.922   1.011  1.00  0.00     0.030 A 
HETATM   32  C13 UNL     1       8.593  -0.509   0.844  1.00  0.00     0.009 A 
HETATM   33  C14 UNL     1       8.867   0.789   0.408  1.00  0.00    -0.062 A 
HETATM   34  C15 UNL     1      10.310   1.101   0.255  1.00  0.00     0.048 C 
HETATM   35  C16 UNL     1       7.775   1.556   0.180  1.00  0.00     0.009 A 
HETATM   36  C17 UNL     1       6.469   1.168   0.340  1.00  0.00     0.030 A 
ENDBRANCH  27  30
ENDBRANCH   4  24
TORSDOF 5
