REMARK  4 active torsions:
REMARK  status: ('A' for Active; 'I' for Inactive)
REMARK    1  A    between atoms: O1_2  and  C2_3 
REMARK    2  A    between atoms: C11_14  and  N3_15 
REMARK       I    between atoms: N3_15  and  C12_16 
REMARK       I    between atoms: C12_16  and  N4_18 
REMARK    3  A    between atoms: N4_18  and  C13_19 
REMARK    4  A    between atoms: C21_27  and  O3_28 
ROOT
HETATM    1  C2  UNL     1       3.419  -0.165  -2.293  1.00  0.00     0.079 C 
HETATM    2  C3  UNL     1       4.215   0.406  -1.436  1.00  0.00     0.050 C 
HETATM    3  C4  UNL     1       5.222   0.896  -0.527  1.00  0.00     0.009 A 
HETATM    4  C5  UNL     1       6.351   1.550  -0.876  1.00  0.00     0.131 A 
HETATM    5  N1  UNL     1       7.137   1.935   0.137  1.00  0.00    -0.253 NA
HETATM    6  C6  UNL     1       6.838   1.692   1.404  1.00  0.00     0.232 A 
HETATM    7  N2  UNL     1       5.702   1.032   1.766  1.00  0.00    -0.245 NA
HETATM    8  C7  UNL     1       4.844   0.608   0.784  1.00  0.00     0.056 A 
HETATM    9  C8  UNL     1       3.858   0.016   1.661  1.00  0.00     0.075 C 
HETATM   10  C9  UNL     1       2.648  -0.418   1.835  1.00  0.00    -0.012 C 
HETATM   11  C10 UNL     1       1.249  -0.824   1.739  1.00  0.00     0.026 C 
HETATM   12  C11 UNL     1       0.281  -0.838   0.849  1.00  0.00     0.035 C 
HETATM   13  C19 UNL     1       0.254  -0.425  -0.559  1.00  0.00     0.028 C 
HETATM   14  C20 UNL     1       1.103   0.087  -1.467  1.00  0.00     0.014 C 
HETATM   15  C21 UNL     1       2.135   0.644  -2.358  1.00  0.00     0.200 C 
ENDROOT
BRANCH  12  16
HETATM   16  N3  UNL     1      -1.002  -1.331   1.143  1.00  0.00    -0.309 N 
HETATM   17  C12 UNL     1      -2.104  -0.437   1.043  1.00  0.00     0.321 C 
HETATM   18  O2  UNL     1      -1.658   0.704   0.677  1.00  0.00    -0.247 OA
HETATM   19  N4  UNL     1      -3.452  -0.861   1.331  1.00  0.00    -0.338 N 
HETATM   20  H11 UNL     1      -3.527  -1.858   1.606  1.00  0.00     0.164 HD
HETATM   21  H10 UNL     1      -1.149  -2.341   1.432  1.00  0.00     0.170 HD
BRANCH  19  22
HETATM   22  C13 UNL     1      -4.467   0.179   1.186  1.00  0.00     0.086 C 
HETATM   23  C14 UNL     1      -5.442  -0.127   0.057  1.00  0.00     0.025 C 
HETATM   24  C15 UNL     1      -6.803   0.414   0.501  1.00  0.00     0.002 C 
HETATM   25  C16 UNL     1      -7.307  -0.569   1.551  1.00  0.00     0.000 C 
HETATM   26  C17 UNL     1      -6.344  -0.548   2.698  1.00  0.00     0.002 C 
HETATM   27  C18 UNL     1      -5.169   0.386   2.490  1.00  0.00     0.025 C 
ENDBRANCH  19  22
ENDBRANCH  12  16
BRANCH  15  28
HETATM   28  O3  UNL     1       2.330   1.983  -2.055  1.00  0.00    -0.380 OA
HETATM   29  C22 UNL     1       1.983   2.763  -3.169  1.00  0.00     0.202 C 
ENDBRANCH  15  28
BRANCH   1  30
HETATM   30  O1  UNL     1       3.250  -1.248  -3.201  1.00  0.00    -0.357 OA
HETATM   31  C1  UNL     1       4.227  -2.268  -3.157  1.00  0.00     0.209 C 
ENDBRANCH   1  30
TORSDOF 4
