REMARK  4 active torsions:
REMARK  status: ('A' for Active; 'I' for Inactive)
REMARK    1  A    between atoms: O1_2  and  C2_3 
REMARK    2  A    between atoms: C8_12  and  N3_13 
REMARK    3  A    between atoms: N3_13  and  C9_14 
REMARK    4  A    between atoms: C17_25  and  O3_26 
ROOT
HETATM    1  C2  UNL     1      -4.017   0.676   0.522  1.00  0.00     0.081 A 
HETATM    2  C3  UNL     1      -2.941   1.053   1.195  1.00  0.00     0.046 A 
HETATM    3  C4  UNL     1      -1.687   0.823   0.478  1.00  0.00    -0.005 A 
HETATM    4  C5  UNL     1      -2.081   0.285  -0.666  1.00  0.00     0.099 A 
HETATM    5  O2  UNL     1      -1.216  -0.112  -1.695  1.00  0.00    -0.291 OA
HETATM    6  C6  UNL     1       0.054  -0.683  -1.560  1.00  0.00     0.201 A 
HETATM    7  N1  UNL     1       0.472  -1.440  -2.595  1.00  0.00    -0.215 NA
HETATM    8  C7  UNL     1       1.697  -2.016  -2.511  1.00  0.00     0.238 A 
HETATM    9  N2  UNL     1       2.531  -1.876  -1.442  1.00  0.00    -0.222 NA
HETATM   10  C8  UNL     1       2.120  -1.115  -0.391  1.00  0.00     0.160 A 
HETATM   11  C15 UNL     1       0.878  -0.524  -0.463  1.00  0.00     0.129 A 
HETATM   12  N4  UNL     1       0.662   0.205   0.721  1.00  0.00    -0.379 N 
HETATM   13  C16 UNL     1      -0.369   1.178   1.059  1.00  0.00     0.161 C 
HETATM   14  C17 UNL     1      -3.556   0.128  -0.780  1.00  0.00     0.235 A 
HETATM   15  H10 UNL     1       1.351   0.025   1.487  1.00  0.00     0.160 HD
ENDROOT
BRANCH  10  16
HETATM   16  N3  UNL     1       3.061  -1.046   0.656  1.00  0.00    -0.339 N 
HETATM   17  H6  UNL     1       2.971  -1.694   1.450  1.00  0.00     0.167 HD
BRANCH  16  18
HETATM   18  C9  UNL     1       4.120  -0.073   0.590  1.00  0.00     0.035 A 
HETATM   19  C10 UNL     1       4.137   0.786  -0.489  1.00  0.00     0.032 A 
HETATM   20  C11 UNL     1       5.164   1.724  -0.571  1.00  0.00     0.046 A 
HETATM   21  C12 UNL     1       6.124   1.756   0.430  1.00  0.00     0.138 A 
HETATM   22  F1  UNL     1       7.131   2.667   0.357  1.00  0.00    -0.204 F 
HETATM   23  C13 UNL     1       6.101   0.893   1.505  1.00  0.00     0.074 A 
HETATM   24 CL1  UNL     1       7.337   0.946   2.776  1.00  0.00    -0.081 Cl
HETATM   25  C14 UNL     1       5.085  -0.051   1.609  1.00  0.00     0.056 A 
ENDBRANCH  16  18
ENDBRANCH  10  16
BRANCH  14  26
HETATM   26  O3  UNL     1      -3.914  -1.210  -0.939  1.00  0.00    -0.377 OA
HETATM   27  C18 UNL     1      -4.620  -1.319  -2.124  1.00  0.00     0.203 C 
ENDBRANCH  14  26
BRANCH   1  28
HETATM   28  O1  UNL     1      -5.378   0.652   0.685  1.00  0.00    -0.357 OA
HETATM   29  C1  UNL     1      -6.053   0.226   1.846  1.00  0.00     0.209 C 
ENDBRANCH   1  28
TORSDOF 4
