REMARK  4 active torsions:
REMARK  status: ('A' for Active; 'I' for Inactive)
REMARK    1  A    between atoms: C2_2  and  C3_3 
REMARK    2  A    between atoms: C3_3  and  C4_4 
REMARK    3  A    between atoms: C17_20  and  C18_21 
REMARK    4  A    between atoms: C20_24  and  O2_25 
ROOT
HETATM    1  C4  UNL     1      -2.497   0.712  -1.006  1.00  0.00     0.046 C 
HETATM    2  N1  UNL     1      -2.979  -0.347  -1.874  1.00  0.00    -0.308 N 
HETATM    3  C5  UNL     1      -2.693  -1.744  -1.861  1.00  0.00     0.325 C 
HETATM    4  O1  UNL     1      -3.102  -2.382  -2.844  1.00  0.00    -0.247 OA
HETATM    5  N2  UNL     1      -2.018  -2.554  -0.914  1.00  0.00    -0.309 N 
HETATM    6  C6  UNL     1      -1.906  -2.424   0.526  1.00  0.00     0.059 C 
HETATM    7  C7  UNL     1      -1.891  -3.561   1.274  1.00  0.00     0.098 C 
HETATM    8  C8  UNL     1      -2.767  -3.103   2.411  1.00  0.00     0.036 C 
HETATM    9  C9  UNL     1      -3.144  -1.779   2.196  1.00  0.00    -0.008 C 
HETATM   10  C10 UNL     1      -1.858  -1.401   1.666  1.00  0.00     0.095 C 
HETATM   11  C11 UNL     1      -1.412  -0.114   1.222  1.00  0.00    -0.032 A 
HETATM   12  C12 UNL     1      -0.402   0.256   2.098  1.00  0.00     0.010 A 
HETATM   13  C13 UNL     1       0.472   1.294   2.093  1.00  0.00     0.009 A 
HETATM   14  C14 UNL     1      -0.079   1.740   0.931  1.00  0.00    -0.044 A 
HETATM   15  C15 UNL     1      -0.844   1.878  -0.160  1.00  0.00     0.022 A 
HETATM   16  C16 UNL     1      -1.586   0.720   0.137  1.00  0.00    -0.001 A 
HETATM   17  C17 UNL     1       1.269   2.268   0.417  1.00  0.00     0.084 C 
HETATM   18  C19 UNL     1       2.093   1.045   0.112  1.00  0.00     0.025 C 
HETATM   19  C20 UNL     1       2.870   0.038  -0.163  1.00  0.00     0.071 C 
HETATM   20  C22 UNL     1       2.984  -1.384  -0.307  1.00  0.00    -0.029 C 
HETATM   21  C23 UNL     1       4.392  -1.617  -0.708  1.00  0.00     0.051 C 
HETATM   22  C24 UNL     1       2.242  -2.409  -0.194  1.00  0.00     0.011 C 
HETATM   23  C25 UNL     1       0.966  -3.019   0.091  1.00  0.00     0.025 C 
HETATM   24  C26 UNL     1       0.224  -4.088   0.203  1.00  0.00     0.142 C 
HETATM   25  O3  UNL     1      -1.084  -4.397   0.516  1.00  0.00    -0.321 OA
HETATM   26  H5  UNL     1      -3.632  -0.036  -2.624  1.00  0.00     0.170 HD
HETATM   27  H6  UNL     1      -1.537  -3.396  -1.293  1.00  0.00     0.170 HD
ENDROOT
BRANCH   1  28
HETATM   28  C3  UNL     1      -2.967   1.897  -1.290  1.00  0.00     0.026 C 
BRANCH  28  29
HETATM   29  C2  UNL     1      -3.212   3.305  -1.237  1.00  0.00    -0.024 C 
HETATM   30  C1  UNL     1      -3.788   4.400  -1.675  1.00  0.00     0.031 C 
ENDBRANCH  28  29
ENDBRANCH   1  28
BRANCH  17  31
HETATM   31  C18 UNL     1       1.181   3.020  -0.842  1.00  0.00     0.093 C 
HETATM   32  N3  UNL     1       1.465   4.221  -1.167  1.00  0.00    -0.315 NA
HETATM   33  H15 UNL     1       1.847   4.915  -0.485  1.00  0.00     0.185 HD
ENDBRANCH  17  31
BRANCH  19  34
HETATM   34  O2  UNL     1       3.719   1.099  -0.275  1.00  0.00    -0.356 OA
HETATM   35  C21 UNL     1       4.781   1.420   0.574  1.00  0.00     0.210 C 
ENDBRANCH  19  34
TORSDOF 4
