REMARK  5 active torsions:
REMARK  status: ('A' for Active; 'I' for Inactive)
REMARK    1  A    between atoms: C3_3  and  O1_4 
REMARK    2  A    between atoms: C8_11  and  O2_12 
REMARK    3  A    between atoms: O2_12  and  C9_13 
REMARK    4  A    between atoms: C12_16  and  N3_17 
REMARK       I    between atoms: N3_17  and  C13_18 
REMARK       I    between atoms: C13_18  and  N4_20 
REMARK    5  A    between atoms: N4_20  and  C14_21 
ROOT
HETATM    1  C9  UNL     1       2.025  -0.231  -0.923  1.00  0.00     0.078 A 
HETATM    2  C10 UNL     1       1.268   0.459  -1.869  1.00  0.00     0.039 A 
HETATM    3  C11 UNL     1      -0.099   0.350  -1.894  1.00  0.00     0.032 A 
HETATM    4  C12 UNL     1      -0.726  -0.456  -0.968  1.00  0.00     0.036 A 
HETATM    5  C20 UNL     1       0.024  -1.144  -0.027  1.00  0.00     0.032 A 
HETATM    6  C21 UNL     1       1.410  -1.051   0.022  1.00  0.00     0.039 A 
ENDROOT
BRANCH   1   7
HETATM    7  O2  UNL     1       3.408  -0.114  -0.906  1.00  0.00    -0.291 OA
BRANCH   7   8
HETATM    8  C8  UNL     1       4.055   0.862  -0.160  1.00  0.00     0.184 A 
HETATM    9  N2  UNL     1       3.413   1.764   0.598  1.00  0.00    -0.217 NA
HETATM   10  C7  UNL     1       4.156   2.674   1.285  1.00  0.00     0.236 A 
HETATM   11  N1  UNL     1       5.508   2.702   1.231  1.00  0.00    -0.241 NA
HETATM   12  C6  UNL     1       6.149   1.796   0.470  1.00  0.00     0.076 A 
HETATM   13  C5  UNL     1       7.592   1.601   0.233  1.00  0.00     0.070 A 
HETATM   14  C22 UNL     1       5.427   0.851  -0.246  1.00  0.00     0.058 A 
HETATM   15  C3  UNL     1       7.715   0.571  -0.598  1.00  0.00     0.081 A 
HETATM   16  C2  UNL     1       6.408   0.036  -0.954  1.00  0.00     0.005 A 
HETATM   17  C1  UNL     1       6.154  -0.985  -1.757  1.00  0.00     0.027 C 
BRANCH  15  18
HETATM   18  O1  UNL     1       8.902   0.034  -1.094  1.00  0.00    -0.355 OA
HETATM   19  C4  UNL     1       9.443  -1.169  -0.571  1.00  0.00     0.210 C 
ENDBRANCH  15  18
ENDBRANCH   7   8
ENDBRANCH   1   7
BRANCH   4  20
HETATM   20  N3  UNL     1      -2.113  -0.724  -0.800  1.00  0.00    -0.309 N 
HETATM   21  C13 UNL     1      -2.985   0.035   0.030  1.00  0.00     0.321 C 
HETATM   22  O3  UNL     1      -2.601   1.028   0.700  1.00  0.00    -0.247 OA
HETATM   23  N4  UNL     1      -4.311  -0.445   0.017  1.00  0.00    -0.338 N 
HETATM   24  H11 UNL     1      -4.657  -1.264  -0.527  1.00  0.00     0.164 HD
HETATM   25  H10 UNL     1      -2.390  -1.552  -1.370  1.00  0.00     0.170 HD
BRANCH  23  26
HETATM   26  C14 UNL     1      -5.411   0.133   0.768  1.00  0.00     0.086 C 
HETATM   27  C15 UNL     1      -6.384   0.665  -0.224  1.00  0.00     0.025 C 
HETATM   28  C16 UNL     1      -7.700   1.054   0.412  1.00  0.00     0.002 C 
HETATM   29  C17 UNL     1      -8.273  -0.233   0.971  1.00  0.00     0.000 C 
HETATM   30  C18 UNL     1      -7.393  -0.813   2.032  1.00  0.00     0.002 C 
HETATM   31  C19 UNL     1      -5.956  -0.875   1.720  1.00  0.00     0.025 C 
ENDBRANCH  23  26
ENDBRANCH   4  20
TORSDOF 5
