REMARK  2 active torsions:
REMARK  status: ('A' for Active; 'I' for Inactive)
REMARK    1  A    between atoms: O1_2  and  C2_3 
REMARK    2  A    between atoms: C21_27  and  O3_28 
ROOT
HETATM    1  C2  UNL     1       2.204   2.285  -1.039  1.00  0.00     0.080 C 
HETATM    2  C3  UNL     1       0.999   2.850  -0.790  1.00  0.00     0.057 C 
HETATM    3  C4  UNL     1      -0.270   3.579  -0.553  1.00  0.00     0.120 C 
HETATM    4  N1  UNL     1      -1.362   3.083  -0.142  1.00  0.00    -0.255 NA
HETATM    5  C5  UNL     1      -2.555   3.651   0.102  1.00  0.00     0.226 C 
HETATM    6  N2  UNL     1      -3.050   2.743   0.889  1.00  0.00    -0.279 NA
HETATM    7  C6  UNL     1      -2.406   1.543   1.298  1.00  0.00     0.184 C 
HETATM    8  C7  UNL     1      -3.154   0.304   1.055  1.00  0.00    -0.054 C 
HETATM    9  C8  UNL     1      -3.963  -0.411   1.856  1.00  0.00     0.007 C 
HETATM   10  C9  UNL     1      -3.983  -1.811   1.377  1.00  0.00     0.037 C 
HETATM   11  C10 UNL     1      -3.195  -1.884   0.320  1.00  0.00     0.159 C 
HETATM   12  C11 UNL     1      -3.163  -0.472  -0.216  1.00  0.00     0.104 C 
HETATM   13  N3  UNL     1      -2.422  -2.874  -0.398  1.00  0.00     0.151 N 
HETATM   14  C12 UNL     1      -1.003  -3.101  -0.386  1.00  0.00     0.388 A 
HETATM   15  O2  UNL     1      -1.362  -2.153   0.390  1.00  0.00    -0.100 OA
HETATM   16  N4  UNL     1       0.242  -3.715  -0.741  1.00  0.00    -0.311 N 
HETATM   17  C13 UNL     1       1.334  -3.077  -0.028  1.00  0.00     0.049 A 
HETATM   18  C14 UNL     1       1.935  -3.785   0.964  1.00  0.00     0.030 A 
HETATM   19  C15 UNL     1       2.881  -3.114   1.710  1.00  0.00     0.003 A 
HETATM   20  C16 UNL     1       3.138  -1.795   1.394  1.00  0.00     0.012 A 
HETATM   21  C17 UNL     1       2.504  -1.113   0.376  1.00  0.00    -0.020 A 
HETATM   22  C18 UNL     1       2.875   0.204   0.246  1.00  0.00     0.026 A 
HETATM   23  C19 UNL     1       2.180   0.811  -0.756  1.00  0.00     0.001 A 
HETATM   24  C20 UNL     1       1.227   0.231  -1.571  1.00  0.00     0.051 A 
HETATM   25  C21 UNL     1       0.897  -1.103  -1.388  1.00  0.00     0.080 A 
HETATM   26  C22 UNL     1       1.561  -1.763  -0.380  1.00  0.00     0.034 A 
HETATM   27  H13 UNL     1      -3.149  -3.407  -0.946  1.00  0.00     0.337 HD
HETATM   28  H14 UNL     1      -0.278  -4.354  -1.374  1.00  0.00     0.169 HD
ENDROOT
BRANCH   1  29
HETATM   29  O1  UNL     1       2.617   3.548  -1.396  1.00  0.00    -0.355 OA
HETATM   30  C1  UNL     1       3.893   3.957  -0.899  1.00  0.00     0.210 C 
ENDBRANCH   1  29
BRANCH  25  31
HETATM   31  O3  UNL     1      -0.068  -1.552  -2.279  1.00  0.00    -0.360 OA
HETATM   32  H20 UNL     1       0.180  -2.001  -3.151  1.00  0.00     0.217 HD
ENDBRANCH  25  31
TORSDOF 2
