REMARK  3 active torsions:
REMARK  status: ('A' for Active; 'I' for Inactive)
REMARK    1  A    between atoms: C2_2  and  C3_3 
REMARK    2  A    between atoms: C4_4  and  O1_5 
REMARK    3  A    between atoms: C6_7  and  O2_8 
ROOT
HETATM    1  C3  UNL     1      -2.652  -2.169  -0.203  1.00  0.00     0.067 C 
HETATM    2  C4  UNL     1      -3.434  -1.324  -0.754  1.00  0.00     0.106 C 
HETATM    3  C6  UNL     1      -3.178   0.151  -0.770  1.00  0.00     0.115 C 
HETATM    4  C8  UNL     1      -2.294   1.057  -0.353  1.00  0.00     0.131 C 
HETATM    5  C9  UNL     1      -1.392   2.172   0.049  1.00  0.00     0.068 A 
HETATM    6  N1  UNL     1      -0.936   1.627   1.189  1.00  0.00    -0.242 NA
HETATM    7  C10 UNL     1      -0.019   2.174   1.982  1.00  0.00     0.236 A 
HETATM    8  N2  UNL     1       0.280   3.314   1.363  1.00  0.00    -0.217 NA
HETATM    9  C11 UNL     1      -0.289   3.662   0.249  1.00  0.00     0.185 A 
HETATM   10  C12 UNL     1      -1.165   3.371  -0.715  1.00  0.00     0.020 A 
HETATM   11  C13 UNL     1      -2.121   3.050  -1.761  1.00  0.00     0.055 C 
HETATM   12  O3  UNL     1      -0.194   4.765  -0.643  1.00  0.00    -0.275 OA
HETATM   13  S1  UNL     1       1.137   4.688  -1.842  1.00  0.00    -0.089 SA
HETATM   14  C14 UNL     1       2.365   3.634  -1.163  1.00  0.00     0.192 C 
HETATM   15  C15 UNL     1       3.044   2.856  -0.381  1.00  0.00     0.051 C 
HETATM   16  C16 UNL     1       4.274   2.108  -0.340  1.00  0.00    -0.021 C 
HETATM   17  C17 UNL     1       4.322   1.512   0.867  1.00  0.00    -0.030 C 
HETATM   18  C18 UNL     1       5.329   0.648   1.454  1.00  0.00     0.027 C 
HETATM   19  C19 UNL     1       5.051  -0.717   1.903  1.00  0.00     0.004 C 
HETATM   20  C20 UNL     1       4.595  -1.746   0.959  1.00  0.00     0.002 C 
HETATM   21  C21 UNL     1       3.162  -1.743   0.514  1.00  0.00     0.020 C 
HETATM   22  C22 UNL     1       2.246  -2.053   1.724  1.00  0.00     0.124 C 
HETATM   23  N3  UNL     1       0.936  -2.326   1.286  1.00  0.00    -0.343 N 
HETATM   24  C23 UNL     1      -0.311  -2.443   0.815  1.00  0.00     0.320 C 
HETATM   25  O4  UNL     1      -0.055  -1.296   0.541  1.00  0.00    -0.247 OA
HETATM   26  N4  UNL     1      -1.564  -2.764   0.407  1.00  0.00    -0.307 N 
HETATM   27  H29 UNL     1       0.712  -3.345   1.577  1.00  0.00     0.164 HD
HETATM   28  H30 UNL     1      -1.318  -3.687   0.777  1.00  0.00     0.170 HD
ENDROOT
BRANCH   1  29
HETATM   29  C2  UNL     1      -3.501  -3.336  -0.541  1.00  0.00     0.022 C 
HETATM   30  C1  UNL     1      -3.325  -4.639  -0.250  1.00  0.00     0.013 C 
ENDBRANCH   1  29
BRANCH   2  31
HETATM   31  O1  UNL     1      -4.600  -1.651  -1.388  1.00  0.00    -0.355 OA
HETATM   32  C5  UNL     1      -4.682  -1.822  -2.798  1.00  0.00     0.209 C 
ENDBRANCH   2  31
BRANCH   3  33
HETATM   33  O2  UNL     1      -4.210   0.858  -1.447  1.00  0.00    -0.379 OA
HETATM   34  C7  UNL     1      -5.208   1.341  -0.531  1.00  0.00     0.202 C 
ENDBRANCH   3  33
TORSDOF 3
