REMARK  1 active torsions:
REMARK  status: ('A' for Active; 'I' for Inactive)
REMARK    1  A    between atoms: O1_2  and  C2_3 
ROOT
HETATM    1  C2  UNL     1       1.131  -1.675   0.538  1.00  0.00     0.080 C 
HETATM    2  C3  UNL     1       2.345  -1.605   1.121  1.00  0.00     0.040 C 
HETATM    3  C4  UNL     1       3.371  -0.789   0.521  1.00  0.00     0.061 C 
HETATM    4  C5  UNL     1       3.747  -0.186  -0.599  1.00  0.00     0.170 C 
HETATM    5  N1  UNL     1       3.783   0.252  -1.908  1.00  0.00    -0.218 NA
HETATM    6  C6  UNL     1       2.753  -0.027  -2.731  1.00  0.00     0.235 C 
HETATM    7  N2  UNL     1       1.490   0.325  -2.400  1.00  0.00    -0.247 NA
HETATM    8  C7  UNL     1       1.145   0.107  -1.080  1.00  0.00     0.063 C 
HETATM    9  C8  UNL     1       1.646   1.215  -0.397  1.00  0.00     0.053 A 
HETATM   10  C9  UNL     1       3.008   1.493  -0.155  1.00  0.00     0.078 A 
HETATM   11  C10 UNL     1       4.301   1.814   0.107  1.00  0.00     0.075 A 
HETATM   12  C11 UNL     1       3.798   2.988   0.720  1.00  0.00     0.038 A 
HETATM   13  C12 UNL     1       2.442   3.233   0.776  1.00  0.00     0.023 A 
HETATM   14  C13 UNL     1       1.456   2.471   0.296  1.00  0.00     0.008 A 
HETATM   15  N3  UNL     1       0.136   2.230   0.200  1.00  0.00    -0.213 NA
HETATM   16  C14 UNL     1      -1.164   2.198   0.756  1.00  0.00     0.298 C 
HETATM   17  O2  UNL     1      -1.539   2.544   1.896  1.00  0.00    -0.254 OA
HETATM   18  N4  UNL     1      -2.235   1.718  -0.019  1.00  0.00    -0.343 N 
HETATM   19  C15 UNL     1      -3.335   1.228  -0.806  1.00  0.00     0.088 C 
HETATM   20  C16 UNL     1      -4.299   0.286  -0.135  1.00  0.00     0.025 C 
HETATM   21  C17 UNL     1      -4.356  -1.120  -0.605  1.00  0.00     0.004 C 
HETATM   22  C18 UNL     1      -3.011  -1.868  -0.559  1.00  0.00     0.032 C 
HETATM   23  C19 UNL     1      -2.030  -0.763  -0.447  1.00  0.00     0.125 C 
HETATM   24  C20 UNL     1      -2.512   0.160  -1.592  1.00  0.00     0.057 C 
HETATM   25  O3  UNL     1      -0.801  -0.756  -0.158  1.00  0.00    -0.368 OA
HETATM   26  C21 UNL     1       0.379  -1.134  -0.597  1.00  0.00     0.227 C 
HETATM   27  O4  UNL     1       4.863   0.685  -0.479  1.00  0.00    -0.292 OA
HETATM   28  H10 UNL     1       0.207   2.544   1.186  1.00  0.00     0.138 HD
HETATM   29  H11 UNL     1      -3.068   1.916   0.636  1.00  0.00     0.164 HD
ENDROOT
BRANCH   1  30
HETATM   30  O1  UNL     1       0.267  -2.540   1.250  1.00  0.00    -0.357 OA
HETATM   31  C1  UNL     1       0.677  -3.640   1.997  1.00  0.00     0.209 C 
ENDBRANCH   1  30
TORSDOF 1
