REMARK  8 active torsions:
REMARK  status: ('A' for Active; 'I' for Inactive)
REMARK    1  A    between atoms: O1_2  and  C2_3 
REMARK    2  A    between atoms: C5_6  and  O2_7 
REMARK    3  A    between atoms: O2_7  and  C6_8 
REMARK    4  A    between atoms: N1_11  and  C9_12 
REMARK    5  A    between atoms: C9_12  and  N2_13 
REMARK    6  A    between atoms: N2_13  and  C10_14 
REMARK    7  A    between atoms: C21_27  and  O3_28 
REMARK    8  A    between atoms: O3_28  and  C22_29 
ROOT
HETATM    1  O2  UNL     1       2.282  -0.095   0.365  1.00  0.00    -0.291 OA
ENDROOT
BRANCH   1   2
HETATM    2  C5  UNL     1       3.159  -0.993  -0.241  1.00  0.00     0.183 A 
HETATM    3  C4  UNL     1       4.498  -0.640  -0.318  1.00  0.00     0.049 A 
HETATM    4  C3  UNL     1       4.993   0.552   0.176  1.00  0.00     0.057 A 
HETATM    5  C19 UNL     1       5.358  -1.550  -0.927  1.00  0.00     0.075 A 
HETATM    6  C2  UNL     1       6.341   0.812   0.051  1.00  0.00     0.103 A 
HETATM    7  C21 UNL     1       7.217  -0.070  -0.547  1.00  0.00     0.114 A 
HETATM    8  C20 UNL     1       6.700  -1.268  -1.040  1.00  0.00     0.073 A 
HETATM    9  N4  UNL     1       4.884  -2.717  -1.412  1.00  0.00    -0.241 NA
HETATM   10  C18 UNL     1       3.577  -3.049  -1.331  1.00  0.00     0.236 A 
HETATM   11  N3  UNL     1       2.741  -2.171  -0.743  1.00  0.00    -0.217 NA
BRANCH   6  12
HETATM   12  O1  UNL     1       6.915   1.988   0.523  1.00  0.00    -0.353 OA
HETATM   13  C1  UNL     1       6.073   2.936   1.146  1.00  0.00     0.210 C 
ENDBRANCH   6  12
BRANCH   7  14
HETATM   14  O3  UNL     1       8.587   0.160  -0.690  1.00  0.00    -0.283 OA
BRANCH  14  15
HETATM   15  C22 UNL     1       9.035   0.800  -1.836  1.00  0.00     0.403 C 
HETATM   16  O4  UNL     1       8.054   1.069  -2.580  1.00  0.00    -0.276 OA
ENDBRANCH  14  15
ENDBRANCH   7  14
ENDBRANCH   1   2
BRANCH   1  17
HETATM   17  C6  UNL     1       0.927  -0.355   0.491  1.00  0.00     0.077 A 
HETATM   18  C7  UNL     1       0.008   0.568   0.285  1.00  0.00     0.030 A 
HETATM   19  C8  UNL     1      -1.495   0.484   0.364  1.00  0.00     0.154 A 
HETATM   20  N1  UNL     1      -1.963  -0.798   0.772  1.00  0.00    -0.362 N 
HETATM   21  C16 UNL     1      -0.923  -1.781   0.970  1.00  0.00     0.090 A 
HETATM   22  C17 UNL     1       0.388  -1.653   0.865  1.00  0.00     0.054 A 
BRANCH  20  23
HETATM   23  C9  UNL     1      -3.270  -1.278   1.052  1.00  0.00     0.395 C 
BRANCH  23  24
HETATM   24  N2  UNL     1      -4.261  -1.174   0.041  1.00  0.00     0.105 NA
HETATM   25  H10 UNL     1      -4.046  -1.711  -0.820  1.00  0.00     0.318 HD
BRANCH  24  26
HETATM   26  C10 UNL     1      -4.770   0.134  -0.243  1.00  0.00     0.222 C 
HETATM   27  C11 UNL     1      -5.367   0.709   1.030  1.00  0.00     0.036 C 
HETATM   28  C12 UNL     1      -6.638   1.498   0.767  1.00  0.00     0.002 C 
HETATM   29  C13 UNL     1      -7.711   0.597   0.186  1.00  0.00     0.000 C 
HETATM   30  C14 UNL     1      -7.082  -0.607  -0.503  1.00  0.00     0.002 C 
HETATM   31  C15 UNL     1      -5.900  -0.072  -1.273  1.00  0.00     0.036 C 
ENDBRANCH  24  26
ENDBRANCH  23  24
ENDBRANCH  20  23
ENDBRANCH   1  17
TORSDOF 8
