REMARK  5 active torsions:
REMARK  status: ('A' for Active; 'I' for Inactive)
REMARK    1  A    between atoms: C7_9  and  N3_10 
REMARK    2  A    between atoms: N3_10  and  C8_11 
REMARK    3  A    between atoms: C11_14  and  N4_15 
REMARK    4  A    between atoms: N4_15  and  C12_16 
REMARK    5  A    between atoms: C12_16  and  N5_18 
ROOT
HETATM    1  C8  UNL     1       1.033   0.167   0.035  1.00  0.00     0.033 A 
HETATM    2  C9  UNL     1       1.793   1.302  -0.183  1.00  0.00     0.031 A 
HETATM    3  C10 UNL     1       3.165   1.296  -0.150  1.00  0.00     0.031 A 
HETATM    4  C11 UNL     1       3.852   0.149   0.103  1.00  0.00     0.031 A 
HETATM    5  C13 UNL     1       3.159  -1.009   0.326  1.00  0.00     0.031 A 
HETATM    6  C14 UNL     1       1.789  -0.956   0.284  1.00  0.00     0.031 A 
ENDROOT
BRANCH   1   7
HETATM    7  N3  UNL     1      -0.384   0.207  -0.006  1.00  0.00    -0.340 N 
HETATM    8  H6  UNL     1      -0.797   1.147  -0.210  1.00  0.00     0.167 HD
BRANCH   7   9
HETATM    9  C7  UNL     1      -1.310  -0.851   0.192  1.00  0.00     0.141 A 
HETATM   10  C4  UNL     1      -2.666  -0.615   0.113  1.00  0.00     0.035 A 
HETATM   11  C3  UNL     1      -3.427   0.600  -0.156  1.00  0.00     0.020 A 
HETATM   12  C5  UNL     1      -3.588  -1.617   0.299  1.00  0.00     0.053 A 
HETATM   13  C2  UNL     1      -4.726   0.373  -0.139  1.00  0.00    -0.077 A 
HETATM   14  C1  UNL     1      -5.754   1.410  -0.377  1.00  0.00     0.044 C 
HETATM   15  C15 UNL     1      -4.930  -1.054   0.152  1.00  0.00     0.094 A 
HETATM   16  N1  UNL     1      -3.183  -2.867   0.567  1.00  0.00    -0.245 NA
HETATM   17  C6  UNL     1      -1.868  -3.124   0.650  1.00  0.00     0.235 A 
HETATM   18  N2  UNL     1      -1.013  -2.131   0.464  1.00  0.00    -0.224 NA
ENDBRANCH   7   9
ENDBRANCH   1   7
BRANCH   4  19
HETATM   19  N4  UNL     1       5.273   0.151   0.134  1.00  0.00    -0.341 N 
HETATM   20  H9  UNL     1       5.802  -0.742   0.331  1.00  0.00     0.164 HD
BRANCH  19  21
HETATM   21  C12 UNL     1       5.996   1.383  -0.104  1.00  0.00     0.425 C 
HETATM   22  F1  UNL     1       7.362   1.137  -0.022  1.00  0.00    -0.199 F 
BRANCH  21  23
HETATM   23  N5  UNL     1       5.737   1.799  -1.456  1.00  0.00    -0.081 NA
HETATM   24  O1  UNL     1       6.353   1.244  -2.316  1.00  0.00    -0.062 OA
ENDBRANCH  21  23
ENDBRANCH  19  21
ENDBRANCH   4  19
TORSDOF 5
