REMARK  0 active torsions:
REMARK  status: ('A' for Active; 'I' for Inactive)
ROOT
HETATM    1  O1  UNL     1       1.330  -0.681   0.736  1.00  0.00     0.000 OA
HETATM    2  C1  UNL     1       1.181  -0.912   1.938  1.00  0.00     0.272 A 
HETATM    3  C2  UNL     1       2.238  -1.863   1.445  1.00  0.00     0.069 A 
HETATM    4  C3  UNL     1       2.424  -1.484  -0.024  1.00  0.00     0.013 A 
HETATM    5  C4  UNL     1       3.109  -0.252   0.007  1.00  0.00    -0.009 A 
HETATM    6  C5  UNL     1       3.017   0.271  -1.266  1.00  0.00     0.034 A 
HETATM    7  C6  UNL     1       2.329  -0.462  -2.237  1.00  0.00     0.074 A 
HETATM    8  C7  UNL     1       1.691  -1.661  -2.230  1.00  0.00     0.034 A 
HETATM    9  C8  UNL     1       1.758  -2.215  -0.968  1.00  0.00    -0.009 A 
HETATM   10  O2  UNL     1       2.460   0.473  -3.283  1.00  0.00    -0.323 OA
HETATM   11  C9  UNL     1       1.612   1.643  -3.167  1.00  0.00     0.139 C 
HETATM   12  C10 UNL     1       0.604   2.120  -2.346  1.00  0.00     0.012 C 
HETATM   13  C11 UNL     1       0.030   1.479  -1.200  1.00  0.00     0.075 C 
HETATM   14  C12 UNL     1       0.624   2.091   0.000  1.00  0.00     0.133 C 
HETATM   15  N1  UNL     1       0.469   1.600   1.203  1.00  0.00    -0.068 NA
HETATM   16  N2  UNL     1       0.306   0.158   1.498  1.00  0.00     0.246 N 
HETATM   17  C13 UNL     1      -1.096  -0.091   1.252  1.00  0.00     0.212 C 
HETATM   18  C14 UNL     1      -1.906   0.426   2.442  1.00  0.00     0.050 C 
HETATM   19  C15 UNL     1      -3.264   0.823   1.894  1.00  0.00     0.012 C 
HETATM   20  C16 UNL     1      -3.193   0.319   0.493  1.00  0.00     0.017 C 
HETATM   21  C17 UNL     1      -3.018  -1.196   0.580  1.00  0.00     0.012 C 
HETATM   22  C18 UNL     1      -1.571  -1.443   0.982  1.00  0.00     0.050 C 
HETATM   23  C19 UNL     1      -1.759   0.665   0.156  1.00  0.00    -0.038 C 
HETATM   24  C20 UNL     1      -1.402   1.465  -0.898  1.00  0.00    -0.007 C 
ENDROOT
TORSDOF 0
