REMARK  3 active torsions:
REMARK  status: ('A' for Active; 'I' for Inactive)
REMARK    1  A    between atoms: O1_2  and  C2_3 
REMARK    2  A    between atoms: C6_7  and  O2_8 
REMARK    3  A    between atoms: C12_17  and  C13_18 
ROOT
HETATM    1  C2  UNL     1      -3.589   0.086   0.883  1.00  0.00     0.100 A 
HETATM    2  C3  UNL     1      -2.350  -0.145   1.287  1.00  0.00     0.057 A 
HETATM    3  C4  UNL     1      -1.349  -0.132   0.168  1.00  0.00     0.126 A 
HETATM    4  C5  UNL     1      -2.269   0.158  -0.980  1.00  0.00     0.057 A 
HETATM    5  C6  UNL     1      -3.520   0.277  -0.561  1.00  0.00     0.100 A 
HETATM    6  C8  UNL     1      -0.310   0.910   0.342  1.00  0.00     0.167 C 
HETATM    7  N1  UNL     1       1.013   0.398   0.629  1.00  0.00    -0.381 N 
HETATM    8  C9  UNL     1       1.408  -0.829  -0.004  1.00  0.00     0.111 A 
HETATM    9  C10 UNL     1       0.398  -1.748  -0.307  1.00  0.00     0.196 A 
HETATM   10  N2  UNL     1       0.771  -2.908  -0.906  1.00  0.00    -0.216 NA
HETATM   11  C11 UNL     1       2.085  -3.104  -1.171  1.00  0.00     0.236 A 
HETATM   12  N3  UNL     1       3.076  -2.212  -0.878  1.00  0.00    -0.239 NA
HETATM   13  C12 UNL     1       2.746  -1.039  -0.280  1.00  0.00     0.099 A 
HETATM   14  O3  UNL     1      -0.913  -1.442   0.010  1.00  0.00    -0.311 OA
HETATM   15  H11 UNL     1       1.731   0.825   1.258  1.00  0.00     0.160 HD
ENDROOT
BRANCH   1  16
HETATM   16  O1  UNL     1      -4.615   0.102   1.815  1.00  0.00    -0.353 OA
HETATM   17  C1  UNL     1      -5.822  -0.583   1.680  1.00  0.00     0.210 C 
ENDBRANCH   1  16
BRANCH   5  18
HETATM   18  O2  UNL     1      -4.685   0.539  -1.266  1.00  0.00    -0.353 OA
HETATM   19  C7  UNL     1      -4.760   1.071  -2.553  1.00  0.00     0.210 C 
ENDBRANCH   5  18
BRANCH  13  20
HETATM   20  C13 UNL     1       3.776  -0.083   0.039  1.00  0.00    -0.003 A 
HETATM   21  C14 UNL     1       4.872  -0.716   0.638  1.00  0.00     0.017 A 
HETATM   22  C15 UNL     1       5.998   0.015   1.033  1.00  0.00     0.045 A 
HETATM   23  C16 UNL     1       6.044   1.380   0.837  1.00  0.00     0.138 A 
HETATM   24  F1  UNL     1       7.071   2.181   1.177  1.00  0.00    -0.204 F 
HETATM   25  C17 UNL     1       4.949   1.991   0.242  1.00  0.00     0.073 A 
HETATM   26 CL1  UNL     1       4.843   3.725  -0.082  1.00  0.00    -0.081 Cl
HETATM   27  C18 UNL     1       3.833   1.282  -0.152  1.00  0.00     0.041 A 
ENDBRANCH  13  20
TORSDOF 3
