REMARK  8 active torsions:
REMARK  status: ('A' for Active; 'I' for Inactive)
REMARK    1  A    between atoms: O1_2  and  C2_3 
REMARK    2  A    between atoms: C6_9  and  N3_10 
REMARK    3  A    between atoms: N3_10  and  C8_12 
REMARK    4  A    between atoms: C8_12  and  C11_16 
REMARK    5  A    between atoms: C9_13  and  C10_14 
REMARK    6  A    between atoms: C11_16  and  N4_17 
REMARK    7  A    between atoms: N4_17  and  C12_18 
REMARK    8  A    between atoms: C15_22  and  O3_23 
ROOT
HETATM    1  C2  UNL     1       3.593   0.134  -0.478  1.00  0.00     0.103 A 
HETATM    2  C3  UNL     1       3.158  -0.691  -1.485  1.00  0.00     0.072 A 
HETATM    3  C4  UNL     1       1.842  -1.101  -1.517  1.00  0.00     0.075 A 
HETATM    4  N1  UNL     1       1.467  -1.915  -2.534  1.00  0.00    -0.241 NA
HETATM    5  C5  UNL     1       0.181  -2.310  -2.559  1.00  0.00     0.236 A 
HETATM    6  N2  UNL     1      -0.719  -1.936  -1.635  1.00  0.00    -0.223 NA
HETATM    7  C6  UNL     1      -0.420  -1.132  -0.600  1.00  0.00     0.143 A 
HETATM    8  C13 UNL     1       0.911  -0.725  -0.578  1.00  0.00     0.042 A 
HETATM    9  C14 UNL     1       1.408   0.100   0.402  1.00  0.00     0.057 A 
HETATM   10  C15 UNL     1       2.703   0.545   0.494  1.00  0.00     0.102 A 
ENDROOT
BRANCH   7  11
HETATM   11  N3  UNL     1      -1.317  -0.694   0.413  1.00  0.00    -0.338 N 
HETATM   12  C7  UNL     1      -1.347  -0.839   1.859  1.00  0.00     0.158 C 
BRANCH  11  13
HETATM   13  C8  UNL     1      -2.440   0.051  -0.033  1.00  0.00     0.028 C 
HETATM   14  C9  UNL     1      -3.543  -0.597  -0.352  1.00  0.00     0.015 C 
BRANCH  14  15
HETATM   15  C10 UNL     1      -3.674  -2.066  -0.268  1.00  0.00     0.143 C 
HETATM   16 CL1  UNL     1      -4.053  -2.672  -1.917  1.00  0.00    -0.126 Cl
ENDBRANCH  14  15
BRANCH  13  17
HETATM   17  C11 UNL     1      -2.178   1.488  -0.066  1.00  0.00     0.178 C 
BRANCH  17  18
HETATM   18  N4  UNL     1      -3.259   2.316  -0.496  1.00  0.00    -0.363 N 
HETATM   19  H14 UNL     1      -3.260   2.966  -1.338  1.00  0.00     0.162 HD
BRANCH  18  20
HETATM   20  C12 UNL     1      -4.516   2.381   0.170  1.00  0.00     0.348 C 
HETATM   21  O2  UNL     1      -4.749   1.696   1.199  1.00  0.00    -0.284 OA
ENDBRANCH  18  20
ENDBRANCH  17  18
ENDBRANCH  13  17
ENDBRANCH  11  13
ENDBRANCH   7  11
BRANCH  10  22
HETATM   22  O3  UNL     1       3.142   1.381   1.516  1.00  0.00    -0.353 OA
HETATM   23  C16 UNL     1       2.208   1.785   2.496  1.00  0.00     0.210 C 
ENDBRANCH  10  22
BRANCH   1  24
HETATM   24  O1  UNL     1       4.909   0.569  -0.410  1.00  0.00    -0.353 OA
HETATM   25  C1  UNL     1       5.859   0.176  -1.382  1.00  0.00     0.210 C 
ENDBRANCH   1  24
TORSDOF 8
