REMARK  2 active torsions:
REMARK  status: ('A' for Active; 'I' for Inactive)
REMARK    1  A    between atoms: C4_5  and  N1_6 
REMARK    2  A    between atoms: N1_6  and  C5_7 
ROOT
HETATM    1  C5  UNL     1      -1.789  -0.539  -1.762  1.00  0.00     0.160 A 
HETATM    2  N2  UNL     1      -2.091  -0.352  -3.075  1.00  0.00    -0.222 NA
HETATM    3  C6  UNL     1      -1.147   0.189  -3.894  1.00  0.00     0.238 A 
HETATM    4  N3  UNL     1       0.079   0.551  -3.475  1.00  0.00    -0.215 NA
HETATM    5  C7  UNL     1       0.398   0.371  -2.163  1.00  0.00     0.202 A 
HETATM    6  C8  UNL     1      -0.537  -0.175  -1.304  1.00  0.00     0.129 A 
HETATM    7  N4  UNL     1      -0.324  -0.410   0.069  1.00  0.00    -0.379 N 
HETATM    8  C9  UNL     1       0.801  -0.361   0.948  1.00  0.00     0.161 C 
HETATM    9  C10 UNL     1       2.097  -0.117   0.331  1.00  0.00    -0.004 A 
HETATM   10  C11 UNL     1       3.088  -0.488   1.218  1.00  0.00     0.051 A 
HETATM   11  C12 UNL     1       4.435  -0.396   0.971  1.00  0.00     0.105 A 
HETATM   12  C13 UNL     1       4.817   0.111  -0.272  1.00  0.00     0.107 A 
HETATM   13  C14 UNL     1       3.884   0.502  -1.212  1.00  0.00     0.077 A 
HETATM   14  C15 UNL     1       2.557   0.374  -0.875  1.00  0.00     0.088 A 
HETATM   15  O1  UNL     1       1.712   0.806  -1.915  1.00  0.00    -0.289 OA
HETATM   16  O2  UNL     1       6.207   0.106  -0.283  1.00  0.00    -0.323 OA
HETATM   17  C16 UNL     1       6.713  -0.670   0.791  1.00  0.00     0.352 C 
HETATM   18  O3  UNL     1       5.599  -0.691   1.670  1.00  0.00    -0.323 OA
HETATM   19  H5  UNL     1      -1.175  -0.690   0.614  1.00  0.00     0.160 HD
ENDROOT
BRANCH   1  20
HETATM   20  N1  UNL     1      -2.721  -1.098  -0.843  1.00  0.00    -0.339 N 
HETATM   21  H3  UNL     1      -2.750  -2.131  -0.702  1.00  0.00     0.167 HD
BRANCH  20  22
HETATM   22  C4  UNL     1      -3.609  -0.253  -0.121  1.00  0.00     0.035 A 
HETATM   23  C3  UNL     1      -3.569   1.112  -0.306  1.00  0.00     0.032 A 
HETATM   24  C2  UNL     1      -4.444   1.927   0.407  1.00  0.00     0.046 A 
HETATM   25  C1  UNL     1      -5.353   1.384   1.300  1.00  0.00     0.138 A 
HETATM   26  F1  UNL     1      -6.211   2.186   1.998  1.00  0.00    -0.204 F 
HETATM   27  C18 UNL     1      -5.374   0.007   1.468  1.00  0.00     0.074 A 
HETATM   28  C17 UNL     1      -4.511  -0.803   0.765  1.00  0.00     0.056 A 
HETATM   29 CL1  UNL     1      -6.518  -0.727   2.595  1.00  0.00    -0.081 Cl
ENDBRANCH  20  22
ENDBRANCH   1  20
TORSDOF 2
