REMARK  7 active torsions:
REMARK  status: ('A' for Active; 'I' for Inactive)
REMARK    1  A    between atoms: C4_4  and  C5_5 
REMARK    2  A    between atoms: C5_5  and  N1_6 
REMARK    3  A    between atoms: C5_5  and  N2_7 
REMARK    4  A    between atoms: N2_7  and  C6_8 
REMARK    5  A    between atoms: N3_11  and  C9_12 
REMARK    6  A    between atoms: C13_18  and  O1_19 
REMARK    7  A    between atoms: C15_21  and  O2_22 
ROOT
HETATM    1  C6  UNL     1      -1.472   0.573   1.156  1.00  0.00     0.027 C 
HETATM    2  C7  UNL     1      -0.578  -0.402   1.118  1.00  0.00     0.022 C 
HETATM    3  C8  UNL     1       0.916  -0.269   1.065  1.00  0.00     0.154 C 
HETATM    4  N3  UNL     1       1.326   0.634  -0.021  1.00  0.00    -0.358 N 
HETATM    5  C19 UNL     1       0.954   1.990  -0.351  1.00  0.00     0.152 C 
HETATM    6  C20 UNL     1      -0.128   2.545   0.489  1.00  0.00    -0.005 C 
HETATM    7  C21 UNL     1      -1.173   2.022   1.150  1.00  0.00     0.026 C 
ENDROOT
BRANCH   1   8
HETATM    8  N2  UNL     1      -2.884   0.302   1.206  1.00  0.00    -0.357 N 
HETATM    9  H8  UNL     1      -3.131   0.649   2.168  1.00  0.00     0.162 HD
BRANCH   8  10
HETATM   10  C5  UNL     1      -3.625  -0.295   0.136  1.00  0.00     0.351 C 
BRANCH  10  11
HETATM   11  C4  UNL     1      -5.059  -0.437   0.455  1.00  0.00    -0.006 A 
HETATM   12  C3  UNL     1      -5.831  -0.799  -0.632  1.00  0.00     0.019 A 
HETATM   13  C2  UNL     1      -7.193  -0.976  -0.522  1.00  0.00    -0.040 A 
HETATM   14  C1  UNL     1      -8.118  -1.362  -1.619  1.00  0.00     0.050 C 
HETATM   15  C24 UNL     1      -7.811  -0.789   0.700  1.00  0.00     0.040 A 
HETATM   16  C23 UNL     1      -7.054  -0.426   1.801  1.00  0.00     0.025 A 
HETATM   17 CL1  UNL     1      -9.550  -0.995   0.932  1.00  0.00    -0.084 Cl
HETATM   18  C22 UNL     1      -5.698  -0.256   1.664  1.00  0.00     0.013 A 
ENDBRANCH  10  11
BRANCH  10  19
HETATM   19  N1  UNL     1      -3.422   0.445  -1.105  1.00  0.00     0.105 N 
HETATM   20  H6  UNL     1      -4.311   0.729  -1.542  1.00  0.00     0.315 HD
HETATM   21  H7  UNL     1      -2.882  -0.112  -1.817  1.00  0.00     0.315 HD
ENDBRANCH  10  19
ENDBRANCH   8  10
ENDBRANCH   1   8
BRANCH   4  22
HETATM   22  C9  UNL     1       2.266   0.350  -1.077  1.00  0.00     0.140 A 
HETATM   23  N4  UNL     1       1.801   0.326  -2.341  1.00  0.00    -0.224 NA
HETATM   24  C10 UNL     1       2.610   0.059  -3.408  1.00  0.00     0.236 A 
HETATM   25  N5  UNL     1       3.939  -0.197  -3.238  1.00  0.00    -0.241 NA
HETATM   26  C11 UNL     1       4.447  -0.182  -1.976  1.00  0.00     0.075 A 
HETATM   27  C12 UNL     1       5.784  -0.430  -1.747  1.00  0.00     0.072 A 
HETATM   28  C18 UNL     1       3.604   0.091  -0.921  1.00  0.00     0.041 A 
HETATM   29  C13 UNL     1       6.291  -0.409  -0.466  1.00  0.00     0.103 A 
HETATM   30  C15 UNL     1       5.444  -0.133   0.612  1.00  0.00     0.102 A 
HETATM   31  C17 UNL     1       4.118   0.109   0.338  1.00  0.00     0.057 A 
BRANCH  29  32
HETATM   32  O1  UNL     1       7.624  -0.647  -0.140  1.00  0.00    -0.353 OA
HETATM   33  C14 UNL     1       8.644  -0.940  -1.043  1.00  0.00     0.210 C 
ENDBRANCH  29  32
BRANCH  30  34
HETATM   34  O2  UNL     1       5.940  -0.108   1.906  1.00  0.00    -0.353 OA
HETATM   35  C16 UNL     1       5.042   0.176   2.961  1.00  0.00     0.210 C 
ENDBRANCH  30  34
ENDBRANCH   4  22
TORSDOF 7
