REMARK  6 active torsions:
REMARK  status: ('A' for Active; 'I' for Inactive)
REMARK    1  A    between atoms: C2_2  and  C3_4 
REMARK    2  A    between atoms: C8_12  and  C9_13 
REMARK    3  A    between atoms: C9_13  and  C10_14 
REMARK    4  A    between atoms: C10_14  and  C11_15 
REMARK    5  A    between atoms: C14_20  and  C15_21 
REMARK    6  A    between atoms: C15_21  and  O3_23 
ROOT
HETATM    1  C3  UNL     1       2.074  -0.509  -0.071  1.00  0.00     0.074 C 
HETATM    2  C4  UNL     1       1.718  -1.832  -0.009  1.00  0.00     0.023 C 
HETATM    3  C5  UNL     1       2.231  -2.947  -0.787  1.00  0.00     0.033 C 
HETATM    4  C6  UNL     1       2.767  -2.753  -2.015  1.00  0.00     0.094 C 
HETATM    5  N1  UNL     1       2.721  -1.568  -2.872  1.00  0.00    -0.318 N 
HETATM    6  C7  UNL     1       2.046  -0.322  -2.516  1.00  0.00     0.331 C 
HETATM    7  O1  UNL     1       2.062   0.284  -3.592  1.00  0.00    -0.246 OA
HETATM    8  N2  UNL     1       1.483   0.125  -1.235  1.00  0.00    -0.266 N 
HETATM    9  C8  UNL     1       0.444   1.055  -1.669  1.00  0.00     0.020 C 
HETATM   10  C12 UNL     1      -0.581   1.353  -0.813  1.00  0.00     0.025 C 
HETATM   11  C13 UNL     1      -0.758   0.864   0.535  1.00  0.00     0.198 C 
HETATM   12  O2  UNL     1      -1.860   0.105   0.783  1.00  0.00    -0.373 OA
HETATM   13  C14 UNL     1      -1.964  -0.327   2.105  1.00  0.00     0.211 C 
HETATM   14  C18 UNL     1      -1.562  -1.779   2.237  1.00  0.00     0.070 A 
HETATM   15  C19 UNL     1      -0.442  -1.922   1.502  1.00  0.00     0.062 A 
HETATM   16  C20 UNL     1       0.669  -2.386   0.871  1.00  0.00     0.072 A 
HETATM   17  N3  UNL     1       0.594  -3.663   1.303  1.00  0.00    -0.241 NA
HETATM   18  C21 UNL     1      -0.491  -3.921   2.129  1.00  0.00     0.234 A 
HETATM   19  N4  UNL     1      -1.449  -3.078   2.541  1.00  0.00    -0.244 NA
HETATM   20  H5  UNL     1       3.232  -1.733  -3.765  1.00  0.00     0.170 HD
ENDROOT
BRANCH   9  21
HETATM   21  C9  UNL     1       0.505   1.746  -2.966  1.00  0.00     0.065 C 
BRANCH  21  22
HETATM   22  C10 UNL     1       1.662   2.693  -3.065  1.00  0.00     0.098 C 
BRANCH  22  23
HETATM   23  C11 UNL     1       1.560   4.002  -3.287  1.00  0.00     0.361 C 
HETATM   24  F1  UNL     1       1.059   5.282  -3.527  1.00  0.00    -0.461 F 
ENDBRANCH  22  23
ENDBRANCH  21  22
ENDBRANCH   9  21
BRANCH   1  25
HETATM   25  C2  UNL     1       2.933   0.203   0.866  1.00  0.00     0.037 A 
HETATM   26  C1  UNL     1       3.698   0.920   1.665  1.00  0.00     0.155 A 
HETATM   27 CL1  UNL     1       3.129   1.885   0.422  1.00  0.00    -0.179 Cl
ENDBRANCH   1  25
BRANCH  13  28
HETATM   28  C15 UNL     1      -3.310  -0.126   2.598  1.00  0.00     0.126 C 
HETATM   29  C16 UNL     1      -4.110  -1.085   3.035  1.00  0.00     0.047 C 
BRANCH  28  30
HETATM   30  O3  UNL     1      -3.726   1.201   2.583  1.00  0.00    -0.379 OA
HETATM   31  C17 UNL     1      -4.467   1.774   1.526  1.00  0.00     0.202 C 
ENDBRANCH  28  30
ENDBRANCH  13  28
TORSDOF 6
