REMARK  3 active torsions:
REMARK  status: ('A' for Active; 'I' for Inactive)
REMARK    1  A    between atoms: C2_2  and  O1_3 
REMARK    2  A    between atoms: C2_2  and  C4_5 
REMARK    3  A    between atoms: C18_22  and  C19_23 
ROOT
HETATM    1  C4  UNL     1      -2.971   0.816  -0.049  1.00  0.00     0.132 C 
HETATM    2  C5  UNL     1      -3.673   0.847   1.316  1.00  0.00     0.059 C 
HETATM    3  C6  UNL     1      -1.823  -0.153  -0.042  1.00  0.00     0.045 C 
HETATM    4  C7  UNL     1      -0.638  -0.251   0.590  1.00  0.00     0.040 C 
HETATM    5  C8  UNL     1      -0.263  -1.677   0.595  1.00  0.00     0.093 C 
HETATM    6  C9  UNL     1       0.635  -2.100  -0.484  1.00  0.00    -0.074 C 
HETATM    7  C10 UNL     1       1.166  -1.685  -1.622  1.00  0.00     0.005 C 
HETATM    8  C11 UNL     1       2.628  -1.638  -1.865  1.00  0.00     0.025 C 
HETATM    9  C12 UNL     1       3.169  -2.080  -0.740  1.00  0.00     0.014 C 
HETATM   10  C13 UNL     1       2.728  -3.475  -0.473  1.00  0.00     0.061 C 
HETATM   11  C14 UNL     1       1.202  -3.488  -0.320  1.00  0.00     0.040 C 
HETATM   12  N1  UNL     1       4.056  -1.506   0.245  1.00  0.00    -0.313 N 
HETATM   13  C15 UNL     1       4.094  -0.157   0.679  1.00  0.00     0.320 C 
HETATM   14  O2  UNL     1       3.177  -0.108  -0.175  1.00  0.00    -0.247 OA
HETATM   15  N2  UNL     1       4.681   0.799   1.519  1.00  0.00    -0.339 N 
HETATM   16  C16 UNL     1       4.092   2.150   1.344  1.00  0.00     0.152 C 
HETATM   17  C17 UNL     1       2.649   1.956   1.628  1.00  0.00     0.006 C 
HETATM   18  C18 UNL     1       1.784   2.252   0.678  1.00  0.00     0.016 C 
HETATM   19  C20 UNL     1       0.394   2.033   0.947  1.00  0.00     0.159 C 
HETATM   20  N3  UNL     1       0.199   0.759   1.194  1.00  0.00    -0.233 NA
HETATM   21  N4  UNL     1      -0.663   3.018   0.948  1.00  0.00    -0.217 NA
HETATM   22  C21 UNL     1      -1.763   3.096   0.223  1.00  0.00     0.255 C 
HETATM   23  O3  UNL     1      -2.582   2.132  -0.327  1.00  0.00    -0.323 OA
HETATM   24  H18 UNL     1       4.750  -2.141   0.691  1.00  0.00     0.170 HD
HETATM   25  H19 UNL     1       5.430   0.328   2.100  1.00  0.00     0.164 HD
ENDROOT
BRANCH   1  26
HETATM   26  C2  UNL     1      -3.960   0.318  -1.012  1.00  0.00     0.075 C 
HETATM   27  C1  UNL     1      -4.286   1.099  -2.027  1.00  0.00     0.049 C 
BRANCH  26  28
HETATM   28  O1  UNL     1      -4.549  -0.929  -0.882  1.00  0.00    -0.358 OA
HETATM   29  C3  UNL     1      -5.782  -1.155  -0.234  1.00  0.00     0.209 C 
ENDBRANCH  26  28
ENDBRANCH   1  26
BRANCH  18  30
HETATM   30  C19 UNL     1       1.844   2.768  -0.708  1.00  0.00     0.264 C 
HETATM   31  F1  UNL     1       1.125   3.971  -0.791  1.00  0.00    -0.250 F 
ENDBRANCH  18  30
TORSDOF 3
