REMARK  5 active torsions:
REMARK  status: ('A' for Active; 'I' for Inactive)
REMARK    1  A    between atoms: O1_2  and  C2_3 
REMARK    2  A    between atoms: C2_3  and  C3_4 
REMARK    3  A    between atoms: C3_4  and  S1_5 
REMARK    4  A    between atoms: C5_8  and  C6_9 
REMARK    5  A    between atoms: C15_20  and  O2_21 
ROOT
HETATM    1  S1  UNL     1      -1.414   1.539   0.478  1.00  0.00    -0.102 SA
HETATM    2  N1  UNL     1      -1.668   0.088   1.083  1.00  0.00    -0.264 NA
HETATM    3  C4  UNL     1      -2.917  -0.547   1.079  1.00  0.00     0.193 C 
HETATM    4  C5  UNL     1      -2.707  -2.003   0.625  1.00  0.00    -0.034 C 
HETATM    5  C7  UNL     1      -1.789  -2.913   0.310  1.00  0.00    -0.001 C 
HETATM    6  C8  UNL     1      -1.207  -4.187  -0.110  1.00  0.00     0.149 C 
HETATM    7  N2  UNL     1      -0.302  -4.077  -1.269  1.00  0.00    -0.371 N 
HETATM    8  C9  UNL     1       0.902  -3.431  -0.785  1.00  0.00     0.124 C 
HETATM    9  C10 UNL     1       0.984  -2.124  -0.664  1.00  0.00     0.050 C 
HETATM   10  C11 UNL     1       0.826  -0.688  -0.624  1.00  0.00     0.007 C 
HETATM   11  C12 UNL     1       0.846   0.630  -0.520  1.00  0.00    -0.069 C 
HETATM   12  C13 UNL     1       1.991   1.401   0.007  1.00  0.00     0.041 C 
HETATM   13  C14 UNL     1       3.115   0.446   0.375  1.00  0.00     0.070 C 
HETATM   14  C15 UNL     1       4.266   1.253   0.929  1.00  0.00     0.058 C 
HETATM   15  C17 UNL     1       4.681   0.844   2.119  1.00  0.00     0.019 C 
HETATM   16  P1  UNL     1       5.012  -0.761   2.173  1.00  0.00    -0.016 P 
HETATM   17  C18 UNL     1       4.456  -1.897   0.857  1.00  0.00     0.176 C 
HETATM   18  N3  UNL     1       4.187  -2.616  -0.173  1.00  0.00    -0.270 NA
HETATM   19  C19 UNL     1       3.210  -3.639  -0.231  1.00  0.00     0.229 C 
HETATM   20  N4  UNL     1       2.044  -4.198  -0.406  1.00  0.00    -0.225 NA
HETATM   21  C20 UNL     1      -0.421   1.155  -1.071  1.00  0.00     0.120 C 
HETATM   22  H15 UNL     1       0.151  -4.110  -2.199  1.00  0.00     0.161 HD
ENDROOT
BRANCH   1  23
HETATM   23  C3  UNL     1      -3.006   2.164  -0.164  1.00  0.00     0.113 C 
BRANCH  23  24
HETATM   24  C2  UNL     1      -2.754   3.412  -0.999  1.00  0.00     0.178 C 
BRANCH  24  25
HETATM   25  O1  UNL     1      -3.920   3.946  -1.531  1.00  0.00    -0.395 OA
HETATM   26  C1  UNL     1      -4.819   4.309  -0.537  1.00  0.00     0.201 C 
ENDBRANCH  24  25
ENDBRANCH  23  24
ENDBRANCH   1  23
BRANCH   4  27
HETATM   27  C6  UNL     1      -4.029  -2.624   0.502  1.00  0.00     0.258 C 
HETATM   28  F1  UNL     1      -4.757  -1.909  -0.443  1.00  0.00    -0.251 F 
ENDBRANCH   4  27
BRANCH  14  29
HETATM   29  O2  UNL     1       4.727   2.297   0.129  1.00  0.00    -0.359 OA
HETATM   30  C16 UNL     1       5.121   3.542   0.664  1.00  0.00     0.209 C 
ENDBRANCH  14  29
TORSDOF 5
