REMARK  7 active torsions:
REMARK  status: ('A' for Active; 'I' for Inactive)
REMARK    1  A    between atoms: C1_2  and  O1_3 
REMARK    2  A    between atoms: O1_3  and  C2_4 
REMARK    3  A    between atoms: C2_4  and  C3_5 
REMARK    4  A    between atoms: C3_5  and  N1_6 
REMARK    5  A    between atoms: N1_6  and  C4_7 
REMARK    6  A    between atoms: C4_7  and  C5_8 
REMARK    7  A    between atoms: C5_8  and  C6_9 
ROOT
HETATM    1  C6  UNL     1      -1.049  -0.411   0.322  1.00  0.00    -0.006 C 
HETATM    2  C7  UNL     1      -1.214   0.037   1.774  1.00  0.00     0.003 C 
HETATM    3  C8  UNL     1      -2.146  -0.748   2.110  1.00  0.00     0.051 A 
HETATM    4  C9  UNL     1      -3.242  -1.623   2.623  1.00  0.00     0.091 A 
HETATM    5  C10 UNL     1      -3.699  -0.854   1.483  1.00  0.00     0.244 A 
HETATM    6  C11 UNL     1      -4.461  -0.294   0.428  1.00  0.00     0.122 A 
HETATM    7  N2  UNL     1      -5.587  -1.030   0.711  1.00  0.00    -0.257 NA
HETATM    8  C12 UNL     1      -5.562  -1.916   1.765  1.00  0.00     0.202 A 
HETATM    9  N3  UNL     1      -4.415  -1.768   2.187  1.00  0.00    -0.351 N 
HETATM   10  N4  UNL     1      -4.040   0.692  -0.536  1.00  0.00    -0.398 N 
HETATM   11  C13 UNL     1      -2.834   0.595  -1.242  1.00  0.00     0.116 C 
HETATM   12  C14 UNL     1      -1.484   0.598  -0.677  1.00  0.00     0.024 C 
HETATM   13  H17 UNL     1      -4.863   1.322  -0.449  1.00  0.00     0.155 HD
ENDROOT
BRANCH   1  14
HETATM   14  C5  UNL     1       0.524  -0.483   0.274  1.00  0.00     0.035 C 
BRANCH  14  15
HETATM   15  C4  UNL     1       1.174   0.816   0.524  1.00  0.00     0.270 C 
BRANCH  15  16
HETATM   16  N1  UNL     1       2.630   0.653   0.446  1.00  0.00     0.085 N 
HETATM   17  H7  UNL     1       3.076   1.538   0.767  1.00  0.00     0.315 HD
BRANCH  16  18
HETATM   18  C3  UNL     1       3.076   0.382  -0.899  1.00  0.00     0.295 C 
BRANCH  18  19
HETATM   19  C2  UNL     1       4.592   0.262  -0.965  1.00  0.00     0.198 C 
BRANCH  19  20
HETATM   20  O1  UNL     1       5.035   0.003  -2.270  1.00  0.00    -0.379 OA
BRANCH  20  21
HETATM   21  C1  UNL     1       6.431  -0.103  -2.295  1.00  0.00     0.252 C 
HETATM   22 BR1  UNL     1       6.902  -1.578  -1.113  1.00  0.00    -0.068 Br
ENDBRANCH  20  21
ENDBRANCH  19  20
ENDBRANCH  18  19
ENDBRANCH  16  18
ENDBRANCH  15  16
ENDBRANCH  14  15
ENDBRANCH   1  14
TORSDOF 7
