REMARK  6 active torsions:
REMARK  status: ('A' for Active; 'I' for Inactive)
REMARK    1  A    between atoms: C5_7  and  C6_8 
REMARK    2  A    between atoms: C6_8  and  C7_9 
REMARK    3  A    between atoms: C7_9  and  O2_10 
REMARK    4  A    between atoms: O2_10  and  C8_11 
REMARK    5  A    between atoms: C11_14  and  N2_15 
REMARK    6  A    between atoms: N2_15  and  C12_16 
ROOT
HETATM    1  C8  UNL     1       0.332  -0.065  -0.298  1.00  0.00     0.051 C 
HETATM    2  C9  UNL     1       1.319  -0.020   0.644  1.00  0.00     0.036 C 
HETATM    3  C10 UNL     1       2.707  -0.522   0.785  1.00  0.00     0.053 C 
HETATM    4  C11 UNL     1       3.620  -1.228   0.135  1.00  0.00     0.127 C 
HETATM    5  N3  UNL     1       4.266  -2.043  -0.883  1.00  0.00    -0.246 NA
HETATM    6  C18 UNL     1       3.472  -2.814  -1.649  1.00  0.00     0.113 C 
HETATM    7  C19 UNL     1       2.120  -2.565  -1.186  1.00  0.00     0.194 C 
HETATM    8  N4  UNL     1       0.912  -3.032  -1.569  1.00  0.00    -0.300 NA
HETATM    9  C20 UNL     1       0.009  -2.095  -1.787  1.00  0.00     0.090 C 
HETATM   10  C21 UNL     1       0.350  -0.661  -1.612  1.00  0.00     0.111 C 
ENDROOT
BRANCH   1  11
HETATM   11  O2  UNL     1      -0.782   0.606   0.193  1.00  0.00    -0.355 OA
BRANCH  11  12
HETATM   12  C7  UNL     1      -2.061   0.278  -0.250  1.00  0.00     0.177 C 
BRANCH  12  13
HETATM   13  C6  UNL     1      -3.132   1.113   0.456  1.00  0.00     0.065 C 
BRANCH  13  14
HETATM   14  C5  UNL     1      -4.479   0.672  -0.110  1.00  0.00     0.251 C 
HETATM   15  C2  UNL     1      -5.547   1.495   0.577  1.00  0.00     0.150 C 
HETATM   16  C1  UNL     1      -5.584   2.860  -0.084  1.00  0.00     0.042 C 
HETATM   17  O1  UNL     1      -6.804   0.935   0.525  1.00  0.00    -0.382 OA
HETATM   18  C3  UNL     1      -6.731  -0.295   1.174  1.00  0.00     0.198 C 
HETATM   19  C4  UNL     1      -5.946  -1.215   0.265  1.00  0.00     0.296 C 
HETATM   20  N1  UNL     1      -4.593  -0.736   0.103  1.00  0.00     0.092 N 
HETATM   21  H9  UNL     1      -4.157  -1.217  -0.737  1.00  0.00     0.316 HD
ENDBRANCH  13  14
ENDBRANCH  12  13
ENDBRANCH  11  12
ENDBRANCH   1  11
BRANCH   4  22
HETATM   22  N2  UNL     1       4.899  -1.412   0.802  1.00  0.00    -0.341 N 
HETATM   23  H17 UNL     1       5.550  -2.015   1.341  1.00  0.00     0.167 HD
BRANCH  22  24
HETATM   24  C12 UNL     1       5.639  -0.176   0.694  1.00  0.00     0.035 A 
HETATM   25  C13 UNL     1       6.312   0.101  -0.482  1.00  0.00     0.032 A 
HETATM   26  C14 UNL     1       7.027   1.303  -0.573  1.00  0.00     0.046 A 
HETATM   27  C15 UNL     1       7.061   2.188   0.481  1.00  0.00     0.138 A 
HETATM   28  F1  UNL     1       7.770   3.338   0.334  1.00  0.00    -0.204 F 
HETATM   29  C16 UNL     1       6.393   1.916   1.652  1.00  0.00     0.074 A 
HETATM   30 CL1  UNL     1       6.417   3.024   3.009  1.00  0.00    -0.081 Cl
HETATM   31  C17 UNL     1       5.682   0.718   1.738  1.00  0.00     0.056 A 
ENDBRANCH  22  24
ENDBRANCH   4  22
TORSDOF 6
