REMARK  8 active torsions:
REMARK  status: ('A' for Active; 'I' for Inactive)
REMARK    1  A    between atoms: C2_2  and  C3_3 
REMARK    2  A    between atoms: C7_9  and  N3_10 
REMARK    3  A    between atoms: N3_10  and  C8_11 
REMARK    4  A    between atoms: C14_19  and  O1_20 
REMARK    5  A    between atoms: O1_20  and  C15_21 
REMARK    6  A    between atoms: C15_21  and  C16_22 
REMARK    7  A    between atoms: C16_22  and  C17_23 
REMARK    8  A    between atoms: C21_28  and  O2_29 
ROOT
HETATM    1  C3  UNL     1       0.926  -2.523  -1.098  1.00  0.00    -0.004 A 
HETATM    2  C4  UNL     1       2.050  -3.283  -0.888  1.00  0.00     0.046 A 
HETATM    3  C5  UNL     1       3.119  -2.648  -0.293  1.00  0.00     0.073 A 
HETATM    4  N1  UNL     1       4.220  -3.367  -0.062  1.00  0.00    -0.241 NA
HETATM    5  C6  UNL     1       5.323  -2.889   0.514  1.00  0.00     0.236 A 
HETATM    6  N2  UNL     1       5.368  -1.622   0.898  1.00  0.00    -0.224 NA
HETATM    7  C7  UNL     1       4.323  -0.775   0.727  1.00  0.00     0.142 A 
HETATM    8  C12 UNL     1       3.191  -1.330   0.118  1.00  0.00     0.041 A 
HETATM    9  C13 UNL     1       2.012  -0.648  -0.136  1.00  0.00     0.055 A 
HETATM   10  C14 UNL     1       0.897  -1.200  -0.724  1.00  0.00     0.079 A 
ENDROOT
BRANCH  10  11
HETATM   11  O1  UNL     1      -0.271  -0.521  -0.974  1.00  0.00    -0.350 OA
BRANCH  11  12
HETATM   12  C15 UNL     1      -0.553   0.818  -0.697  1.00  0.00     0.178 C 
BRANCH  12  13
HETATM   13  C16 UNL     1      -1.974   1.156  -1.122  1.00  0.00     0.054 C 
BRANCH  13  14
HETATM   14  C17 UNL     1      -3.002   0.300  -0.407  1.00  0.00     0.107 C 
HETATM   15  N4  UNL     1      -4.312   0.686  -0.870  1.00  0.00    -0.414 N 
HETATM   16  C18 UNL     1      -5.143   1.271   0.133  1.00  0.00     0.114 C 
HETATM   17  H14 UNL     1      -4.347   1.118  -1.798  1.00  0.00     0.153 HD
HETATM   18  C19 UNL     1      -4.408   2.328   0.950  1.00  0.00     0.022 C 
HETATM   19  C20 UNL     1      -3.163   1.771   1.607  1.00  0.00     0.035 C 
HETATM   20  C21 UNL     1      -2.855   0.391   1.078  1.00  0.00     0.140 C 
BRANCH  20  21
HETATM   21  O2  UNL     1      -3.697  -0.541   1.695  1.00  0.00    -0.394 OA
HETATM   22  H22 UNL     1      -3.205  -1.413   1.729  1.00  0.00     0.210 HD
ENDBRANCH  20  21
ENDBRANCH  13  14
ENDBRANCH  12  13
ENDBRANCH  11  12
ENDBRANCH  10  11
BRANCH   1  23
HETATM   23  C2  UNL     1      -0.255  -3.090  -1.726  1.00  0.00    -0.012 C 
HETATM   24  C1  UNL     1      -0.130  -4.348  -2.090  1.00  0.00     0.032 C 
ENDBRANCH   1  23
BRANCH   7  25
HETATM   25  N3  UNL     1       4.120   0.546   1.025  1.00  0.00    -0.338 N 
HETATM   26  H6  UNL     1       5.012   0.635   1.653  1.00  0.00     0.167 HD
BRANCH  25  27
HETATM   27  C8  UNL     1       3.781   1.836   1.235  1.00  0.00     0.076 A 
HETATM   28  C9  UNL     1       3.464   2.929   1.811  1.00  0.00     0.164 A 
HETATM   29  F1  UNL     1       3.384   2.849   3.174  1.00  0.00    -0.202 F 
HETATM   30  C10 UNL     1       3.362   3.676   0.546  1.00  0.00     0.077 A 
HETATM   31 CL1  UNL     1       2.932   5.361   0.648  1.00  0.00    -0.081 Cl
HETATM   32  C11 UNL     1       3.688   2.562  -0.068  1.00  0.00     0.059 A 
ENDBRANCH  25  27
ENDBRANCH   7  25
TORSDOF 8
