REMARK  3 active torsions:
REMARK  status: ('A' for Active; 'I' for Inactive)
REMARK    1  A    between atoms: C4_5  and  N1_6 
REMARK    2  A    between atoms: N1_6  and  C5_7 
REMARK    3  A    between atoms: C12_16  and  N4_17 
ROOT
HETATM    1  C5  UNL     1      -2.266  -0.663  -0.404  1.00  0.00     0.142 A 
HETATM    2  N2  UNL     1      -3.073  -1.559  -0.933  1.00  0.00    -0.224 NA
HETATM    3  C6  UNL     1      -2.505  -2.704  -1.424  1.00  0.00     0.236 A 
HETATM    4  N3  UNL     1      -1.172  -3.017  -1.422  1.00  0.00    -0.241 NA
HETATM    5  C7  UNL     1      -0.331  -2.135  -0.896  1.00  0.00     0.072 A 
HETATM    6  C8  UNL     1      -0.943  -0.958  -0.395  1.00  0.00     0.041 A 
HETATM    7  C9  UNL     1      -0.393   0.264   0.249  1.00  0.00     0.050 C 
HETATM    8  C10 UNL     1       0.832   0.344   0.696  1.00  0.00     0.050 C 
HETATM    9  C11 UNL     1       1.723   1.513   0.463  1.00  0.00     0.103 C 
HETATM   10  C12 UNL     1       2.789   0.635  -0.313  1.00  0.00     0.264 C 
HETATM   11  C16 UNL     1       2.696  -0.732   0.349  1.00  0.00     0.185 C 
HETATM   12  C17 UNL     1       2.194  -1.820  -0.486  1.00  0.00     0.010 C 
HETATM   13  C18 UNL     1       1.091  -2.477  -0.917  1.00  0.00     0.031 C 
HETATM   14  O2  UNL     1       1.807  -0.391   1.439  1.00  0.00    -0.344 OA
ENDROOT
BRANCH   1  15
HETATM   15  N1  UNL     1      -2.733   0.556   0.129  1.00  0.00    -0.340 N 
HETATM   16  H3  UNL     1      -2.587   1.458   0.580  1.00  0.00     0.167 HD
BRANCH  15  17
HETATM   17  C4  UNL     1      -4.135   0.795   0.108  1.00  0.00     0.035 A 
HETATM   18  C3  UNL     1      -4.937   1.904  -0.213  1.00  0.00     0.032 A 
HETATM   19  C2  UNL     1      -6.310   1.992  -0.160  1.00  0.00     0.046 A 
HETATM   20  C1  UNL     1      -6.933   0.840   0.261  1.00  0.00     0.138 A 
HETATM   21  F1  UNL     1      -8.300   0.970   0.302  1.00  0.00    -0.204 F 
HETATM   22  C20 UNL     1      -6.237  -0.301   0.600  1.00  0.00     0.074 A 
HETATM   23  C19 UNL     1      -4.863  -0.332   0.527  1.00  0.00     0.056 A 
HETATM   24 CL1  UNL     1      -7.288  -1.608   1.098  1.00  0.00    -0.081 Cl
ENDBRANCH  15  17
ENDBRANCH   1  15
BRANCH  10  25
HETATM   25  N4  UNL     1       4.083   1.204  -0.030  1.00  0.00     0.121 N 
HETATM   26  C13 UNL     1       5.123   0.458  -0.707  1.00  0.00     0.302 C 
HETATM   27  C14 UNL     1       6.172   0.267   0.330  1.00  0.00     0.200 C 
HETATM   28  O1  UNL     1       5.741   0.858   1.500  1.00  0.00    -0.361 OA
HETATM   29  C15 UNL     1       4.432   1.278   1.344  1.00  0.00     0.441 C 
ENDBRANCH  10  25
TORSDOF 3
