REMARK  4 active torsions:
REMARK  status: ('A' for Active; 'I' for Inactive)
REMARK    1  A    between atoms: C2_2  and  C3_3 
REMARK    2  A    between atoms: C3_3  and  N1_4 
REMARK    3  A    between atoms: N1_4  and  C4_6 
REMARK    4  A    between atoms: C14_20  and  O2_21 
ROOT
HETATM    1  C4  UNL     1       1.146   1.344  -0.903  1.00  0.00     0.171 C 
HETATM    2  C5  UNL     1       0.980   0.899   0.376  1.00  0.00     0.018 C 
HETATM    3  C6  UNL     1      -0.364   1.409   0.633  1.00  0.00     0.049 C 
HETATM    4  C7  UNL     1      -1.452   0.695   0.872  1.00  0.00     0.075 C 
HETATM    5  C8  UNL     1      -1.491  -0.782   0.923  1.00  0.00     0.336 C 
HETATM    6  N2  UNL     1      -2.497  -1.255  -0.007  1.00  0.00     0.096 N 
HETATM    7  C9  UNL     1      -2.530  -2.715  -0.065  1.00  0.00     0.275 C 
HETATM    8  C10 UNL     1      -1.135  -3.277   0.059  1.00  0.00     0.057 C 
HETATM    9  C11 UNL     1      -0.239  -2.830  -1.060  1.00  0.00     0.179 C 
HETATM   10  O1  UNL     1       1.097  -3.090  -0.553  1.00  0.00    -0.332 OA
HETATM   11  C12 UNL     1       1.938  -1.919  -0.480  1.00  0.00     0.199 C 
HETATM   12  N3  UNL     1       2.032  -1.686  -1.772  1.00  0.00    -0.215 NA
HETATM   13  C13 UNL     1       2.094  -0.397  -2.459  1.00  0.00     0.238 C 
HETATM   14  N4  UNL     1       1.792   0.860  -2.123  1.00  0.00    -0.221 NA
HETATM   15  C14 UNL     1       2.556  -1.138   0.660  1.00  0.00     0.122 C 
HETATM   16  C16 UNL     1       2.089   0.107   1.008  1.00  0.00     0.056 C 
HETATM   17  C17 UNL     1      -3.768  -0.844   0.558  1.00  0.00     0.299 C 
HETATM   18  C18 UNL     1      -3.908   0.634   0.713  1.00  0.00     0.205 C 
HETATM   19  O3  UNL     1      -2.697   1.236   1.106  1.00  0.00    -0.352 OA
ENDROOT
BRANCH   1  20
HETATM   20  N1  UNL     1       0.504   2.630  -1.079  1.00  0.00    -0.165 N 
HETATM   21  F1  UNL     1      -0.731   2.946  -1.586  1.00  0.00    -0.092 F 
BRANCH  20  22
HETATM   22  C3  UNL     1       1.361   3.679  -0.641  1.00  0.00     0.181 C 
BRANCH  22  23
HETATM   23  C2  UNL     1       0.956   4.894  -0.292  1.00  0.00    -0.135 C 
HETATM   24  C1  UNL     1       0.153   5.903   0.016  1.00  0.00     0.098 C 
ENDBRANCH  22  23
ENDBRANCH  20  22
ENDBRANCH   1  20
BRANCH  15  25
HETATM   25  O2  UNL     1       3.591  -1.407   1.530  1.00  0.00    -0.352 OA
HETATM   26  C15 UNL     1       4.857  -0.776   1.285  1.00  0.00     0.210 C 
ENDBRANCH  15  25
TORSDOF 4
