REMARK  4 active torsions:
REMARK  status: ('A' for Active; 'I' for Inactive)
REMARK       I    between atoms: C2_2  and  N1_4 
REMARK    1  A    between atoms: N1_4  and  C3_5 
REMARK    2  A    between atoms: C3_5  and  C4_6 
REMARK    3  A    between atoms: C7_9  and  C8_10 
REMARK    4  A    between atoms: C21_26  and  N5_27 
ROOT
HETATM    1  C8  UNL     1      -0.132  -0.372  -0.473  1.00  0.00     0.123 A 
HETATM    2  N2  UNL     1      -0.906   0.646  -0.768  1.00  0.00    -0.236 NA
HETATM    3  C9  UNL     1      -2.291   0.535  -0.653  1.00  0.00     0.066 A 
HETATM    4  C10 UNL     1      -2.326  -0.715  -0.236  1.00  0.00     0.143 A 
HETATM    5  N3  UNL     1      -1.834  -1.981   0.161  1.00  0.00    -0.274 N 
HETATM    6  C11 UNL     1      -2.692  -3.022   0.577  1.00  0.00     0.135 C 
HETATM    7  C12 UNL     1      -3.902  -2.609   0.894  1.00  0.00     0.135 C 
HETATM    8  N4  UNL     1      -5.145  -2.082   1.205  1.00  0.00    -0.274 NA
HETATM    9  C13 UNL     1      -5.825  -1.153   0.607  1.00  0.00     0.108 C 
HETATM   10  C14 UNL     1      -6.072  -0.099  -0.466  1.00  0.00     0.043 A 
HETATM   11  C15 UNL     1      -7.454  -0.521  -1.194  1.00  0.00     0.048 A 
HETATM   12  C16 UNL     1      -6.705   0.384  -1.393  1.00  0.00    -0.051 A 
HETATM   13  C17 UNL     1      -6.104   1.085  -1.536  1.00  0.00    -0.052 A 
HETATM   14  C18 UNL     1      -5.234   2.062  -1.715  1.00  0.00     0.036 A 
HETATM   15  C19 UNL     1      -3.818   1.418  -2.133  1.00  0.00     0.019 C 
HETATM   16  C20 UNL     1      -3.661   1.112  -0.795  1.00  0.00     0.051 A 
HETATM   17  C21 UNL     1      -3.885   0.806   0.668  1.00  0.00     0.076 A 
HETATM   18  C22 UNL     1      -4.711   1.042  -0.226  1.00  0.00     0.032 A 
HETATM   19  N6  UNL     1      -0.486  -1.690  -0.012  1.00  0.00    -0.281 N 
HETATM   20  H22 UNL     1       0.027  -2.546   0.248  1.00  0.00     0.189 HD
ENDROOT
BRANCH   1  21
HETATM   21  C7  UNL     1       1.341  -0.195  -0.631  1.00  0.00     0.057 C 
HETATM   22  C6  UNL     1       2.005  -0.399   0.718  1.00  0.00     0.013 C 
HETATM   23  C5  UNL     1       3.357   0.301   0.753  1.00  0.00     0.007 C 
HETATM   24  C4  UNL     1       3.966   0.333  -0.640  1.00  0.00     0.003 C 
HETATM   25  C24 UNL     1       3.136   1.097  -1.623  1.00  0.00     0.007 C 
HETATM   26  C23 UNL     1       1.705   1.157  -1.131  1.00  0.00     0.013 C 
BRANCH  24  27
HETATM   27  C3  UNL     1       5.321   0.991  -0.540  1.00  0.00     0.127 C 
BRANCH  27  28
HETATM   28  N1  UNL     1       6.230   0.289   0.340  1.00  0.00    -0.361 N 
HETATM   29  C2  UNL     1       7.548   0.727   0.582  1.00  0.00     0.213 C 
HETATM   30  C1  UNL     1       8.507   0.035   1.477  1.00  0.00     0.117 C 
HETATM   31  O1  UNL     1       7.890   1.788  -0.030  1.00  0.00    -0.274 OA
HETATM   32  H4  UNL     1       5.964  -0.598   0.858  1.00  0.00     0.162 HD
ENDBRANCH  27  28
ENDBRANCH  24  27
ENDBRANCH   1  21
BRANCH  17  33
HETATM   33  N5  UNL     1      -4.901   0.805   1.607  1.00  0.00    -0.418 N 
HETATM   34  H20 UNL     1      -4.280   1.214   2.373  1.00  0.00     0.150 HD
HETATM   35  H21 UNL     1      -5.822   0.674   2.035  1.00  0.00     0.150 HD
ENDBRANCH  17  33
TORSDOF 4
