REMARK  8 active torsions:
REMARK  status: ('A' for Active; 'I' for Inactive)
REMARK    1  A    between atoms: O1_2  and  C2_3 
REMARK    2  A    between atoms: C6_9  and  N3_10 
REMARK    3  A    between atoms: N3_10  and  C7_11 
REMARK    4  A    between atoms: C15_21  and  O2_22 
REMARK    5  A    between atoms: O2_22  and  C16_23 
REMARK    6  A    between atoms: C16_23  and  C17_24 
REMARK    7  A    between atoms: C17_24  and  C18_25 
REMARK    8  A    between atoms: C18_25  and  N4_26 
ROOT
HETATM    1  C2  UNL     1      -0.501  -2.670   0.880  1.00  0.00     0.100 C 
HETATM    2  C3  UNL     1      -1.584  -3.414   0.969  1.00  0.00     0.042 C 
HETATM    3  C4  UNL     1      -2.833  -2.696   0.719  1.00  0.00     0.145 C 
HETATM    4  N1  UNL     1      -3.972  -3.404   0.293  1.00  0.00    -0.372 N 
HETATM    5  C5  UNL     1      -4.942  -2.719  -0.528  1.00  0.00     0.205 C 
HETATM    6  N2  UNL     1      -4.739  -1.526  -0.984  1.00  0.00    -0.226 NA
HETATM    7  C6  UNL     1      -3.528  -0.817  -0.673  1.00  0.00     0.138 C 
HETATM    8  C13 UNL     1      -2.600  -1.380   0.130  1.00  0.00     0.017 C 
HETATM    9  C14 UNL     1      -1.382  -0.592   0.138  1.00  0.00     0.053 C 
HETATM   10  C15 UNL     1      -0.281  -1.278   0.510  1.00  0.00     0.102 C 
HETATM   11  H6  UNL     1      -4.051  -4.396   0.599  1.00  0.00     0.161 HD
ENDROOT
BRANCH   7  12
HETATM   12  N3  UNL     1      -3.421   0.476  -1.273  1.00  0.00    -0.340 N 
HETATM   13  H8  UNL     1      -2.713   0.817  -1.987  1.00  0.00     0.167 HD
BRANCH  12  14
HETATM   14  C7  UNL     1      -4.479   1.297  -0.735  1.00  0.00     0.035 A 
HETATM   15  C8  UNL     1      -5.698   1.322  -1.381  1.00  0.00     0.032 A 
HETATM   16  C9  UNL     1      -6.772   2.073  -0.946  1.00  0.00     0.046 A 
HETATM   17  C10 UNL     1      -6.603   2.840   0.205  1.00  0.00     0.138 A 
HETATM   18  F1  UNL     1      -7.565   3.608   0.726  1.00  0.00    -0.204 F 
HETATM   19  C11 UNL     1      -5.382   2.834   0.879  1.00  0.00     0.074 A 
HETATM   20 CL1  UNL     1      -5.079   3.767   2.333  1.00  0.00    -0.081 Cl
HETATM   21  C12 UNL     1      -4.347   2.069   0.403  1.00  0.00     0.056 A 
ENDBRANCH  12  14
ENDBRANCH   7  12
BRANCH  10  22
HETATM   22  O2  UNL     1       0.966  -0.690   0.535  1.00  0.00    -0.348 OA
BRANCH  22  23
HETATM   23  C16 UNL     1       1.396   0.268  -0.402  1.00  0.00     0.177 C 
BRANCH  23  24
HETATM   24  C17 UNL     1       2.863   0.579  -0.072  1.00  0.00     0.046 C 
BRANCH  24  25
HETATM   25  C18 UNL     1       3.395   1.612  -1.051  1.00  0.00     0.119 C 
BRANCH  25  26
HETATM   26  N4  UNL     1       4.730   1.915  -0.767  1.00  0.00    -0.408 N 
HETATM   27  C19 UNL     1       4.986   2.600   0.421  1.00  0.00     0.143 C 
HETATM   28  C20 UNL     1       5.933   1.953   1.386  1.00  0.00     0.187 C 
HETATM   29  O3  UNL     1       6.972   1.284   0.742  1.00  0.00    -0.388 OA
HETATM   30  C21 UNL     1       6.443   0.357  -0.167  1.00  0.00     0.187 C 
HETATM   31  C22 UNL     1       5.781   1.151  -1.272  1.00  0.00     0.143 C 
ENDBRANCH  25  26
ENDBRANCH  24  25
ENDBRANCH  23  24
ENDBRANCH  22  23
ENDBRANCH  10  22
BRANCH   1  32
HETATM   32  O1  UNL     1       0.683  -3.358   1.157  1.00  0.00    -0.353 OA
HETATM   33  C1  UNL     1       1.467  -4.000   0.191  1.00  0.00     0.210 C 
ENDBRANCH   1  32
TORSDOF 8
