REMARK  3 active torsions:
REMARK  status: ('A' for Active; 'I' for Inactive)
REMARK    1  A    between atoms: C2_2  and  N1_3 
REMARK    2  A    between atoms: N1_3  and  C3_4 
REMARK    3  A    between atoms: C3_4  and  C4_5 
ROOT
HETATM    1  C4  UNL     1       1.568   0.495   0.316  1.00  0.00     0.014 C 
HETATM    2  C5  UNL     1       0.996   0.267  -1.032  1.00  0.00     0.006 C 
HETATM    3  C6  UNL     1       1.259  -0.958  -1.789  1.00  0.00     0.006 C 
HETATM    4  C7  UNL     1       0.062  -1.898  -2.032  1.00  0.00     0.062 C 
HETATM    5  C8  UNL     1      -0.507  -2.241  -0.681  1.00  0.00     0.061 A 
HETATM    6  N2  UNL     1       0.304  -3.154  -0.289  1.00  0.00    -0.262 NA
HETATM    7  C9  UNL     1       0.364  -3.536   1.103  1.00  0.00     0.134 A 
HETATM    8  C10 UNL     1      -0.507  -2.795   1.846  1.00  0.00     0.110 A 
HETATM    9  N3  UNL     1      -1.145  -1.962   0.967  1.00  0.00    -0.353 N 
HETATM   10  C11 UNL     1      -1.282  -0.705   1.749  1.00  0.00     0.129 C 
HETATM   11  C12 UNL     1       0.058  -0.271   2.331  1.00  0.00     0.021 C 
HETATM   12  C13 UNL     1       1.257  -0.198   1.536  1.00  0.00     0.008 C 
HETATM   13  C14 UNL     1      -1.489  -1.370  -0.236  1.00  0.00     0.068 A 
HETATM   14  C15 UNL     1      -2.258  -0.465  -0.633  1.00  0.00     0.001 C 
HETATM   15  C16 UNL     1      -2.514   0.205  -1.905  1.00  0.00     0.161 C 
HETATM   16  N4  UNL     1      -2.745   1.606  -1.413  1.00  0.00    -0.385 N 
HETATM   17  C17 UNL     1      -3.678   1.343  -0.389  1.00  0.00     0.039 A 
HETATM   18  C18 UNL     1      -4.727   2.136   0.107  1.00  0.00     0.030 A 
HETATM   19  C19 UNL     1      -5.550   1.657   1.138  1.00  0.00     0.002 A 
HETATM   20  C20 UNL     1      -5.311   0.414   1.646  1.00  0.00     0.001 A 
HETATM   21  C21 UNL     1      -4.270  -0.370   1.154  1.00  0.00     0.014 A 
HETATM   22  C22 UNL     1      -3.430   0.100   0.115  1.00  0.00     0.001 A 
HETATM   23  H26 UNL     1      -2.361   2.540  -1.702  1.00  0.00     0.160 HD
ENDROOT
BRANCH   1  24
HETATM   24  C3  UNL     1       3.158   0.431   0.113  1.00  0.00     0.274 C 
BRANCH  24  25
HETATM   25  N1  UNL     1       3.463   1.470  -0.843  1.00  0.00     0.083 N 
HETATM   26  H6  UNL     1       3.078   2.399  -0.572  1.00  0.00     0.315 HD
BRANCH  25  27
HETATM   27  C2  UNL     1       4.870   1.562  -1.091  1.00  0.00     0.265 C 
HETATM   28  C1  UNL     1       5.637   2.092   0.091  1.00  0.00     0.037 C 
ENDBRANCH  25  27
ENDBRANCH  24  25
ENDBRANCH   1  24
TORSDOF 3
