REMARK  2 active torsions:
REMARK  status: ('A' for Active; 'I' for Inactive)
REMARK       I    between atoms: C2_2  and  N1_4 
REMARK    1  A    between atoms: N1_4  and  C3_5 
REMARK    2  A    between atoms: C3_5  and  C4_6 
ROOT
HETATM    1  C4  UNL     1       1.154   0.293   0.674  1.00  0.00     0.005 C 
HETATM    2  C5  UNL     1       1.514   1.580   1.325  1.00  0.00     0.013 C 
HETATM    3  C6  UNL     1       1.489   2.744   0.347  1.00  0.00     0.079 C 
HETATM    4  C7  UNL     1       0.165   2.844  -0.323  1.00  0.00     0.107 A 
HETATM    5  N2  UNL     1       0.072   3.147  -1.631  1.00  0.00    -0.246 NA
HETATM    6  C8  UNL     1      -1.198   3.176  -2.045  1.00  0.00     0.136 A 
HETATM    7  C9  UNL     1      -1.870   2.867  -0.889  1.00  0.00     0.113 A 
HETATM    8  N3  UNL     1      -1.060   2.653   0.206  1.00  0.00    -0.327 N 
HETATM    9  C10 UNL     1      -1.716   2.343   1.426  1.00  0.00     0.254 C 
HETATM   10  N4  UNL     1      -1.691   0.957   1.845  1.00  0.00    -0.360 N 
HETATM   11  C11 UNL     1      -1.924  -0.208   1.062  1.00  0.00     0.105 A 
HETATM   12  C12 UNL     1      -3.179  -0.197   0.494  1.00  0.00     0.062 A 
HETATM   13  C13 UNL     1      -3.352  -1.355  -0.277  1.00  0.00    -0.006 A 
HETATM   14  C14 UNL     1      -4.404  -1.812  -1.034  1.00  0.00     0.014 A 
HETATM   15  C15 UNL     1      -4.303  -3.002  -1.699  1.00  0.00     0.001 A 
HETATM   16  C16 UNL     1      -3.133  -3.713  -1.586  1.00  0.00     0.002 A 
HETATM   17  C17 UNL     1      -2.110  -3.210  -0.815  1.00  0.00     0.030 A 
HETATM   18  C18 UNL     1      -2.148  -2.001  -0.110  1.00  0.00     0.046 A 
HETATM   19  N5  UNL     1      -1.306  -1.318   0.686  1.00  0.00    -0.333 N 
HETATM   20  C19 UNL     1       0.015  -1.843   1.021  1.00  0.00     0.131 C 
HETATM   21  C20 UNL     1       0.868  -0.811   1.662  1.00  0.00     0.026 C 
HETATM   22  H16 UNL     1      -1.552   0.499   2.753  1.00  0.00     0.162 HD
ENDROOT
BRANCH   1  23
HETATM   23  C3  UNL     1       2.093  -0.144  -0.425  1.00  0.00     0.127 C 
BRANCH  23  24
HETATM   24  N1  UNL     1       3.407  -0.293   0.166  1.00  0.00    -0.361 N 
HETATM   25  C2  UNL     1       4.454  -0.702  -0.698  1.00  0.00     0.213 C 
HETATM   26  C1  UNL     1       5.864  -0.900  -0.239  1.00  0.00     0.117 C 
HETATM   27  O1  UNL     1       4.169  -0.904  -1.907  1.00  0.00    -0.274 OA
HETATM   28  H4  UNL     1       3.730  -0.145   1.165  1.00  0.00     0.162 HD
ENDBRANCH  23  24
ENDBRANCH   1  23
TORSDOF 2
