REMARK  7 active torsions:
REMARK  status: ('A' for Active; 'I' for Inactive)
REMARK    1  A    between atoms: C2_2  and  N1_3 
REMARK    2  A    between atoms: C2_2  and  C7_8 
REMARK    3  A    between atoms: N1_3  and  C3_4 
REMARK    4  A    between atoms: C8_10  and  C9_11 
REMARK    5  A    between atoms: C12_14  and  C13_15 
REMARK    6  A    between atoms: C13_15  and  N3_16 
REMARK       I    between atoms: N3_16  and  C14_17 
REMARK    7  A    between atoms: C20_26  and  N6_27 
ROOT
HETATM    1  C7  UNL     1      -2.229   0.016  -0.173  1.00  0.00     0.111 A 
HETATM    2  N2  UNL     1      -1.052  -0.352   0.317  1.00  0.00    -0.230 NA
HETATM    3  C8  UNL     1      -0.128  -0.406  -0.694  1.00  0.00     0.116 A 
HETATM    4  N4  UNL     1      -0.737  -0.063  -1.857  1.00  0.00    -0.303 N 
HETATM    5  C18 UNL     1      -0.290   0.039  -3.121  1.00  0.00     0.118 A 
HETATM    6  C19 UNL     1      -1.130   0.414  -4.148  1.00  0.00     0.136 A 
HETATM    7  N5  UNL     1      -2.426   0.671  -3.809  1.00  0.00    -0.245 NA
HETATM    8  C20 UNL     1      -2.824   0.555  -2.534  1.00  0.00     0.130 A 
HETATM    9  C21 UNL     1      -1.997   0.185  -1.518  1.00  0.00     0.111 A 
ENDROOT
BRANCH   3  10
HETATM   10  C9  UNL     1       1.294  -0.786  -0.476  1.00  0.00     0.056 C 
HETATM   11  C10 UNL     1       1.868   0.317   0.384  1.00  0.00     0.013 C 
HETATM   12  C11 UNL     1       3.250   0.089   0.848  1.00  0.00     0.007 C 
HETATM   13  C12 UNL     1       3.771  -1.266   0.467  1.00  0.00     0.003 C 
HETATM   14  C16 UNL     1       2.715  -2.244   1.004  1.00  0.00     0.007 C 
HETATM   15  C17 UNL     1       1.493  -2.155   0.072  1.00  0.00     0.013 C 
BRANCH  13  16
HETATM   16  C13 UNL     1       5.059  -1.618   1.161  1.00  0.00     0.127 C 
BRANCH  16  17
HETATM   17  N3  UNL     1       6.115  -0.686   0.861  1.00  0.00    -0.361 N 
HETATM   18  C14 UNL     1       6.594  -0.442  -0.436  1.00  0.00     0.213 C 
HETATM   19  C15 UNL     1       7.683   0.513  -0.786  1.00  0.00     0.117 C 
HETATM   20  O1  UNL     1       6.075  -1.073  -1.410  1.00  0.00    -0.274 OA
HETATM   21  H17 UNL     1       6.631  -0.098   1.580  1.00  0.00     0.162 HD
ENDBRANCH  16  17
ENDBRANCH  13  16
ENDBRANCH   3  10
BRANCH   1  22
HETATM   22  C2  UNL     1      -3.426   0.174   0.611  1.00  0.00     0.037 C 
HETATM   23  C1  UNL     1      -3.255  -0.103   1.890  1.00  0.00     0.065 C 
BRANCH  22  24
HETATM   24  N1  UNL     1      -4.740   0.554   0.363  1.00  0.00    -0.383 N 
HETATM   25  H3  UNL     1      -5.213  -0.315  -0.001  1.00  0.00     0.160 HD
BRANCH  24  26
HETATM   26  C3  UNL     1      -5.568   1.743   0.474  1.00  0.00     0.107 A 
HETATM   27  C4  UNL     1      -6.961   1.566   0.038  1.00  0.00    -0.006 A 
HETATM   28  C5  UNL     1      -7.425   1.874   1.222  1.00  0.00    -0.026 A 
HETATM   29  C6  UNL     1      -6.111   2.088   1.805  1.00  0.00     0.056 A 
ENDBRANCH  24  26
ENDBRANCH  22  24
ENDBRANCH   1  22
BRANCH   8  30
HETATM   30  N6  UNL     1      -4.179   0.840  -2.307  1.00  0.00    -0.285 NA
HETATM   31  H27 UNL     1      -5.164   0.810  -2.626  1.00  0.00     0.125 HD
HETATM   32  H28 UNL     1      -4.920   0.595  -3.001  1.00  0.00     0.125 HD
ENDBRANCH   8  30
TORSDOF 7
