REMARK  4 active torsions:
REMARK  status: ('A' for Active; 'I' for Inactive)
REMARK       I    between atoms: C2_2  and  N1_4 
REMARK    1  A    between atoms: N1_4  and  C3_5 
REMARK    2  A    between atoms: C3_5  and  C4_6 
REMARK    3  A    between atoms: C7_9  and  N2_10 
REMARK    4  A    between atoms: N2_10  and  C8_11 
ROOT
HETATM    1  C8  UNL     1      -1.226  -0.681  -0.547  1.00  0.00     0.708 A 
HETATM    2  N3  UNL     1      -1.989   0.311  -1.100  1.00  0.00    -0.060 NA
HETATM    3  C9  UNL     1      -3.185   0.222  -0.522  1.00  0.00     0.139 A 
HETATM    4  C10 UNL     1      -4.209   1.130  -0.841  1.00  0.00     0.168 C 
HETATM    5  C11 UNL     1      -4.355   2.270  -1.793  1.00  0.00     0.055 C 
HETATM    6  C12 UNL     1      -5.654   2.661  -1.108  1.00  0.00     0.185 A 
HETATM    7  C13 UNL     1      -6.322   3.352  -0.231  1.00  0.00     0.063 A 
HETATM    8  C14 UNL     1      -6.282   1.915   0.775  1.00  0.00     0.253 A 
HETATM    9  N4  UNL     1      -5.463   1.346  -0.256  1.00  0.00    -0.017 N 
HETATM   10  C15 UNL     1      -6.527   1.344  -1.339  1.00  0.00     0.290 A 
HETATM   11  C16 UNL     1      -3.226  -0.783   0.373  1.00  0.00     0.105 A 
HETATM   12  C17 UNL     1      -4.280  -1.198   1.169  1.00  0.00     0.149 A 
HETATM   13  N5  UNL     1      -4.049  -2.256   1.991  1.00  0.00    -0.269 NA
HETATM   14  C18 UNL     1      -2.813  -2.835   1.983  1.00  0.00     0.134 A 
HETATM   15  C19 UNL     1      -1.808  -2.371   1.164  1.00  0.00     0.135 A 
HETATM   16  N6  UNL     1      -2.000  -1.328   0.340  1.00  0.00    -0.151 N 
ENDROOT
BRANCH   1  17
HETATM   17  N2  UNL     1       0.111  -0.902  -0.901  1.00  0.00    -0.219 N 
HETATM   18  H13 UNL     1       0.511  -0.267  -1.654  1.00  0.00     0.178 HD
BRANCH  17  19
HETATM   19  C7  UNL     1       1.157  -1.795  -0.502  1.00  0.00     0.099 C 
HETATM   20  C6  UNL     1       1.635  -1.591   0.907  1.00  0.00     0.026 C 
HETATM   21  C5  UNL     1       2.803  -0.659   1.048  1.00  0.00     0.008 C 
HETATM   22  C4  UNL     1       3.900  -1.156   0.149  1.00  0.00     0.003 C 
HETATM   23  C21 UNL     1       3.410  -0.924  -1.262  1.00  0.00     0.008 C 
HETATM   24  C20 UNL     1       2.279  -1.858  -1.504  1.00  0.00     0.026 C 
BRANCH  22  25
HETATM   25  C3  UNL     1       5.234  -0.553   0.416  1.00  0.00     0.127 C 
BRANCH  25  26
HETATM   26  N1  UNL     1       5.243   0.889   0.258  1.00  0.00    -0.361 N 
HETATM   27  C2  UNL     1       6.543   1.406   0.525  1.00  0.00     0.213 C 
HETATM   28  C1  UNL     1       6.884   2.858   0.449  1.00  0.00     0.117 C 
HETATM   29  O1  UNL     1       7.468   0.588   0.847  1.00  0.00    -0.274 OA
HETATM   30  H4  UNL     1       4.562   1.636   0.004  1.00  0.00     0.162 HD
ENDBRANCH  25  26
ENDBRANCH  22  25
ENDBRANCH  17  19
ENDBRANCH   1  17
TORSDOF 4
