REMARK  5 active torsions:
REMARK  status: ('A' for Active; 'I' for Inactive)
REMARK    1  A    between atoms: C3_3  and  N1_5 
REMARK    2  A    between atoms: N1_5  and  C4_6 
REMARK    3  A    between atoms: C6_9  and  N3_10 
REMARK    4  A    between atoms: N3_10  and  C7_11 
REMARK    5  A    between atoms: C7_11  and  C8_12 
ROOT
HETATM    1  C4  UNL     1       2.757  -0.333  -0.445  1.00  0.00     0.124 C 
HETATM    2  N2  UNL     1       1.883   0.565  -0.656  1.00  0.00    -0.267 NA
HETATM    3  C5  UNL     1       0.473   0.591  -0.884  1.00  0.00     0.209 C 
HETATM    4  C6  UNL     1      -0.277  -0.550  -0.352  1.00  0.00     0.046 C 
HETATM    5  C13 UNL     1       0.012  -1.808  -0.043  1.00  0.00     0.068 C 
HETATM    6  C14 UNL     1      -1.024  -2.665   0.473  1.00  0.00     0.101 C 
HETATM    7  N5  UNL     1      -1.835  -3.353   0.899  1.00  0.00    -0.191 NA
HETATM    8  C15 UNL     1       1.336  -2.386  -0.197  1.00  0.00     0.028 C 
HETATM    9  C16 UNL     1       2.517  -1.768  -0.370  1.00  0.00     0.052 C 
ENDROOT
BRANCH   4  10
HETATM   10  N3  UNL     1      -1.648  -0.204  -0.117  1.00  0.00    -0.385 N 
HETATM   11  H8  UNL     1      -1.686   0.294   0.803  1.00  0.00     0.159 HD
BRANCH  10  12
HETATM   12  C7  UNL     1      -2.834  -0.439  -0.914  1.00  0.00     0.178 C 
BRANCH  12  13
HETATM   13  C8  UNL     1      -4.055   0.117  -0.241  1.00  0.00     0.052 A 
HETATM   14  C9  UNL     1      -4.834  -0.616   0.639  1.00  0.00     0.032 A 
HETATM   15  C10 UNL     1      -5.937  -0.012   1.204  1.00  0.00     0.046 A 
HETATM   16  C11 UNL     1      -6.287   1.289   0.923  1.00  0.00     0.133 A 
HETATM   17  F2  UNL     1      -7.365   1.924   1.456  1.00  0.00    -0.205 F 
HETATM   18  C12 UNL     1      -5.468   1.972   0.033  1.00  0.00     0.159 A 
HETATM   19  N4  UNL     1      -4.401   1.384  -0.512  1.00  0.00    -0.261 NA
ENDBRANCH  12  13
ENDBRANCH  10  12
ENDBRANCH   4  10
BRANCH   1  20
HETATM   20  N1  UNL     1       4.086   0.086  -0.266  1.00  0.00    -0.318 N 
HETATM   21  H5  UNL     1       4.834  -0.616  -0.399  1.00  0.00     0.169 HD
BRANCH  20  22
HETATM   22  C3  UNL     1       4.385   1.431   0.086  1.00  0.00     0.185 C 
HETATM   23  C2  UNL     1       5.645   1.781   0.278  1.00  0.00     0.030 C 
HETATM   24  C1  UNL     1       6.775   0.824   0.142  1.00  0.00     0.041 C 
HETATM   25  F1  UNL     1       3.388   2.335   0.221  1.00  0.00    -0.186 F 
ENDBRANCH  20  22
ENDBRANCH   1  20
TORSDOF 5
