REMARK  4 active torsions:
REMARK  status: ('A' for Active; 'I' for Inactive)
REMARK    1  A    between atoms: C2_2  and  O1_3 
REMARK    2  A    between atoms: O1_3  and  O2_4 
REMARK    3  A    between atoms: O2_4  and  C3_5 
REMARK    4  A    between atoms: C3_5  and  C4_7 
ROOT
HETATM    1  C4  UNL     1       0.680  -0.141  -1.483  1.00  0.00     0.053 A 
HETATM    2  C5  UNL     1      -0.479  -0.225  -0.856  1.00  0.00     0.018 A 
HETATM    3  C6  UNL     1      -1.592  -0.555  -1.771  1.00  0.00     0.074 A 
HETATM    4  N1  UNL     1      -1.053  -0.657  -2.924  1.00  0.00    -0.283 NA
HETATM    5  C7  UNL     1       0.371  -0.425  -2.906  1.00  0.00     0.195 A 
HETATM    6  C8  UNL     1      -2.830  -0.628  -1.004  1.00  0.00     0.005 A 
HETATM    7  C9  UNL     1      -4.146  -0.890  -1.308  1.00  0.00     0.014 A 
HETATM    8  C10 UNL     1      -5.060  -0.863  -0.249  1.00  0.00     0.002 A 
HETATM    9  C11 UNL     1      -4.678  -0.588   1.050  1.00  0.00     0.012 A 
HETATM   10  C12 UNL     1      -3.348  -0.320   1.373  1.00  0.00    -0.024 A 
HETATM   11  C13 UNL     1      -2.887  -0.037   2.642  1.00  0.00     0.012 A 
HETATM   12  C14 UNL     1      -1.521   0.205   2.773  1.00  0.00     0.002 A 
HETATM   13  C15 UNL     1      -0.676   0.162   1.685  1.00  0.00     0.013 A 
HETATM   14  C16 UNL     1      -1.149  -0.121   0.428  1.00  0.00    -0.011 A 
HETATM   15  C17 UNL     1      -2.496  -0.358   0.306  1.00  0.00    -0.002 A 
ENDROOT
BRANCH   1  16
HETATM   16  C3  UNL     1       2.009   0.158  -0.968  1.00  0.00     0.321 C 
HETATM   17  O3  UNL     1       2.956   0.175  -1.792  1.00  0.00    -0.257 OA
BRANCH  16  18
HETATM   18  O2  UNL     1       2.420   0.433   0.301  1.00  0.00    -0.154 OA
BRANCH  18  19
HETATM   19  O1  UNL     1       3.635   0.692   0.686  1.00  0.00    -0.233 OA
BRANCH  19  20
HETATM   20  C2  UNL     1       4.685   0.252  -0.061  1.00  0.00     0.206 C 
HETATM   21  C1  UNL     1       5.935   0.341   0.819  1.00  0.00     0.036 C 
ENDBRANCH  19  20
ENDBRANCH  18  19
ENDBRANCH  16  18
ENDBRANCH   1  16
TORSDOF 4
