REMARK  6 active torsions:
REMARK  status: ('A' for Active; 'I' for Inactive)
REMARK    1  A    between atoms: C5_5  and  C6_6 
REMARK       I    between atoms: C6_6  and  N1_8 
REMARK    2  A    between atoms: N1_8  and  C7_9 
REMARK    3  A    between atoms: C7_9  and  C8_10 
REMARK    4  A    between atoms: C8_10  and  O2_11 
REMARK    5  A    between atoms: C10_13  and  N2_14 
REMARK    6  A    between atoms: C13_19  and  C14_20 
ROOT
HETATM    1  C1  UNL     1       0.649  -4.009  -1.055  1.00  0.00     0.050 C 
HETATM    2  C2  UNL     1       1.209  -2.684  -0.721  1.00  0.00    -0.035 A 
HETATM    3  C3  UNL     1       2.558  -2.576  -0.465  1.00  0.00     0.010 A 
HETATM    4  C4  UNL     1       3.151  -1.381  -0.124  1.00  0.00     0.017 A 
HETATM    5  C5  UNL     1       2.336  -0.274  -0.047  1.00  0.00     0.034 A 
HETATM    6  C9  UNL     1       0.990  -0.398  -0.307  1.00  0.00     0.047 A 
HETATM    7  C10 UNL     1       0.360  -1.602  -0.655  1.00  0.00     0.042 A 
ENDROOT
BRANCH   7   8
HETATM    8  N2  UNL     1      -1.032  -1.532  -0.924  1.00  0.00    -0.339 N 
HETATM    9  C11 UNL     1      -1.684  -2.495  -1.741  1.00  0.00     0.206 C 
HETATM   10  N3  UNL     1      -2.890  -3.008  -1.785  1.00  0.00    -0.259 NA
HETATM   11  C12 UNL     1      -3.941  -2.599  -0.834  1.00  0.00     0.318 C 
HETATM   12  O3  UNL     1      -3.990  -1.201  -0.878  1.00  0.00    -0.359 OA
HETATM   13  C13 UNL     1      -3.152  -0.598   0.003  1.00  0.00     0.178 C 
HETATM   14  C20 UNL     1      -1.739  -0.406  -0.345  1.00  0.00     0.167 C 
BRANCH  13  15
HETATM   15  C14 UNL     1      -3.736   0.775   0.237  1.00  0.00     0.011 A 
HETATM   16  C15 UNL     1      -4.287   1.426  -0.867  1.00  0.00     0.016 A 
HETATM   17  C16 UNL     1      -4.839   2.687  -0.726  1.00  0.00     0.043 A 
HETATM   18  C17 UNL     1      -4.829   3.264   0.504  1.00  0.00     0.119 A 
HETATM   19  F1  UNL     1      -5.390   4.512   0.582  1.00  0.00    -0.206 F 
HETATM   20  C18 UNL     1      -4.295   2.655   1.619  1.00  0.00     0.085 A 
HETATM   21  C19 UNL     1      -3.745   1.397   1.471  1.00  0.00     0.128 A 
HETATM   22  F2  UNL     1      -3.202   0.734   2.518  1.00  0.00    -0.205 F 
ENDBRANCH  13  15
ENDBRANCH   7   8
BRANCH   5  23
HETATM   23  C6  UNL     1       2.924   1.010   0.311  1.00  0.00     0.251 C 
HETATM   24  O1  UNL     1       2.210   2.042   0.391  1.00  0.00    -0.268 OA
HETATM   25  N1  UNL     1       4.304   1.174   0.584  1.00  0.00    -0.355 N 
HETATM   26  H6  UNL     1       4.966   0.399   0.546  1.00  0.00     0.162 HD
BRANCH  25  27
HETATM   27  C7  UNL     1       4.691   2.551   0.925  1.00  0.00     0.148 C 
BRANCH  27  28
HETATM   28  C8  UNL     1       6.182   2.533   1.182  1.00  0.00     0.183 C 
BRANCH  28  29
HETATM   29  O2  UNL     1       6.682   3.777   1.517  1.00  0.00    -0.399 OA
HETATM   30  H11 UNL     1       7.494   4.027   1.040  1.00  0.00     0.209 HD
ENDBRANCH  28  29
ENDBRANCH  27  28
ENDBRANCH  25  27
ENDBRANCH   5  23
TORSDOF 6
